ver_1.2
     RDKit          2D

  1  0  0  0  0  0  0  0  0  0999 V2000
    0.0000    0.0000    0.0000 C   0  0  0  0  0  0  0  0  0  0  0  0
M  END
>  <ref_mols>  (1) 
Two inspiration fragments, order of X0104_0A (Lig A), X0104_1A (LigB), used for enumerating the compound designs from combisoak data

>  <ref_url>  (1) 
https://docs.google.com/document/d/1_MsEhKuhqbCONTLeQ_KZyKYpMG5UmMyJb8FyxqoWOmA/edit

>  <submitter_name>  (1) 
MCR

>  <submitter_email>  (1) 
bajusz.david@ttk.hu

>  <submitter_institution>  (1) 
Medicinal Chemistry Research Group - Budapest

>  <generation_date>  (1) 
2022-03-23

>  <method>  (1) 
1A-Combi104

>  <Glide GScore>  (1) 
Glide GScore

>  <RMSLigA>  (1) 
RMS between docking pose and ligand A

>  <RMSLigB>  (1) 
RMS between docking pose and ligand B

$$$$
Combi104_000030
     RDKit          3D

 33 35  0  0  1  0  0  0  0  0999 V2000
  -10.0722   16.7003    1.1991 C   0  0  0  0  0  0  0  0  0  0  0  0
   -9.8366   16.0675    2.9094 S   0  0  0  0  0  0  0  0  0  0  0  0
  -11.1750   15.7929    3.4589 O   0  0  0  0  0  0  0  0  0  0  0  0
   -8.9516   17.0066    3.6126 O   0  0  0  0  0  0  0  0  0  0  0  0
   -8.9501   14.4539    2.6743 C   0  0  0  0  0  0  0  0  0  0  0  0
   -7.7501   14.5820    1.7877 C   0  0  0  0  0  0  0  0  0  0  0  0
   -7.8204   14.5843    0.4547 N   0  0  0  0  0  0  0  0  0  0  0  0
   -6.4933   14.7255    0.0776 C   0  0  0  0  0  0  0  0  0  0  0  0
   -5.9075   14.8350   -1.2029 C   0  0  0  0  0  0  0  0  0  0  0  0
   -4.5123   15.0080   -1.3572 C   0  0  0  0  0  0  0  0  0  0  0  0
   -3.9787   15.1852   -2.7221 C   0  0  0  0  0  0  0  0  0  0  0  0
   -2.6902   15.3989   -3.0508 C   0  0  0  0  0  0  0  0  0  0  0  0
   -2.2566   15.6514   -4.4386 C   0  0  0  0  0  0  0  0  0  0  0  0
   -3.0280   15.6877   -5.3985 O   0  0  0  0  0  0  0  0  0  0  0  0
   -0.7704   15.9625   -4.6640 C   0  0  0  0  0  0  0  0  0  0  0  0
    0.1888   14.8248   -4.2553 C   0  0  0  0  0  0  0  0  0  0  0  0
   -0.0324   13.5325   -5.0600 C   0  0  0  0  0  0  0  0  0  0  0  0
    0.9021   12.3457   -4.7558 C   0  0  2  0  0  0  0  0  0  0  0  0
    0.4761   11.2184   -5.5851 N   0  0  0  0  0  0  0  0  0  0  0  0
    0.7118   11.0345   -6.8960 C   0  0  0  0  0  0  0  0  0  0  0  0
    1.3915   11.8071   -7.5705 O   0  0  0  0  0  0  0  0  0  0  0  0
    0.0920    9.7977   -7.5612 C   0  0  0  0  0  0  0  0  0  0  0  0
    0.6442    8.4697   -7.0126 C   0  0  0  0  0  0  0  0  0  0  0  0
   -0.5184    7.4903   -7.1492 C   0  0  0  0  0  0  0  0  0  0  0  0
   -1.7394    8.3396   -6.7999 C   0  0  0  0  0  0  0  0  0  0  0  0
   -1.4451    9.7135   -7.4168 C   0  0  0  0  0  0  0  0  0  0  0  0
    0.9760   11.9285   -3.2738 C   0  0  0  0  0  0  0  0  0  0  0  0
    0.3019   10.9369   -2.9125 O   0  0  0  0  0  0  0  0  0  0  0  0
    1.7068   12.6071   -2.5128 O   0  0  0  0  0  0  0  0  0  0  0  0
   -3.6897   15.0562   -0.2024 C   0  0  0  0  0  0  0  0  0  0  0  0
   -4.2510   14.9451    1.0858 C   0  0  0  0  0  0  0  0  0  0  0  0
   -5.6399   14.7867    1.2120 C   0  0  0  0  0  0  0  0  0  0  0  0
   -6.5028   14.6655    2.2875 N   0  0  0  0  0  0  0  0  0  0  0  0
  1  2  1  0
  2  3  2  0
  2  4  2  0
  2  5  1  0
  5  6  1  0
  6 33  1  0
  6  7  2  0
  7  8  1  0
  8 32  2  0
  8  9  1  0
  9 10  2  0
 10 11  1  0
 10 30  1  0
 11 12  2  3
 12 13  1  0
 13 14  2  0
 13 15  1  0
 15 16  1  0
 16 17  1  0
 18 17  1  1
 18 19  1  0
 18 27  1  0
 19 20  1  0
 20 21  2  0
 20 22  1  0
 22 26  1  0
 22 23  1  0
 23 24  1  0
 24 25  1  0
 25 26  1  0
 27 28  2  0
 27 29  1  0
 30 31  2  0
 31 32  1  0
 32 33  1  0
M  CHG  1  29  -1
M  END
>  <original SMILES>  (2) 
CS(=O)(=O)Cc1nc2cc(C=CC(=O)CCC[C@H](NC(=O)C3CCCC3)C(=O)[O-])ccc2[nH]1

>  <ref_pdb>  (2) 
Combi104.pdb

>  <ref_mols>  (2) 
x0104_0A,x0104_1A

>  <Glide GScore>  (2) 
-7.62555473075518

>  <RMSLigA>  (2) 
0.684669909993234

>  <RMSLigB>  (2) 
0.808188955098849

$$$$
Combi104_000066
     RDKit          3D

 32 34  0  0  1  0  0  0  0  0999 V2000
  -10.1769   16.6975    1.2409 C   0  0  0  0  0  0  0  0  0  0  0  0
   -9.9753   16.0589    2.9539 S   0  0  0  0  0  0  0  0  0  0  0  0
  -11.3235   15.8019    3.4877 O   0  0  0  0  0  0  0  0  0  0  0  0
   -9.0800   16.9848    3.6638 O   0  0  0  0  0  0  0  0  0  0  0  0
   -9.1263   14.4256    2.7323 C   0  0  0  0  0  0  0  0  0  0  0  0
   -7.9501   14.5177    1.8169 C   0  0  0  0  0  0  0  0  0  0  0  0
   -6.6923   14.6073    2.2873 N   0  0  0  0  0  0  0  0  0  0  0  0
   -5.8568   14.6904    1.1869 C   0  0  0  0  0  0  0  0  0  0  0  0
   -4.4702   14.8284    1.0236 C   0  0  0  0  0  0  0  0  0  0  0  0
   -3.9300   14.8803   -0.2736 C   0  0  0  0  0  0  0  0  0  0  0  0
   -2.5479   15.0069   -0.4135 N   0  0  0  0  0  0  0  0  0  0  0  0
   -1.8171   15.0059   -1.6018 N   0  0  0  0  0  0  0  0  0  0  0  0
   -0.1381   14.7189   -1.4544 S   0  0  0  0  0  0  0  0  0  0  0  0
    0.4128   15.3320   -3.0840 C   0  0  0  0  0  0  0  0  0  0  0  0
   -0.4569   14.9010   -4.2847 C   0  0  0  0  0  0  0  0  0  0  0  0
   -0.7487   13.3921   -4.4470 C   0  0  0  0  0  0  0  0  0  0  0  0
    0.4881   12.4837   -4.6425 C   0  0  0  0  0  0  0  0  0  0  0  0
    0.1106   11.3213   -5.4465 N   0  0  0  0  0  0  0  0  0  0  0  0
    0.5073   11.0704   -6.7050 C   0  0  0  0  0  0  0  0  0  0  0  0
    1.2677   11.8072   -7.3334 O   0  0  0  0  0  0  0  0  0  0  0  0
   -0.0153    9.7962   -7.3773 C   0  0  0  0  0  0  0  0  0  0  0  0
    0.4002    8.4989   -6.6683 C   0  0  0  0  0  0  0  0  0  0  0  0
   -0.6599    7.4985   -7.1244 C   0  0  0  0  0  0  0  0  0  0  0  0
   -1.9548    8.3107   -7.0780 C   0  0  0  0  0  0  0  0  0  0  0  0
   -1.5532    9.7299   -7.5106 C   0  0  0  0  0  0  0  0  0  0  0  0
    1.0882   12.0046   -3.3120 C   0  0  0  0  0  0  0  0  0  0  0  0
    0.5082   11.0696   -2.7111 O   0  0  0  0  0  0  0  0  0  0  0  0
    2.1077   12.6032   -2.9017 O   0  0  0  0  0  0  0  0  0  0  0  0
   -4.7863   14.8021   -1.3966 C   0  0  0  0  0  0  0  0  0  0  0  0
   -6.1805   14.6657   -1.2238 C   0  0  0  0  0  0  0  0  0  0  0  0
   -6.7373   14.6070    0.0725 C   0  0  0  0  0  0  0  0  0  0  0  0
   -8.0541   14.4869    0.4862 N   0  0  0  0  0  0  0  0  0  0  0  0
  1  2  1  0
  2  3  2  0
  2  4  2  0
  2  5  1  0
  5  6  1  0
  6 32  2  0
  6  7  1  0
  7  8  1  0
  8 31  2  0
  8  9  1  0
  9 10  2  0
 10 11  1  0
 10 29  1  0
 11 12  1  0
 12 13  1  0
 13 14  1  0
 14 15  1  0
 15 16  1  0
 16 17  1  0
 17 18  1  0
 17 26  1  0
 18 19  1  0
 19 20  2  0
 19 21  1  0
 21 25  1  0
 21 22  1  0
 22 23  1  0
 23 24  1  0
 24 25  1  0
 26 27  2  0
 26 28  1  0
 29 30  2  0
 30 31  1  0
 31 32  1  0
M  CHG  1  28  -1
M  END
>  <original SMILES>  (3) 
CS(=O)(=O)Cc1nc2ccc(NNSCCCC(NC(=O)C3CCCC3)C(=O)[O-])cc2[nH]1

>  <ref_pdb>  (3) 
Combi104.pdb

>  <ref_mols>  (3) 
x0104_0A,x0104_1A

>  <Glide GScore>  (3) 
-6.95315436097409

>  <RMSLigA>  (3) 
0.853866472977145

>  <RMSLigB>  (3) 
0.855893042116424

$$$$
Combi104_000001
     RDKit          3D

 31 33  0  0  1  0  0  0  0  0999 V2000
  -10.1222   16.6904    1.2466 C   0  0  0  0  0  0  0  0  0  0  0  0
   -9.9267   16.0187    2.9478 S   0  0  0  0  0  0  0  0  0  0  0  0
  -11.2796   15.8010    3.4878 O   0  0  0  0  0  0  0  0  0  0  0  0
   -8.9950   16.8986    3.6669 O   0  0  0  0  0  0  0  0  0  0  0  0
   -9.1280   14.3663    2.6842 C   0  0  0  0  0  0  0  0  0  0  0  0
   -7.9336   14.4683    1.7932 C   0  0  0  0  0  0  0  0  0  0  0  0
   -8.0076   14.4141    0.4615 N   0  0  0  0  0  0  0  0  0  0  0  0
   -6.6906   14.6072    0.0754 C   0  0  0  0  0  0  0  0  0  0  0  0
   -6.1118   14.6867   -1.2100 C   0  0  0  0  0  0  0  0  0  0  0  0
   -4.7300   14.9299   -1.3522 C   0  0  0  0  0  0  0  0  0  0  0  0
   -4.0293   15.0070   -2.9637 S   0  0  0  0  0  0  0  0  0  0  0  0
   -2.7248   13.4584   -3.0366 S   0  0  0  0  0  0  0  0  0  0  0  0
   -1.1429   14.1882   -2.5306 C   0  0  0  0  0  0  0  0  0  0  0  0
   -0.2789   14.6568   -3.7218 C   0  0  0  0  0  0  0  0  0  0  0  0
   -0.1071   13.6512   -4.8864 C   0  0  0  0  0  0  0  0  0  0  0  0
    0.7780   12.3874   -4.6911 C   0  0  0  0  0  0  0  0  0  0  0  0
    0.2689   11.3081   -5.5349 N   0  0  0  0  0  0  0  0  0  0  0  0
    0.5386   11.0990   -6.8321 C   0  0  0  0  0  0  0  0  0  0  0  0
    1.3076   11.8071   -7.4819 O   0  0  0  0  0  0  0  0  0  0  0  0
   -0.1601    9.9155   -7.5138 C   0  0  0  0  0  0  0  0  0  0  0  0
    0.1672    8.5507   -6.8700 C   0  0  0  0  0  0  0  0  0  0  0  0
   -1.1534    7.7818   -6.8738 C   0  0  0  0  0  0  0  0  0  0  0  0
   -2.2099    8.8629   -6.6686 C   0  0  0  0  0  0  0  0  0  0  0  0
   -1.6999   10.0419   -7.5008 C   0  0  0  0  0  0  0  0  0  0  0  0
    1.0116   11.8824   -3.2584 C   0  0  0  0  0  0  0  0  0  0  0  0
    0.4826   10.8013   -2.9098 O   0  0  0  0  0  0  0  0  0  0  0  0
    1.7080   12.6070   -2.5121 O   0  0  0  0  0  0  0  0  0  0  0  0
   -3.9097   15.1011   -0.2182 C   0  0  0  0  0  0  0  0  0  0  0  0
   -4.4629   15.0075    1.0702 C   0  0  0  0  0  0  0  0  0  0  0  0
   -5.8396   14.7619    1.2065 C   0  0  0  0  0  0  0  0  0  0  0  0
   -6.6922   14.6237    2.2875 N   0  0  0  0  0  0  0  0  0  0  0  0
  1  2  1  0
  2  3  2  0
  2  4  2  0
  2  5  1  0
  5  6  1  0
  6 31  1  0
  6  7  2  0
  7  8  1  0
  8 30  2  0
  8  9  1  0
  9 10  2  0
 10 11  1  0
 10 28  1  0
 11 12  1  0
 12 13  1  0
 13 14  1  0
 14 15  1  0
 15 16  1  0
 16 17  1  0
 16 25  1  0
 17 18  1  0
 18 19  2  0
 18 20  1  0
 20 24  1  0
 20 21  1  0
 21 22  1  0
 22 23  1  0
 23 24  1  0
 25 26  2  0
 25 27  1  0
 28 29  2  0
 29 30  1  0
 30 31  1  0
M  CHG  1  27  -1
M  END
>  <original SMILES>  (4) 
CS(=O)(=O)Cc1nc2cc(SSCCCC(NC(=O)C3CCCC3)C(=O)[O-])ccc2[nH]1

>  <ref_pdb>  (4) 
Combi104.pdb

>  <ref_mols>  (4) 
x0104_0A,x0104_1A

>  <Glide GScore>  (4) 
-7.12161280269145

>  <RMSLigA>  (4) 
0.793903007857833

>  <RMSLigB>  (4) 
0.577635494932508

$$$$
Combi104_000096
     RDKit          3D

 32 34  0  0  1  0  0  0  0  0999 V2000
  -10.0485   16.6080    0.9213 C   0  0  0  0  0  0  0  0  0  0  0  0
   -9.8752   15.9435    2.6274 S   0  0  0  0  0  0  0  0  0  0  0  0
  -11.2243   15.5739    3.0887 O   0  0  0  0  0  0  0  0  0  0  0  0
   -9.0922   16.9129    3.4065 O   0  0  0  0  0  0  0  0  0  0  0  0
   -8.8838   14.3880    2.4037 C   0  0  0  0  0  0  0  0  0  0  0  0
   -7.6036   14.6034    1.6550 C   0  0  0  0  0  0  0  0  0  0  0  0
   -7.5297   14.6459    0.3210 N   0  0  0  0  0  0  0  0  0  0  0  0
   -6.1702   14.8056    0.0894 C   0  0  0  0  0  0  0  0  0  0  0  0
   -5.4432   14.9304   -1.1173 C   0  0  0  0  0  0  0  0  0  0  0  0
   -4.0344   15.0958   -1.1042 C   0  0  0  0  0  0  0  0  0  0  0  0
   -3.2322   15.2428   -2.3292 C   0  0  0  0  0  0  0  0  0  0  0  0
   -3.6843   15.1930   -3.5952 C   0  0  0  0  0  0  0  0  0  0  0  0
   -2.7265   15.4154   -5.0781 S   0  0  0  0  0  0  0  0  0  0  0  0
   -1.1259   15.6778   -4.4888 N   0  0  0  0  0  0  0  0  0  0  0  0
   -0.3316   14.5557   -3.9965 C   0  0  0  0  0  0  0  0  0  0  0  0
   -0.2604   13.4119   -5.0195 C   0  0  0  0  0  0  0  0  0  0  0  0
    0.6609   12.2186   -4.6912 C   0  0  2  0  0  0  0  0  0  0  0  0
    0.2697   11.0998   -5.5468 N   0  0  0  0  0  0  0  0  0  0  0  0
    0.5271   10.9714   -6.8578 C   0  0  0  0  0  0  0  0  0  0  0  0
    1.1685   11.8068   -7.4972 O   0  0  0  0  0  0  0  0  0  0  0  0
   -0.0115    9.7232   -7.5679 C   0  0  0  0  0  0  0  0  0  0  0  0
    0.4077    8.3919   -6.9126 C   0  0  0  0  0  0  0  0  0  0  0  0
   -0.7601    7.4482   -7.1897 C   0  0  0  0  0  0  0  0  0  0  0  0
   -1.9855    8.3472   -7.0491 C   0  0  0  0  0  0  0  0  0  0  0  0
   -1.5539    9.6917   -7.6485 C   0  0  0  0  0  0  0  0  0  0  0  0
    0.7365   11.7812   -3.2156 C   0  0  0  0  0  0  0  0  0  0  0  0
    0.2408   10.6719   -2.9126 O   0  0  0  0  0  0  0  0  0  0  0  0
    1.3130   12.5489   -2.4087 O   0  0  0  0  0  0  0  0  0  0  0  0
   -3.3521   15.1321    0.1322 C   0  0  0  0  0  0  0  0  0  0  0  0
   -4.0538   15.0087    1.3427 C   0  0  0  0  0  0  0  0  0  0  0  0
   -5.4474   14.8510    1.3120 C   0  0  0  0  0  0  0  0  0  0  0  0
   -6.4181   14.7038    2.2874 N   0  0  0  0  0  0  0  0  0  0  0  0
  1  2  1  0
  2  3  2  0
  2  4  2  0
  2  5  1  0
  5  6  1  0
  6 32  1  0
  6  7  2  0
  7  8  1  0
  8 31  2  0
  8  9  1  0
  9 10  2  0
 10 11  1  0
 10 29  1  0
 11 12  2  3
 12 13  1  0
 13 14  1  0
 14 15  1  0
 15 16  1  0
 17 16  1  1
 17 18  1  0
 17 26  1  0
 18 19  1  0
 19 20  2  0
 19 21  1  0
 21 25  1  0
 21 22  1  0
 22 23  1  0
 23 24  1  0
 24 25  1  0
 26 27  2  0
 26 28  1  0
 29 30  2  0
 30 31  1  0
 31 32  1  0
M  CHG  1  28  -1
M  END
>  <original SMILES>  (5) 
CS(=O)(=O)Cc1nc2cc(C=CSNCC[C@H](NC(=O)C3CCCC3)C(=O)[O-])ccc2[nH]1

>  <ref_pdb>  (5) 
Combi104.pdb

>  <ref_mols>  (5) 
x0104_0A,x0104_1A

>  <Glide GScore>  (5) 
-7.15882014876887

>  <RMSLigA>  (5) 
0.539594272194793

>  <RMSLigB>  (5) 
0.738130060709285

$$$$
Combi104_000044
     RDKit          3D

 32 34  0  0  1  0  0  0  0  0999 V2000
  -10.1525   16.7430    1.4075 C   0  0  0  0  0  0  0  0  0  0  0  0
   -9.9456   16.0139    3.0835 S   0  0  0  0  0  0  0  0  0  0  0  0
  -11.2950   15.8066    3.6362 O   0  0  0  0  0  0  0  0  0  0  0  0
   -8.9832   16.8507    3.8141 O   0  0  0  0  0  0  0  0  0  0  0  0
   -9.1900   14.3519    2.7650 C   0  0  0  0  0  0  0  0  0  0  0  0
   -8.0228   14.4398    1.8377 C   0  0  0  0  0  0  0  0  0  0  0  0
   -8.1466   14.4652    0.5109 N   0  0  0  0  0  0  0  0  0  0  0  0
   -6.8334   14.5928    0.0929 C   0  0  0  0  0  0  0  0  0  0  0  0
   -6.2996   14.7117   -1.2023 C   0  0  0  0  0  0  0  0  0  0  0  0
   -4.9100   14.8514   -1.3772 C   0  0  0  0  0  0  0  0  0  0  0  0
   -4.2714   15.0070   -2.9935 S   0  0  0  0  0  0  0  0  0  0  0  0
   -4.9028   13.5793   -3.9169 C   0  0  0  0  0  0  0  0  0  0  0  0
   -3.7770   12.6303   -4.3385 C   0  0  0  0  0  0  0  0  0  0  0  0
   -2.6922   13.3853   -5.5849 S   0  0  0  0  0  0  0  0  0  0  0  0
   -1.4428   14.2402   -4.5621 C   0  0  0  0  0  0  0  0  0  0  0  0
   -0.0500   13.6031   -4.6416 C   0  0  0  0  0  0  0  0  0  0  0  0
   -0.0224   12.1326   -4.1321 C   0  0  0  0  0  0  0  0  0  0  0  0
   -0.1419   11.1021   -5.1718 N   0  0  0  0  0  0  0  0  0  0  0  0
    0.4740   11.0072   -6.3640 C   0  0  0  0  0  0  0  0  0  0  0  0
    1.3080   11.8082   -6.7791 O   0  0  0  0  0  0  0  0  0  0  0  0
    0.0925    9.8110   -7.2472 C   0  0  0  0  0  0  0  0  0  0  0  0
    0.1026    8.4530   -6.5105 C   0  0  0  0  0  0  0  0  0  0  0  0
   -1.3460    7.9593   -6.5145 C   0  0  0  0  0  0  0  0  0  0  0  0
   -1.9582    8.5789   -7.7675 C   0  0  0  0  0  0  0  0  0  0  0  0
   -1.3156    9.9632   -7.8599 C   0  0  0  0  0  0  0  0  0  0  0  0
    0.9167   11.7606   -2.9742 C   0  0  0  0  0  0  0  0  0  0  0  0
    0.7891   10.6070   -2.5127 O   0  0  0  0  0  0  0  0  0  0  0  0
    1.7077   12.6138   -2.5135 O   0  0  0  0  0  0  0  0  0  0  0  0
   -4.0305   14.8850   -0.2766 C   0  0  0  0  0  0  0  0  0  0  0  0
   -4.5448   14.7611    1.0265 C   0  0  0  0  0  0  0  0  0  0  0  0
   -5.9316   14.6159    1.1935 C   0  0  0  0  0  0  0  0  0  0  0  0
   -6.7565   14.4873    2.2887 N   0  0  0  0  0  0  0  0  0  0  0  0
  1  2  1  0
  2  3  2  0
  2  4  2  0
  2  5  1  0
  5  6  1  0
  6 32  1  0
  6  7  2  0
  7  8  1  0
  8 31  2  0
  8  9  1  0
  9 10  2  0
 10 11  1  0
 10 29  1  0
 11 12  1  0
 12 13  1  0
 13 14  1  0
 14 15  1  0
 15 16  1  0
 16 17  1  0
 17 18  1  0
 17 26  1  0
 18 19  1  0
 19 20  2  0
 19 21  1  0
 21 25  1  0
 21 22  1  0
 22 23  1  0
 23 24  1  0
 24 25  1  0
 26 27  2  0
 26 28  1  0
 29 30  2  0
 30 31  1  0
 31 32  1  0
M  CHG  1  28  -1
M  END
>  <original SMILES>  (6) 
CS(=O)(=O)Cc1nc2cc(SCCSCCC(NC(=O)C3CCCC3)C(=O)[O-])ccc2[nH]1

>  <ref_pdb>  (6) 
Combi104.pdb

>  <ref_mols>  (6) 
x0104_0A,x0104_1A

>  <Glide GScore>  (6) 
-6.36175783948072

>  <RMSLigA>  (6) 
0.903909245255454

>  <RMSLigB>  (6) 
0.673679212552692

$$$$
