ver_1.2
     RDKit          2D

  1  0  0  0  0  0  0  0  0  0999 V2000
    0.0000    0.0000    0.0000 C   0  0  0  0  0  0  0  0  0  0  0  0
M  END
>  <ref_mols>  (1) 
Two inspiration fragments, order of X0088_0A (Lig A), X0088_1A (LigB), used for enumerating the compound designs from combisoak data

>  <ref_url>  (1) 
https://docs.google.com/document/d/1_MsEhKuhqbCONTLeQ_KZyKYpMG5UmMyJb8FyxqoWOmA/edit

>  <submitter_name>  (1) 
MCR

>  <submitter_email>  (1) 
bajusz.david@ttk.hu

>  <submitter_institution>  (1) 
Medicinal Chemistry Research Group - Budapest

>  <generation_date>  (1) 
2022-03-25

>  <method>  (1) 
1A-Combi88

>  <Glide GScore>  (1) 
Glide GScore

>  <RMSLigA>  (1) 
RMS between docking pose and ligand A

>  <RMSLigB>  (1) 
RMS between docking pose and ligand B

$$$$
Combi88_000071
     RDKit          3D

 34 37  0  0  1  0  0  0  0  0999 V2000
    0.9711   18.4352   -4.6065 N   0  0  0  0  0  0  0  0  0  0  0  0
   -0.1900   17.8111   -4.4087 C   0  0  0  0  0  0  0  0  0  0  0  0
   -1.1718   18.4441   -4.0381 O   0  0  0  0  0  0  0  0  0  0  0  0
   -0.1996   16.4765   -4.6336 N   0  0  0  0  0  0  0  0  0  0  0  0
    0.9215   15.6670   -5.1101 C   0  0  0  0  0  0  0  0  0  0  0  0
    1.3119   14.6249   -4.0541 C   0  0  0  0  0  0  0  0  0  0  0  0
    0.1047   13.7080   -3.7531 C   0  0  0  0  0  0  0  0  0  0  0  0
    0.4576   12.6984   -2.6534 C   0  0  0  0  0  0  0  0  0  0  0  0
    1.0325   13.1406   -1.6365 O   0  0  0  0  0  0  0  0  0  0  0  0
    0.1646   11.4963   -2.8358 O   0  0  0  0  0  0  0  0  0  0  0  0
   -1.1257   14.5806   -3.3696 C   0  0  0  0  0  0  0  0  0  0  0  0
   -2.4165   13.8278   -3.0983 C   0  0  0  0  0  0  0  0  0  0  0  0
   -2.8601   12.7831   -3.9333 C   0  0  0  0  0  0  0  0  0  0  0  0
   -4.1247   12.2252   -3.6867 C   0  0  0  0  0  0  0  0  0  0  0  0
   -4.8933   12.7323   -2.6220 C   0  0  0  0  0  0  0  0  0  0  0  0
   -4.3664   13.7722   -1.8199 C   0  0  0  0  0  0  0  0  0  0  0  0
   -5.0768   14.2752   -0.6181 C   0  0  0  0  0  0  0  0  0  0  0  0
   -6.4687   14.0927   -0.4455 C   0  0  0  0  0  0  0  0  0  0  0  0
   -7.0503   14.3772    0.8018 C   0  0  0  0  0  0  0  0  0  0  0  0
   -6.2212   14.8442    1.8422 C   0  0  0  0  0  0  0  0  0  0  0  0
   -6.6823   15.0387    3.1629 N   0  0  0  0  0  0  0  0  0  0  0  0
   -7.8662   15.5476    3.5352 C   0  0  0  0  0  0  0  0  0  0  0  0
   -8.7252   15.9508    2.7497 O   0  0  0  0  0  0  0  0  0  0  0  0
   -7.9957   15.5739    4.8689 N   0  0  0  0  0  0  0  0  0  0  0  0
   -8.9575   16.3144    5.6039 C   0  0  0  0  0  0  0  0  0  0  0  0
   -9.4290   17.5759    5.1660 C   0  0  0  0  0  0  0  0  0  0  0  0
  -10.3106   18.3214    5.9715 C   0  0  0  0  0  0  0  0  0  0  0  0
  -10.7497   17.8019    7.2034 C   0  0  0  0  0  0  0  0  0  0  0  0
  -10.2859   16.5459    7.6423 C   0  0  0  0  0  0  0  0  0  0  0  0
   -9.3792   15.8132    6.8528 C   0  0  0  0  0  0  0  0  0  0  0  0
   -4.8608   15.0676    1.5616 C   0  0  0  0  0  0  0  0  0  0  0  0
   -4.3033   14.8077    0.3630 N   0  0  0  0  0  0  0  0  0  0  0  0
   -3.1603   14.3220   -2.0892 N   0  0  0  0  0  0  0  0  0  0  0  0
   -1.3998   15.6636   -4.4319 C   0  0  0  0  0  0  0  0  0  0  0  0
  1  2  1  0
  2  3  2  0
  2  4  1  0
  4 34  1  0
  4  5  1  0
  5  6  1  0
  6  7  1  0
  7  8  1  0
  7 11  1  0
  8  9  2  0
  8 10  1  0
 11 12  1  0
 11 34  1  0
 12 33  1  0
 12 13  2  0
 13 14  1  0
 14 15  2  0
 15 16  1  0
 16 17  1  0
 16 33  2  0
 17 32  1  0
 17 18  2  0
 18 19  1  0
 19 20  2  0
 20 21  1  0
 20 31  1  0
 21 22  1  0
 22 23  2  0
 22 24  1  0
 24 25  1  0
 25 30  1  0
 25 26  2  0
 26 27  1  0
 27 28  2  0
 28 29  1  0
 29 30  2  0
 31 32  2  0
M  CHG  1  10  -1
M  END
>  <original SMILES>  (2) 
NC(=O)N1CCC(C(=O)[O-])C(c2cccc(-c3ccc(NC(=O)Nc4ccccc4)cn3)n2)C1

>  <ref_pdb>  (2) 
Combi88.pdb

>  <ref_mols>  (2) 
x0088_0A

>  <Glide GScore>  (2) 
-9.56344622701107

>  <RMSLigA>  (2) 
0.558825735437824

>  <RMSLigB>  (2) 
0.799564583563819

$$$$
Combi88_000036
     RDKit          3D

 34 37  0  0  1  0  0  0  0  0999 V2000
    1.0916   18.3323   -4.5624 N   0  0  0  0  0  0  0  0  0  0  0  0
   -0.1017   17.7648   -4.4060 C   0  0  0  0  0  0  0  0  0  0  0  0
   -1.0569   18.4441   -4.0426 O   0  0  0  0  0  0  0  0  0  0  0  0
   -0.1662   16.4342   -4.6523 N   0  0  0  0  0  0  0  0  0  0  0  0
    0.9195   15.5806   -5.1385 C   0  0  0  0  0  0  0  0  0  0  0  0
    1.3146   14.5621   -4.0568 C   0  0  0  0  0  0  0  0  0  0  0  0
    0.0964   13.6868   -3.6785 C   0  0  0  0  0  0  0  0  0  0  0  0
    0.4367   12.7439   -2.5110 C   0  0  0  0  0  0  0  0  0  0  0  0
    0.9705   13.2444   -1.4978 O   0  0  0  0  0  0  0  0  0  0  0  0
    0.1709   11.5285   -2.6352 O   0  0  0  0  0  0  0  0  0  0  0  0
   -1.1252   14.5924   -3.3503 C   0  0  0  0  0  0  0  0  0  0  0  0
   -2.4145   13.8496   -3.0602 C   0  0  0  0  0  0  0  0  0  0  0  0
   -2.8382   12.9741   -3.9718 N   0  0  0  0  0  0  0  0  0  0  0  0
   -4.0627   12.4501   -3.7852 C   0  0  0  0  0  0  0  0  0  0  0  0
   -4.8801   12.8431   -2.7119 C   0  0  0  0  0  0  0  0  0  0  0  0
   -4.3473   13.7966   -1.8147 C   0  0  0  0  0  0  0  0  0  0  0  0
   -5.0693   14.2702   -0.6080 C   0  0  0  0  0  0  0  0  0  0  0  0
   -6.4543   14.0448   -0.4317 C   0  0  0  0  0  0  0  0  0  0  0  0
   -7.0436   14.3342    0.8111 C   0  0  0  0  0  0  0  0  0  0  0  0
   -6.2272   14.8444    1.8402 C   0  0  0  0  0  0  0  0  0  0  0  0
   -6.6851   15.0319    3.1624 N   0  0  0  0  0  0  0  0  0  0  0  0
   -7.8754   15.5178    3.5370 C   0  0  0  0  0  0  0  0  0  0  0  0
   -8.7447   15.9029    2.7521 O   0  0  0  0  0  0  0  0  0  0  0  0
   -8.0029   15.5407    4.8700 N   0  0  0  0  0  0  0  0  0  0  0  0
   -8.9560   16.2871    5.6077 C   0  0  0  0  0  0  0  0  0  0  0  0
   -9.4286   17.5468    5.1648 C   0  0  0  0  0  0  0  0  0  0  0  0
  -10.3081   18.2935    5.9682 C   0  0  0  0  0  0  0  0  0  0  0  0
  -10.7424   17.7815    7.2062 C   0  0  0  0  0  0  0  0  0  0  0  0
  -10.2738   16.5295    7.6510 C   0  0  0  0  0  0  0  0  0  0  0  0
   -9.3707   15.7918    6.8613 C   0  0  0  0  0  0  0  0  0  0  0  0
   -4.8757   15.1053    1.5549 C   0  0  0  0  0  0  0  0  0  0  0  0
   -4.3138   14.8446    0.3625 N   0  0  0  0  0  0  0  0  0  0  0  0
   -3.1135   14.3034   -2.0254 N   0  0  0  0  0  0  0  0  0  0  0  0
   -1.3843   15.6561   -4.4354 C   0  0  0  0  0  0  0  0  0  0  0  0
  1  2  1  0
  2  3  2  0
  2  4  1  0
  4 34  1  0
  4  5  1  0
  5  6  1  0
  6  7  1  0
  7  8  1  0
  7 11  1  0
  8  9  2  0
  8 10  1  0
 11 12  1  0
 11 34  1  0
 12 33  1  0
 12 13  2  0
 13 14  1  0
 14 15  2  0
 15 16  1  0
 16 17  1  0
 16 33  2  0
 17 32  1  0
 17 18  2  0
 18 19  1  0
 19 20  2  0
 20 21  1  0
 20 31  1  0
 21 22  1  0
 22 23  2  0
 22 24  1  0
 24 25  1  0
 25 30  1  0
 25 26  2  0
 26 27  1  0
 27 28  2  0
 28 29  1  0
 29 30  2  0
 31 32  2  0
M  CHG  1  10  -1
M  END
>  <original SMILES>  (3) 
NC(=O)N1CCC(C(=O)[O-])C(c2nccc(-c3ccc(NC(=O)Nc4ccccc4)cn3)n2)C1

>  <ref_pdb>  (3) 
Combi88.pdb

>  <ref_mols>  (3) 
x0088_0A

>  <Glide GScore>  (3) 
-9.4672139429536

>  <RMSLigA>  (3) 
0.559518860943155

>  <RMSLigB>  (3) 
0.83686606831181

$$$$
Combi88_000077
     RDKit          3D

 32 34  0  0  1  0  0  0  0  0999 V2000
    0.7861   18.1211   -4.2558 N   0  0  0  0  0  0  0  0  0  0  0  0
   -0.3679   17.4592   -4.2771 C   0  0  0  0  0  0  0  0  0  0  0  0
   -1.4265   18.0440   -4.0368 O   0  0  0  0  0  0  0  0  0  0  0  0
   -0.2707   16.1338   -4.5430 N   0  0  0  0  0  0  0  0  0  0  0  0
    0.9361   15.4340   -4.9955 C   0  0  0  0  0  0  0  0  0  0  0  0
    1.3451   14.4060   -3.9425 C   0  0  0  0  0  0  0  0  0  0  0  0
    0.2157   13.3669   -3.7270 C   0  0  0  0  0  0  0  0  0  0  0  0
    0.5824   12.4258   -2.5618 C   0  0  0  0  0  0  0  0  0  0  0  0
    1.2844   12.8903   -1.6371 O   0  0  0  0  0  0  0  0  0  0  0  0
    0.1708   11.2473   -2.5930 O   0  0  0  0  0  0  0  0  0  0  0  0
   -1.1618   14.0656   -3.4830 C   0  0  0  0  0  0  0  0  0  0  0  0
   -2.3660   13.1061   -3.5551 C   0  0  0  0  0  0  0  0  0  0  0  0
   -2.3507   12.1086   -4.2759 O   0  0  0  0  0  0  0  0  0  0  0  0
   -3.6356   13.4552   -2.7758 C   0  0  0  0  0  0  0  0  0  0  0  0
   -3.4273   14.6142   -1.9829 O   0  0  0  0  0  0  0  0  0  0  0  0
   -4.2374   14.7204   -0.8847 C   0  0  0  0  0  0  0  0  0  0  0  0
   -5.5935   14.3171   -0.8764 C   0  0  0  0  0  0  0  0  0  0  0  0
   -6.3123   14.3974    0.3307 C   0  0  0  0  0  0  0  0  0  0  0  0
   -5.6434   14.8725    1.4789 C   0  0  0  0  0  0  0  0  0  0  0  0
   -6.2294   14.9139    2.7632 N   0  0  0  0  0  0  0  0  0  0  0  0
   -7.4872   15.2442    3.0862 C   0  0  0  0  0  0  0  0  0  0  0  0
   -8.3704   15.5174    2.2708 O   0  0  0  0  0  0  0  0  0  0  0  0
   -7.6539   15.2440    4.4169 N   0  0  0  0  0  0  0  0  0  0  0  0
   -8.6300   15.9351    5.1788 C   0  0  0  0  0  0  0  0  0  0  0  0
   -8.8713   15.4832    6.4923 C   0  0  0  0  0  0  0  0  0  0  0  0
   -9.7947   16.1533    7.3196 C   0  0  0  0  0  0  0  0  0  0  0  0
  -10.4674   17.2960    6.8447 C   0  0  0  0  0  0  0  0  0  0  0  0
  -10.2160   17.7666    5.5419 C   0  0  0  0  0  0  0  0  0  0  0  0
   -9.3044   17.0898    4.7074 C   0  0  0  0  0  0  0  0  0  0  0  0
   -4.3006   15.2684    1.3571 C   0  0  0  0  0  0  0  0  0  0  0  0
   -3.6157   15.2215    0.1996 N   0  0  0  0  0  0  0  0  0  0  0  0
   -1.4180   15.2232   -4.4843 C   0  0  0  0  0  0  0  0  0  0  0  0
  1  2  1  0
  2  3  2  0
  2  4  1  0
  4 32  1  0
  4  5  1  0
  5  6  1  0
  6  7  1  0
  7  8  1  0
  7 11  1  0
  8  9  2  0
  8 10  1  0
 11 12  1  0
 11 32  1  0
 12 13  2  0
 12 14  1  0
 14 15  1  0
 15 16  1  0
 16 31  1  0
 16 17  2  0
 17 18  1  0
 18 19  2  0
 19 20  1  0
 19 30  1  0
 20 21  1  0
 21 22  2  0
 21 23  1  0
 23 24  1  0
 24 29  1  0
 24 25  2  0
 25 26  1  0
 26 27  2  0
 27 28  1  0
 28 29  2  0
 30 31  2  0
M  CHG  1  10  -1
M  END
>  <original SMILES>  (4) 
NC(=O)N1CCC(C(=O)[O-])C(C(=O)COc2ccc(NC(=O)Nc3ccccc3)cn2)C1

>  <ref_pdb>  (4) 
Combi88.pdb

>  <ref_mols>  (4) 
x0088_0A

>  <Glide GScore>  (4) 
-9.37443986116281

>  <RMSLigA>  (4) 
0.48926137226576

>  <RMSLigB>  (4) 
0.583278153697273

$$$$
Combi88_000007
     RDKit          3D

 32 34  0  0  1  0  0  0  0  0999 V2000
   -5.4480   13.9198   -3.2220 C   0  0  0  0  0  0  0  0  0  0  0  0
   -4.5450   13.9761   -1.9959 C   0  0  0  0  0  0  0  0  0  0  0  0
   -3.2251   13.6856   -2.0295 C   0  0  0  0  0  0  0  0  0  0  0  0
   -2.3628   13.2249   -3.1886 C   0  0  0  0  0  0  0  0  0  0  0  0
   -1.1116   14.1229   -3.3479 C   0  0  2  0  0  0  0  0  0  0  0  0
   -1.4024   15.2169   -4.4021 C   0  0  0  0  0  0  0  0  0  0  0  0
   -0.2437   16.1018   -4.5476 N   0  0  0  0  0  0  0  0  0  0  0  0
   -0.3102   17.4316   -4.2968 C   0  0  0  0  0  0  0  0  0  0  0  0
    0.8614   18.0652   -4.2778 N   0  0  0  0  0  0  0  0  0  0  0  0
   -1.3526   18.0396   -4.0519 O   0  0  0  0  0  0  0  0  0  0  0  0
    0.9299   15.3726   -5.0452 C   0  0  0  0  0  0  0  0  0  0  0  0
    1.3549   14.3303   -4.0071 C   0  0  0  0  0  0  0  0  0  0  0  0
    0.1999   13.3475   -3.6824 C   0  0  1  0  0  0  0  0  0  0  0  0
    0.6166   12.4133   -2.5254 C   0  0  0  0  0  0  0  0  0  0  0  0
    1.3686   12.8714   -1.6369 O   0  0  0  0  0  0  0  0  0  0  0  0
    0.1742   11.2442   -2.5250 O   0  0  0  0  0  0  0  0  0  0  0  0
   -5.1796   14.3681   -0.7091 C   0  0  0  0  0  0  0  0  0  0  0  0
   -6.5581   14.1462   -0.4796 C   0  0  0  0  0  0  0  0  0  0  0  0
   -7.0926   14.3889    0.7992 C   0  0  0  0  0  0  0  0  0  0  0  0
   -6.2313   14.8443    1.8190 C   0  0  0  0  0  0  0  0  0  0  0  0
   -6.6407   15.0199    3.1624 N   0  0  0  0  0  0  0  0  0  0  0  0
   -7.8279   15.4637    3.5964 C   0  0  0  0  0  0  0  0  0  0  0  0
   -8.7361   15.8496    2.8578 O   0  0  0  0  0  0  0  0  0  0  0  0
   -7.8953   15.4401    4.9352 N   0  0  0  0  0  0  0  0  0  0  0  0
   -8.8822   16.0447    5.7558 C   0  0  0  0  0  0  0  0  0  0  0  0
   -9.5726   17.2237    5.3782 C   0  0  0  0  0  0  0  0  0  0  0  0
  -10.5124   17.8058    6.2511 C   0  0  0  0  0  0  0  0  0  0  0  0
  -10.7714   17.2162    7.5030 C   0  0  0  0  0  0  0  0  0  0  0  0
  -10.0738   16.0555    7.8900 C   0  0  0  0  0  0  0  0  0  0  0  0
   -9.1238   15.4801    7.0239 C   0  0  0  0  0  0  0  0  0  0  0  0
   -4.8838   15.0756    1.4930 C   0  0  0  0  0  0  0  0  0  0  0  0
   -4.3746   14.8597    0.2650 N   0  0  0  0  0  0  0  0  0  0  0  0
  1  2  1  0
  2  3  2  3
  2 17  1  0
  3  4  1  0
  5  4  1  6
  5 13  1  0
  5  6  1  0
  6  7  1  0
  7  8  1  0
  7 11  1  0
  8  9  1  0
  8 10  2  0
 11 12  1  0
 12 13  1  0
 13 14  1  1
 14 15  2  0
 14 16  1  0
 17 32  1  0
 17 18  2  0
 18 19  1  0
 19 20  2  0
 20 21  1  0
 20 31  1  0
 21 22  1  0
 22 23  2  0
 22 24  1  0
 24 25  1  0
 25 30  1  0
 25 26  2  0
 26 27  1  0
 27 28  2  0
 28 29  1  0
 29 30  2  0
 31 32  2  0
M  CHG  1  16  -1
M  END
>  <original SMILES>  (5) 
CC(=CC[C@@H]1CN(C(N)=O)CC[C@H]1C(=O)[O-])c1ccc(NC(=O)Nc2ccccc2)cn1

>  <ref_pdb>  (5) 
Combi88.pdb

>  <ref_mols>  (5) 
x0088_0A

>  <Glide GScore>  (5) 
-9.4047196140655

>  <RMSLigA>  (5) 
0.585727398427801

>  <RMSLigB>  (5) 
0.634585995924049

$$$$
Combi88_000045
     RDKit          3D

 34 36  0  0  1  0  0  0  0  0999 V2000
   -5.9210   12.0352   -2.4442 C   0  0  0  0  0  0  0  0  0  0  0  0
   -4.6277   12.1054   -3.2644 C   0  0  0  0  0  0  0  0  0  0  0  0
   -3.5590   13.1380   -2.8068 C   0  0  0  0  0  0  0  0  0  0  0  0
   -4.2307   14.8303   -2.6535 S   0  0  0  0  0  0  0  0  0  0  0  0
   -5.0198   14.8748   -1.0808 C   0  0  0  0  0  0  0  0  0  0  0  0
   -6.4223   14.8953   -0.9882 C   0  0  0  0  0  0  0  0  0  0  0  0
   -7.0031   14.8443    0.2902 C   0  0  0  0  0  0  0  0  0  0  0  0
   -6.1558   14.8436    1.4226 C   0  0  0  0  0  0  0  0  0  0  0  0
   -6.6292   14.8095    2.7638 N   0  0  0  0  0  0  0  0  0  0  0  0
   -7.7961   15.2711    3.2425 C   0  0  0  0  0  0  0  0  0  0  0  0
   -8.7248   15.6775    2.5430 O   0  0  0  0  0  0  0  0  0  0  0  0
   -7.8296   15.2441    4.5850 N   0  0  0  0  0  0  0  0  0  0  0  0
   -8.7386   15.9267    5.4389 C   0  0  0  0  0  0  0  0  0  0  0  0
   -8.9278   15.4147    6.7389 C   0  0  0  0  0  0  0  0  0  0  0  0
   -9.8016   16.0571    7.6387 C   0  0  0  0  0  0  0  0  0  0  0  0
  -10.4772   17.2312    7.2522 C   0  0  0  0  0  0  0  0  0  0  0  0
  -10.2766   17.7649    5.9654 C   0  0  0  0  0  0  0  0  0  0  0  0
   -9.4136   17.1165    5.0606 C   0  0  0  0  0  0  0  0  0  0  0  0
   -4.7614   14.8467    1.2052 C   0  0  0  0  0  0  0  0  0  0  0  0
   -4.1921   14.8609   -0.0197 N   0  0  0  0  0  0  0  0  0  0  0  0
   -2.3560   13.1249   -3.7710 C   0  0  0  0  0  0  0  0  0  0  0  0
   -2.3046   12.3287   -4.7107 O   0  0  0  0  0  0  0  0  0  0  0  0
   -1.2260   14.1558   -3.5870 C   0  0  0  0  0  0  0  0  0  0  0  0
   -1.4165   15.2615   -4.6590 C   0  0  0  0  0  0  0  0  0  0  0  0
   -0.2797   16.1839   -4.6676 N   0  0  0  0  0  0  0  0  0  0  0  0
   -0.3878   17.4851   -4.3077 C   0  0  0  0  0  0  0  0  0  0  0  0
    0.7650   18.1490   -4.2362 N   0  0  0  0  0  0  0  0  0  0  0  0
   -1.4489   18.0441   -4.0385 O   0  0  0  0  0  0  0  0  0  0  0  0
    0.9551   15.4891   -5.0413 C   0  0  0  0  0  0  0  0  0  0  0  0
    1.3210   14.5335   -3.9055 C   0  0  0  0  0  0  0  0  0  0  0  0
    0.1913   13.4952   -3.6880 C   0  0  0  0  0  0  0  0  0  0  0  0
    0.4803   12.6576   -2.4353 C   0  0  0  0  0  0  0  0  0  0  0  0
    0.9708   13.2440   -1.4441 O   0  0  0  0  0  0  0  0  0  0  0  0
    0.1735   11.4455   -2.4521 O   0  0  0  0  0  0  0  0  0  0  0  0
  1  2  1  0
  2  3  1  0
  3  4  1  0
  3 21  1  0
  4  5  1  0
  5 20  1  0
  5  6  2  0
  6  7  1  0
  7  8  2  0
  8  9  1  0
  8 19  1  0
  9 10  1  0
 10 11  2  0
 10 12  1  0
 12 13  1  0
 13 18  1  0
 13 14  2  0
 14 15  1  0
 15 16  2  0
 16 17  1  0
 17 18  2  0
 19 20  2  0
 21 22  2  0
 21 23  1  0
 23 31  1  0
 23 24  1  0
 24 25  1  0
 25 26  1  0
 25 29  1  0
 26 27  1  0
 26 28  2  0
 29 30  1  0
 30 31  1  0
 31 32  1  0
 32 33  2  0
 32 34  1  0
M  CHG  1  34  -1
M  END
>  <original SMILES>  (6) 
CCC(Sc1ccc(NC(=O)Nc2ccccc2)cn1)C(=O)C1CN(C(N)=O)CCC1C(=O)[O-]

>  <ref_pdb>  (6) 
Combi88.pdb

>  <ref_mols>  (6) 
x0088_0A

>  <Glide GScore>  (6) 
-9.28043714432007

>  <RMSLigA>  (6) 
0.275043616154215

>  <RMSLigB>  (6) 
0.56870923105932

$$$$
Combi88_000154
     RDKit          3D

 32 34  0  0  1  0  0  0  0  0999 V2000
   -5.2724   13.3447   -2.9285 C   0  0  0  0  0  0  0  0  0  0  0  0
   -4.4778   14.0231   -1.8999 N   0  0  0  0  0  0  0  0  0  0  0  0
   -3.3524   14.6356   -2.2688 N   0  0  0  0  0  0  0  0  0  0  0  0
   -2.3973   13.9614   -2.8081 C   0  0  0  0  0  0  0  0  0  0  0  0
   -1.1165   14.6538   -3.2032 C   0  0  2  0  0  0  0  0  0  0  0  0
   -1.3922   15.6398   -4.3606 C   0  0  0  0  0  0  0  0  0  0  0  0
   -0.1691   16.3911   -4.6487 N   0  0  0  0  0  0  0  0  0  0  0  0
   -0.0860   17.7298   -4.4528 C   0  0  0  0  0  0  0  0  0  0  0  0
    1.1145   18.2734   -4.6316 N   0  0  0  0  0  0  0  0  0  0  0  0
   -1.0292   18.4377   -4.1120 O   0  0  0  0  0  0  0  0  0  0  0  0
    0.8972   15.5105   -5.1414 C   0  0  0  0  0  0  0  0  0  0  0  0
    1.2763   14.4892   -4.0552 C   0  0  0  0  0  0  0  0  0  0  0  0
    0.0390   13.6801   -3.5912 C   0  0  1  0  0  0  0  0  0  0  0  0
    0.4304   12.7385   -2.4367 C   0  0  0  0  0  0  0  0  0  0  0  0
    0.9708   13.2440   -1.4290 O   0  0  0  0  0  0  0  0  0  0  0  0
    0.1708   11.5214   -2.5610 O   0  0  0  0  0  0  0  0  0  0  0  0
   -5.1192   14.3347   -0.6796 C   0  0  0  0  0  0  0  0  0  0  0  0
   -6.4985   14.0894   -0.4589 C   0  0  0  0  0  0  0  0  0  0  0  0
   -7.0485   14.3521    0.8090 C   0  0  0  0  0  0  0  0  0  0  0  0
   -6.2053   14.8442    1.8262 C   0  0  0  0  0  0  0  0  0  0  0  0
   -6.6294   15.0269    3.1633 N   0  0  0  0  0  0  0  0  0  0  0  0
   -7.8234   15.4633    3.5842 C   0  0  0  0  0  0  0  0  0  0  0  0
   -8.7241   15.8500    2.8364 O   0  0  0  0  0  0  0  0  0  0  0  0
   -7.9038   15.4323    4.9222 N   0  0  0  0  0  0  0  0  0  0  0  0
   -8.8878   16.0442    5.7407 C   0  0  0  0  0  0  0  0  0  0  0  0
   -9.1224   15.4926    7.0167 C   0  0  0  0  0  0  0  0  0  0  0  0
  -10.0647   16.0787    7.8834 C   0  0  0  0  0  0  0  0  0  0  0  0
  -10.7616   17.2379    7.4906 C   0  0  0  0  0  0  0  0  0  0  0  0
  -10.5119   17.8126    6.2300 C   0  0  0  0  0  0  0  0  0  0  0  0
   -9.5803   17.2196    5.3557 C   0  0  0  0  0  0  0  0  0  0  0  0
   -4.8542   15.0782    1.5125 C   0  0  0  0  0  0  0  0  0  0  0  0
   -4.3276   14.8452    0.2955 N   0  0  0  0  0  0  0  0  0  0  0  0
  1  2  1  0
  2  3  1  0
  2 17  1  0
  3  4  2  3
  5  4  1  6
  5 13  1  0
  5  6  1  0
  6  7  1  0
  7  8  1  0
  7 11  1  0
  8  9  1  0
  8 10  2  0
 11 12  1  0
 12 13  1  0
 13 14  1  1
 14 15  2  0
 14 16  1  0
 17 32  1  0
 17 18  2  0
 18 19  1  0
 19 20  2  0
 20 21  1  0
 20 31  1  0
 21 22  1  0
 22 23  2  0
 22 24  1  0
 24 25  1  0
 25 30  1  0
 25 26  2  0
 26 27  1  0
 27 28  2  0
 28 29  1  0
 29 30  2  0
 31 32  2  0
M  CHG  1  16  -1
M  END
>  <original SMILES>  (7) 
CN(N=C[C@@H]1CN(C(N)=O)CC[C@H]1C(=O)[O-])c1ccc(NC(=O)Nc2ccccc2)cn1

>  <ref_pdb>  (7) 
Combi88.pdb

>  <ref_mols>  (7) 
x0088_0A

>  <Glide GScore>  (7) 
-9.21625797437489

>  <RMSLigA>  (7) 
0.585319712184984

>  <RMSLigB>  (7) 
0.857359837508489

$$$$
Combi88_000033
     RDKit          3D

 32 34  0  0  1  0  0  0  0  0999 V2000
    0.7906   18.1067   -4.3152 N   0  0  0  0  0  0  0  0  0  0  0  0
   -0.3703   17.4565   -4.4024 C   0  0  0  0  0  0  0  0  0  0  0  0
   -1.4289   18.0442   -4.1819 O   0  0  0  0  0  0  0  0  0  0  0  0
   -0.2741   16.1355   -4.6899 N   0  0  0  0  0  0  0  0  0  0  0  0
    0.9435   15.4287   -5.1010 C   0  0  0  0  0  0  0  0  0  0  0  0
    1.3316   14.4346   -4.0047 C   0  0  0  0  0  0  0  0  0  0  0  0
    0.1909   13.4167   -3.7542 C   0  0  0  0  0  0  0  0  0  0  0  0
    0.5620   12.4834   -2.5846 C   0  0  0  0  0  0  0  0  0  0  0  0
    1.2247   12.9612   -1.6379 O   0  0  0  0  0  0  0  0  0  0  0  0
    0.1702   11.2951   -2.6304 O   0  0  0  0  0  0  0  0  0  0  0  0
   -1.1706   14.1507   -3.5185 C   0  0  0  0  0  0  0  0  0  0  0  0
   -2.3884   13.1964   -3.3694 C   0  0  0  0  0  0  0  0  0  0  0  0
   -2.6005   12.4883   -4.5769 O   0  0  0  0  0  0  0  0  0  0  0  0
   -3.7093   13.8798   -2.9619 C   0  0  0  0  0  0  0  0  0  0  0  0
   -3.4493   14.7773   -1.8888 O   0  0  0  0  0  0  0  0  0  0  0  0
   -4.3178   14.8127   -0.8240 C   0  0  0  0  0  0  0  0  0  0  0  0
   -5.6811   14.4342   -0.8853 C   0  0  0  0  0  0  0  0  0  0  0  0
   -6.4417   14.4485    0.3017 C   0  0  0  0  0  0  0  0  0  0  0  0
   -5.8083   14.8457    1.4976 C   0  0  0  0  0  0  0  0  0  0  0  0
   -6.4305   14.8180    2.7634 N   0  0  0  0  0  0  0  0  0  0  0  0
   -7.6606   15.2396    3.0907 C   0  0  0  0  0  0  0  0  0  0  0  0
   -8.5205   15.5784    2.2750 O   0  0  0  0  0  0  0  0  0  0  0  0
   -7.8277   15.2442    4.4226 N   0  0  0  0  0  0  0  0  0  0  0  0
   -8.7370   16.0190    5.1918 C   0  0  0  0  0  0  0  0  0  0  0  0
   -8.9771   15.6119    6.5209 C   0  0  0  0  0  0  0  0  0  0  0  0
   -9.8290   16.3619    7.3547 C   0  0  0  0  0  0  0  0  0  0  0  0
  -10.4329   17.5388    6.8710 C   0  0  0  0  0  0  0  0  0  0  0  0
  -10.1861   17.9625    5.5518 C   0  0  0  0  0  0  0  0  0  0  0  0
   -9.3456   17.2039    4.7109 C   0  0  0  0  0  0  0  0  0  0  0  0
   -4.4596   15.2428    1.4439 C   0  0  0  0  0  0  0  0  0  0  0  0
   -3.7326   15.2438    0.3113 N   0  0  0  0  0  0  0  0  0  0  0  0
   -1.4193   15.2242   -4.6110 C   0  0  0  0  0  0  0  0  0  0  0  0
  1  2  1  0
  2  3  2  0
  2  4  1  0
  4 32  1  0
  4  5  1  0
  5  6  1  0
  6  7  1  0
  7  8  1  0
  7 11  1  0
  8  9  2  0
  8 10  1  0
 11 12  1  0
 11 32  1  0
 12 13  1  0
 12 14  1  0
 14 15  1  0
 15 16  1  0
 16 31  1  0
 16 17  2  0
 17 18  1  0
 18 19  2  0
 19 20  1  0
 19 30  1  0
 20 21  1  0
 21 22  2  0
 21 23  1  0
 23 24  1  0
 24 29  1  0
 24 25  2  0
 25 26  1  0
 26 27  2  0
 27 28  1  0
 28 29  2  0
 30 31  2  0
M  CHG  1  10  -1
M  END
>  <original SMILES>  (8) 
NC(=O)N1CCC(C(=O)[O-])C(C(O)COc2ccc(NC(=O)Nc3ccccc3)cn2)C1

>  <ref_pdb>  (8) 
Combi88.pdb

>  <ref_mols>  (8) 
x0088_0A

>  <Glide GScore>  (8) 
-9.08930399467337

>  <RMSLigA>  (8) 
0.3845547567388

>  <RMSLigB>  (8) 
0.568002605524541

$$$$
Combi88_000148
     RDKit          3D

 33 36  0  0  1  0  0  0  0  0999 V2000
    0.9703   18.0664   -4.3254 N   0  0  0  0  0  0  0  0  0  0  0  0
   -0.2292   17.4836   -4.3654 C   0  0  0  0  0  0  0  0  0  0  0  0
   -1.2382   18.1057   -4.0400 O   0  0  0  0  0  0  0  0  0  0  0  0
   -0.2445   16.1855   -4.7480 N   0  0  0  0  0  0  0  0  0  0  0  0
    0.9100   15.3771   -5.1358 C   0  0  0  0  0  0  0  0  0  0  0  0
    1.2513   14.3747   -4.0303 C   0  0  0  0  0  0  0  0  0  0  0  0
    0.0129   13.5317   -3.6185 C   0  0  0  0  0  0  0  0  0  0  0  0
    0.4066   12.6684   -2.4138 C   0  0  0  0  0  0  0  0  0  0  0  0
    0.9397   13.2442   -1.4370 O   0  0  0  0  0  0  0  0  0  0  0  0
    0.1720   11.4409   -2.4667 O   0  0  0  0  0  0  0  0  0  0  0  0
   -1.1955   14.4796   -3.3300 C   0  0  0  0  0  0  0  0  0  0  0  0
   -2.4923   13.8618   -2.7491 C   0  0  0  0  0  0  0  0  0  0  0  0
   -3.4093   13.0115   -3.6247 C   0  0  0  0  0  0  0  0  0  0  0  0
   -4.6979   12.9308   -2.7823 C   0  0  0  0  0  0  0  0  0  0  0  0
   -4.8436   14.3086   -2.1013 C   0  0  0  0  0  0  0  0  0  0  0  0
   -5.4951   14.3370   -0.7120 C   0  0  0  0  0  0  0  0  0  0  0  0
   -6.8495   13.9789   -0.5370 C   0  0  0  0  0  0  0  0  0  0  0  0
   -7.4110   14.0613    0.7556 C   0  0  0  0  0  0  0  0  0  0  0  0
   -6.6026   14.5135    1.8237 C   0  0  0  0  0  0  0  0  0  0  0  0
   -7.0461   14.5995    3.1633 N   0  0  0  0  0  0  0  0  0  0  0  0
   -8.1901   15.1551    3.5741 C   0  0  0  0  0  0  0  0  0  0  0  0
   -9.0967   15.5201    2.8222 O   0  0  0  0  0  0  0  0  0  0  0  0
   -8.2305   15.2523    4.9106 N   0  0  0  0  0  0  0  0  0  0  0  0
   -9.0668   16.1099    5.6670 C   0  0  0  0  0  0  0  0  0  0  0  0
   -9.5093   17.3629    5.1747 C   0  0  0  0  0  0  0  0  0  0  0  0
  -10.2952   18.2031    5.9854 C   0  0  0  0  0  0  0  0  0  0  0  0
  -10.6517   17.7966    7.2858 C   0  0  0  0  0  0  0  0  0  0  0  0
  -10.2122   16.5524    7.7791 C   0  0  0  0  0  0  0  0  0  0  0  0
   -9.4049   15.7204    6.9788 C   0  0  0  0  0  0  0  0  0  0  0  0
   -5.2655   14.8440    1.5503 C   0  0  0  0  0  0  0  0  0  0  0  0
   -4.7287   14.7566    0.3215 N   0  0  0  0  0  0  0  0  0  0  0  0
   -3.4314   14.9177   -2.1682 C   0  0  0  0  0  0  0  0  0  0  0  0
   -1.4334   15.3523   -4.5824 C   0  0  0  0  0  0  0  0  0  0  0  0
  1  2  1  0
  2  3  2  0
  2  4  1  0
  4 33  1  0
  4  5  1  0
  5  6  1  0
  6  7  1  0
  7  8  1  0
  7 11  1  0
  8  9  2  0
  8 10  1  0
 11 12  1  0
 11 33  1  0
 12 32  1  0
 12 13  1  0
 13 14  1  0
 14 15  1  0
 15 16  1  0
 15 32  1  0
 16 31  1  0
 16 17  2  0
 17 18  1  0
 18 19  2  0
 19 20  1  0
 19 30  1  0
 20 21  1  0
 21 22  2  0
 21 23  1  0
 23 24  1  0
 24 29  1  0
 24 25  2  0
 25 26  1  0
 26 27  2  0
 27 28  1  0
 28 29  2  0
 30 31  2  0
M  CHG  1  10  -1
M  END
>  <original SMILES>  (9) 
NC(=O)N1CCC(C(=O)[O-])C(C2CCC(c3ccc(NC(=O)Nc4ccccc4)cn3)C2)C1

>  <ref_pdb>  (9) 
Combi88.pdb

>  <ref_mols>  (9) 
x0088_0A

>  <Glide GScore>  (9) 
-9.1107109456282

>  <RMSLigA>  (9) 
0.713906177313326

>  <RMSLigB>  (9) 
0.688624873425353

$$$$
Combi88_000003
     RDKit          3D

 32 34  0  0  1  0  0  0  0  0999 V2000
   -2.7338   12.4264   -3.6639 C   0  0  0  0  0  0  0  0  0  0  0  0
   -2.3529   13.5007   -2.9477 C   0  0  0  0  0  0  0  0  0  0  0  0
   -3.1348   13.9281   -1.8053 C   0  0  0  0  0  0  0  0  0  0  0  0
   -4.4782   14.0207   -1.7629 C   0  0  0  0  0  0  0  0  0  0  0  0
   -5.2294   14.4272   -0.5649 C   0  0  0  0  0  0  0  0  0  0  0  0
   -6.6172   14.1792   -0.4781 C   0  0  0  0  0  0  0  0  0  0  0  0
   -7.2742   14.3960    0.7508 C   0  0  0  0  0  0  0  0  0  0  0  0
   -6.5126   14.8441    1.8498 C   0  0  0  0  0  0  0  0  0  0  0  0
   -7.0273   14.9371    3.1634 N   0  0  0  0  0  0  0  0  0  0  0  0
   -8.1521   15.5401    3.5610 C   0  0  0  0  0  0  0  0  0  0  0  0
   -8.9991   16.0084    2.7981 O   0  0  0  0  0  0  0  0  0  0  0  0
   -8.2290   15.5515    4.9008 N   0  0  0  0  0  0  0  0  0  0  0  0
   -9.1382   16.2749    5.7133 C   0  0  0  0  0  0  0  0  0  0  0  0
   -9.6958   17.5173    5.3240 C   0  0  0  0  0  0  0  0  0  0  0  0
  -10.5469   18.2148    6.2037 C   0  0  0  0  0  0  0  0  0  0  0  0
  -10.8575   17.6753    7.4660 C   0  0  0  0  0  0  0  0  0  0  0  0
  -10.2971   16.4450    7.8601 C   0  0  0  0  0  0  0  0  0  0  0  0
   -9.4283   15.7563    6.9924 C   0  0  0  0  0  0  0  0  0  0  0  0
   -5.1476   15.1191    1.6453 C   0  0  0  0  0  0  0  0  0  0  0  0
   -4.5222   14.9277    0.4717 N   0  0  0  0  0  0  0  0  0  0  0  0
   -1.1031   14.3009   -3.2963 C   0  0  2  0  0  0  0  0  0  0  0  0
   -1.3934   15.2943   -4.4362 C   0  0  0  0  0  0  0  0  0  0  0  0
   -0.2160   16.1477   -4.6096 N   0  0  0  0  0  0  0  0  0  0  0  0
   -0.2253   17.4664   -4.3088 C   0  0  0  0  0  0  0  0  0  0  0  0
    0.9696   18.0625   -4.2743 N   0  0  0  0  0  0  0  0  0  0  0  0
   -1.2485   18.0911   -4.0374 O   0  0  0  0  0  0  0  0  0  0  0  0
    0.9396   15.3759   -5.0674 C   0  0  0  0  0  0  0  0  0  0  0  0
    1.3572   14.3804   -3.9817 C   0  0  0  0  0  0  0  0  0  0  0  0
    0.1755   13.4580   -3.5933 C   0  0  1  0  0  0  0  0  0  0  0  0
    0.5708   12.6222   -2.3697 C   0  0  0  0  0  0  0  0  0  0  0  0
    0.9706   13.2441   -1.3585 O   0  0  0  0  0  0  0  0  0  0  0  0
    0.4638   11.3778   -2.4368 O   0  0  0  0  0  0  0  0  0  0  0  0
  1  2  2  0
  2  3  1  0
 21  2  1  6
  3  4  2  3
  4  5  1  0
  5 20  1  0
  5  6  2  0
  6  7  1  0
  7  8  2  0
  8  9  1  0
  8 19  1  0
  9 10  1  0
 10 11  2  0
 10 12  1  0
 12 13  1  0
 13 18  1  0
 13 14  2  0
 14 15  1  0
 15 16  2  0
 16 17  1  0
 17 18  2  0
 19 20  2  0
 21 29  1  0
 21 22  1  0
 22 23  1  0
 23 24  1  0
 23 27  1  0
 24 25  1  0
 24 26  2  0
 27 28  1  0
 28 29  1  0
 29 30  1  1
 30 31  2  0
 30 32  1  0
M  CHG  1  32  -1
M  END
>  <original SMILES>  (10) 
C=C(C=Cc1ccc(NC(=O)Nc2ccccc2)cn1)[C@@H]1CN(C(N)=O)CC[C@H]1C(=O)[O-]

>  <ref_pdb>  (10) 
Combi88.pdb

>  <ref_mols>  (10) 
x0088_0A

>  <Glide GScore>  (10) 
-8.9951465211197

>  <RMSLigA>  (10) 
0.665791627015306

>  <RMSLigB>  (10) 
0.689362682317032

$$$$
Combi88_000126
     RDKit          3D

 34 37  0  0  1  0  0  0  0  0999 V2000
    1.0778   18.2781   -4.6826 N   0  0  0  0  0  0  0  0  0  0  0  0
   -0.1204   17.7304   -4.5034 C   0  0  0  0  0  0  0  0  0  0  0  0
   -1.0749   18.4437   -4.2104 O   0  0  0  0  0  0  0  0  0  0  0  0
   -0.1857   16.3827   -4.6381 N   0  0  0  0  0  0  0  0  0  0  0  0
    0.8850   15.4996   -5.1160 C   0  0  0  0  0  0  0  0  0  0  0  0
    1.2516   14.4605   -4.0469 C   0  0  0  0  0  0  0  0  0  0  0  0
    0.0132   13.6435   -3.6026 C   0  0  0  0  0  0  0  0  0  0  0  0
    0.4120   12.7251   -2.4369 C   0  0  0  0  0  0  0  0  0  0  0  0
    0.9709   13.2441   -1.4450 O   0  0  0  0  0  0  0  0  0  0  0  0
    0.1709   11.5029   -2.5482 O   0  0  0  0  0  0  0  0  0  0  0  0
   -1.1304   14.6285   -3.2145 C   0  0  0  0  0  0  0  0  0  0  0  0
   -2.3991   14.0387   -2.7919 N   0  0  0  0  0  0  0  0  0  0  0  0
   -3.0083   14.6237   -1.7452 N   0  0  0  0  0  0  0  0  0  0  0  0
   -4.1770   14.0274   -1.5946 C   0  0  0  0  0  0  0  0  0  0  0  0
   -5.0329   14.4072   -0.4610 C   0  0  0  0  0  0  0  0  0  0  0  0
   -6.3982   14.0453   -0.4162 C   0  0  0  0  0  0  0  0  0  0  0  0
   -7.1203   14.2708    0.7740 C   0  0  0  0  0  0  0  0  0  0  0  0
   -6.4450   14.8406    1.8713 C   0  0  0  0  0  0  0  0  0  0  0  0
   -7.0077   14.9048    3.1629 N   0  0  0  0  0  0  0  0  0  0  0  0
   -8.1437   15.5051    3.5178 C   0  0  0  0  0  0  0  0  0  0  0  0
   -8.9754   15.9483    2.7245 O   0  0  0  0  0  0  0  0  0  0  0  0
   -8.2553   15.5425    4.8534 N   0  0  0  0  0  0  0  0  0  0  0  0
   -9.1236   16.3623    5.6117 C   0  0  0  0  0  0  0  0  0  0  0  0
   -9.5362   17.6407    5.1644 C   0  0  0  0  0  0  0  0  0  0  0  0
  -10.3472   18.4442    5.9834 C   0  0  0  0  0  0  0  0  0  0  0  0
  -10.7656   17.9785    7.2447 C   0  0  0  0  0  0  0  0  0  0  0  0
  -10.3533   16.7102    7.6949 C   0  0  0  0  0  0  0  0  0  0  0  0
   -9.5191   15.9115    6.8883 C   0  0  0  0  0  0  0  0  0  0  0  0
   -5.1015   15.2259    1.7085 C   0  0  0  0  0  0  0  0  0  0  0  0
   -4.4141   15.0254    0.5724 N   0  0  0  0  0  0  0  0  0  0  0  0
   -4.3845   13.0532   -2.6155 C   0  0  0  0  0  0  0  0  0  0  0  0
   -3.2326   13.0848   -3.3534 C   0  0  0  0  0  0  0  0  0  0  0  0
   -2.8673   12.3594   -4.4764 N   0  0  0  0  0  0  0  0  0  0  0  0
   -1.4075   15.6311   -4.3520 C   0  0  0  0  0  0  0  0  0  0  0  0
  1  2  1  0
  2  3  2  0
  2  4  1  0
  4 34  1  0
  4  5  1  0
  5  6  1  0
  6  7  1  0
  7  8  1  0
  7 11  1  0
  8  9  2  0
  8 10  1  0
 11 12  1  0
 11 34  1  0
 12 32  1  0
 12 13  1  0
 13 14  2  0
 14 15  1  0
 14 31  1  0
 15 30  1  0
 15 16  2  0
 16 17  1  0
 17 18  2  0
 18 19  1  0
 18 29  1  0
 19 20  1  0
 20 21  2  0
 20 22  1  0
 22 23  1  0
 23 28  1  0
 23 24  2  0
 24 25  1  0
 25 26  2  0
 26 27  1  0
 27 28  2  0
 29 30  2  0
 31 32  2  0
 32 33  1  0
M  CHG  1  10  -1
M  END
>  <original SMILES>  (11) 
NC(=O)N1CCC(C(=O)[O-])C(n2nc(-c3ccc(NC(=O)Nc4ccccc4)cn3)cc2N)C1

>  <ref_pdb>  (11) 
Combi88.pdb

>  <ref_mols>  (11) 
x0088_0A

>  <Glide GScore>  (11) 
-8.98117634591713

>  <RMSLigA>  (11) 
0.655920357231206

>  <RMSLigB>  (11) 
0.84130470068019

$$$$
Combi88_000149
     RDKit          3D

 32 35  0  0  1  0  0  0  0  0999 V2000
    0.1191   18.0738   -4.0624 N   0  0  0  0  0  0  0  0  0  0  0  0
   -0.8509   17.2434   -4.4367 C   0  0  0  0  0  0  0  0  0  0  0  0
   -2.0242   17.6140   -4.4366 O   0  0  0  0  0  0  0  0  0  0  0  0
   -0.4344   15.9948   -4.7545 N   0  0  0  0  0  0  0  0  0  0  0  0
    0.9660   15.5593   -4.8392 C   0  0  0  0  0  0  0  0  0  0  0  0
    1.2567   14.6369   -3.6594 C   0  0  0  0  0  0  0  0  0  0  0  0
    0.2954   13.4234   -3.6866 C   0  0  0  0  0  0  0  0  0  0  0  0
    0.5958   12.4526   -2.5366 C   0  0  0  0  0  0  0  0  0  0  0  0
    1.3694   12.8452   -1.6390 O   0  0  0  0  0  0  0  0  0  0  0  0
    0.1172   11.2996   -2.5931 O   0  0  0  0  0  0  0  0  0  0  0  0
   -1.1989   13.8613   -3.7797 C   0  0  0  0  0  0  0  0  0  0  0  0
   -1.6999   14.5219   -2.6187 O   0  0  0  0  0  0  0  0  0  0  0  0
   -2.9008   13.9772   -2.0817 C   0  0  0  0  0  0  0  0  0  0  0  0
   -4.1461   13.9409   -2.9433 C   0  0  0  0  0  0  0  0  0  0  0  0
   -3.9968   14.9914   -1.8644 C   0  0  0  0  0  0  0  0  0  0  0  0
   -4.7889   14.9465   -0.5960 C   0  0  0  0  0  0  0  0  0  0  0  0
   -6.1385   14.5350   -0.5545 C   0  0  0  0  0  0  0  0  0  0  0  0
   -6.7946   14.4816    0.6918 C   0  0  0  0  0  0  0  0  0  0  0  0
   -6.0763   14.8533    1.8488 C   0  0  0  0  0  0  0  0  0  0  0  0
   -6.6295   14.8259    3.1553 N   0  0  0  0  0  0  0  0  0  0  0  0
   -7.8325   15.2757    3.5244 C   0  0  0  0  0  0  0  0  0  0  0  0
   -8.7116   15.6373    2.7402 O   0  0  0  0  0  0  0  0  0  0  0  0
   -7.9557   15.2778    4.8590 N   0  0  0  0  0  0  0  0  0  0  0  0
   -8.8690   16.0432    5.6298 C   0  0  0  0  0  0  0  0  0  0  0  0
   -9.1691   15.6008    6.9343 C   0  0  0  0  0  0  0  0  0  0  0  0
  -10.0474   16.3392    7.7512 C   0  0  0  0  0  0  0  0  0  0  0  0
  -10.6084   17.5430    7.2812 C   0  0  0  0  0  0  0  0  0  0  0  0
  -10.2893   18.0071    5.9911 C   0  0  0  0  0  0  0  0  0  0  0  0
   -9.4287   17.2600    5.1653 C   0  0  0  0  0  0  0  0  0  0  0  0
   -4.7334   15.2550    1.6934 C   0  0  0  0  0  0  0  0  0  0  0  0
   -4.1024   15.3119    0.5049 N   0  0  0  0  0  0  0  0  0  0  0  0
   -1.3677   14.8722   -4.9303 C   0  0  0  0  0  0  0  0  0  0  0  0
  1  2  1  0
  2  3  2  0
  2  4  1  0
  4 32  1  0
  4  5  1  0
  5  6  1  0
  6  7  1  0
  7  8  1  0
  7 11  1  0
  8  9  2  0
  8 10  1  0
 11 12  1  0
 11 32  1  0
 12 13  1  0
 13 15  1  0
 13 14  1  0
 14 15  1  0
 15 16  1  0
 16 31  1  0
 16 17  2  0
 17 18  1  0
 18 19  2  0
 19 20  1  0
 19 30  1  0
 20 21  1  0
 21 22  2  0
 21 23  1  0
 23 24  1  0
 24 29  1  0
 24 25  2  0
 25 26  1  0
 26 27  2  0
 27 28  1  0
 28 29  2  0
 30 31  2  0
M  CHG  1  10  -1
M  END
>  <original SMILES>  (12) 
NC(=O)N1CCC(C(=O)[O-])C(OC2CC2c2ccc(NC(=O)Nc3ccccc3)cn2)C1

>  <ref_pdb>  (12) 
Combi88.pdb

>  <ref_mols>  (12) 
x0088_0A

>  <Glide GScore>  (12) 
-9.00123792340887

>  <RMSLigA>  (12) 
0.422402585743373

>  <RMSLigB>  (12) 
0.30990740123382

$$$$
Combi88_000009
     RDKit          3D

 32 34  0  0  1  0  0  0  0  0999 V2000
    0.7740   18.2619   -4.2917 N   0  0  0  0  0  0  0  0  0  0  0  0
   -0.3313   17.5170   -4.2998 C   0  0  0  0  0  0  0  0  0  0  0  0
   -1.4272   18.0424   -4.0983 O   0  0  0  0  0  0  0  0  0  0  0  0
   -0.1398   16.1979   -4.5424 N   0  0  0  0  0  0  0  0  0  0  0  0
    1.1499   15.5584   -4.8389 C   0  0  0  0  0  0  0  0  0  0  0  0
    1.4463   14.4988   -3.7835 C   0  0  0  0  0  0  0  0  0  0  0  0
    0.3330   13.4280   -3.7193 C   0  0  0  0  0  0  0  0  0  0  0  0
    0.6425   12.4370   -2.5725 C   0  0  0  0  0  0  0  0  0  0  0  0
    1.3678   12.8444   -1.6375 O   0  0  0  0  0  0  0  0  0  0  0  0
    0.1724   11.2790   -2.6373 O   0  0  0  0  0  0  0  0  0  0  0  0
   -1.0749   14.0864   -3.5818 C   0  0  0  0  0  0  0  0  0  0  0  0
   -2.2241   13.0525   -3.7295 C   0  0  0  0  0  0  0  0  0  0  0  0
   -3.6501   13.5855   -3.5050 C   0  0  0  0  0  0  0  0  0  0  0  0
   -3.8790   14.1127   -2.0838 C   0  0  0  0  0  0  0  0  0  0  0  0
   -5.2716   14.3446   -1.9130 O   0  0  0  0  0  0  0  0  0  0  0  0
   -5.7323   14.5472   -0.6307 C   0  0  0  0  0  0  0  0  0  0  0  0
   -7.1119   14.4224   -0.3879 C   0  0  0  0  0  0  0  0  0  0  0  0
   -7.5866   14.5686    0.9290 C   0  0  0  0  0  0  0  0  0  0  0  0
   -6.6571   14.8465    1.9571 C   0  0  0  0  0  0  0  0  0  0  0  0
   -7.0362   15.0111    3.3142 N   0  0  0  0  0  0  0  0  0  0  0  0
   -8.1520   15.6069    3.7651 C   0  0  0  0  0  0  0  0  0  0  0  0
   -8.9998   16.1304    3.0394 O   0  0  0  0  0  0  0  0  0  0  0  0
   -8.2279   15.5558    5.1038 N   0  0  0  0  0  0  0  0  0  0  0  0
   -9.1924   16.1780    5.9372 C   0  0  0  0  0  0  0  0  0  0  0  0
   -9.4950   15.5593    7.1671 C   0  0  0  0  0  0  0  0  0  0  0  0
  -10.4268   16.1429    8.0471 C   0  0  0  0  0  0  0  0  0  0  0  0
  -11.0419   17.3657    7.7151 C   0  0  0  0  0  0  0  0  0  0  0  0
  -10.7242   18.0055    6.5037 C   0  0  0  0  0  0  0  0  0  0  0  0
   -9.8093   17.4122    5.6114 C   0  0  0  0  0  0  0  0  0  0  0  0
   -5.2965   14.9589    1.6083 C   0  0  0  0  0  0  0  0  0  0  0  0
   -4.8391   14.8366    0.3472 N   0  0  0  0  0  0  0  0  0  0  0  0
   -1.2444   15.2338   -4.6136 C   0  0  0  0  0  0  0  0  0  0  0  0
  1  2  1  0
  2  3  2  0
  2  4  1  0
  4 32  1  0
  4  5  1  0
  5  6  1  0
  6  7  1  0
  7  8  1  0
  7 11  1  0
  8  9  2  0
  8 10  1  0
 11 12  1  0
 11 32  1  0
 12 13  1  0
 13 14  1  0
 14 15  1  0
 15 16  1  0
 16 31  1  0
 16 17  2  0
 17 18  1  0
 18 19  2  0
 19 20  1  0
 19 30  1  0
 20 21  1  0
 21 22  2  0
 21 23  1  0
 23 24  1  0
 24 29  1  0
 24 25  2  0
 25 26  1  0
 26 27  2  0
 27 28  1  0
 28 29  2  0
 30 31  2  0
M  CHG  1  10  -1
M  END
>  <original SMILES>  (13) 
NC(=O)N1CCC(C(=O)[O-])C(CCCOc2ccc(NC(=O)Nc3ccccc3)cn2)C1

>  <ref_pdb>  (13) 
Combi88.pdb

>  <ref_mols>  (13) 
x0088_0A

>  <Glide GScore>  (13) 
-8.97169025224669

>  <RMSLigA>  (13) 
0.874557045573858

>  <RMSLigB>  (13) 
0.625080756326532

$$$$
Combi88_000156
     RDKit          3D

 33 35  0  0  1  0  0  0  0  0999 V2000
   -5.5228   14.0449   -3.2025 C   0  0  0  0  0  0  0  0  0  0  0  0
   -4.6328   13.7196   -1.9917 C   0  0  0  0  0  0  0  0  0  0  0  0
   -3.3422   14.2836   -2.2295 O   0  0  0  0  0  0  0  0  0  0  0  0
   -2.3851   13.5674   -2.8563 C   0  0  0  0  0  0  0  0  0  0  0  0
   -2.5029   12.4018   -3.2369 O   0  0  0  0  0  0  0  0  0  0  0  0
   -1.1144   14.3920   -3.1224 C   0  0  0  0  0  0  0  0  0  0  0  0
   -1.4007   15.4084   -4.2536 C   0  0  0  0  0  0  0  0  0  0  0  0
   -0.2127   16.2388   -4.4694 N   0  0  0  0  0  0  0  0  0  0  0  0
   -0.2211   17.5769   -4.2748 C   0  0  0  0  0  0  0  0  0  0  0  0
    0.9707   18.1718   -4.3062 N   0  0  0  0  0  0  0  0  0  0  0  0
   -1.2372   18.2236   -4.0387 O   0  0  0  0  0  0  0  0  0  0  0  0
    0.9256   15.4443   -4.9364 C   0  0  0  0  0  0  0  0  0  0  0  0
    1.3404   14.4655   -3.8409 C   0  0  0  0  0  0  0  0  0  0  0  0
    0.1575   13.5478   -3.4579 C   0  0  0  0  0  0  0  0  0  0  0  0
    0.5907   12.6668   -2.2830 C   0  0  0  0  0  0  0  0  0  0  0  0
    0.9657   13.2442   -1.2367 O   0  0  0  0  0  0  0  0  0  0  0  0
    0.5626   11.4251   -2.4369 O   0  0  0  0  0  0  0  0  0  0  0  0
   -5.2516   14.1836   -0.6722 C   0  0  0  0  0  0  0  0  0  0  0  0
   -6.5949   13.8674   -0.3678 C   0  0  0  0  0  0  0  0  0  0  0  0
   -7.1042   14.2105    0.8969 C   0  0  0  0  0  0  0  0  0  0  0  0
   -6.2481   14.8439    1.8218 C   0  0  0  0  0  0  0  0  0  0  0  0
   -6.6293   15.0945    3.1624 N   0  0  0  0  0  0  0  0  0  0  0  0
   -7.8294   15.4971    3.6020 C   0  0  0  0  0  0  0  0  0  0  0  0
   -8.7521   15.8530    2.8628 O   0  0  0  0  0  0  0  0  0  0  0  0
   -7.8882   15.4707    4.9413 N   0  0  0  0  0  0  0  0  0  0  0  0
   -8.8805   16.0446    5.7765 C   0  0  0  0  0  0  0  0  0  0  0  0
   -9.0443   15.5060    7.0692 C   0  0  0  0  0  0  0  0  0  0  0  0
   -9.9909   16.0553    7.9551 C   0  0  0  0  0  0  0  0  0  0  0  0
  -10.7684   17.1626    7.5626 C   0  0  0  0  0  0  0  0  0  0  0  0
  -10.5920   17.7234    6.2824 C   0  0  0  0  0  0  0  0  0  0  0  0
   -9.6545   17.1675    5.3923 C   0  0  0  0  0  0  0  0  0  0  0  0
   -4.9337   15.1465    1.4148 C   0  0  0  0  0  0  0  0  0  0  0  0
   -4.4465   14.8444    0.1921 N   0  0  0  0  0  0  0  0  0  0  0  0
  1  2  1  0
  2  3  1  0
  2 18  1  0
  3  4  1  0
  4  5  2  0
  4  6  1  0
  6 14  1  0
  6  7  1  0
  7  8  1  0
  8  9  1  0
  8 12  1  0
  9 10  1  0
  9 11  2  0
 12 13  1  0
 13 14  1  0
 14 15  1  0
 15 16  2  0
 15 17  1  0
 18 33  1  0
 18 19  2  0
 19 20  1  0
 20 21  2  0
 21 22  1  0
 21 32  1  0
 22 23  1  0
 23 24  2  0
 23 25  1  0
 25 26  1  0
 26 31  1  0
 26 27  2  0
 27 28  1  0
 28 29  2  0
 29 30  1  0
 30 31  2  0
 32 33  2  0
M  CHG  1  17  -1
M  END
>  <original SMILES>  (14) 
CC(OC(=O)C1CN(C(N)=O)CCC1C(=O)[O-])c1ccc(NC(=O)Nc2ccccc2)cn1

>  <ref_pdb>  (14) 
Combi88.pdb

>  <ref_mols>  (14) 
x0088_0A

>  <Glide GScore>  (14) 
-8.96625159576473

>  <RMSLigA>  (14) 
0.669459765376064

>  <RMSLigB>  (14) 
0.747273435458032

$$$$
Combi88_000087
     RDKit          3D

 32 34  0  0  1  0  0  0  0  0999 V2000
   -5.3474   12.9039   -3.8435 C   0  0  0  0  0  0  0  0  0  0  0  0
   -4.3294   13.3656   -2.8121 C   0  0  0  0  0  0  0  0  0  0  0  0
   -3.1090   13.2810   -3.1859 N   0  0  0  0  0  0  0  0  0  0  0  0
   -2.1643   13.7574   -2.2642 O   0  0  0  0  0  0  0  0  0  0  0  0
   -1.0655   14.3660   -2.9458 C   0  0  2  0  0  0  0  0  0  0  0  0
   -1.5277   15.3798   -4.0254 C   0  0  0  0  0  0  0  0  0  0  0  0
   -0.3584   16.0906   -4.5366 N   0  0  0  0  0  0  0  0  0  0  0  0
   -0.2448   17.4344   -4.4340 C   0  0  0  0  0  0  0  0  0  0  0  0
    0.9708   17.9246   -4.6621 N   0  0  0  0  0  0  0  0  0  0  0  0
   -1.1613   18.1745   -4.0838 O   0  0  0  0  0  0  0  0  0  0  0  0
    0.5667   15.1774   -5.2241 C   0  0  0  0  0  0  0  0  0  0  0  0
    1.1232   14.1505   -4.2246 C   0  0  0  0  0  0  0  0  0  0  0  0
   -0.0237   13.3693   -3.5297 C   0  0  1  0  0  0  0  0  0  0  0  0
    0.5499   12.4389   -2.4471 C   0  0  0  0  0  0  0  0  0  0  0  0
    1.3708   12.9237   -1.6369 O   0  0  0  0  0  0  0  0  0  0  0  0
    0.1709   11.2460   -2.4368 O   0  0  0  0  0  0  0  0  0  0  0  0
   -4.9045   13.8693   -1.5073 C   0  0  0  0  0  0  0  0  0  0  0  0
   -6.2330   13.5317   -1.1395 C   0  0  0  0  0  0  0  0  0  0  0  0
   -6.7277   13.9011    0.1248 C   0  0  0  0  0  0  0  0  0  0  0  0
   -5.8789   14.5916    1.0124 C   0  0  0  0  0  0  0  0  0  0  0  0
   -6.2287   14.8488    2.3633 N   0  0  0  0  0  0  0  0  0  0  0  0
   -7.4357   15.1870    2.8396 C   0  0  0  0  0  0  0  0  0  0  0  0
   -8.4158   15.4283    2.1326 O   0  0  0  0  0  0  0  0  0  0  0  0
   -7.4357   15.2442    4.1799 N   0  0  0  0  0  0  0  0  0  0  0  0
   -8.4064   15.8571    5.0148 C   0  0  0  0  0  0  0  0  0  0  0  0
   -9.1605   16.9850    4.6094 C   0  0  0  0  0  0  0  0  0  0  0  0
  -10.0668   17.5907    5.5019 C   0  0  0  0  0  0  0  0  0  0  0  0
  -10.2289   17.0737    6.8019 C   0  0  0  0  0  0  0  0  0  0  0  0
   -9.4739   15.9574    7.2127 C   0  0  0  0  0  0  0  0  0  0  0  0
   -8.5612   15.3570    6.3242 C   0  0  0  0  0  0  0  0  0  0  0  0
   -4.5963   14.9391    0.5517 C   0  0  0  0  0  0  0  0  0  0  0  0
   -4.1362   14.6152   -0.6738 N   0  0  0  0  0  0  0  0  0  0  0  0
  1  2  1  0
  2  3  2  3
  2 17  1  0
  3  4  1  0
  5  4  1  6
  5 13  1  0
  5  6  1  0
  6  7  1  0
  7  8  1  0
  7 11  1  0
  8  9  1  0
  8 10  2  0
 11 12  1  0
 12 13  1  0
 13 14  1  1
 14 15  2  0
 14 16  1  0
 17 32  1  0
 17 18  2  0
 18 19  1  0
 19 20  2  0
 20 21  1  0
 20 31  1  0
 21 22  1  0
 22 23  2  0
 22 24  1  0
 24 25  1  0
 25 30  1  0
 25 26  2  0
 26 27  1  0
 27 28  2  0
 28 29  1  0
 29 30  2  0
 31 32  2  0
M  CHG  1  16  -1
M  END
>  <original SMILES>  (15) 
CC(=NO[C@@H]1CN(C(N)=O)CC[C@H]1C(=O)[O-])c1ccc(NC(=O)Nc2ccccc2)cn1

>  <ref_pdb>  (15) 
Combi88.pdb

>  <ref_mols>  (15) 
x0088_0A

>  <Glide GScore>  (15) 
-8.95627449192301

>  <RMSLigA>  (15) 
0.751103999183826

>  <RMSLigB>  (15) 
0.791511583558583

$$$$
Combi88_000049
     RDKit          3D

 31 33  0  0  1  0  0  0  0  0999 V2000
    0.9704   18.2763   -4.2707 N   0  0  0  0  0  0  0  0  0  0  0  0
   -0.1552   17.5617   -4.2680 C   0  0  0  0  0  0  0  0  0  0  0  0
   -1.2394   18.0941   -4.0375 O   0  0  0  0  0  0  0  0  0  0  0  0
   -0.0117   16.2456   -4.5435 N   0  0  0  0  0  0  0  0  0  0  0  0
    1.2483   15.5581   -4.8435 C   0  0  0  0  0  0  0  0  0  0  0  0
    1.4814   14.4641   -3.8108 C   0  0  0  0  0  0  0  0  0  0  0  0
    0.3108   13.4518   -3.7853 C   0  0  0  0  0  0  0  0  0  0  0  0
    0.5556   12.4338   -2.6597 C   0  0  0  0  0  0  0  0  0  0  0  0
    1.1442   12.8441   -1.6367 O   0  0  0  0  0  0  0  0  0  0  0  0
    0.1697   11.2566   -2.8276 O   0  0  0  0  0  0  0  0  0  0  0  0
   -1.0635   14.1777   -3.6327 C   0  0  0  0  0  0  0  0  0  0  0  0
   -2.2898   13.2525   -3.8454 C   0  0  0  0  0  0  0  0  0  0  0  0
   -3.4288   13.2179   -2.4368 S   0  0  0  0  0  0  0  0  0  0  0  0
   -4.1589   14.8710   -2.3486 C   0  0  0  0  0  0  0  0  0  0  0  0
   -4.9151   14.9496   -1.0366 C   0  0  0  0  0  0  0  0  0  0  0  0
   -6.2731   14.5750   -0.9615 C   0  0  0  0  0  0  0  0  0  0  0  0
   -6.8883   14.5208    0.3042 C   0  0  0  0  0  0  0  0  0  0  0  0
   -6.1196   14.8443    1.4427 C   0  0  0  0  0  0  0  0  0  0  0  0
   -6.6238   14.7611    2.7633 N   0  0  0  0  0  0  0  0  0  0  0  0
   -7.7892   15.2443    3.2080 C   0  0  0  0  0  0  0  0  0  0  0  0
   -8.7023   15.6343    2.4775 O   0  0  0  0  0  0  0  0  0  0  0  0
   -7.8311   15.2441    4.5499 N   0  0  0  0  0  0  0  0  0  0  0  0
   -8.7409   15.9463    5.3837 C   0  0  0  0  0  0  0  0  0  0  0  0
   -9.3961   17.1370    4.9812 C   0  0  0  0  0  0  0  0  0  0  0  0
  -10.2532   17.8117    5.8721 C   0  0  0  0  0  0  0  0  0  0  0  0
  -10.4706   17.2995    7.1657 C   0  0  0  0  0  0  0  0  0  0  0  0
   -9.8141   16.1220    7.5736 C   0  0  0  0  0  0  0  0  0  0  0  0
   -8.9425   15.4563    6.6904 C   0  0  0  0  0  0  0  0  0  0  0  0
   -4.7744   15.2239    1.2565 C   0  0  0  0  0  0  0  0  0  0  0  0
   -4.1823   15.2892    0.0465 N   0  0  0  0  0  0  0  0  0  0  0  0
   -1.1645   15.3448   -4.6346 C   0  0  0  0  0  0  0  0  0  0  0  0
  1  2  1  0
  2  3  2  0
  2  4  1  0
  4 31  1  0
  4  5  1  0
  5  6  1  0
  6  7  1  0
  7  8  1  0
  7 11  1  0
  8  9  2  0
  8 10  1  0
 11 12  1  0
 11 31  1  0
 12 13  1  0
 13 14  1  0
 14 15  1  0
 15 30  1  0
 15 16  2  0
 16 17  1  0
 17 18  2  0
 18 19  1  0
 18 29  1  0
 19 20  1  0
 20 21  2  0
 20 22  1  0
 22 23  1  0
 23 28  1  0
 23 24  2  0
 24 25  1  0
 25 26  2  0
 26 27  1  0
 27 28  2  0
 29 30  2  0
M  CHG  1  10  -1
M  END
>  <original SMILES>  (16) 
NC(=O)N1CCC(C(=O)[O-])C(CSCc2ccc(NC(=O)Nc3ccccc3)cn2)C1

>  <ref_pdb>  (16) 
Combi88.pdb

>  <ref_mols>  (16) 
x0088_0A

>  <Glide GScore>  (16) 
-8.93634733663717

>  <RMSLigA>  (16) 
0.220060948265049

>  <RMSLigB>  (16) 
0.723618456930861

$$$$
Combi88_000138
     RDKit          3D

 33 36  0  0  1  0  0  0  0  0999 V2000
    1.1130   18.2562   -4.6679 N   0  0  0  0  0  0  0  0  0  0  0  0
   -0.0937   17.7236   -4.4985 C   0  0  0  0  0  0  0  0  0  0  0  0
   -1.0445   18.4437   -4.2053 O   0  0  0  0  0  0  0  0  0  0  0  0
   -0.1712   16.3786   -4.6404 N   0  0  0  0  0  0  0  0  0  0  0  0
    0.8882   15.4889   -5.1301 C   0  0  0  0  0  0  0  0  0  0  0  0
    1.2653   14.4578   -4.0563 C   0  0  0  0  0  0  0  0  0  0  0  0
    0.0288   13.6491   -3.5997 C   0  0  0  0  0  0  0  0  0  0  0  0
    0.4174   12.7231   -2.4366 C   0  0  0  0  0  0  0  0  0  0  0  0
    0.9708   13.2441   -1.4428 O   0  0  0  0  0  0  0  0  0  0  0  0
    0.1709   11.5020   -2.5480 O   0  0  0  0  0  0  0  0  0  0  0  0
   -1.1164   14.6260   -3.2150 C   0  0  0  0  0  0  0  0  0  0  0  0
   -2.4010   14.0030   -2.7725 C   0  0  0  0  0  0  0  0  0  0  0  0
   -3.0658   14.4645   -1.7177 N   0  0  0  0  0  0  0  0  0  0  0  0
   -4.3456   13.9248   -1.5553 C   0  0  0  0  0  0  0  0  0  0  0  0
   -5.1612   14.3391   -0.4028 C   0  0  0  0  0  0  0  0  0  0  0  0
   -6.5374   14.0250   -0.3179 C   0  0  0  0  0  0  0  0  0  0  0  0
   -7.2227   14.2856    0.8875 C   0  0  0  0  0  0  0  0  0  0  0  0
   -6.5012   14.8441    1.9618 C   0  0  0  0  0  0  0  0  0  0  0  0
   -7.0293   14.9702    3.2663 N   0  0  0  0  0  0  0  0  0  0  0  0
   -8.1685   15.5609    3.6390 C   0  0  0  0  0  0  0  0  0  0  0  0
   -9.0050   16.0187    2.8582 O   0  0  0  0  0  0  0  0  0  0  0  0
   -8.2678   15.5711    4.9774 N   0  0  0  0  0  0  0  0  0  0  0  0
   -9.1904   16.2884    5.7803 C   0  0  0  0  0  0  0  0  0  0  0  0
   -9.4825   15.7702    7.0592 C   0  0  0  0  0  0  0  0  0  0  0  0
  -10.3630   16.4525    7.9196 C   0  0  0  0  0  0  0  0  0  0  0  0
  -10.9301   17.6782    7.5201 C   0  0  0  0  0  0  0  0  0  0  0  0
  -10.6167   18.2168    6.2577 C   0  0  0  0  0  0  0  0  0  0  0  0
   -9.7569   17.5232    5.3840 C   0  0  0  0  0  0  0  0  0  0  0  0
   -5.1518   15.1865    1.7560 C   0  0  0  0  0  0  0  0  0  0  0  0
   -4.4991   14.9520    0.6055 N   0  0  0  0  0  0  0  0  0  0  0  0
   -4.6372   13.0209   -2.5517 C   0  0  0  0  0  0  0  0  0  0  0  0
   -3.3201   12.8140   -3.6813 S   0  0  0  0  0  0  0  0  0  0  0  0
   -1.3963   15.6371   -4.3428 C   0  0  0  0  0  0  0  0  0  0  0  0
  1  2  1  0
  2  3  2  0
  2  4  1  0
  4 33  1  0
  4  5  1  0
  5  6  1  0
  6  7  1  0
  7  8  1  0
  7 11  1  0
  8  9  2  0
  8 10  1  0
 11 12  1  0
 11 33  1  0
 12 32  1  0
 12 13  2  0
 13 14  1  0
 14 15  1  0
 14 31  2  0
 15 30  1  0
 15 16  2  0
 16 17  1  0
 17 18  2  0
 18 19  1  0
 18 29  1  0
 19 20  1  0
 20 21  2  0
 20 22  1  0
 22 23  1  0
 23 28  1  0
 23 24  2  0
 24 25  1  0
 25 26  2  0
 26 27  1  0
 27 28  2  0
 29 30  2  0
 31 32  1  0
M  CHG  1  10  -1
M  END
>  <original SMILES>  (17) 
NC(=O)N1CCC(C(=O)[O-])C(c2nc(-c3ccc(NC(=O)Nc4ccccc4)cn3)cs2)C1

>  <ref_pdb>  (17) 
Combi88.pdb

>  <ref_mols>  (17) 
x0088_0A

>  <Glide GScore>  (17) 
-8.92721055476533

>  <RMSLigA>  (17) 
0.762829398050688

>  <RMSLigB>  (17) 
0.853168634598157

$$$$
Combi88_000035
     RDKit          3D

 34 37  0  0  1  0  0  0  0  0999 V2000
    0.9704   18.3253   -4.2881 N   0  0  0  0  0  0  0  0  0  0  0  0
   -0.1754   17.6419   -4.2761 C   0  0  0  0  0  0  0  0  0  0  0  0
   -1.2399   18.2057   -4.0368 O   0  0  0  0  0  0  0  0  0  0  0  0
   -0.0749   16.3179   -4.5346 N   0  0  0  0  0  0  0  0  0  0  0  0
    1.1604   15.5900   -4.8285 C   0  0  0  0  0  0  0  0  0  0  0  0
    1.4237   14.5406   -3.7567 C   0  0  0  0  0  0  0  0  0  0  0  0
    0.2321   13.5755   -3.5851 C   0  0  0  0  0  0  0  0  0  0  0  0
    0.4896   12.6924   -2.3614 C   0  0  0  0  0  0  0  0  0  0  0  0
    0.9703   13.2442   -1.3435 O   0  0  0  0  0  0  0  0  0  0  0  0
    0.1736   11.4849   -2.4369 O   0  0  0  0  0  0  0  0  0  0  0  0
   -1.0931   14.3752   -3.4192 C   0  0  0  0  0  0  0  0  0  0  0  0
   -2.2986   13.5493   -3.3845 N   0  0  0  0  0  0  0  0  0  0  0  0
   -2.4806   12.5039   -4.2311 N   0  0  0  0  0  0  0  0  0  0  0  0
   -3.6702   12.0285   -3.9930 N   0  0  0  0  0  0  0  0  0  0  0  0
   -4.3218   12.7643   -3.0205 N   0  0  0  0  0  0  0  0  0  0  0  0
   -3.4346   13.6919   -2.6887 C   0  0  0  0  0  0  0  0  0  0  0  0
   -3.5653   14.7249   -1.7629 N   0  0  0  0  0  0  0  0  0  0  0  0
   -4.4516   14.7895   -0.6909 C   0  0  0  0  0  0  0  0  0  0  0  0
   -5.8099   14.4119   -0.7804 C   0  0  0  0  0  0  0  0  0  0  0  0
   -6.5973   14.4437    0.3884 C   0  0  0  0  0  0  0  0  0  0  0  0
   -5.9871   14.8431    1.5949 C   0  0  0  0  0  0  0  0  0  0  0  0
   -6.6292   14.7562    2.8506 N   0  0  0  0  0  0  0  0  0  0  0  0
   -7.8225   15.2443    3.1952 C   0  0  0  0  0  0  0  0  0  0  0  0
   -8.6766   15.6302    2.3952 O   0  0  0  0  0  0  0  0  0  0  0  0
   -7.9561   15.2445    4.5309 N   0  0  0  0  0  0  0  0  0  0  0  0
   -8.8266   16.0425    5.3176 C   0  0  0  0  0  0  0  0  0  0  0  0
   -9.0501   15.6437    6.6514 C   0  0  0  0  0  0  0  0  0  0  0  0
   -9.8696   16.4158    7.4977 C   0  0  0  0  0  0  0  0  0  0  0  0
  -10.4507   17.6084    7.0227 C   0  0  0  0  0  0  0  0  0  0  0  0
  -10.2116   18.0263    5.6997 C   0  0  0  0  0  0  0  0  0  0  0  0
   -9.4092   17.2448    4.8464 C   0  0  0  0  0  0  0  0  0  0  0  0
   -4.6376   15.2449    1.5626 C   0  0  0  0  0  0  0  0  0  0  0  0
   -3.8893   15.2444    0.4437 N   0  0  0  0  0  0  0  0  0  0  0  0
   -1.2390   15.4270   -4.5360 C   0  0  0  0  0  0  0  0  0  0  0  0
  1  2  1  0
  2  3  2  0
  2  4  1  0
  4 34  1  0
  4  5  1  0
  5  6  1  0
  6  7  1  0
  7  8  1  0
  7 11  1  0
  8  9  2  0
  8 10  1  0
 11 12  1  0
 11 34  1  0
 12 16  1  0
 12 13  1  0
 13 14  2  0
 14 15  1  0
 15 16  2  0
 16 17  1  0
 17 18  1  0
 18 33  1  0
 18 19  2  0
 19 20  1  0
 20 21  2  0
 21 22  1  0
 21 32  1  0
 22 23  1  0
 23 24  2  0
 23 25  1  0
 25 26  1  0
 26 31  1  0
 26 27  2  0
 27 28  1  0
 28 29  2  0
 29 30  1  0
 30 31  2  0
 32 33  2  0
M  CHG  1  10  -1
M  END
>  <original SMILES>  (18) 
NC(=O)N1CCC(C(=O)[O-])C(n2nnnc2Nc2ccc(NC(=O)Nc3ccccc3)cn2)C1

>  <ref_pdb>  (18) 
Combi88.pdb

>  <ref_mols>  (18) 
x0088_0A

>  <Glide GScore>  (18) 
-8.9179984368212

>  <RMSLigA>  (18) 
0.339706395170245

>  <RMSLigB>  (18) 
0.751195240157865

$$$$
Combi88_000175
     RDKit          3D

 33 35  0  0  1  0  0  0  0  0999 V2000
    0.8031   18.0945   -4.2555 N   0  0  0  0  0  0  0  0  0  0  0  0
   -0.3623   17.4478   -4.2784 C   0  0  0  0  0  0  0  0  0  0  0  0
   -1.4119   18.0438   -4.0370 O   0  0  0  0  0  0  0  0  0  0  0  0
   -0.2799   16.1196   -4.5298 N   0  0  0  0  0  0  0  0  0  0  0  0
    0.9134   15.4021   -4.9933 C   0  0  0  0  0  0  0  0  0  0  0  0
    1.3332   14.3907   -3.9272 C   0  0  0  0  0  0  0  0  0  0  0  0
    0.1910   13.3793   -3.6518 C   0  0  1  0  0  0  0  0  0  0  0  0
    0.6059   12.4165   -2.5232 C   0  0  0  0  0  0  0  0  0  0  0  0
    1.3702   12.8496   -1.6373 O   0  0  0  0  0  0  0  0  0  0  0  0
    0.1710   11.2455   -2.5512 O   0  0  0  0  0  0  0  0  0  0  0  0
   -1.1540   14.1232   -3.3452 C   0  0  2  0  0  0  0  0  0  0  0  0
   -2.3833   13.2110   -3.2511 C   0  0  0  0  0  0  0  0  0  0  0  0
   -2.4008   12.0155   -4.0619 N   0  0  0  0  0  0  0  0  0  0  0  0
   -3.4127   11.3546   -3.9347 O   0  0  0  0  0  0  0  0  0  0  0  0
   -3.4193   13.4789   -2.5174 N   0  0  0  0  0  0  0  0  0  0  0  0
   -3.4317   14.5556   -1.7439 N   0  0  0  0  0  0  0  0  0  0  0  0
   -4.3439   14.7160   -0.7021 C   0  0  0  0  0  0  0  0  0  0  0  0
   -5.6879   14.2956   -0.8084 C   0  0  0  0  0  0  0  0  0  0  0  0
   -6.5116   14.3684    0.3335 C   0  0  0  0  0  0  0  0  0  0  0  0
   -5.9459   14.8425    1.5353 C   0  0  0  0  0  0  0  0  0  0  0  0
   -6.6102   14.7624    2.7789 N   0  0  0  0  0  0  0  0  0  0  0  0
   -7.8111   15.2467    3.1045 C   0  0  0  0  0  0  0  0  0  0  0  0
   -8.6535   15.6280    2.2908 O   0  0  0  0  0  0  0  0  0  0  0  0
   -7.9668   15.2473    4.4391 N   0  0  0  0  0  0  0  0  0  0  0  0
   -8.8497   16.0474    5.2106 C   0  0  0  0  0  0  0  0  0  0  0  0
   -9.4075   17.2594    4.7326 C   0  0  0  0  0  0  0  0  0  0  0  0
  -10.2278   18.0419    5.5696 C   0  0  0  0  0  0  0  0  0  0  0  0
  -10.5113   17.6132    6.8810 C   0  0  0  0  0  0  0  0  0  0  0  0
   -9.9564   16.4120    7.3628 C   0  0  0  0  0  0  0  0  0  0  0  0
   -9.1175   15.6388    6.5354 C   0  0  0  0  0  0  0  0  0  0  0  0
   -4.6056   15.2752    1.5211 C   0  0  0  0  0  0  0  0  0  0  0  0
   -3.8260   15.2433    0.4231 N   0  0  0  0  0  0  0  0  0  0  0  0
   -1.4298   15.2174   -4.4095 C   0  0  0  0  0  0  0  0  0  0  0  0
  1  2  1  0
  2  3  2  0
  2  4  1  0
  4 33  1  0
  4  5  1  0
  5  6  1  0
  6  7  1  0
  7  8  1  1
  7 11  1  0
  8  9  2  0
  8 10  1  0
 11 12  1  6
 11 33  1  0
 12 13  1  0
 12 15  2  3
 13 14  2  0
 15 16  1  0
 16 17  1  0
 17 32  1  0
 17 18  2  0
 18 19  1  0
 19 20  2  0
 20 21  1  0
 20 31  1  0
 21 22  1  0
 22 23  2  0
 22 24  1  0
 24 25  1  0
 25 30  1  0
 25 26  2  0
 26 27  1  0
 27 28  2  0
 28 29  1  0
 29 30  2  0
 31 32  2  0
M  CHG  1  10  -1
M  END
>  <original SMILES>  (19) 
NC(=O)N1CC[C@@H](C(=O)[O-])[C@H](C(N=O)=NNc2ccc(NC(=O)Nc3ccccc3)cn2)C1

>  <ref_pdb>  (19) 
Combi88.pdb

>  <ref_mols>  (19) 
x0088_0A

>  <Glide GScore>  (19) 
-8.89598507560068

>  <RMSLigA>  (19) 
0.403853301794414

>  <RMSLigB>  (19) 
0.601742815992984

$$$$
Combi88_000066
     RDKit          3D

 32 34  0  0  1  0  0  0  0  0999 V2000
   -2.9661   12.6545   -3.9378 C   0  0  0  0  0  0  0  0  0  0  0  0
   -2.5514   13.7435   -2.9276 C   0  0  0  0  0  0  0  0  0  0  0  0
   -3.7321   14.7163   -2.6537 C   0  0  0  0  0  0  0  0  0  0  0  0
   -4.8782   14.0529   -2.1259 O   0  0  0  0  0  0  0  0  0  0  0  0
   -5.3213   14.3322   -0.8490 C   0  0  0  0  0  0  0  0  0  0  0  0
   -6.6560   14.0144   -0.5366 C   0  0  0  0  0  0  0  0  0  0  0  0
   -7.1353   14.2672    0.7620 C   0  0  0  0  0  0  0  0  0  0  0  0
   -6.2557   14.8225    1.7141 C   0  0  0  0  0  0  0  0  0  0  0  0
   -6.6293   15.0103    3.0720 N   0  0  0  0  0  0  0  0  0  0  0  0
   -7.8113   15.4422    3.5332 C   0  0  0  0  0  0  0  0  0  0  0  0
   -8.7410   15.8098    2.8119 O   0  0  0  0  0  0  0  0  0  0  0  0
   -7.8468   15.4344    4.8723 N   0  0  0  0  0  0  0  0  0  0  0  0
   -8.8185   16.0443    5.7057 C   0  0  0  0  0  0  0  0  0  0  0  0
   -9.0321   15.4929    6.9849 C   0  0  0  0  0  0  0  0  0  0  0  0
   -9.9634   16.0766    7.8650 C   0  0  0  0  0  0  0  0  0  0  0  0
  -10.6736   17.2297    7.4772 C   0  0  0  0  0  0  0  0  0  0  0  0
  -10.4460   17.8042    6.2131 C   0  0  0  0  0  0  0  0  0  0  0  0
   -9.5219   17.2155    5.3280 C   0  0  0  0  0  0  0  0  0  0  0  0
   -4.9311   15.0950    1.3088 C   0  0  0  0  0  0  0  0  0  0  0  0
   -4.4709   14.8782    0.0541 N   0  0  0  0  0  0  0  0  0  0  0  0
   -1.2409   14.4936   -3.3369 C   0  0  0  0  0  0  0  0  0  0  0  0
   -1.4413   15.4281   -4.5596 C   0  0  0  0  0  0  0  0  0  0  0  0
   -0.2414   16.2527   -4.7183 N   0  0  0  0  0  0  0  0  0  0  0  0
   -0.2260   17.5591   -4.3620 C   0  0  0  0  0  0  0  0  0  0  0  0
    0.9712   18.1410   -4.3121 N   0  0  0  0  0  0  0  0  0  0  0  0
   -1.2339   18.1920   -4.0538 O   0  0  0  0  0  0  0  0  0  0  0  0
    0.9108   15.4486   -5.1307 C   0  0  0  0  0  0  0  0  0  0  0  0
    1.2510   14.4733   -3.9995 C   0  0  0  0  0  0  0  0  0  0  0  0
    0.0244   13.6022   -3.6173 C   0  0  0  0  0  0  0  0  0  0  0  0
    0.4141   12.7035   -2.4361 C   0  0  0  0  0  0  0  0  0  0  0  0
    0.9704   13.2442   -1.4530 O   0  0  0  0  0  0  0  0  0  0  0  0
    0.1706   11.4794   -2.5200 O   0  0  0  0  0  0  0  0  0  0  0  0
  1  2  1  0
  2  3  1  0
  2 21  1  0
  3  4  1  0
  4  5  1  0
  5 20  1  0
  5  6  2  0
  6  7  1  0
  7  8  2  0
  8  9  1  0
  8 19  1  0
  9 10  1  0
 10 11  2  0
 10 12  1  0
 12 13  1  0
 13 18  1  0
 13 14  2  0
 14 15  1  0
 15 16  2  0
 16 17  1  0
 17 18  2  0
 19 20  2  0
 21 29  1  0
 21 22  1  0
 22 23  1  0
 23 24  1  0
 23 27  1  0
 24 25  1  0
 24 26  2  0
 27 28  1  0
 28 29  1  0
 29 30  1  0
 30 31  2  0
 30 32  1  0
M  CHG  1  32  -1
M  END
>  <original SMILES>  (20) 
CC(COc1ccc(NC(=O)Nc2ccccc2)cn1)C1CN(C(N)=O)CCC1C(=O)[O-]

>  <ref_pdb>  (20) 
Combi88.pdb

>  <ref_mols>  (20) 
x0088_0A

>  <Glide GScore>  (20) 
-8.83506822117259

>  <RMSLigA>  (20) 
0.560268652269717

>  <RMSLigB>  (20) 
0.69792342540604

$$$$
Combi88_000065
     RDKit          3D

 34 36  0  0  1  0  0  0  0  0999 V2000
   -4.4265   11.9252   -3.5249 C   0  0  0  0  0  0  0  0  0  0  0  0
   -3.3840   12.8876   -3.1504 N   0  0  0  0  0  0  0  0  0  0  0  0
   -3.6023   13.5378   -1.8528 C   0  0  0  0  0  0  0  0  0  0  0  0
   -4.4557   14.8148   -1.9183 C   0  0  0  0  0  0  0  0  0  0  0  0
   -5.2390   14.9514   -0.6223 C   0  0  0  0  0  0  0  0  0  0  0  0
   -6.5959   14.5666   -0.5618 C   0  0  0  0  0  0  0  0  0  0  0  0
   -7.2325   14.5165    0.6943 C   0  0  0  0  0  0  0  0  0  0  0  0
   -6.4843   14.8467    1.8437 C   0  0  0  0  0  0  0  0  0  0  0  0
   -7.0263   14.7769    3.1547 N   0  0  0  0  0  0  0  0  0  0  0  0
   -8.1468   15.3720    3.5808 C   0  0  0  0  0  0  0  0  0  0  0  0
   -8.9942   15.8650    2.8332 O   0  0  0  0  0  0  0  0  0  0  0  0
   -8.2291   15.3435    4.9206 N   0  0  0  0  0  0  0  0  0  0  0  0
   -9.1173   16.0715    5.7548 C   0  0  0  0  0  0  0  0  0  0  0  0
   -9.7083   17.3000    5.3700 C   0  0  0  0  0  0  0  0  0  0  0  0
  -10.5590   17.9877    6.2582 C   0  0  0  0  0  0  0  0  0  0  0  0
  -10.8283   17.4550    7.5327 C   0  0  0  0  0  0  0  0  0  0  0  0
  -10.2284   16.2426    7.9277 C   0  0  0  0  0  0  0  0  0  0  0  0
   -9.3651   15.5632    7.0468 C   0  0  0  0  0  0  0  0  0  0  0  0
   -5.1397   15.2442    1.6675 C   0  0  0  0  0  0  0  0  0  0  0  0
   -4.5270   15.3103    0.4665 N   0  0  0  0  0  0  0  0  0  0  0  0
   -2.3024   13.0285   -3.9542 C   0  0  0  0  0  0  0  0  0  0  0  0
   -2.1994   12.3781   -4.9969 O   0  0  0  0  0  0  0  0  0  0  0  0
   -1.1917   14.0606   -3.6457 C   0  0  0  0  0  0  0  0  0  0  0  0
   -1.4082   15.2479   -4.6215 C   0  0  0  0  0  0  0  0  0  0  0  0
   -0.2680   16.1662   -4.6146 N   0  0  0  0  0  0  0  0  0  0  0  0
   -0.3761   17.4716   -4.2717 C   0  0  0  0  0  0  0  0  0  0  0  0
    0.7796   18.1230   -4.1577 N   0  0  0  0  0  0  0  0  0  0  0  0
   -1.4410   18.0437   -4.0369 O   0  0  0  0  0  0  0  0  0  0  0  0
    0.9591   15.4874   -5.0347 C   0  0  0  0  0  0  0  0  0  0  0  0
    1.3467   14.4977   -3.9380 C   0  0  0  0  0  0  0  0  0  0  0  0
    0.2396   13.4265   -3.7818 C   0  0  0  0  0  0  0  0  0  0  0  0
    0.5660   12.4887   -2.6007 C   0  0  0  0  0  0  0  0  0  0  0  0
    1.2046   12.9642   -1.6368 O   0  0  0  0  0  0  0  0  0  0  0  0
    0.1702   11.3044   -2.6574 O   0  0  0  0  0  0  0  0  0  0  0  0
  1  2  1  0
  2  3  1  0
  2 21  1  0
  3  4  1  0
  4  5  1  0
  5 20  1  0
  5  6  2  0
  6  7  1  0
  7  8  2  0
  8  9  1  0
  8 19  1  0
  9 10  1  0
 10 11  2  0
 10 12  1  0
 12 13  1  0
 13 18  1  0
 13 14  2  0
 14 15  1  0
 15 16  2  0
 16 17  1  0
 17 18  2  0
 19 20  2  0
 21 22  2  0
 21 23  1  0
 23 31  1  0
 23 24  1  0
 24 25  1  0
 25 26  1  0
 25 29  1  0
 26 27  1  0
 26 28  2  0
 29 30  1  0
 30 31  1  0
 31 32  1  0
 32 33  2  0
 32 34  1  0
M  CHG  1  34  -1
M  END
>  <original SMILES>  (21) 
CN(CCc1ccc(NC(=O)Nc2ccccc2)cn1)C(=O)C1CN(C(N)=O)CCC1C(=O)[O-]

>  <ref_pdb>  (21) 
Combi88.pdb

>  <ref_mols>  (21) 
x0088_0A

>  <Glide GScore>  (21) 
-8.82416560953867

>  <RMSLigA>  (21) 
0.609834117866644

>  <RMSLigB>  (21) 
0.559551148714009

$$$$
Combi88_000057
     RDKit          3D

 33 35  0  0  1  0  0  0  0  0999 V2000
   -5.5239   14.1559   -3.1393 C   0  0  0  0  0  0  0  0  0  0  0  0
   -4.6822   13.6360   -1.9619 C   0  0  0  0  0  0  0  0  0  0  0  0
   -3.2970   14.0708   -2.1197 N   0  0  0  0  0  0  0  0  0  0  0  0
   -2.4052   13.5631   -2.9808 C   0  0  0  0  0  0  0  0  0  0  0  0
   -2.6174   12.5500   -3.6470 O   0  0  0  0  0  0  0  0  0  0  0  0
   -1.1216   14.3804   -3.1776 C   0  0  0  0  0  0  0  0  0  0  0  0
   -1.3884   15.3837   -4.3228 C   0  0  0  0  0  0  0  0  0  0  0  0
   -0.2065   16.2253   -4.5096 N   0  0  0  0  0  0  0  0  0  0  0  0
   -0.2186   17.5576   -4.2817 C   0  0  0  0  0  0  0  0  0  0  0  0
    0.9712   18.1603   -4.2910 N   0  0  0  0  0  0  0  0  0  0  0  0
   -1.2407   18.1939   -4.0368 O   0  0  0  0  0  0  0  0  0  0  0  0
    0.9378   15.4332   -4.9560 C   0  0  0  0  0  0  0  0  0  0  0  0
    1.3454   14.4550   -3.8541 C   0  0  0  0  0  0  0  0  0  0  0  0
    0.1591   13.5366   -3.4786 C   0  0  0  0  0  0  0  0  0  0  0  0
    0.5744   12.6613   -2.2904 C   0  0  0  0  0  0  0  0  0  0  0  0
    0.9384   13.2443   -1.2417 O   0  0  0  0  0  0  0  0  0  0  0  0
    0.5613   11.4200   -2.4366 O   0  0  0  0  0  0  0  0  0  0  0  0
   -5.2731   14.0891   -0.6304 C   0  0  0  0  0  0  0  0  0  0  0  0
   -6.5880   13.7145   -0.2801 C   0  0  0  0  0  0  0  0  0  0  0  0
   -7.0920   14.1045    0.9718 C   0  0  0  0  0  0  0  0  0  0  0  0
   -6.2561   14.8441    1.8347 C   0  0  0  0  0  0  0  0  0  0  0  0
   -6.6295   15.1445    3.1633 N   0  0  0  0  0  0  0  0  0  0  0  0
   -7.8292   15.5724    3.5774 C   0  0  0  0  0  0  0  0  0  0  0  0
   -8.7312   15.9348    2.8189 O   0  0  0  0  0  0  0  0  0  0  0  0
   -7.9163   15.5659    4.9147 N   0  0  0  0  0  0  0  0  0  0  0  0
   -8.9248   16.1670    5.7095 C   0  0  0  0  0  0  0  0  0  0  0  0
   -9.2009   15.6006    6.9704 C   0  0  0  0  0  0  0  0  0  0  0  0
  -10.1651   16.1841    7.8155 C   0  0  0  0  0  0  0  0  0  0  0  0
  -10.8345   17.3579    7.4185 C   0  0  0  0  0  0  0  0  0  0  0  0
  -10.5384   17.9478    6.1743 C   0  0  0  0  0  0  0  0  0  0  0  0
   -9.5923   17.3543    5.3191 C   0  0  0  0  0  0  0  0  0  0  0  0
   -4.9671   15.1923    1.3871 C   0  0  0  0  0  0  0  0  0  0  0  0
   -4.4900   14.8516    0.1723 N   0  0  0  0  0  0  0  0  0  0  0  0
  1  2  1  0
  2  3  1  0
  2 18  1  0
  3  4  1  0
  4  5  2  0
  4  6  1  0
  6 14  1  0
  6  7  1  0
  7  8  1  0
  8  9  1  0
  8 12  1  0
  9 10  1  0
  9 11  2  0
 12 13  1  0
 13 14  1  0
 14 15  1  0
 15 16  2  0
 15 17  1  0
 18 33  1  0
 18 19  2  0
 19 20  1  0
 20 21  2  0
 21 22  1  0
 21 32  1  0
 22 23  1  0
 23 24  2  0
 23 25  1  0
 25 26  1  0
 26 31  1  0
 26 27  2  0
 27 28  1  0
 28 29  2  0
 29 30  1  0
 30 31  2  0
 32 33  2  0
M  CHG  1  17  -1
M  END
>  <original SMILES>  (22) 
CC(NC(=O)C1CN(C(N)=O)CCC1C(=O)[O-])c1ccc(NC(=O)Nc2ccccc2)cn1

>  <ref_pdb>  (22) 
Combi88.pdb

>  <ref_mols>  (22) 
x0088_0A

>  <Glide GScore>  (22) 
-8.81519466145093

>  <RMSLigA>  (22) 
0.680336717262719

>  <RMSLigB>  (22) 
0.733475821415403

$$$$
Combi88_000073
     RDKit          3D

 32 34  0  0  1  0  0  0  0  0999 V2000
    0.9707   18.1621   -4.4871 N   0  0  0  0  0  0  0  0  0  0  0  0
   -0.2141   17.5539   -4.4260 C   0  0  0  0  0  0  0  0  0  0  0  0
   -1.2211   18.1836   -4.1090 O   0  0  0  0  0  0  0  0  0  0  0  0
   -0.2131   16.2283   -4.6918 N   0  0  0  0  0  0  0  0  0  0  0  0
    0.9271   15.4214   -5.1290 C   0  0  0  0  0  0  0  0  0  0  0  0
    1.3136   14.4142   -4.0387 C   0  0  0  0  0  0  0  0  0  0  0  0
    0.1054   13.5271   -3.6440 C   0  0  0  0  0  0  0  0  0  0  0  0
    0.4844   12.6595   -2.4365 C   0  0  0  0  0  0  0  0  0  0  0  0
    0.9707   13.2443   -1.4424 O   0  0  0  0  0  0  0  0  0  0  0  0
    0.2724   11.4287   -2.4968 O   0  0  0  0  0  0  0  0  0  0  0  0
   -1.1307   14.4271   -3.3382 C   0  0  0  0  0  0  0  0  0  0  0  0
   -2.4401   13.6886   -3.0434 C   0  0  0  0  0  0  0  0  0  0  0  0
   -2.8439   12.7827   -3.7732 O   0  0  0  0  0  0  0  0  0  0  0  0
   -3.1334   14.1677   -2.0074 N   0  0  0  0  0  0  0  0  0  0  0  0
   -4.4711   13.8782   -1.8030 N   0  0  0  0  0  0  0  0  0  0  0  0
   -5.0908   14.2641   -0.6129 C   0  0  0  0  0  0  0  0  0  0  0  0
   -6.4315   13.8962   -0.3800 C   0  0  0  0  0  0  0  0  0  0  0  0
   -7.0025   14.1977    0.8693 C   0  0  0  0  0  0  0  0  0  0  0  0
   -6.2023   14.8444    1.8352 C   0  0  0  0  0  0  0  0  0  0  0  0
   -6.6298   15.0507    3.1633 N   0  0  0  0  0  0  0  0  0  0  0  0
   -7.8301   15.4884    3.5634 C   0  0  0  0  0  0  0  0  0  0  0  0
   -8.7232   15.8499    2.7944 O   0  0  0  0  0  0  0  0  0  0  0  0
   -7.9283   15.4891    4.9005 N   0  0  0  0  0  0  0  0  0  0  0  0
   -8.9221   16.1253    5.6878 C   0  0  0  0  0  0  0  0  0  0  0  0
   -9.5894   17.3033    5.2714 C   0  0  0  0  0  0  0  0  0  0  0  0
  -10.5288   17.9236    6.1185 C   0  0  0  0  0  0  0  0  0  0  0  0
  -10.8150   17.3674    7.3808 C   0  0  0  0  0  0  0  0  0  0  0  0
  -10.1439   16.2041    7.8038 C   0  0  0  0  0  0  0  0  0  0  0  0
   -9.1914   15.5936    6.9658 C   0  0  0  0  0  0  0  0  0  0  0  0
   -4.8907   15.2161    1.4874 C   0  0  0  0  0  0  0  0  0  0  0  0
   -4.3472   14.9527    0.2838 N   0  0  0  0  0  0  0  0  0  0  0  0
   -1.3966   15.3956   -4.5069 C   0  0  0  0  0  0  0  0  0  0  0  0
  1  2  1  0
  2  3  2  0
  2  4  1  0
  4 32  1  0
  4  5  1  0
  5  6  1  0
  6  7  1  0
  7  8  1  0
  7 11  1  0
  8  9  2  0
  8 10  1  0
 11 12  1  0
 11 32  1  0
 12 13  2  0
 12 14  1  0
 14 15  1  0
 15 16  1  0
 16 31  1  0
 16 17  2  0
 17 18  1  0
 18 19  2  0
 19 20  1  0
 19 30  1  0
 20 21  1  0
 21 22  2  0
 21 23  1  0
 23 24  1  0
 24 29  1  0
 24 25  2  0
 25 26  1  0
 26 27  2  0
 27 28  1  0
 28 29  2  0
 30 31  2  0
M  CHG  1  10  -1
M  END
>  <original SMILES>  (23) 
NC(=O)N1CCC(C(=O)[O-])C(C(=O)NNc2ccc(NC(=O)Nc3ccccc3)cn2)C1

>  <ref_pdb>  (23) 
Combi88.pdb

>  <ref_mols>  (23) 
x0088_0A

>  <Glide GScore>  (23) 
-8.8144085724773

>  <RMSLigA>  (23) 
0.598287360381594

>  <RMSLigB>  (23) 
0.710406261449743

$$$$
Combi88_000111
     RDKit          3D

 33 35  0  0  1  0  0  0  0  0999 V2000
   -4.0340   11.6056   -4.2127 C   0  0  0  0  0  0  0  0  0  0  0  0
   -3.4095   12.9209   -3.7308 C   0  0  0  0  0  0  0  0  0  0  0  0
   -3.8192   13.2452   -2.2792 C   0  0  0  0  0  0  0  0  0  0  0  0
   -4.5383   14.5956   -2.1256 C   0  0  0  0  0  0  0  0  0  0  0  0
   -5.1636   14.7323   -0.7515 C   0  0  0  0  0  0  0  0  0  0  0  0
   -6.4989   14.3287   -0.5438 C   0  0  0  0  0  0  0  0  0  0  0  0
   -7.0279   14.3898    0.7581 C   0  0  0  0  0  0  0  0  0  0  0  0
   -6.1981   14.8512    1.8037 C   0  0  0  0  0  0  0  0  0  0  0  0
   -6.6292   14.9259    3.1519 N   0  0  0  0  0  0  0  0  0  0  0  0
   -7.8363   15.2980    3.5909 C   0  0  0  0  0  0  0  0  0  0  0  0
   -8.7642   15.6471    2.8592 O   0  0  0  0  0  0  0  0  0  0  0  0
   -7.9014   15.2477    4.9290 N   0  0  0  0  0  0  0  0  0  0  0  0
   -8.8334   15.9188    5.7655 C   0  0  0  0  0  0  0  0  0  0  0  0
   -9.0317   15.4149    7.0669 C   0  0  0  0  0  0  0  0  0  0  0  0
   -9.9253   16.0502    7.9525 C   0  0  0  0  0  0  0  0  0  0  0  0
  -10.6167   17.2081    7.5436 C   0  0  0  0  0  0  0  0  0  0  0  0
  -10.4053   17.7350    6.2551 C   0  0  0  0  0  0  0  0  0  0  0  0
   -9.5162   17.0969    5.3672 C   0  0  0  0  0  0  0  0  0  0  0  0
   -4.8773   15.2372    1.4873 C   0  0  0  0  0  0  0  0  0  0  0  0
   -4.3646   15.1887    0.2387 N   0  0  0  0  0  0  0  0  0  0  0  0
   -2.0058   12.7361   -3.8616 O   0  0  0  0  0  0  0  0  0  0  0  0
   -1.1406   13.8590   -3.6987 C   0  0  0  0  0  0  0  0  0  0  0  0
   -1.3796   14.9047   -4.8162 C   0  0  0  0  0  0  0  0  0  0  0  0
   -0.3652   15.9626   -4.7480 N   0  0  0  0  0  0  0  0  0  0  0  0
   -0.6796   17.2437   -4.4374 C   0  0  0  0  0  0  0  0  0  0  0  0
    0.3641   18.0618   -4.3161 N   0  0  0  0  0  0  0  0  0  0  0  0
   -1.8269   17.6562   -4.2596 O   0  0  0  0  0  0  0  0  0  0  0  0
    0.9843   15.4297   -4.9900 C   0  0  0  0  0  0  0  0  0  0  0  0
    1.3471   14.4847   -3.8407 C   0  0  0  0  0  0  0  0  0  0  0  0
    0.3225   13.3280   -3.7399 C   0  0  0  0  0  0  0  0  0  0  0  0
    0.6385   12.4023   -2.5473 C   0  0  0  0  0  0  0  0  0  0  0  0
    1.3707   12.8448   -1.6367 O   0  0  0  0  0  0  0  0  0  0  0  0
    0.1709   11.2444   -2.5470 O   0  0  0  0  0  0  0  0  0  0  0  0
  1  2  1  0
  2  3  1  0
  2 21  1  0
  3  4  1  0
  4  5  1  0
  5 20  1  0
  5  6  2  0
  6  7  1  0
  7  8  2  0
  8  9  1  0
  8 19  1  0
  9 10  1  0
 10 11  2  0
 10 12  1  0
 12 13  1  0
 13 18  1  0
 13 14  2  0
 14 15  1  0
 15 16  2  0
 16 17  1  0
 17 18  2  0
 19 20  2  0
 21 22  1  0
 22 30  1  0
 22 23  1  0
 23 24  1  0
 24 25  1  0
 24 28  1  0
 25 26  1  0
 25 27  2  0
 28 29  1  0
 29 30  1  0
 30 31  1  0
 31 32  2  0
 31 33  1  0
M  CHG  1  33  -1
M  END
>  <original SMILES>  (24) 
CC(CCc1ccc(NC(=O)Nc2ccccc2)cn1)OC1CN(C(N)=O)CCC1C(=O)[O-]

>  <ref_pdb>  (24) 
Combi88.pdb

>  <ref_mols>  (24) 
x0088_0A

>  <Glide GScore>  (24) 
-8.81221409284693

>  <RMSLigA>  (24) 
0.525808713440068

>  <RMSLigB>  (24) 
0.401017248463413

$$$$
Combi88_000040
     RDKit          3D

 32 34  0  0  1  0  0  0  0  0999 V2000
   -4.9236   12.4832   -2.7903 C   0  0  0  0  0  0  0  0  0  0  0  0
   -4.9480   14.0087   -2.6202 C   0  0  0  0  0  0  0  0  0  0  0  0
   -3.6509   14.7116   -3.0918 C   0  0  0  0  0  0  0  0  0  0  0  0
   -2.3499   13.8693   -3.0162 C   0  0  0  0  0  0  0  0  0  0  0  0
   -1.0369   14.6589   -3.2426 C   0  0  0  0  0  0  0  0  0  0  0  0
   -1.1410   15.6262   -4.4475 C   0  0  0  0  0  0  0  0  0  0  0  0
    0.0687   16.4491   -4.5684 N   0  0  0  0  0  0  0  0  0  0  0  0
    0.0087   17.8040   -4.5634 C   0  0  0  0  0  0  0  0  0  0  0  0
    1.1635   18.4439   -4.7330 N   0  0  0  0  0  0  0  0  0  0  0  0
   -1.0292   18.4442   -4.4226 O   0  0  0  0  0  0  0  0  0  0  0  0
    1.2726   15.6387   -4.7887 C   0  0  0  0  0  0  0  0  0  0  0  0
    1.4694   14.6478   -3.6419 C   0  0  0  0  0  0  0  0  0  0  0  0
    0.2215   13.7629   -3.4472 C   0  0  0  0  0  0  0  0  0  0  0  0
    0.4720   12.7875   -2.2892 C   0  0  0  0  0  0  0  0  0  0  0  0
    0.9706   13.2442   -1.2368 O   0  0  0  0  0  0  0  0  0  0  0  0
    0.1709   11.5854   -2.4579 O   0  0  0  0  0  0  0  0  0  0  0  0
   -5.4251   14.4056   -1.2254 C   0  0  0  0  0  0  0  0  0  0  0  0
   -6.8066   14.3812   -0.9535 C   0  0  0  0  0  0  0  0  0  0  0  0
   -7.2436   14.5583    0.3688 C   0  0  0  0  0  0  0  0  0  0  0  0
   -6.2881   14.7939    1.3841 C   0  0  0  0  0  0  0  0  0  0  0  0
   -6.6297   14.9065    2.7634 N   0  0  0  0  0  0  0  0  0  0  0  0
   -7.8056   15.3090    3.2782 C   0  0  0  0  0  0  0  0  0  0  0  0
   -8.7560   15.7100    2.6032 O   0  0  0  0  0  0  0  0  0  0  0  0
   -7.8292   15.2453    4.6189 N   0  0  0  0  0  0  0  0  0  0  0  0
   -8.7324   15.9226    5.4831 C   0  0  0  0  0  0  0  0  0  0  0  0
   -9.3734   17.1376    5.1282 C   0  0  0  0  0  0  0  0  0  0  0  0
  -10.2309   17.7832    6.0388 C   0  0  0  0  0  0  0  0  0  0  0  0
  -10.4615   17.2206    7.3082 C   0  0  0  0  0  0  0  0  0  0  0  0
   -9.8190   16.0208    7.6711 C   0  0  0  0  0  0  0  0  0  0  0  0
   -8.9477   15.3817    6.7665 C   0  0  0  0  0  0  0  0  0  0  0  0
   -4.9302   14.8439    1.0014 C   0  0  0  0  0  0  0  0  0  0  0  0
   -4.4998   14.6305   -0.2640 N   0  0  0  0  0  0  0  0  0  0  0  0
  1  2  1  0
  2  3  1  0
  2 17  1  0
  3  4  1  0
  4  5  1  0
  5 13  1  0
  5  6  1  0
  6  7  1  0
  7  8  1  0
  7 11  1  0
  8  9  1  0
  8 10  2  0
 11 12  1  0
 12 13  1  0
 13 14  1  0
 14 15  2  0
 14 16  1  0
 17 32  1  0
 17 18  2  0
 18 19  1  0
 19 20  2  0
 20 21  1  0
 20 31  1  0
 21 22  1  0
 22 23  2  0
 22 24  1  0
 24 25  1  0
 25 30  1  0
 25 26  2  0
 26 27  1  0
 27 28  2  0
 28 29  1  0
 29 30  2  0
 31 32  2  0
M  CHG  1  16  -1
M  END
>  <original SMILES>  (25) 
CC(CCC1CN(C(N)=O)CCC1C(=O)[O-])c1ccc(NC(=O)Nc2ccccc2)cn1

>  <ref_pdb>  (25) 
Combi88.pdb

>  <ref_mols>  (25) 
x0088_0A

>  <Glide GScore>  (25) 
-8.79821046113252

>  <RMSLigA>  (25) 
0.450050333746613

>  <RMSLigB>  (25) 
0.950729911869691

$$$$
Combi88_000038
     RDKit          3D

 33 35  0  0  1  0  0  0  0  0999 V2000
    0.9709   18.2423   -4.2752 N   0  0  0  0  0  0  0  0  0  0  0  0
   -0.1464   17.5197   -4.2910 C   0  0  0  0  0  0  0  0  0  0  0  0
   -1.2318   18.0441   -4.0408 O   0  0  0  0  0  0  0  0  0  0  0  0
    0.0129   16.2112   -4.6001 N   0  0  0  0  0  0  0  0  0  0  0  0
    1.2868   15.5282   -4.8819 C   0  0  0  0  0  0  0  0  0  0  0  0
    1.5203   14.4090   -3.8668 C   0  0  0  0  0  0  0  0  0  0  0  0
    0.3217   13.4297   -3.7724 C   0  0  0  0  0  0  0  0  0  0  0  0
    0.5824   12.4261   -2.6347 C   0  0  0  0  0  0  0  0  0  0  0  0
    1.2079   12.8441   -1.6367 O   0  0  0  0  0  0  0  0  0  0  0  0
    0.1708   11.2513   -2.7649 O   0  0  0  0  0  0  0  0  0  0  0  0
   -0.9997   14.2252   -3.5589 C   0  0  0  0  0  0  0  0  0  0  0  0
   -2.2848   13.3479   -3.4924 C   0  0  0  0  0  0  0  0  0  0  0  0
   -3.3545   13.7871   -2.4703 C   0  0  0  0  0  0  0  0  0  0  0  0
   -2.7163   14.0442   -1.2405 O   0  0  0  0  0  0  0  0  0  0  0  0
   -4.2063   15.0119   -2.8664 C   0  0  0  0  0  0  0  0  0  0  0  0
   -5.5733   14.8442   -2.4849 O   0  0  0  0  0  0  0  0  0  0  0  0
   -5.9211   14.8815   -1.1496 C   0  0  0  0  0  0  0  0  0  0  0  0
   -7.2010   14.4310   -0.7783 C   0  0  0  0  0  0  0  0  0  0  0  0
   -7.5405   14.4117    0.5866 C   0  0  0  0  0  0  0  0  0  0  0  0
   -6.5811   14.8327    1.5331 C   0  0  0  0  0  0  0  0  0  0  0  0
   -6.8312   14.8375    2.9258 N   0  0  0  0  0  0  0  0  0  0  0  0
   -7.9563   15.2740    3.5071 C   0  0  0  0  0  0  0  0  0  0  0  0
   -8.9482   15.6577    2.8803 O   0  0  0  0  0  0  0  0  0  0  0  0
   -7.8764   15.2489    4.8454 N   0  0  0  0  0  0  0  0  0  0  0  0
   -8.7750   15.8809    5.7465 C   0  0  0  0  0  0  0  0  0  0  0  0
   -8.9488   15.3135    7.0249 C   0  0  0  0  0  0  0  0  0  0  0  0
   -9.8292   15.9038    7.9526 C   0  0  0  0  0  0  0  0  0  0  0  0
  -10.5306   17.0785    7.6147 C   0  0  0  0  0  0  0  0  0  0  0  0
  -10.3345   17.6727    6.3539 C   0  0  0  0  0  0  0  0  0  0  0  0
   -9.4592   17.0796    5.4242 C   0  0  0  0  0  0  0  0  0  0  0  0
   -5.3211   15.2444    1.0636 C   0  0  0  0  0  0  0  0  0  0  0  0
   -5.0173   15.3257   -0.2461 N   0  0  0  0  0  0  0  0  0  0  0  0
   -1.1300   15.2951   -4.6598 C   0  0  0  0  0  0  0  0  0  0  0  0
  1  2  1  0
  2  3  2  0
  2  4  1  0
  4 33  1  0
  4  5  1  0
  5  6  1  0
  6  7  1  0
  7  8  1  0
  7 11  1  0
  8  9  2  0
  8 10  1  0
 11 12  1  0
 11 33  1  0
 12 13  1  0
 13 14  1  0
 13 15  1  0
 15 16  1  0
 16 17  1  0
 17 32  1  0
 17 18  2  0
 18 19  1  0
 19 20  2  0
 20 21  1  0
 20 31  1  0
 21 22  1  0
 22 23  2  0
 22 24  1  0
 24 25  1  0
 25 30  1  0
 25 26  2  0
 26 27  1  0
 27 28  2  0
 28 29  1  0
 29 30  2  0
 31 32  2  0
M  CHG  1  10  -1
M  END
>  <original SMILES>  (26) 
NC(=O)N1CCC(C(=O)[O-])C(CC(O)COc2ccc(NC(=O)Nc3ccccc3)cn2)C1

>  <ref_pdb>  (26) 
Combi88.pdb

>  <ref_mols>  (26) 
x0088_0A

>  <Glide GScore>  (26) 
-8.59341224541397

>  <RMSLigA>  (26) 
0.68140925684661

>  <RMSLigB>  (26) 
0.730890095174598

$$$$
Combi88_000166
     RDKit          3D

 34 36  0  0  1  0  0  0  0  0999 V2000
   -4.6379   12.0818   -4.1139 C   0  0  0  0  0  0  0  0  0  0  0  0
   -4.4692   12.9373   -2.8491 C   0  0  0  0  0  0  0  0  0  0  0  0
   -5.7661   13.4554   -2.5367 O   0  0  0  0  0  0  0  0  0  0  0  0
   -6.0540   13.8331   -1.2414 C   0  0  0  0  0  0  0  0  0  0  0  0
   -7.4036   13.8820   -0.8432 C   0  0  0  0  0  0  0  0  0  0  0  0
   -7.7053   14.2033    0.4921 C   0  0  0  0  0  0  0  0  0  0  0  0
   -6.6468   14.4946    1.3840 C   0  0  0  0  0  0  0  0  0  0  0  0
   -6.8360   14.7806    2.7636 N   0  0  0  0  0  0  0  0  0  0  0  0
   -7.9131   15.3497    3.3240 C   0  0  0  0  0  0  0  0  0  0  0  0
   -8.8641   15.8069    2.6841 O   0  0  0  0  0  0  0  0  0  0  0  0
   -7.8299   15.3840    4.6635 N   0  0  0  0  0  0  0  0  0  0  0  0
   -8.7388   16.0248    5.5465 C   0  0  0  0  0  0  0  0  0  0  0  0
   -8.9335   15.4585    6.8207 C   0  0  0  0  0  0  0  0  0  0  0  0
   -9.8294   16.0496    7.7341 C   0  0  0  0  0  0  0  0  0  0  0  0
  -10.5167   17.2292    7.3885 C   0  0  0  0  0  0  0  0  0  0  0  0
  -10.3027   17.8225    6.1288 C   0  0  0  0  0  0  0  0  0  0  0  0
   -9.4196   17.2237    5.2102 C   0  0  0  0  0  0  0  0  0  0  0  0
   -5.3340   14.4476    0.8772 C   0  0  0  0  0  0  0  0  0  0  0  0
   -5.0373   14.1251   -0.3986 N   0  0  0  0  0  0  0  0  0  0  0  0
   -3.4597   14.0695   -3.0844 C   0  0  0  0  0  0  0  0  0  0  0  0
   -3.8290   15.2445   -3.1070 O   0  0  0  0  0  0  0  0  0  0  0  0
   -2.1808   13.6934   -3.2293 N   0  0  0  0  0  0  0  0  0  0  0  0
   -1.0184   14.5732   -3.3509 C   0  0  0  0  0  0  0  0  0  0  0  0
   -1.1275   15.5373   -4.5599 C   0  0  0  0  0  0  0  0  0  0  0  0
    0.0452   16.4170   -4.6018 N   0  0  0  0  0  0  0  0  0  0  0  0
   -0.0425   17.7581   -4.4356 C   0  0  0  0  0  0  0  0  0  0  0  0
    1.0837   18.4425   -4.6257 N   0  0  0  0  0  0  0  0  0  0  0  0
   -1.0785   18.3543   -4.1668 O   0  0  0  0  0  0  0  0  0  0  0  0
    1.2872   15.6621   -4.7846 C   0  0  0  0  0  0  0  0  0  0  0  0
    1.4972   14.6867   -3.6289 C   0  0  0  0  0  0  0  0  0  0  0  0
    0.2909   13.7459   -3.4775 C   0  0  0  0  0  0  0  0  0  0  0  0
    0.5024   12.7829   -2.3024 C   0  0  0  0  0  0  0  0  0  0  0  0
    0.9672   13.2442   -1.2371 O   0  0  0  0  0  0  0  0  0  0  0  0
    0.1708   11.5873   -2.4639 O   0  0  0  0  0  0  0  0  0  0  0  0
  1  2  1  0
  2  3  1  0
  2 20  1  0
  3  4  1  0
  4 19  1  0
  4  5  2  0
  5  6  1  0
  6  7  2  0
  7  8  1  0
  7 18  1  0
  8  9  1  0
  9 10  2  0
  9 11  1  0
 11 12  1  0
 12 17  1  0
 12 13  2  0
 13 14  1  0
 14 15  2  0
 15 16  1  0
 16 17  2  0
 18 19  2  0
 20 21  2  0
 20 22  1  0
 22 23  1  0
 23 31  1  0
 23 24  1  0
 24 25  1  0
 25 26  1  0
 25 29  1  0
 26 27  1  0
 26 28  2  0
 29 30  1  0
 30 31  1  0
 31 32  1  0
 32 33  2  0
 32 34  1  0
M  CHG  1  34  -1
M  END
>  <original SMILES>  (27) 
CC(Oc1ccc(NC(=O)Nc2ccccc2)cn1)C(=O)NC1CN(C(N)=O)CCC1C(=O)[O-]

>  <ref_pdb>  (27) 
Combi88.pdb

>  <ref_mols>  (27) 
x0088_0A

>  <Glide GScore>  (27) 
-8.51694619689896

>  <RMSLigA>  (27) 
0.834538103780319

>  <RMSLigB>  (27) 
0.894703556317445

$$$$
Combi88_000019
     RDKit          3D

 33 35  0  0  1  0  0  0  0  0999 V2000
   -6.2628   14.1379   -3.9389 C   0  0  0  0  0  0  0  0  0  0  0  0
   -5.5589   13.1763   -2.9688 C   0  0  0  0  0  0  0  0  0  0  0  0
   -4.7644   13.8693   -1.9512 N   0  0  0  0  0  0  0  0  0  0  0  0
   -3.5517   14.5856   -2.3562 C   0  0  0  0  0  0  0  0  0  0  0  0
   -2.4990   13.6889   -3.0444 C   0  0  0  0  0  0  0  0  0  0  0  0
   -1.1933   14.4557   -3.3500 C   0  0  0  0  0  0  0  0  0  0  0  0
   -1.4193   15.4117   -4.5422 C   0  0  0  0  0  0  0  0  0  0  0  0
   -0.2286   16.2434   -4.6987 N   0  0  0  0  0  0  0  0  0  0  0  0
   -0.2236   17.5487   -4.3461 C   0  0  0  0  0  0  0  0  0  0  0  0
    0.9708   18.1362   -4.3066 N   0  0  0  0  0  0  0  0  0  0  0  0
   -1.2377   18.1710   -4.0367 O   0  0  0  0  0  0  0  0  0  0  0  0
    0.9204   15.4464   -5.1308 C   0  0  0  0  0  0  0  0  0  0  0  0
    1.2804   14.4445   -4.0272 C   0  0  0  0  0  0  0  0  0  0  0  0
    0.0596   13.5663   -3.6397 C   0  0  0  0  0  0  0  0  0  0  0  0
    0.4381   12.6862   -2.4365 C   0  0  0  0  0  0  0  0  0  0  0  0
    0.9707   13.2445   -1.4510 O   0  0  0  0  0  0  0  0  0  0  0  0
    0.1705   11.4655   -2.4928 O   0  0  0  0  0  0  0  0  0  0  0  0
   -5.3743   14.2081   -0.7184 C   0  0  0  0  0  0  0  0  0  0  0  0
   -6.7717   14.1397   -0.4911 C   0  0  0  0  0  0  0  0  0  0  0  0
   -7.2973   14.4320    0.7837 C   0  0  0  0  0  0  0  0  0  0  0  0
   -6.4213   14.7907    1.8328 C   0  0  0  0  0  0  0  0  0  0  0  0
   -6.8556   15.0168    3.1623 N   0  0  0  0  0  0  0  0  0  0  0  0
   -8.0170   15.5574    3.5528 C   0  0  0  0  0  0  0  0  0  0  0  0
   -8.8845   15.9649    2.7763 O   0  0  0  0  0  0  0  0  0  0  0  0
   -8.1217   15.5985    4.8887 N   0  0  0  0  0  0  0  0  0  0  0  0
   -9.0318   16.3874    5.6361 C   0  0  0  0  0  0  0  0  0  0  0  0
   -9.4329   15.9243    6.9071 C   0  0  0  0  0  0  0  0  0  0  0  0
  -10.2889   16.7043    7.7079 C   0  0  0  0  0  0  0  0  0  0  0  0
  -10.7280   17.9644    7.2547 C   0  0  0  0  0  0  0  0  0  0  0  0
  -10.3195   18.4360    5.9940 C   0  0  0  0  0  0  0  0  0  0  0  0
   -9.4819   17.6494    5.1817 C   0  0  0  0  0  0  0  0  0  0  0  0
   -5.0422   14.8576    1.5597 C   0  0  0  0  0  0  0  0  0  0  0  0
   -4.5845   14.5853    0.3171 N   0  0  0  0  0  0  0  0  0  0  0  0
  1  2  1  0
  2  3  1  0
  3  4  1  0
  3 18  1  0
  4  5  1  0
  5  6  1  0
  6 14  1  0
  6  7  1  0
  7  8  1  0
  8  9  1  0
  8 12  1  0
  9 10  1  0
  9 11  2  0
 12 13  1  0
 13 14  1  0
 14 15  1  0
 15 16  2  0
 15 17  1  0
 18 33  1  0
 18 19  2  0
 19 20  1  0
 20 21  2  0
 21 22  1  0
 21 32  1  0
 22 23  1  0
 23 24  2  0
 23 25  1  0
 25 26  1  0
 26 31  1  0
 26 27  2  0
 27 28  1  0
 28 29  2  0
 29 30  1  0
 30 31  2  0
 32 33  2  0
M  CHG  2  17  -1  33   1
M  END
>  <original SMILES>  (28) 
CCN(CCC1CN(C(N)=O)CCC1C(=O)[O-])c1ccc(NC(=O)Nc2ccccc2)c[nH+]1

>  <ref_pdb>  (28) 
Combi88.pdb

>  <ref_mols>  (28) 
x0088_0A

>  <Glide GScore>  (28) 
-8.60506053848239

>  <RMSLigA>  (28) 
0.655299505490905

>  <RMSLigB>  (28) 
0.696549108292206

$$$$
Combi88_000180
     RDKit          3D

 33 35  0  0  1  0  0  0  0  0999 V2000
    0.9703   18.3437   -4.3792 N   0  0  0  0  0  0  0  0  0  0  0  0
   -0.1369   17.6016   -4.4321 C   0  0  0  0  0  0  0  0  0  0  0  0
   -1.2397   18.1094   -4.2428 O   0  0  0  0  0  0  0  0  0  0  0  0
    0.0481   16.2896   -4.7121 N   0  0  0  0  0  0  0  0  0  0  0  0
    1.3382   15.5996   -4.8227 C   0  0  0  0  0  0  0  0  0  0  0  0
    1.5330   14.6492   -3.6364 C   0  0  0  0  0  0  0  0  0  0  0  0
    0.3425   13.6736   -3.5137 C   0  0  0  0  0  0  0  0  0  0  0  0
    0.5187   12.7488   -2.3045 C   0  0  0  0  0  0  0  0  0  0  0  0
    0.9696   13.2445   -1.2472 O   0  0  0  0  0  0  0  0  0  0  0  0
    0.1759   11.5529   -2.4369 O   0  0  0  0  0  0  0  0  0  0  0  0
   -0.9928   14.4693   -3.4778 C   0  0  0  0  0  0  0  0  0  0  0  0
   -2.1679   13.6136   -3.3211 N   0  0  0  0  0  0  0  0  0  0  0  0
   -3.4162   14.0514   -3.0890 C   0  0  0  0  0  0  0  0  0  0  0  0
   -3.7232   15.2440   -3.0747 O   0  0  0  0  0  0  0  0  0  0  0  0
   -4.4698   12.9713   -2.8304 C   0  0  0  0  0  0  0  0  0  0  0  0
   -5.7531   13.5355   -2.5449 O   0  0  0  0  0  0  0  0  0  0  0  0
   -6.0455   13.9184   -1.2508 C   0  0  0  0  0  0  0  0  0  0  0  0
   -7.3950   14.0586   -0.8796 C   0  0  0  0  0  0  0  0  0  0  0  0
   -7.7037   14.3768    0.4559 C   0  0  0  0  0  0  0  0  0  0  0  0
   -6.6483   14.5741    1.3775 C   0  0  0  0  0  0  0  0  0  0  0  0
   -6.8425   14.8440    2.7629 N   0  0  0  0  0  0  0  0  0  0  0  0
   -7.9170   15.4116    3.3335 C   0  0  0  0  0  0  0  0  0  0  0  0
   -8.8652   15.8823    2.7027 O   0  0  0  0  0  0  0  0  0  0  0  0
   -7.8300   15.4276    4.6725 N   0  0  0  0  0  0  0  0  0  0  0  0
   -8.7471   16.0434    5.5646 C   0  0  0  0  0  0  0  0  0  0  0  0
   -8.9389   15.4527    6.8294 C   0  0  0  0  0  0  0  0  0  0  0  0
   -9.8258   16.0320    7.7581 C   0  0  0  0  0  0  0  0  0  0  0  0
  -10.5116   17.2201    7.4365 C   0  0  0  0  0  0  0  0  0  0  0  0
  -10.3041   17.8333    6.1865 C   0  0  0  0  0  0  0  0  0  0  0  0
   -9.4282   17.2477    5.2526 C   0  0  0  0  0  0  0  0  0  0  0  0
   -5.3322   14.4449    0.8935 C   0  0  0  0  0  0  0  0  0  0  0  0
   -5.0302   14.1215   -0.3807 N   0  0  0  0  0  0  0  0  0  0  0  0
   -1.0690   15.3424   -4.7499 C   0  0  0  0  0  0  0  0  0  0  0  0
  1  2  1  0
  2  3  2  0
  2  4  1  0
  4 33  1  0
  4  5  1  0
  5  6  1  0
  6  7  1  0
  7  8  1  0
  7 11  1  0
  8  9  2  0
  8 10  1  0
 11 12  1  0
 11 33  1  0
 12 13  1  0
 13 14  2  0
 13 15  1  0
 15 16  1  0
 16 17  1  0
 17 32  1  0
 17 18  2  0
 18 19  1  0
 19 20  2  0
 20 21  1  0
 20 31  1  0
 21 22  1  0
 22 23  2  0
 22 24  1  0
 24 25  1  0
 25 30  1  0
 25 26  2  0
 26 27  1  0
 27 28  2  0
 28 29  1  0
 29 30  2  0
 31 32  2  0
M  CHG  1  10  -1
M  END
>  <original SMILES>  (29) 
NC(=O)N1CCC(C(=O)[O-])C(NC(=O)COc2ccc(NC(=O)Nc3ccccc3)cn2)C1

>  <ref_pdb>  (29) 
Combi88.pdb

>  <ref_mols>  (29) 
x0088_0A

>  <Glide GScore>  (29) 
-8.44083256279562

>  <RMSLigA>  (29) 
0.80797222134965

>  <RMSLigB>  (29) 
0.790343271607608

$$$$
Combi88_000026
     RDKit          3D

 33 35  0  0  1  0  0  0  0  0999 V2000
   -4.2989   15.4167   -2.7534 C   0  0  0  0  0  0  0  0  0  0  0  0
   -4.4547   13.9759   -2.2826 C   0  0  0  0  0  0  0  0  0  0  0  0
   -5.3583   13.2249   -3.2895 C   0  0  0  0  0  0  0  0  0  0  0  0
   -3.0776   13.2578   -2.2560 C   0  0  0  0  0  0  0  0  0  0  0  0
   -2.3892   13.3144   -3.5122 O   0  0  0  0  0  0  0  0  0  0  0  0
   -1.2519   14.1855   -3.5823 C   0  0  0  0  0  0  0  0  0  0  0  0
   -1.4335   15.1272   -4.7938 C   0  0  0  0  0  0  0  0  0  0  0  0
   -0.3204   16.0795   -4.8193 N   0  0  0  0  0  0  0  0  0  0  0  0
   -0.4692   17.3718   -4.4359 C   0  0  0  0  0  0  0  0  0  0  0  0
    0.6627   18.0586   -4.2934 N   0  0  0  0  0  0  0  0  0  0  0  0
   -1.5547   17.9072   -4.2041 O   0  0  0  0  0  0  0  0  0  0  0  0
    0.9489   15.4008   -5.1057 C   0  0  0  0  0  0  0  0  0  0  0  0
    1.2599   14.4090   -3.9805 C   0  0  0  0  0  0  0  0  0  0  0  0
    0.0869   13.4138   -3.7853 C   0  0  0  0  0  0  0  0  0  0  0  0
    0.4085   12.4516   -2.6371 C   0  0  0  0  0  0  0  0  0  0  0  0
    0.9783   12.9314   -1.6365 O   0  0  0  0  0  0  0  0  0  0  0  0
    0.1206   11.2442   -2.7740 O   0  0  0  0  0  0  0  0  0  0  0  0
   -5.0914   14.0722   -0.8838 C   0  0  0  0  0  0  0  0  0  0  0  0
   -6.4527   13.7565   -0.6462 C   0  0  0  0  0  0  0  0  0  0  0  0
   -7.0161   14.0437    0.6101 C   0  0  0  0  0  0  0  0  0  0  0  0
   -6.1973   14.6201    1.6006 C   0  0  0  0  0  0  0  0  0  0  0  0
   -6.6293   14.8447    2.9282 N   0  0  0  0  0  0  0  0  0  0  0  0
   -7.8291   15.2435    3.3547 C   0  0  0  0  0  0  0  0  0  0  0  0
   -8.7629   15.5661    2.6172 O   0  0  0  0  0  0  0  0  0  0  0  0
   -7.8663   15.2477    4.6954 N   0  0  0  0  0  0  0  0  0  0  0  0
   -8.8105   15.8910    5.5365 C   0  0  0  0  0  0  0  0  0  0  0  0
   -8.9301   15.4216    6.8600 C   0  0  0  0  0  0  0  0  0  0  0  0
   -9.8372   16.0279    7.7513 C   0  0  0  0  0  0  0  0  0  0  0  0
  -10.6201   17.1205    7.3281 C   0  0  0  0  0  0  0  0  0  0  0  0
  -10.4882   17.6090    6.0152 C   0  0  0  0  0  0  0  0  0  0  0  0
   -9.5846   17.0014    5.1211 C   0  0  0  0  0  0  0  0  0  0  0  0
   -4.8556   14.8932    1.2774 C   0  0  0  0  0  0  0  0  0  0  0  0
   -4.3198   14.6559    0.0638 N   0  0  0  0  0  0  0  0  0  0  0  0
  1  2  1  0
  2  3  1  0
  2  4  1  0
  2 18  1  0
  4  5  1  0
  5  6  1  0
  6 14  1  0
  6  7  1  0
  7  8  1  0
  8  9  1  0
  8 12  1  0
  9 10  1  0
  9 11  2  0
 12 13  1  0
 13 14  1  0
 14 15  1  0
 15 16  2  0
 15 17  1  0
 18 33  1  0
 18 19  2  0
 19 20  1  0
 20 21  2  0
 21 22  1  0
 21 32  1  0
 22 23  1  0
 23 24  2  0
 23 25  1  0
 25 26  1  0
 26 31  1  0
 26 27  2  0
 27 28  1  0
 28 29  2  0
 29 30  1  0
 30 31  2  0
 32 33  2  0
M  CHG  1  17  -1
M  END
>  <original SMILES>  (30) 
CC(C)(COC1CN(C(N)=O)CCC1C(=O)[O-])c1ccc(NC(=O)Nc2ccccc2)cn1

>  <ref_pdb>  (30) 
Combi88.pdb

>  <ref_mols>  (30) 
x0088_0A

>  <Glide GScore>  (30) 
-8.40132578916225

>  <RMSLigA>  (30) 
0.588016574978387

>  <RMSLigB>  (30) 
0.488755417451817

$$$$
Combi88_000099
     RDKit          3D

 34 36  0  0  1  0  0  0  0  0999 V2000
   -6.3585   14.0774   -3.9243 C   0  0  0  0  0  0  0  0  0  0  0  0
   -5.5815   13.1475   -2.9773 C   0  0  0  0  0  0  0  0  0  0  0  0
   -4.7009   13.8684   -2.0520 N   0  0  0  0  0  0  0  0  0  0  0  0
   -3.5256   14.5915   -2.5747 C   0  0  0  0  0  0  0  0  0  0  0  0
   -2.3668   13.7171   -3.1549 C   0  0  0  0  0  0  0  0  0  0  0  0
   -2.7103   13.0190   -4.4930 C   0  0  0  0  0  0  0  0  0  0  0  0
   -1.0504   14.5538   -3.2851 C   0  0  0  0  0  0  0  0  0  0  0  0
   -1.1538   15.6092   -4.4205 C   0  0  0  0  0  0  0  0  0  0  0  0
    0.0561   16.4408   -4.4933 N   0  0  0  0  0  0  0  0  0  0  0  0
    0.0003   17.7909   -4.3994 C   0  0  0  0  0  0  0  0  0  0  0  0
    1.1562   18.4371   -4.5223 N   0  0  0  0  0  0  0  0  0  0  0  0
   -1.0350   18.4228   -4.2085 O   0  0  0  0  0  0  0  0  0  0  0  0
    1.2612   15.6503   -4.7621 C   0  0  0  0  0  0  0  0  0  0  0  0
    1.4803   14.6482   -3.6333 C   0  0  0  0  0  0  0  0  0  0  0  0
    0.2591   13.7171   -3.4678 C   0  0  0  0  0  0  0  0  0  0  0  0
    0.5128   12.7613   -2.2946 C   0  0  0  0  0  0  0  0  0  0  0  0
    0.9694   13.2447   -1.2368 O   0  0  0  0  0  0  0  0  0  0  0  0
    0.2132   11.5536   -2.4425 O   0  0  0  0  0  0  0  0  0  0  0  0
   -5.2572   14.2471   -0.7979 C   0  0  0  0  0  0  0  0  0  0  0  0
   -6.6439   14.1554   -0.5034 C   0  0  0  0  0  0  0  0  0  0  0  0
   -7.1275   14.4443    0.7874 C   0  0  0  0  0  0  0  0  0  0  0  0
   -6.2247   14.8438    1.7965 C   0  0  0  0  0  0  0  0  0  0  0  0
   -6.6292   15.0506    3.1470 N   0  0  0  0  0  0  0  0  0  0  0  0
   -7.8077   15.5295    3.5765 C   0  0  0  0  0  0  0  0  0  0  0  0
   -8.6929   15.9490    2.8284 O   0  0  0  0  0  0  0  0  0  0  0  0
   -7.8945   15.5003    4.9136 N   0  0  0  0  0  0  0  0  0  0  0  0
   -8.8933   16.1031    5.7224 C   0  0  0  0  0  0  0  0  0  0  0  0
   -9.1666   15.5231    6.9774 C   0  0  0  0  0  0  0  0  0  0  0  0
  -10.1235   16.1008    7.8365 C   0  0  0  0  0  0  0  0  0  0  0  0
  -10.7943   17.2791    7.4572 C   0  0  0  0  0  0  0  0  0  0  0  0
  -10.5096   17.8793    6.2148 C   0  0  0  0  0  0  0  0  0  0  0  0
   -9.5640   17.2955    5.3488 C   0  0  0  0  0  0  0  0  0  0  0  0
   -4.8608   14.9579    1.4579 C   0  0  0  0  0  0  0  0  0  0  0  0
   -4.4397   14.6754    0.1981 N   0  0  0  0  0  0  0  0  0  0  0  0
  1  2  1  0
  2  3  1  0
  3  4  1  0
  3 19  1  0
  4  5  1  0
  5  6  1  0
  5  7  1  0
  7 15  1  0
  7  8  1  0
  8  9  1  0
  9 10  1  0
  9 13  1  0
 10 11  1  0
 10 12  2  0
 13 14  1  0
 14 15  1  0
 15 16  1  0
 16 17  2  0
 16 18  1  0
 19 34  1  0
 19 20  2  0
 20 21  1  0
 21 22  2  0
 22 23  1  0
 22 33  1  0
 23 24  1  0
 24 25  2  0
 24 26  1  0
 26 27  1  0
 27 32  1  0
 27 28  2  0
 28 29  1  0
 29 30  2  0
 30 31  1  0
 31 32  2  0
 33 34  2  0
M  CHG  2  18  -1  34   1
M  END
>  <original SMILES>  (31) 
CCN(CC(C)C1CN(C(N)=O)CCC1C(=O)[O-])c1ccc(NC(=O)Nc2ccccc2)c[nH+]1

>  <ref_pdb>  (31) 
Combi88.pdb

>  <ref_mols>  (31) 
x0088_0A

>  <Glide GScore>  (31) 
-8.48724306593053

>  <RMSLigA>  (31) 
0.588962714388239

>  <RMSLigB>  (31) 
0.921468994414354

$$$$
Combi88_000014
     RDKit          3D

 32 34  0  0  1  0  0  0  0  0999 V2000
    0.3645   18.0680   -4.3178 N   0  0  0  0  0  0  0  0  0  0  0  0
   -0.6831   17.2524   -4.4297 C   0  0  0  0  0  0  0  0  0  0  0  0
   -1.8279   17.6689   -4.2519 O   0  0  0  0  0  0  0  0  0  0  0  0
   -0.3761   15.9644   -4.7148 N   0  0  0  0  0  0  0  0  0  0  0  0
    0.9705   15.4303   -4.9483 C   0  0  0  0  0  0  0  0  0  0  0  0
    1.3225   14.4824   -3.8066 C   0  0  0  0  0  0  0  0  0  0  0  0
    0.2874   13.3336   -3.7136 C   0  0  0  0  0  0  0  0  0  0  0  0
    0.6353   12.4023   -2.5420 C   0  0  0  0  0  0  0  0  0  0  0  0
    0.1708   11.2441   -2.5578 O   0  0  0  0  0  0  0  0  0  0  0  0
    1.3704   12.8442   -1.6372 O   0  0  0  0  0  0  0  0  0  0  0  0
   -1.1777   13.8759   -3.6416 C   0  0  0  0  0  0  0  0  0  0  0  0
   -2.2309   12.7391   -3.7099 C   0  0  0  0  0  0  0  0  0  0  0  0
   -3.6248   13.2165   -3.7773 N   0  0  0  0  0  0  0  0  0  0  0  0
   -4.3413   13.7910   -2.7922 C   0  0  0  0  0  0  0  0  0  0  0  0
   -3.8282   14.0748   -1.5839 N   0  0  0  0  0  0  0  0  0  0  0  0
   -4.6576   14.4444   -0.4762 C   0  0  0  0  0  0  0  0  0  0  0  0
   -6.0129   14.0468   -0.4302 C   0  0  0  0  0  0  0  0  0  0  0  0
   -6.7326   14.2630    0.7637 C   0  0  0  0  0  0  0  0  0  0  0  0
   -6.0613   14.8458    1.8605 C   0  0  0  0  0  0  0  0  0  0  0  0
   -6.6293   14.9531    3.1574 N   0  0  0  0  0  0  0  0  0  0  0  0
   -7.8688   15.3207    3.4878 C   0  0  0  0  0  0  0  0  0  0  0  0
   -8.7403   15.6416    2.6785 O   0  0  0  0  0  0  0  0  0  0  0  0
   -8.0266   15.2983    4.8185 N   0  0  0  0  0  0  0  0  0  0  0  0
   -8.9288   16.0840    5.5793 C   0  0  0  0  0  0  0  0  0  0  0  0
   -9.2680   15.6415    6.8738 C   0  0  0  0  0  0  0  0  0  0  0  0
  -10.1288   16.4070    7.6839 C   0  0  0  0  0  0  0  0  0  0  0  0
  -10.6294   17.6386    7.2158 C   0  0  0  0  0  0  0  0  0  0  0  0
  -10.2712   18.1005    5.9363 C   0  0  0  0  0  0  0  0  0  0  0  0
   -9.4299   17.3262    5.1164 C   0  0  0  0  0  0  0  0  0  0  0  0
   -4.7198   15.2443    1.6836 C   0  0  0  0  0  0  0  0  0  0  0  0
   -4.0270   15.0553    0.5432 N   0  0  0  0  0  0  0  0  0  0  0  0
   -1.3958   14.9081   -4.7774 C   0  0  0  0  0  0  0  0  0  0  0  0
  1  2  1  0
  2  3  2  0
  2  4  1  0
  4 32  1  0
  4  5  1  0
  5  6  1  0
  6  7  1  0
  7  8  1  0
  7 11  1  0
  8  9  2  0
  8 10  1  0
 11 12  1  0
 11 32  1  0
 12 13  1  0
 13 14  2  0
 14 15  1  0
 15 16  1  0
 16 31  1  0
 16 17  2  0
 17 18  1  0
 18 19  2  0
 19 20  1  0
 19 30  1  0
 20 21  1  0
 21 22  2  0
 21 23  1  0
 23 24  1  0
 24 29  1  0
 24 25  2  0
 25 26  1  0
 26 27  2  0
 27 28  1  0
 28 29  2  0
 30 31  2  0
M  CHG  2  10  -1  13   1
M  END
>  <original SMILES>  (32) 
NC(=O)N1CCC(C(=O)[O-])C(C/[NH+]=C\Nc2ccc(NC(=O)Nc3ccccc3)cn2)C1

>  <ref_pdb>  (32) 
Combi88.pdb

>  <ref_mols>  (32) 
x0088_0A

>  <Glide GScore>  (32) 
-8.36088516076362

>  <RMSLigA>  (32) 
0.525106616953346

>  <RMSLigB>  (32) 
0.966753890120308

$$$$
Combi88_000080
     RDKit          3D

 34 36  0  0  1  0  0  0  0  0999 V2000
    0.4157   17.9508   -4.3272 N   0  0  0  0  0  0  0  0  0  0  0  0
   -0.6382   17.1577   -4.5291 C   0  0  0  0  0  0  0  0  0  0  0  0
   -1.7787   17.6070   -4.4182 O   0  0  0  0  0  0  0  0  0  0  0  0
   -0.3404   15.8690   -4.8367 N   0  0  0  0  0  0  0  0  0  0  0  0
    0.9956   15.3290   -5.1033 C   0  0  0  0  0  0  0  0  0  0  0  0
    1.3774   14.3880   -3.9574 C   0  0  0  0  0  0  0  0  0  0  0  0
    0.3407   13.2420   -3.7931 C   0  0  0  0  0  0  0  0  0  0  0  0
    0.6708   12.4085   -2.5359 C   0  0  0  0  0  0  0  0  0  0  0  0
    0.2275   11.2442   -2.4725 O   0  0  0  0  0  0  0  0  0  0  0  0
    1.3706   12.9255   -1.6401 O   0  0  0  0  0  0  0  0  0  0  0  0
   -1.1208   13.7927   -3.7590 C   0  0  0  0  0  0  0  0  0  0  0  0
   -2.2152   12.6767   -3.7591 C   0  0  0  0  0  0  0  0  0  0  0  0
   -3.5835   13.1801   -3.5539 N   0  0  0  0  0  0  0  0  0  0  0  0
   -3.8763   14.3335   -2.3168 S   0  0  0  0  0  0  0  0  0  0  0  0
   -2.9271   14.0443   -1.2364 O   0  0  0  0  0  0  0  0  0  0  0  0
   -3.8292   15.6442   -2.9670 O   0  0  0  0  0  0  0  0  0  0  0  0
   -5.4480   13.9726   -1.8806 N   0  0  0  0  0  0  0  0  0  0  0  0
   -5.8592   14.2685   -0.6866 C   0  0  0  0  0  0  0  0  0  0  0  0
   -7.2500   14.1111   -0.2888 C   0  0  0  0  0  0  0  0  0  0  0  0
   -7.6542   14.3991    0.9701 C   0  0  0  0  0  0  0  0  0  0  0  0
   -6.7085   14.8439    1.9891 C   0  0  0  0  0  0  0  0  0  0  0  0
   -7.0437   15.0718    3.3218 N   0  0  0  0  0  0  0  0  0  0  0  0
   -8.1925   15.5955    3.7739 C   0  0  0  0  0  0  0  0  0  0  0  0
   -9.0991   16.0223    3.0546 O   0  0  0  0  0  0  0  0  0  0  0  0
   -8.2293   15.6092    5.1139 N   0  0  0  0  0  0  0  0  0  0  0  0
   -9.1768   16.2846    5.9239 C   0  0  0  0  0  0  0  0  0  0  0  0
   -9.7275   17.5376    5.5570 C   0  0  0  0  0  0  0  0  0  0  0  0
  -10.6294   18.1942    6.4143 C   0  0  0  0  0  0  0  0  0  0  0  0
  -11.0017   17.5988    7.6344 C   0  0  0  0  0  0  0  0  0  0  0  0
  -10.4484   16.3587    8.0086 C   0  0  0  0  0  0  0  0  0  0  0  0
   -9.5250   15.7119    7.1646 C   0  0  0  0  0  0  0  0  0  0  0  0
   -5.4297   14.9813    1.6143 C   0  0  0  0  0  0  0  0  0  0  0  0
   -5.0092   14.7626    0.3149 N   0  0  0  0  0  0  0  0  0  0  0  0
   -1.3436   14.7997   -4.9149 C   0  0  0  0  0  0  0  0  0  0  0  0
  1  2  1  0
  2  3  2  0
  2  4  1  0
  4 34  1  0
  4  5  1  0
  5  6  1  0
  6  7  1  0
  7  8  1  0
  7 11  1  0
  8  9  2  0
  8 10  1  0
 11 12  1  0
 11 34  1  0
 12 13  1  0
 13 14  1  0
 14 15  2  0
 14 16  2  0
 14 17  1  0
 17 18  2  0
 18 33  1  0
 18 19  1  0
 19 20  2  0
 20 21  1  0
 21 22  1  0
 21 32  2  0
 22 23  1  0
 23 24  2  0
 23 25  1  0
 25 26  1  0
 26 31  1  0
 26 27  2  0
 27 28  1  0
 28 29  2  0
 29 30  1  0
 30 31  2  0
 32 33  1  0
M  CHG  1  10  -1
M  END
>  <original SMILES>  (33) 
NC(=O)N1CCC(C(=O)[O-])C(CNS(=O)(=O)/N=c2/ccc(NC(=O)Nc3ccccc3)c[nH]2)C1

>  <ref_pdb>  (33) 
Combi88.pdb

>  <ref_mols>  (33) 
x0088_0A

>  <Glide GScore>  (33) 
-8.62278403445281

>  <RMSLigA>  (33) 
0.932006624056195

>  <RMSLigB>  (33) 
0.992720398678382

$$$$
Combi88_000128
     RDKit          3D

 34 36  0  0  1  0  0  0  0  0999 V2000
   -5.9089   12.3104   -2.6457 C   0  0  0  0  0  0  0  0  0  0  0  0
   -5.1301   13.4804   -2.2027 N   0  0  0  0  0  0  0  0  0  0  0  0
   -4.1850   13.9410   -3.0677 C   0  0  0  0  0  0  0  0  0  0  0  0
   -4.1459   13.5439   -4.2346 O   0  0  0  0  0  0  0  0  0  0  0  0
   -3.1546   15.0155   -2.6836 C   0  0  0  0  0  0  0  0  0  0  0  0
   -1.7042   14.4619   -2.5652 C   0  0  0  0  0  0  0  0  0  0  0  0
   -1.0673   13.8979   -3.8704 C   0  0  0  0  0  0  0  0  0  0  0  0
   -1.1382   14.9025   -5.0507 C   0  0  0  0  0  0  0  0  0  0  0  0
   -0.2088   16.0216   -4.8335 N   0  0  0  0  0  0  0  0  0  0  0  0
   -0.6116   17.2790   -4.5187 C   0  0  0  0  0  0  0  0  0  0  0  0
    0.3775   18.1435   -4.2968 N   0  0  0  0  0  0  0  0  0  0  0  0
   -1.7842   17.6443   -4.4368 O   0  0  0  0  0  0  0  0  0  0  0  0
    1.1837   15.5541   -4.8646 C   0  0  0  0  0  0  0  0  0  0  0  0
    1.4111   14.6115   -3.6843 C   0  0  0  0  0  0  0  0  0  0  0  0
    0.4169   13.4244   -3.7393 C   0  0  0  0  0  0  0  0  0  0  0  0
    0.6620   12.4438   -2.5833 C   0  0  0  0  0  0  0  0  0  0  0  0
    1.3707   12.8442   -1.6367 O   0  0  0  0  0  0  0  0  0  0  0  0
    0.1696   11.2977   -2.6567 O   0  0  0  0  0  0  0  0  0  0  0  0
   -5.4797   14.0566   -0.9353 C   0  0  0  0  0  0  0  0  0  0  0  0
   -6.8623   14.1152   -0.6327 C   0  0  0  0  0  0  0  0  0  0  0  0
   -7.2868   14.4881    0.6524 C   0  0  0  0  0  0  0  0  0  0  0  0
   -6.3174   14.8367    1.6150 C   0  0  0  0  0  0  0  0  0  0  0  0
   -6.6315   15.0733    2.9787 N   0  0  0  0  0  0  0  0  0  0  0  0
   -7.7919   15.5284    3.4769 C   0  0  0  0  0  0  0  0  0  0  0  0
   -8.7029   15.9950    2.7896 O   0  0  0  0  0  0  0  0  0  0  0  0
   -7.8293   15.4258    4.8124 N   0  0  0  0  0  0  0  0  0  0  0  0
   -8.7568   16.0444    5.6908 C   0  0  0  0  0  0  0  0  0  0  0  0
   -8.9573   15.4575    6.9564 C   0  0  0  0  0  0  0  0  0  0  0  0
   -9.8469   16.0406    7.8790 C   0  0  0  0  0  0  0  0  0  0  0  0
  -10.5341   17.2250    7.5483 C   0  0  0  0  0  0  0  0  0  0  0  0
  -10.3195   17.8340    6.2974 C   0  0  0  0  0  0  0  0  0  0  0  0
   -9.4333   17.2492    5.3722 C   0  0  0  0  0  0  0  0  0  0  0  0
   -4.9697   14.8432    1.2112 C   0  0  0  0  0  0  0  0  0  0  0  0
   -4.5632   14.4444   -0.0141 N   0  0  0  0  0  0  0  0  0  0  0  0
  1  2  1  0
  2  3  1  0
  2 19  1  0
  3  4  2  0
  3  5  1  0
  5  6  1  0
  6  7  1  0
  7 15  1  0
  7  8  1  0
  8  9  1  0
  9 10  1  0
  9 13  1  0
 10 11  1  0
 10 12  2  0
 13 14  1  0
 14 15  1  0
 15 16  1  0
 16 17  2  0
 16 18  1  0
 19 34  1  0
 19 20  2  0
 20 21  1  0
 21 22  2  0
 22 23  1  0
 22 33  1  0
 23 24  1  0
 24 25  2  0
 24 26  1  0
 26 27  1  0
 27 32  1  0
 27 28  2  0
 28 29  1  0
 29 30  2  0
 30 31  1  0
 31 32  2  0
 33 34  2  0
M  CHG  1  18  -1
M  END
>  <original SMILES>  (34) 
CN(C(=O)CCC1CN(C(N)=O)CCC1C(=O)[O-])c1ccc(NC(=O)Nc2ccccc2)cn1

>  <ref_pdb>  (34) 
Combi88.pdb

>  <ref_mols>  (34) 
x0088_0A

>  <Glide GScore>  (34) 
-8.1814839890759

>  <RMSLigA>  (34) 
0.607731606366454

>  <RMSLigB>  (34) 
0.478319572718038

$$$$
Combi88_000011
     RDKit          3D

 32 34  0  0  1  0  0  0  0  0999 V2000
   -3.0821   12.9950   -4.7527 C   0  0  0  0  0  0  0  0  0  0  0  0
   -2.2951   13.3257   -3.4704 C   0  0  0  0  0  0  0  0  0  0  0  0
   -3.2265   13.5164   -2.2606 C   0  0  0  0  0  0  0  0  0  0  0  0
   -4.1852   14.7177   -2.3121 C   0  0  0  0  0  0  0  0  0  0  0  0
   -4.9436   14.8326   -1.0037 C   0  0  0  0  0  0  0  0  0  0  0  0
   -6.2941   14.4404   -0.9070 C   0  0  0  0  0  0  0  0  0  0  0  0
   -6.9061   14.4485    0.3615 C   0  0  0  0  0  0  0  0  0  0  0  0
   -6.1387   14.8420    1.4778 C   0  0  0  0  0  0  0  0  0  0  0  0
   -6.6276   14.8119    2.8042 N   0  0  0  0  0  0  0  0  0  0  0  0
   -7.8157   15.2444    3.2437 C   0  0  0  0  0  0  0  0  0  0  0  0
   -8.7412   15.5874    2.5060 O   0  0  0  0  0  0  0  0  0  0  0  0
   -7.8604   15.2488    4.5873 N   0  0  0  0  0  0  0  0  0  0  0  0
   -8.8222   15.8733    5.4327 C   0  0  0  0  0  0  0  0  0  0  0  0
   -8.8894   15.4373    6.7743 C   0  0  0  0  0  0  0  0  0  0  0  0
   -9.8122   16.0186    7.6663 C   0  0  0  0  0  0  0  0  0  0  0  0
  -10.6602   17.0562    7.2333 C   0  0  0  0  0  0  0  0  0  0  0  0
  -10.5873   17.5141    5.9036 C   0  0  0  0  0  0  0  0  0  0  0  0
   -9.6728   16.9284    5.0070 C   0  0  0  0  0  0  0  0  0  0  0  0
   -4.8005   15.2299    1.2683 C   0  0  0  0  0  0  0  0  0  0  0  0
   -4.2169   15.2477    0.0543 N   0  0  0  0  0  0  0  0  0  0  0  0
   -1.2156   14.4532   -3.5903 C   0  0  0  0  0  0  0  0  0  0  0  0
   -1.3799   15.3422   -4.8358 C   0  0  0  0  0  0  0  0  0  0  0  0
   -0.3147   16.3443   -4.8412 N   0  0  0  0  0  0  0  0  0  0  0  0
   -0.5085   17.6014   -4.3815 C   0  0  0  0  0  0  0  0  0  0  0  0
    0.5932   18.3464   -4.3033 N   0  0  0  0  0  0  0  0  0  0  0  0
   -1.6029   18.0453   -4.0371 O   0  0  0  0  0  0  0  0  0  0  0  0
    0.9833   15.7196   -5.0987 C   0  0  0  0  0  0  0  0  0  0  0  0
    1.3515   14.9229   -3.8458 C   0  0  0  0  0  0  0  0  0  0  0  0
    0.2449   13.8946   -3.4902 C   0  0  0  0  0  0  0  0  0  0  0  0
    0.5630   13.3557   -2.0909 C   0  0  0  0  0  0  0  0  0  0  0  0
    0.1104   13.9483   -1.0893 O   0  0  0  0  0  0  0  0  0  0  0  0
    1.3557   12.3951   -2.0374 O   0  0  0  0  0  0  0  0  0  0  0  0
  1  2  1  0
  2  3  1  0
  2 21  1  0
  3  4  1  0
  4  5  1  0
  5 20  1  0
  5  6  2  0
  6  7  1  0
  7  8  2  0
  8  9  1  0
  8 19  1  0
  9 10  1  0
 10 11  2  0
 10 12  1  0
 12 13  1  0
 13 18  1  0
 13 14  2  0
 14 15  1  0
 15 16  2  0
 16 17  1  0
 17 18  2  0
 19 20  2  0
 21 29  1  0
 21 22  1  0
 22 23  1  0
 23 24  1  0
 23 27  1  0
 24 25  1  0
 24 26  2  0
 27 28  1  0
 28 29  1  0
 29 30  1  0
 30 31  2  0
 30 32  1  0
M  CHG  1  32  -1
M  END
>  <original SMILES>  (35) 
CC(CCc1ccc(NC(=O)Nc2ccccc2)cn1)C1CN(C(N)=O)CCC1C(=O)[O-]

>  <ref_pdb>  (35) 
Combi88.pdb

>  <ref_mols>  (35) 
x0088_0A

>  <Glide GScore>  (35) 
-8.14803050796276

>  <RMSLigA>  (35) 
0.377752962542734

>  <RMSLigB>  (35) 
0.887108570373764

$$$$
Combi88_000017
     RDKit          3D

 33 35  0  0  1  0  0  0  0  0999 V2000
   -3.5972   11.7283   -4.6705 C   0  0  0  0  0  0  0  0  0  0  0  0
   -2.2333   12.1406   -4.0974 C   0  0  0  0  0  0  0  0  0  0  0  0
   -2.2769   13.4955   -3.4819 N   0  0  0  0  0  0  0  0  0  0  0  0
   -3.0025   13.5606   -2.1858 C   0  0  0  0  0  0  0  0  0  0  0  0
   -3.9778   14.7491   -2.1574 C   0  0  0  0  0  0  0  0  0  0  0  0
   -4.7639   14.8140   -0.8625 C   0  0  0  0  0  0  0  0  0  0  0  0
   -6.1212   14.4325   -0.8241 C   0  0  0  0  0  0  0  0  0  0  0  0
   -6.7920   14.4467    0.4131 C   0  0  0  0  0  0  0  0  0  0  0  0
   -6.0755   14.8438    1.5620 C   0  0  0  0  0  0  0  0  0  0  0  0
   -6.6292   14.8008    2.8633 N   0  0  0  0  0  0  0  0  0  0  0  0
   -7.8263   15.2445    3.2571 C   0  0  0  0  0  0  0  0  0  0  0  0
   -8.7234   15.6031    2.4920 O   0  0  0  0  0  0  0  0  0  0  0  0
   -7.9106   15.2447    4.5963 N   0  0  0  0  0  0  0  0  0  0  0  0
   -8.7972   16.0018    5.4045 C   0  0  0  0  0  0  0  0  0  0  0  0
   -9.0038   15.5688    6.7308 C   0  0  0  0  0  0  0  0  0  0  0  0
   -9.8468   16.2943    7.5935 C   0  0  0  0  0  0  0  0  0  0  0  0
  -10.4710   17.4750    7.1442 C   0  0  0  0  0  0  0  0  0  0  0  0
  -10.2489   17.9281    5.8291 C   0  0  0  0  0  0  0  0  0  0  0  0
   -9.4212   17.1942    4.9589 C   0  0  0  0  0  0  0  0  0  0  0  0
   -4.7240   15.2216    1.4132 C   0  0  0  0  0  0  0  0  0  0  0  0
   -4.0777   15.2202    0.2269 N   0  0  0  0  0  0  0  0  0  0  0  0
   -1.0229   14.3188   -3.5088 C   0  0  0  0  0  0  0  0  0  0  0  0
   -1.1013   15.2775   -4.7125 C   0  0  0  0  0  0  0  0  0  0  0  0
    0.0272   16.2135   -4.6720 N   0  0  0  0  0  0  0  0  0  0  0  0
   -0.1454   17.5276   -4.3884 C   0  0  0  0  0  0  0  0  0  0  0  0
    0.9706   18.2506   -4.3275 N   0  0  0  0  0  0  0  0  0  0  0  0
   -1.2451   18.0439   -4.1906 O   0  0  0  0  0  0  0  0  0  0  0  0
    1.3135   15.5221   -4.8211 C   0  0  0  0  0  0  0  0  0  0  0  0
    1.5156   14.5620   -3.6499 C   0  0  0  0  0  0  0  0  0  0  0  0
    0.3462   13.5573   -3.5401 C   0  0  0  0  0  0  0  0  0  0  0  0
    0.5707   12.6805   -2.3068 C   0  0  0  0  0  0  0  0  0  0  0  0
    0.9096   13.2441   -1.2421 O   0  0  0  0  0  0  0  0  0  0  0  0
    0.4029   11.4491   -2.4369 O   0  0  0  0  0  0  0  0  0  0  0  0
  1  2  1  0
  2  3  1  0
  3  4  1  0
  3 22  1  0
  4  5  1  0
  5  6  1  0
  6 21  1  0
  6  7  2  0
  7  8  1  0
  8  9  2  0
  9 10  1  0
  9 20  1  0
 10 11  1  0
 11 12  2  0
 11 13  1  0
 13 14  1  0
 14 19  1  0
 14 15  2  0
 15 16  1  0
 16 17  2  0
 17 18  1  0
 18 19  2  0
 20 21  2  0
 22 30  1  0
 22 23  1  0
 23 24  1  0
 24 25  1  0
 24 28  1  0
 25 26  1  0
 25 27  2  0
 28 29  1  0
 29 30  1  0
 30 31  1  0
 31 32  2  0
 31 33  1  0
M  CHG  2   3   1  33  -1
M  END
>  <original SMILES>  (36) 
CC[NH+](CCc1ccc(NC(=O)Nc2ccccc2)cn1)C1CN(C(N)=O)CCC1C(=O)[O-]

>  <ref_pdb>  (36) 
Combi88.pdb

>  <ref_mols>  (36) 
x0088_0A

>  <Glide GScore>  (36) 
-8.13330641302031

>  <RMSLigA>  (36) 
0.252673400365843

>  <RMSLigB>  (36) 
0.755250456013434

$$$$
Combi88_000186
     RDKit          3D

 34 36  0  0  1  0  0  0  0  0999 V2000
    0.9707   18.2717   -4.2716 N   0  0  0  0  0  0  0  0  0  0  0  0
   -0.1384   17.5334   -4.2688 C   0  0  0  0  0  0  0  0  0  0  0  0
   -1.2331   18.0455   -4.0374 O   0  0  0  0  0  0  0  0  0  0  0  0
    0.0375   16.2223   -4.5505 N   0  0  0  0  0  0  0  0  0  0  0  0
    1.3120   15.5566   -4.8407 C   0  0  0  0  0  0  0  0  0  0  0  0
    1.5537   14.4702   -3.8002 C   0  0  0  0  0  0  0  0  0  0  0  0
    0.3913   13.4450   -3.7651 C   0  0  1  0  0  0  0  0  0  0  0  0
    0.6243   12.4350   -2.6343 C   0  0  0  0  0  0  0  0  0  0  0  0
    1.2572   12.8440   -1.6367 O   0  0  0  0  0  0  0  0  0  0  0  0
    0.1705   11.2767   -2.7667 O   0  0  0  0  0  0  0  0  0  0  0  0
   -0.9914   14.1451   -3.6270 C   0  0  2  0  0  0  0  0  0  0  0  0
   -2.1329   13.2052   -3.6917 N   0  0  0  0  0  0  0  0  0  0  0  0
   -2.9778   13.3259   -4.7481 N   0  0  0  0  0  0  0  0  0  0  0  0
   -4.1543   12.8096   -4.7115 C   0  0  0  0  0  0  0  0  0  0  0  0
   -4.7475   11.9806   -3.6028 C   0  0  0  0  0  0  0  0  0  0  0  0
   -4.8993   12.7055   -2.2518 C   0  0  0  0  0  0  0  0  0  0  0  0
   -5.5870   14.0803   -2.2568 C   0  0  0  0  0  0  0  0  0  0  0  0
   -6.0438   14.4317   -0.8532 C   0  0  0  0  0  0  0  0  0  0  0  0
   -7.4028   14.3235   -0.5001 C   0  0  0  0  0  0  0  0  0  0  0  0
   -7.7671   14.5342    0.8415 C   0  0  0  0  0  0  0  0  0  0  0  0
   -6.7599   14.8437    1.7825 C   0  0  0  0  0  0  0  0  0  0  0  0
   -7.0290   15.0372    3.1635 N   0  0  0  0  0  0  0  0  0  0  0  0
   -8.1181   15.6183    3.6878 C   0  0  0  0  0  0  0  0  0  0  0  0
   -9.0389   16.0923    3.0183 O   0  0  0  0  0  0  0  0  0  0  0  0
   -8.0797   15.6251    5.0282 N   0  0  0  0  0  0  0  0  0  0  0  0
   -9.0345   16.2190    5.8929 C   0  0  0  0  0  0  0  0  0  0  0  0
   -9.7015   17.4285    5.5735 C   0  0  0  0  0  0  0  0  0  0  0  0
  -10.6267   17.9870    6.4764 C   0  0  0  0  0  0  0  0  0  0  0  0
  -10.9007   17.3387    7.6958 C   0  0  0  0  0  0  0  0  0  0  0  0
  -10.2245   16.1474    8.0256 C   0  0  0  0  0  0  0  0  0  0  0  0
   -9.2825   15.5990    7.1341 C   0  0  0  0  0  0  0  0  0  0  0  0
   -5.4290   14.9238    1.3244 C   0  0  0  0  0  0  0  0  0  0  0  0
   -5.0742   14.7478    0.0329 N   0  0  0  0  0  0  0  0  0  0  0  0
   -1.0939   15.2978   -4.6507 C   0  0  0  0  0  0  0  0  0  0  0  0
  1  2  1  0
  2  3  2  0
  2  4  1  0
  4 34  1  0
  4  5  1  0
  5  6  1  0
  6  7  1  0
  7  8  1  1
  7 11  1  0
  8  9  2  0
  8 10  1  0
 11 12  1  6
 11 34  1  0
 12 13  1  0
 13 14  2  3
 14 15  1  0
 15 16  1  0
 16 17  1  0
 17 18  1  0
 18 33  1  0
 18 19  2  0
 19 20  1  0
 20 21  2  0
 21 22  1  0
 21 32  1  0
 22 23  1  0
 23 24  2  0
 23 25  1  0
 25 26  1  0
 26 31  1  0
 26 27  2  0
 27 28  1  0
 28 29  2  0
 29 30  1  0
 30 31  2  0
 32 33  2  0
M  CHG  1  10  -1
M  END
>  <original SMILES>  (37) 
NC(=O)N1CC[C@@H](C(=O)[O-])[C@H](NN=CCCCc2ccc(NC(=O)Nc3ccccc3)cn2)C1

>  <ref_pdb>  (37) 
Combi88.pdb

>  <ref_mols>  (37) 
x0088_0A

>  <Glide GScore>  (37) 
-8.54623220418398

>  <RMSLigA>  (37) 
0.877480262241622

>  <RMSLigB>  (37) 
0.742922375816613

$$$$
Combi88_000153
     RDKit          3D

 31 33  0  0  1  0  0  0  0  0999 V2000
   -0.2944   18.5558   -5.3913 N   0  0  0  0  0  0  0  0  0  0  0  0
   -1.0882   17.6440   -4.8304 C   0  0  0  0  0  0  0  0  0  0  0  0
   -2.2223   17.9341   -4.4540 O   0  0  0  0  0  0  0  0  0  0  0  0
   -0.5887   16.3924   -4.8367 N   0  0  0  0  0  0  0  0  0  0  0  0
    0.8353   16.0327   -4.8368 C   0  0  0  0  0  0  0  0  0  0  0  0
    1.1744   15.2708   -3.5534 C   0  0  0  0  0  0  0  0  0  0  0  0
    0.2484   14.0479   -3.3736 C   0  0  0  0  0  0  0  0  0  0  0  0
    0.5726   13.4053   -2.0238 C   0  0  0  0  0  0  0  0  0  0  0  0
    0.1114   13.9236   -0.9848 O   0  0  0  0  0  0  0  0  0  0  0  0
    1.3707   12.4444   -2.0367 O   0  0  0  0  0  0  0  0  0  0  0  0
   -1.2434   14.4482   -3.4891 C   0  0  0  0  0  0  0  0  0  0  0  0
   -2.3489   13.0076   -3.4974 S   0  0  0  0  0  0  0  0  0  0  0  0
   -3.4290   13.4528   -2.1198 C   0  0  0  0  0  0  0  0  0  0  0  0
   -4.5696   14.8439   -2.3077 S   0  0  0  0  0  0  0  0  0  0  0  0
   -5.3893   14.8780   -0.7519 C   0  0  0  0  0  0  0  0  0  0  0  0
   -6.7898   14.7695   -0.6675 C   0  0  0  0  0  0  0  0  0  0  0  0
   -7.3748   14.7433    0.6131 C   0  0  0  0  0  0  0  0  0  0  0  0
   -6.5343   14.8443    1.7483 C   0  0  0  0  0  0  0  0  0  0  0  0
   -7.0269   14.8425    3.0784 N   0  0  0  0  0  0  0  0  0  0  0  0
   -8.1166   15.4928    3.5162 C   0  0  0  0  0  0  0  0  0  0  0  0
   -8.9695   15.9888    2.7780 O   0  0  0  0  0  0  0  0  0  0  0  0
   -8.1727   15.5239    4.8565 N   0  0  0  0  0  0  0  0  0  0  0  0
   -9.0375   16.3264    5.6431 C   0  0  0  0  0  0  0  0  0  0  0  0
   -9.4761   17.6059    5.2225 C   0  0  0  0  0  0  0  0  0  0  0  0
  -10.3019   18.3808    6.0575 C   0  0  0  0  0  0  0  0  0  0  0  0
  -10.7006   17.8867    7.3136 C   0  0  0  0  0  0  0  0  0  0  0  0
  -10.2568   16.6200    7.7413 C   0  0  0  0  0  0  0  0  0  0  0  0
   -9.4173   15.8472    6.9131 C   0  0  0  0  0  0  0  0  0  0  0  0
   -5.1427   14.9445    1.5379 C   0  0  0  0  0  0  0  0  0  0  0  0
   -4.5749   14.9686    0.3171 N   0  0  0  0  0  0  0  0  0  0  0  0
   -1.4727   15.2293   -4.7820 C   0  0  0  0  0  0  0  0  0  0  0  0
  1  2  1  0
  2  3  2  0
  2  4  1  0
  4 31  1  0
  4  5  1  0
  5  6  1  0
  6  7  1  0
  7  8  1  0
  7 11  1  0
  8  9  2  0
  8 10  1  0
 11 12  1  0
 11 31  1  0
 12 13  1  0
 13 14  1  0
 14 15  1  0
 15 30  1  0
 15 16  2  0
 16 17  1  0
 17 18  2  0
 18 19  1  0
 18 29  1  0
 19 20  1  0
 20 21  2  0
 20 22  1  0
 22 23  1  0
 23 28  1  0
 23 24  2  0
 24 25  1  0
 25 26  2  0
 26 27  1  0
 27 28  2  0
 29 30  2  0
M  CHG  1  10  -1
M  END
>  <original SMILES>  (38) 
NC(=O)N1CCC(C(=O)[O-])C(SCSc2ccc(NC(=O)Nc3ccccc3)cn2)C1

>  <ref_pdb>  (38) 
Combi88.pdb

>  <ref_mols>  (38) 
x0088_0A

>  <Glide GScore>  (38) 
-8.1122755490576

>  <RMSLigA>  (38) 
0.551165433809351

>  <RMSLigB>  (38) 
0.946575730847731

$$$$
Combi88_000105
     RDKit          3D

 31 33  0  0  1  0  0  0  0  0999 V2000
    0.9707   18.1522   -4.3033 N   0  0  0  0  0  0  0  0  0  0  0  0
   -0.2210   17.5524   -4.2800 C   0  0  0  0  0  0  0  0  0  0  0  0
   -1.2402   18.1950   -4.0387 O   0  0  0  0  0  0  0  0  0  0  0  0
   -0.2128   16.2164   -4.4764 N   0  0  0  0  0  0  0  0  0  0  0  0
    0.9193   15.4229   -4.9575 C   0  0  0  0  0  0  0  0  0  0  0  0
    1.3332   14.4174   -3.8841 C   0  0  0  0  0  0  0  0  0  0  0  0
    0.1415   13.5187   -3.4779 C   0  0  0  0  0  0  0  0  0  0  0  0
    0.5708   12.6564   -2.2893 C   0  0  0  0  0  0  0  0  0  0  0  0
    0.9408   13.2442   -1.2438 O   0  0  0  0  0  0  0  0  0  0  0  0
    0.5338   11.4153   -2.4366 O   0  0  0  0  0  0  0  0  0  0  0  0
   -1.1117   14.3727   -3.1321 C   0  0  0  0  0  0  0  0  0  0  0  0
   -2.5982   13.3600   -2.8366 S   0  0  0  0  0  0  0  0  0  0  0  0
   -3.3860   14.4439   -1.7687 N   0  0  0  0  0  0  0  0  0  0  0  0
   -4.7402   14.2087   -1.4873 N   0  0  0  0  0  0  0  0  0  0  0  0
   -5.3890   14.4498   -0.2704 C   0  0  0  0  0  0  0  0  0  0  0  0
   -6.7350   14.0815   -0.0570 C   0  0  0  0  0  0  0  0  0  0  0  0
   -7.3214   14.2926    1.2108 C   0  0  0  0  0  0  0  0  0  0  0  0
   -6.5416   14.8624    2.2427 C   0  0  0  0  0  0  0  0  0  0  0  0
   -7.0292   15.0185    3.5629 N   0  0  0  0  0  0  0  0  0  0  0  0
   -8.1709   15.6203    3.9126 C   0  0  0  0  0  0  0  0  0  0  0  0
   -8.9817   16.0768    3.1056 O   0  0  0  0  0  0  0  0  0  0  0  0
   -8.3191   15.6443    5.2441 N   0  0  0  0  0  0  0  0  0  0  0  0
   -9.2861   16.3735    5.9796 C   0  0  0  0  0  0  0  0  0  0  0  0
   -9.7708   17.6359    5.5596 C   0  0  0  0  0  0  0  0  0  0  0  0
  -10.6798   18.3464    6.3643 C   0  0  0  0  0  0  0  0  0  0  0  0
  -11.1283   17.7977    7.5807 C   0  0  0  0  0  0  0  0  0  0  0  0
  -10.6466   16.5429    8.0026 C   0  0  0  0  0  0  0  0  0  0  0  0
   -9.7130   15.8432    7.2149 C   0  0  0  0  0  0  0  0  0  0  0  0
   -5.2134   15.2410    1.9630 C   0  0  0  0  0  0  0  0  0  0  0  0
   -4.6952   15.0346    0.7340 N   0  0  0  0  0  0  0  0  0  0  0  0
   -1.3995   15.3838   -4.2602 C   0  0  0  0  0  0  0  0  0  0  0  0
  1  2  1  0
  2  3  2  0
  2  4  1  0
  4 31  1  0
  4  5  1  0
  5  6  1  0
  6  7  1  0
  7  8  1  0
  7 11  1  0
  8  9  2  0
  8 10  1  0
 11 12  1  0
 11 31  1  0
 12 13  1  0
 13 14  1  0
 14 15  1  0
 15 30  1  0
 15 16  2  0
 16 17  1  0
 17 18  2  0
 18 19  1  0
 18 29  1  0
 19 20  1  0
 20 21  2  0
 20 22  1  0
 22 23  1  0
 23 28  1  0
 23 24  2  0
 24 25  1  0
 25 26  2  0
 26 27  1  0
 27 28  2  0
 29 30  2  0
M  CHG  2  10  -1  30   1
M  END
>  <original SMILES>  (39) 
NC(=O)N1CCC(C(=O)[O-])C(SNNc2ccc(NC(=O)Nc3ccccc3)c[nH+]2)C1

>  <ref_pdb>  (39) 
Combi88.pdb

>  <ref_mols>  (39) 
x0088_0A

>  <Glide GScore>  (39) 
-8.15974317732665

>  <RMSLigA>  (39) 
0.977523578798646

>  <RMSLigB>  (39) 
0.738836204681954

$$$$
Combi88_000110
     RDKit          3D

 32 34  0  0  1  0  0  0  0  0999 V2000
    0.5439   18.2383   -4.3728 N   0  0  0  0  0  0  0  0  0  0  0  0
   -0.5137   17.4295   -4.4284 C   0  0  0  0  0  0  0  0  0  0  0  0
   -1.6513   17.8785   -4.3003 O   0  0  0  0  0  0  0  0  0  0  0  0
   -0.2309   16.1140   -4.6027 N   0  0  0  0  0  0  0  0  0  0  0  0
    1.1080   15.5589   -4.8506 C   0  0  0  0  0  0  0  0  0  0  0  0
    1.4510   14.5279   -3.7799 C   0  0  0  0  0  0  0  0  0  0  0  0
    0.3957   13.4022   -3.7359 C   0  0  0  0  0  0  0  0  0  0  0  0
    0.6932   12.4249   -2.5938 C   0  0  0  0  0  0  0  0  0  0  0  0
    1.3707   12.8442   -1.6367 O   0  0  0  0  0  0  0  0  0  0  0  0
    0.1683   11.2923   -2.6546 O   0  0  0  0  0  0  0  0  0  0  0  0
   -1.0291   13.9876   -3.5860 C   0  0  0  0  0  0  0  0  0  0  0  0
   -2.0370   12.8985   -3.6619 N   0  0  0  0  0  0  0  0  0  0  0  0
   -3.4585   13.2628   -3.4576 C   0  0  0  0  0  0  0  0  0  0  0  0
   -3.7347   13.9185   -2.0953 C   0  0  0  0  0  0  0  0  0  0  0  0
   -5.1440   14.2526   -1.9503 N   0  0  0  0  0  0  0  0  0  0  0  0
   -5.6469   14.4908   -0.6653 C   0  0  0  0  0  0  0  0  0  0  0  0
   -7.0298   14.3313   -0.4434 C   0  0  0  0  0  0  0  0  0  0  0  0
   -7.5310   14.5117    0.8588 C   0  0  0  0  0  0  0  0  0  0  0  0
   -6.6304   14.8443    1.8914 C   0  0  0  0  0  0  0  0  0  0  0  0
   -7.0293   14.9943    3.2437 N   0  0  0  0  0  0  0  0  0  0  0  0
   -8.1538   15.5636    3.6997 C   0  0  0  0  0  0  0  0  0  0  0  0
   -9.0360   16.0346    2.9790 O   0  0  0  0  0  0  0  0  0  0  0  0
   -8.1951   15.5522    5.0405 N   0  0  0  0  0  0  0  0  0  0  0  0
   -9.1428   16.1960    5.8757 C   0  0  0  0  0  0  0  0  0  0  0  0
   -9.4259   15.6080    7.1253 C   0  0  0  0  0  0  0  0  0  0  0  0
  -10.3540   16.2077    7.9985 C   0  0  0  0  0  0  0  0  0  0  0  0
  -10.9797   17.4186    7.6425 C   0  0  0  0  0  0  0  0  0  0  0  0
  -10.6695   18.0322    6.4139 C   0  0  0  0  0  0  0  0  0  0  0  0
   -9.7605   17.4224    5.5290 C   0  0  0  0  0  0  0  0  0  0  0  0
   -5.2683   14.9927    1.5635 C   0  0  0  0  0  0  0  0  0  0  0  0
   -4.7830   14.8429    0.3136 N   0  0  0  0  0  0  0  0  0  0  0  0
   -1.2773   15.0819   -4.6504 C   0  0  0  0  0  0  0  0  0  0  0  0
  1  2  1  0
  2  3  2  0
  2  4  1  0
  4 32  1  0
  4  5  1  0
  5  6  1  0
  6  7  1  0
  7  8  1  0
  7 11  1  0
  8  9  2  0
  8 10  1  0
 11 12  1  0
 11 32  1  0
 12 13  1  0
 13 14  1  0
 14 15  1  0
 15 16  1  0
 16 31  1  0
 16 17  2  0
 17 18  1  0
 18 19  2  0
 19 20  1  0
 19 30  1  0
 20 21  1  0
 21 22  2  0
 21 23  1  0
 23 24  1  0
 24 29  1  0
 24 25  2  0
 25 26  1  0
 26 27  2  0
 27 28  1  0
 28 29  2  0
 30 31  2  0
M  CHG  2  10  -1  12   1
M  END
>  <original SMILES>  (40) 
NC(=O)N1CCC(C(=O)[O-])C([NH2+]CCNc2ccc(NC(=O)Nc3ccccc3)cn2)C1

>  <ref_pdb>  (40) 
Combi88.pdb

>  <ref_mols>  (40) 
x0088_0A

>  <Glide GScore>  (40) 
-8.07900487297166

>  <RMSLigA>  (40) 
0.802483605423033

>  <RMSLigB>  (40) 
0.517730431380398

$$$$
Combi88_000139
     RDKit          3D

 32 34  0  0  1  0  0  0  0  0999 V2000
    0.5439   18.2383   -4.3728 N   0  0  0  0  0  0  0  0  0  0  0  0
   -0.5137   17.4295   -4.4284 C   0  0  0  0  0  0  0  0  0  0  0  0
   -1.6513   17.8785   -4.3003 O   0  0  0  0  0  0  0  0  0  0  0  0
   -0.2309   16.1140   -4.6027 N   0  0  0  0  0  0  0  0  0  0  0  0
    1.1080   15.5589   -4.8506 C   0  0  0  0  0  0  0  0  0  0  0  0
    1.4510   14.5279   -3.7799 C   0  0  0  0  0  0  0  0  0  0  0  0
    0.3957   13.4022   -3.7359 C   0  0  0  0  0  0  0  0  0  0  0  0
    0.6932   12.4249   -2.5938 C   0  0  0  0  0  0  0  0  0  0  0  0
    1.3707   12.8442   -1.6367 O   0  0  0  0  0  0  0  0  0  0  0  0
    0.1683   11.2923   -2.6546 O   0  0  0  0  0  0  0  0  0  0  0  0
   -1.0291   13.9876   -3.5860 C   0  0  0  0  0  0  0  0  0  0  0  0
   -2.0370   12.8985   -3.6619 N   0  0  0  0  0  0  0  0  0  0  0  0
   -3.4585   13.2628   -3.4576 C   0  0  0  0  0  0  0  0  0  0  0  0
   -3.7347   13.9185   -2.0953 C   0  0  0  0  0  0  0  0  0  0  0  0
   -5.1440   14.2526   -1.9503 N   0  0  0  0  0  0  0  0  0  0  0  0
   -5.6469   14.4908   -0.6653 C   0  0  0  0  0  0  0  0  0  0  0  0
   -7.0298   14.3313   -0.4434 C   0  0  0  0  0  0  0  0  0  0  0  0
   -7.5310   14.5117    0.8588 C   0  0  0  0  0  0  0  0  0  0  0  0
   -6.6304   14.8443    1.8914 C   0  0  0  0  0  0  0  0  0  0  0  0
   -7.0293   14.9943    3.2437 N   0  0  0  0  0  0  0  0  0  0  0  0
   -8.1538   15.5636    3.6997 C   0  0  0  0  0  0  0  0  0  0  0  0
   -9.0360   16.0346    2.9790 O   0  0  0  0  0  0  0  0  0  0  0  0
   -8.1951   15.5522    5.0405 N   0  0  0  0  0  0  0  0  0  0  0  0
   -9.1428   16.1960    5.8757 C   0  0  0  0  0  0  0  0  0  0  0  0
   -9.4259   15.6080    7.1253 C   0  0  0  0  0  0  0  0  0  0  0  0
  -10.3540   16.2077    7.9985 C   0  0  0  0  0  0  0  0  0  0  0  0
  -10.9797   17.4186    7.6425 C   0  0  0  0  0  0  0  0  0  0  0  0
  -10.6695   18.0322    6.4139 C   0  0  0  0  0  0  0  0  0  0  0  0
   -9.7605   17.4224    5.5290 C   0  0  0  0  0  0  0  0  0  0  0  0
   -5.2683   14.9927    1.5635 C   0  0  0  0  0  0  0  0  0  0  0  0
   -4.7830   14.8429    0.3136 N   0  0  0  0  0  0  0  0  0  0  0  0
   -1.2773   15.0819   -4.6504 C   0  0  0  0  0  0  0  0  0  0  0  0
  1  2  1  0
  2  3  2  0
  2  4  1  0
  4 32  1  0
  4  5  1  0
  5  6  1  0
  6  7  1  0
  7  8  1  0
  7 11  1  0
  8  9  2  0
  8 10  1  0
 11 12  1  0
 11 32  1  0
 12 13  1  0
 13 14  1  0
 14 15  1  0
 15 16  1  0
 16 31  1  0
 16 17  2  0
 17 18  1  0
 18 19  2  0
 19 20  1  0
 19 30  1  0
 20 21  1  0
 21 22  2  0
 21 23  1  0
 23 24  1  0
 24 29  1  0
 24 25  2  0
 25 26  1  0
 26 27  2  0
 27 28  1  0
 28 29  2  0
 30 31  2  0
M  CHG  2  10  -1  12   1
M  END
>  <original SMILES>  (41) 
NC(=O)N1CCC(C(=O)[O-])C([NH2+]CCNc2ccc(NC(=O)Nc3ccccc3)cn2)C1

>  <ref_pdb>  (41) 
Combi88.pdb

>  <ref_mols>  (41) 
x0088_0A

>  <Glide GScore>  (41) 
-8.07900487297166

>  <RMSLigA>  (41) 
0.802483605423033

>  <RMSLigB>  (41) 
0.517730431380398

$$$$
Combi88_000122
     RDKit          3D

 32 34  0  0  1  0  0  0  0  0999 V2000
    0.8021   18.1049   -4.2795 N   0  0  0  0  0  0  0  0  0  0  0  0
   -0.3577   17.4495   -4.3087 C   0  0  0  0  0  0  0  0  0  0  0  0
   -1.4106   18.0393   -4.0596 O   0  0  0  0  0  0  0  0  0  0  0  0
   -0.2609   16.1211   -4.5764 N   0  0  0  0  0  0  0  0  0  0  0  0
    0.9407   15.4121   -5.0269 C   0  0  0  0  0  0  0  0  0  0  0  0
    1.3452   14.4033   -3.9467 C   0  0  0  0  0  0  0  0  0  0  0  0
    0.2028   13.3897   -3.6720 C   0  0  0  0  0  0  0  0  0  0  0  0
    0.6101   12.4378   -2.5262 C   0  0  0  0  0  0  0  0  0  0  0  0
    1.3706   12.8818   -1.6377 O   0  0  0  0  0  0  0  0  0  0  0  0
    0.1735   11.2638   -2.5495 O   0  0  0  0  0  0  0  0  0  0  0  0
   -1.1470   14.1229   -3.3826 C   0  0  0  0  0  0  0  0  0  0  0  0
   -2.3502   13.1449   -3.3222 C   0  0  0  0  0  0  0  0  0  0  0  0
   -3.3974   13.5632   -2.4032 N   0  0  0  0  0  0  0  0  0  0  0  0
   -4.1890   14.6994   -2.7922 C   0  0  0  0  0  0  0  0  0  0  0  0
   -5.5138   14.5788   -2.3850 O   0  0  0  0  0  0  0  0  0  0  0  0
   -5.8096   14.6740   -1.0417 C   0  0  0  0  0  0  0  0  0  0  0  0
   -7.1231   14.3700   -0.6434 C   0  0  0  0  0  0  0  0  0  0  0  0
   -7.4465   14.4448    0.7200 C   0  0  0  0  0  0  0  0  0  0  0  0
   -6.4510   14.8439    1.6382 C   0  0  0  0  0  0  0  0  0  0  0  0
   -6.7111   14.9657    3.0271 N   0  0  0  0  0  0  0  0  0  0  0  0
   -7.8469   15.4360    3.5644 C   0  0  0  0  0  0  0  0  0  0  0  0
   -8.7956   15.8638    2.9019 O   0  0  0  0  0  0  0  0  0  0  0  0
   -7.8299   15.3928    4.9038 N   0  0  0  0  0  0  0  0  0  0  0  0
   -8.7649   16.0236    5.7697 C   0  0  0  0  0  0  0  0  0  0  0  0
   -9.4296   17.2304    5.4267 C   0  0  0  0  0  0  0  0  0  0  0  0
  -10.3354   17.8267    6.3234 C   0  0  0  0  0  0  0  0  0  0  0  0
  -10.5859   17.2283    7.5713 C   0  0  0  0  0  0  0  0  0  0  0  0
   -9.9131   16.0432    7.9296 C   0  0  0  0  0  0  0  0  0  0  0  0
   -9.0020   15.4471    7.0343 C   0  0  0  0  0  0  0  0  0  0  0  0
   -5.1587   15.1076    1.1444 C   0  0  0  0  0  0  0  0  0  0  0  0
   -4.8386   15.0427   -0.1675 N   0  0  0  0  0  0  0  0  0  0  0  0
   -1.4021   15.2065   -4.4690 C   0  0  0  0  0  0  0  0  0  0  0  0
  1  2  1  0
  2  3  2  0
  2  4  1  0
  4 32  1  0
  4  5  1  0
  5  6  1  0
  6  7  1  0
  7  8  1  0
  7 11  1  0
  8  9  2  0
  8 10  1  0
 11 12  1  0
 11 32  1  0
 12 13  1  0
 13 14  1  0
 14 15  1  0
 15 16  1  0
 16 31  1  0
 16 17  2  0
 17 18  1  0
 18 19  2  0
 19 20  1  0
 19 30  1  0
 20 21  1  0
 21 22  2  0
 21 23  1  0
 23 24  1  0
 24 29  1  0
 24 25  2  0
 25 26  1  0
 26 27  2  0
 27 28  1  0
 28 29  2  0
 30 31  2  0
M  CHG  1  10  -1
M  END
>  <original SMILES>  (42) 
NC(=O)N1CCC(C(=O)[O-])C(CNCOc2ccc(NC(=O)Nc3ccccc3)cn2)C1

>  <ref_pdb>  (42) 
Combi88.pdb

>  <ref_mols>  (42) 
x0088_0A

>  <Glide GScore>  (42) 
-8.89159262693095

>  <RMSLigA>  (42) 
0.6200190425933

>  <RMSLigB>  (42) 
0.598189785080092

$$$$
Combi88_000096
     RDKit          3D

 32 34  0  0  1  0  0  0  0  0999 V2000
    0.6692   18.2230   -4.2677 N   0  0  0  0  0  0  0  0  0  0  0  0
   -0.4592   17.5170   -4.3124 C   0  0  0  0  0  0  0  0  0  0  0  0
   -1.5379   18.0434   -4.0380 O   0  0  0  0  0  0  0  0  0  0  0  0
   -0.3102   16.2117   -4.6449 N   0  0  0  0  0  0  0  0  0  0  0  0
    0.9582   15.5426   -4.9649 C   0  0  0  0  0  0  0  0  0  0  0  0
    1.3326   14.5861   -3.8275 C   0  0  0  0  0  0  0  0  0  0  0  0
    0.2072   13.5460   -3.6122 C   0  0  0  0  0  0  0  0  0  0  0  0
    0.5023   12.6747   -2.3879 C   0  0  0  0  0  0  0  0  0  0  0  0
    0.9708   13.2434   -1.3777 O   0  0  0  0  0  0  0  0  0  0  0  0
    0.1812   11.4673   -2.4409 O   0  0  0  0  0  0  0  0  0  0  0  0
   -1.1686   14.2585   -3.4567 C   0  0  0  0  0  0  0  0  0  0  0  0
   -2.3313   13.3571   -3.2570 N   0  0  0  0  0  0  0  0  0  0  0  0
   -2.3645   12.1449   -4.0125 N   0  0  0  0  0  0  0  0  0  0  0  0
   -3.4137   13.6455   -2.5067 C   0  0  0  0  0  0  0  0  0  0  0  0
   -3.5221   14.7859   -1.8002 N   0  0  0  0  0  0  0  0  0  0  0  0
   -4.3986   14.8333   -0.6771 C   0  0  0  0  0  0  0  0  0  0  0  0
   -5.7321   14.3905   -0.7975 C   0  0  0  0  0  0  0  0  0  0  0  0
   -6.5404   14.4063    0.3580 C   0  0  0  0  0  0  0  0  0  0  0  0
   -5.9661   14.8437    1.5701 C   0  0  0  0  0  0  0  0  0  0  0  0
   -6.6280   14.7439    2.8139 N   0  0  0  0  0  0  0  0  0  0  0  0
   -7.8213   15.2442    3.1436 C   0  0  0  0  0  0  0  0  0  0  0  0
   -8.6570   15.6427    2.3322 O   0  0  0  0  0  0  0  0  0  0  0  0
   -7.9730   15.2440    4.4775 N   0  0  0  0  0  0  0  0  0  0  0  0
   -8.8515   16.0450    5.2527 C   0  0  0  0  0  0  0  0  0  0  0  0
   -9.0943   15.6450    6.5828 C   0  0  0  0  0  0  0  0  0  0  0  0
   -9.9188   16.4231    7.4189 C   0  0  0  0  0  0  0  0  0  0  0  0
  -10.4841   17.6208    6.9391 C   0  0  0  0  0  0  0  0  0  0  0  0
  -10.2280   18.0369    5.6188 C   0  0  0  0  0  0  0  0  0  0  0  0
   -9.4213   17.2493    4.7740 C   0  0  0  0  0  0  0  0  0  0  0  0
   -4.6299   15.2917    1.5634 C   0  0  0  0  0  0  0  0  0  0  0  0
   -3.8620   15.3107    0.4590 N   0  0  0  0  0  0  0  0  0  0  0  0
   -1.4209   15.2543   -4.6062 C   0  0  0  0  0  0  0  0  0  0  0  0
  1  2  1  0
  2  3  2  0
  2  4  1  0
  4 32  1  0
  4  5  1  0
  5  6  1  0
  6  7  1  0
  7  8  1  0
  7 11  1  0
  8  9  2  0
  8 10  1  0
 11 12  1  0
 11 32  1  0
 12 13  1  0
 12 14  2  0
 14 15  1  0
 15 16  1  0
 16 31  1  0
 16 17  2  0
 17 18  1  0
 18 19  2  0
 19 20  1  0
 19 30  1  0
 20 21  1  0
 21 22  2  0
 21 23  1  0
 23 24  1  0
 24 29  1  0
 24 25  2  0
 25 26  1  0
 26 27  2  0
 27 28  1  0
 28 29  2  0
 30 31  2  0
M  CHG  2  10  -1  12   1
M  END
>  <original SMILES>  (43) 
NC(=O)N1CCC(C(=O)[O-])C(/[N+](N)=C\Nc2ccc(NC(=O)Nc3ccccc3)cn2)C1

>  <ref_pdb>  (43) 
Combi88.pdb

>  <ref_mols>  (43) 
x0088_0A

>  <Glide GScore>  (43) 
-8.02798544655124

>  <RMSLigA>  (43) 
0.372198856665023

>  <RMSLigB>  (43) 
0.550189377161628

$$$$
Combi88_000037
     RDKit          3D

 32 34  0  0  1  0  0  0  0  0999 V2000
    0.9697   18.0437   -4.2830 N   0  0  0  0  0  0  0  0  0  0  0  0
   -0.2193   17.4341   -4.2794 C   0  0  0  0  0  0  0  0  0  0  0  0
   -1.2486   18.0608   -4.0377 O   0  0  0  0  0  0  0  0  0  0  0  0
   -0.2029   16.0970   -4.4997 N   0  0  0  0  0  0  0  0  0  0  0  0
    0.9216   15.3370   -5.0518 C   0  0  0  0  0  0  0  0  0  0  0  0
    1.3550   14.2822   -4.0358 C   0  0  0  0  0  0  0  0  0  0  0  0
    0.1817   13.3385   -3.6618 C   0  0  0  0  0  0  0  0  0  0  0  0
    0.6166   12.4096   -2.5146 C   0  0  0  0  0  0  0  0  0  0  0  0
    1.3706   12.8766   -1.6367 O   0  0  0  0  0  0  0  0  0  0  0  0
    0.1707   11.2442   -2.5012 O   0  0  0  0  0  0  0  0  0  0  0  0
   -1.0988   14.1402   -3.2688 C   0  0  0  0  0  0  0  0  0  0  0  0
   -2.3517   13.2444   -3.0991 C   0  0  0  0  0  0  0  0  0  0  0  0
   -3.2169   13.7283   -2.0161 N   0  0  0  0  0  0  0  0  0  0  0  0
   -4.5380   14.0452   -2.0942 C   0  0  0  0  0  0  0  0  0  0  0  0
   -5.4440   14.0442   -3.4987 S   0  0  0  0  0  0  0  0  0  0  0  0
   -5.1607   14.3328   -0.7632 C   0  0  0  0  0  0  0  0  0  0  0  0
   -6.5065   14.0050   -0.4511 C   0  0  0  0  0  0  0  0  0  0  0  0
   -7.0287   14.2621    0.8327 C   0  0  0  0  0  0  0  0  0  0  0  0
   -6.1965   14.8438    1.8161 C   0  0  0  0  0  0  0  0  0  0  0  0
   -6.6308   15.0249    3.1554 N   0  0  0  0  0  0  0  0  0  0  0  0
   -7.8291   15.4820    3.5401 C   0  0  0  0  0  0  0  0  0  0  0  0
   -8.7050   15.8487    2.7527 O   0  0  0  0  0  0  0  0  0  0  0  0
   -7.9502   15.5062    4.8730 N   0  0  0  0  0  0  0  0  0  0  0  0
   -8.9189   16.2266    5.6149 C   0  0  0  0  0  0  0  0  0  0  0  0
   -9.3139   15.7203    6.8692 C   0  0  0  0  0  0  0  0  0  0  0  0
  -10.2299   16.4338    7.6656 C   0  0  0  0  0  0  0  0  0  0  0  0
  -10.7334   17.6742    7.2257 C   0  0  0  0  0  0  0  0  0  0  0  0
  -10.3231   18.1987    5.9856 C   0  0  0  0  0  0  0  0  0  0  0  0
   -9.4290   17.4745    5.1757 C   0  0  0  0  0  0  0  0  0  0  0  0
   -4.8716   15.1730    1.4637 C   0  0  0  0  0  0  0  0  0  0  0  0
   -4.4178   14.9288    0.2102 N   0  0  0  0  0  0  0  0  0  0  0  0
   -1.3881   15.2512   -4.3051 C   0  0  0  0  0  0  0  0  0  0  0  0
  1  2  1  0
  2  3  2  0
  2  4  1  0
  4 32  1  0
  4  5  1  0
  5  6  1  0
  6  7  1  0
  7  8  1  0
  7 11  1  0
  8  9  2  0
  8 10  1  0
 11 12  1  0
 11 32  1  0
 12 13  1  0
 13 14  1  0
 14 15  2  0
 14 16  1  0
 16 31  1  0
 16 17  2  0
 17 18  1  0
 18 19  2  0
 19 20  1  0
 19 30  1  0
 20 21  1  0
 21 22  2  0
 21 23  1  0
 23 24  1  0
 24 29  1  0
 24 25  2  0
 25 26  1  0
 26 27  2  0
 27 28  1  0
 28 29  2  0
 30 31  2  0
M  CHG  2  10  -1  31   1
M  END
>  <original SMILES>  (44) 
NC(=O)N1CCC(C(=O)[O-])C(CNC(=S)c2ccc(NC(=O)Nc3ccccc3)c[nH+]2)C1

>  <ref_pdb>  (44) 
Combi88.pdb

>  <ref_mols>  (44) 
x0088_0A

>  <Glide GScore>  (44) 
-8.79011899887379

>  <RMSLigA>  (44) 
0.53187833665199

>  <RMSLigB>  (44) 
0.696264414959695

$$$$
Combi88_000053
     RDKit          3D

 34 36  0  0  1  0  0  0  0  0999 V2000
   -6.7992   13.7973   -3.2592 C   0  0  0  0  0  0  0  0  0  0  0  0
   -5.8359   14.3752   -2.3289 N   0  0  0  0  0  0  0  0  0  0  0  0
   -4.5173   14.7602   -2.8202 C   0  0  0  0  0  0  0  0  0  0  0  0
   -3.2186   13.6442   -2.1201 S   0  0  0  0  0  0  0  0  0  0  0  0
   -2.5995   14.4457   -0.9756 O   0  0  0  0  0  0  0  0  0  0  0  0
   -2.1372   13.5962   -3.4817 N   0  0  0  0  0  0  0  0  0  0  0  0
   -0.9750   14.4699   -3.4576 C   0  0  0  0  0  0  0  0  0  0  0  0
   -1.0896   15.4208   -4.6613 C   0  0  0  0  0  0  0  0  0  0  0  0
    0.0465   16.3492   -4.6540 N   0  0  0  0  0  0  0  0  0  0  0  0
   -0.1194   17.6758   -4.4338 C   0  0  0  0  0  0  0  0  0  0  0  0
    0.9708   18.4335   -4.5666 N   0  0  0  0  0  0  0  0  0  0  0  0
   -1.2057   18.1880   -4.1675 O   0  0  0  0  0  0  0  0  0  0  0  0
    1.3280   15.6473   -4.8067 C   0  0  0  0  0  0  0  0  0  0  0  0
    1.5394   14.6693   -3.6438 C   0  0  0  0  0  0  0  0  0  0  0  0
    0.3601   13.6776   -3.5288 C   0  0  0  0  0  0  0  0  0  0  0  0
    0.5591   12.7442   -2.3216 C   0  0  0  0  0  0  0  0  0  0  0  0
    0.9708   13.2444   -1.2495 O   0  0  0  0  0  0  0  0  0  0  0  0
    0.2978   11.5305   -2.4682 O   0  0  0  0  0  0  0  0  0  0  0  0
   -6.1935   14.5218   -0.9664 C   0  0  0  0  0  0  0  0  0  0  0  0
   -7.5248   14.3675   -0.5123 C   0  0  0  0  0  0  0  0  0  0  0  0
   -7.8251   14.5083    0.8569 C   0  0  0  0  0  0  0  0  0  0  0  0
   -6.7911   14.8046    1.7742 C   0  0  0  0  0  0  0  0  0  0  0  0
   -7.0298   14.9669    3.1640 N   0  0  0  0  0  0  0  0  0  0  0  0
   -8.1046   15.5597    3.7082 C   0  0  0  0  0  0  0  0  0  0  0  0
   -9.0241   16.0454    3.0439 O   0  0  0  0  0  0  0  0  0  0  0  0
   -8.0644   15.5615    5.0503 N   0  0  0  0  0  0  0  0  0  0  0  0
   -9.0298   16.1376    5.9186 C   0  0  0  0  0  0  0  0  0  0  0  0
   -9.7163   17.3377    5.6070 C   0  0  0  0  0  0  0  0  0  0  0  0
  -10.6552   17.8745    6.5078 C   0  0  0  0  0  0  0  0  0  0  0  0
  -10.9195   17.2165    7.7248 C   0  0  0  0  0  0  0  0  0  0  0  0
  -10.2223   16.0359    8.0487 C   0  0  0  0  0  0  0  0  0  0  0  0
   -9.2703   15.5076    7.1565 C   0  0  0  0  0  0  0  0  0  0  0  0
   -5.4751   14.9166    1.2860 C   0  0  0  0  0  0  0  0  0  0  0  0
   -5.2383   14.8009   -0.0419 N   0  0  0  0  0  0  0  0  0  0  0  0
  1  2  1  0
  2  3  1  0
  2 19  1  0
  3  4  1  0
  4  5  2  0
  4  6  1  0
  6  7  1  0
  7 15  1  0
  7  8  1  0
  8  9  1  0
  9 10  1  0
  9 13  1  0
 10 11  1  0
 10 12  2  0
 13 14  1  0
 14 15  1  0
 15 16  1  0
 16 17  2  0
 16 18  1  0
 19 34  1  0
 19 20  2  0
 20 21  1  0
 21 22  2  0
 22 23  1  0
 22 33  1  0
 23 24  1  0
 24 25  2  0
 24 26  1  0
 26 27  1  0
 27 32  1  0
 27 28  2  0
 28 29  1  0
 29 30  2  0
 30 31  1  0
 31 32  2  0
 33 34  2  0
M  CHG  2  18  -1  34   1
M  END
>  <original SMILES>  (45) 
CN(CS(=O)NC1CN(C(N)=O)CCC1C(=O)[O-])c1ccc(NC(=O)Nc2ccccc2)c[nH+]1

>  <ref_pdb>  (45) 
Combi88.pdb

>  <ref_mols>  (45) 
x0088_0A

>  <Glide GScore>  (45) 
-8.0565397399733

>  <RMSLigA>  (45) 
0.925453182978277

>  <RMSLigB>  (45) 
0.821792601788767

$$$$
Combi88_000052
     RDKit          3D

 33 35  0  0  1  0  0  0  0  0999 V2000
   -6.0510   14.3171   -3.2412 C   0  0  0  0  0  0  0  0  0  0  0  0
   -5.2142   13.9932   -2.0918 N   0  0  0  0  0  0  0  0  0  0  0  0
   -3.8273   13.5786   -2.2955 C   0  0  0  0  0  0  0  0  0  0  0  0
   -2.8521   14.7689   -2.3049 C   0  0  0  0  0  0  0  0  0  0  0  0
   -1.4900   14.3978   -2.4949 O   0  0  0  0  0  0  0  0  0  0  0  0
   -1.1295   13.8519   -3.7654 C   0  0  0  0  0  0  0  0  0  0  0  0
   -1.3312   14.8797   -4.9115 C   0  0  0  0  0  0  0  0  0  0  0  0
   -0.3477   15.9637   -4.7914 N   0  0  0  0  0  0  0  0  0  0  0  0
   -0.6790   17.2306   -4.4368 C   0  0  0  0  0  0  0  0  0  0  0  0
    0.3509   18.0437   -4.2051 N   0  0  0  0  0  0  0  0  0  0  0  0
   -1.8335   17.6400   -4.3069 O   0  0  0  0  0  0  0  0  0  0  0  0
    1.0175   15.4568   -4.9843 C   0  0  0  0  0  0  0  0  0  0  0  0
    1.3567   14.5172   -3.8217 C   0  0  0  0  0  0  0  0  0  0  0  0
    0.3448   13.3456   -3.7521 C   0  0  0  0  0  0  0  0  0  0  0  0
    0.6423   12.4124   -2.5664 C   0  0  0  0  0  0  0  0  0  0  0  0
    0.1675   11.2567   -2.5962 O   0  0  0  0  0  0  0  0  0  0  0  0
    1.3675   12.8448   -1.6425 O   0  0  0  0  0  0  0  0  0  0  0  0
   -5.7070   14.2821   -0.8022 C   0  0  0  0  0  0  0  0  0  0  0  0
   -7.0899   14.2962   -0.5101 C   0  0  0  0  0  0  0  0  0  0  0  0
   -7.5265   14.5619    0.8026 C   0  0  0  0  0  0  0  0  0  0  0  0
   -6.5740   14.8437    1.8084 C   0  0  0  0  0  0  0  0  0  0  0  0
   -6.9171   15.0624    3.1633 N   0  0  0  0  0  0  0  0  0  0  0  0
   -8.0496   15.6015    3.6421 C   0  0  0  0  0  0  0  0  0  0  0  0
   -8.9547   16.0444    2.9348 O   0  0  0  0  0  0  0  0  0  0  0  0
   -8.0664   15.5990    4.9834 N   0  0  0  0  0  0  0  0  0  0  0  0
   -9.0291   16.2218    5.8207 C   0  0  0  0  0  0  0  0  0  0  0  0
   -9.3038   15.6325    7.0733 C   0  0  0  0  0  0  0  0  0  0  0  0
  -10.2334   16.2241    7.9484 C   0  0  0  0  0  0  0  0  0  0  0  0
  -10.8698   17.4302    7.5926 C   0  0  0  0  0  0  0  0  0  0  0  0
  -10.5700   18.0449    6.3614 C   0  0  0  0  0  0  0  0  0  0  0  0
   -9.6599   17.4419    5.4745 C   0  0  0  0  0  0  0  0  0  0  0  0
   -5.2094   14.8442    1.4654 C   0  0  0  0  0  0  0  0  0  0  0  0
   -4.8368   14.5549    0.1984 N   0  0  0  0  0  0  0  0  0  0  0  0
  1  2  1  0
  2  3  1  0
  2 18  1  0
  3  4  1  0
  4  5  1  0
  5  6  1  0
  6 14  1  0
  6  7  1  0
  7  8  1  0
  8  9  1  0
  8 12  1  0
  9 10  1  0
  9 11  2  0
 12 13  1  0
 13 14  1  0
 14 15  1  0
 15 16  2  0
 15 17  1  0
 18 33  1  0
 18 19  2  0
 19 20  1  0
 20 21  2  0
 21 22  1  0
 21 32  1  0
 22 23  1  0
 23 24  2  0
 23 25  1  0
 25 26  1  0
 26 31  1  0
 26 27  2  0
 27 28  1  0
 28 29  2  0
 29 30  1  0
 30 31  2  0
 32 33  2  0
M  CHG  2  17  -1  33   1
M  END
>  <original SMILES>  (46) 
CN(CCOC1CN(C(N)=O)CCC1C(=O)[O-])c1ccc(NC(=O)Nc2ccccc2)c[nH+]1

>  <ref_pdb>  (46) 
Combi88.pdb

>  <ref_mols>  (46) 
x0088_0A

>  <Glide GScore>  (46) 
-8.0643813613216

>  <RMSLigA>  (46) 
0.760593371780546

>  <RMSLigB>  (46) 
0.970536336708343

$$$$
Combi88_000004
     RDKit          3D

 34 36  0  0  1  0  0  0  0  0999 V2000
   -6.4002   14.4445   -3.2390 C   0  0  0  0  0  0  0  0  0  0  0  0
   -5.5059   14.8435   -2.1613 N   0  0  0  0  0  0  0  0  0  0  0  0
   -4.0954   15.0688   -2.4621 C   0  0  0  0  0  0  0  0  0  0  0  0
   -3.3292   13.7541   -2.6431 C   0  0  0  0  0  0  0  0  0  0  0  0
   -1.8266   14.0050   -2.6609 C   0  0  0  0  0  0  0  0  0  0  0  0
   -1.2640   14.4446   -1.6604 O   0  0  0  0  0  0  0  0  0  0  0  0
   -1.0682   13.6599   -3.9605 C   0  0  0  0  0  0  0  0  0  0  0  0
   -1.2655   14.7628   -5.0376 C   0  0  0  0  0  0  0  0  0  0  0  0
   -0.3642   15.9031   -4.7887 N   0  0  0  0  0  0  0  0  0  0  0  0
   -0.8033   17.1380   -4.4377 C   0  0  0  0  0  0  0  0  0  0  0  0
    0.1550   18.0075   -4.1125 N   0  0  0  0  0  0  0  0  0  0  0  0
   -1.9877   17.4690   -4.3986 O   0  0  0  0  0  0  0  0  0  0  0  0
    1.0439   15.4966   -4.8961 C   0  0  0  0  0  0  0  0  0  0  0  0
    1.3589   14.5570   -3.7333 C   0  0  0  0  0  0  0  0  0  0  0  0
    0.4482   13.3037   -3.7923 C   0  0  0  0  0  0  0  0  0  0  0  0
    0.7029   12.3790   -2.5893 C   0  0  0  0  0  0  0  0  0  0  0  0
    1.3707   12.8369   -1.6368 O   0  0  0  0  0  0  0  0  0  0  0  0
    0.1832   11.2431   -2.6097 O   0  0  0  0  0  0  0  0  0  0  0  0
   -5.9526   14.7929   -0.8209 C   0  0  0  0  0  0  0  0  0  0  0  0
   -7.3221   14.6088   -0.5168 C   0  0  0  0  0  0  0  0  0  0  0  0
   -7.7354   14.6244    0.8259 C   0  0  0  0  0  0  0  0  0  0  0  0
   -6.7723   14.8300    1.8374 C   0  0  0  0  0  0  0  0  0  0  0  0
   -7.1048   14.9083    3.2136 N   0  0  0  0  0  0  0  0  0  0  0  0
   -8.2030   15.4833    3.7312 C   0  0  0  0  0  0  0  0  0  0  0  0
   -9.1056   15.9817    3.0553 O   0  0  0  0  0  0  0  0  0  0  0  0
   -8.2047   15.4468    5.0727 N   0  0  0  0  0  0  0  0  0  0  0  0
   -9.1590   16.0420    5.9394 C   0  0  0  0  0  0  0  0  0  0  0  0
   -9.8300   17.2523    5.6286 C   0  0  0  0  0  0  0  0  0  0  0  0
  -10.7467   17.8100    6.5398 C   0  0  0  0  0  0  0  0  0  0  0  0
  -10.9978   17.1714    7.7697 C   0  0  0  0  0  0  0  0  0  0  0  0
  -10.3140   15.9837    8.0945 C   0  0  0  0  0  0  0  0  0  0  0  0
   -9.3892   15.4290    7.1879 C   0  0  0  0  0  0  0  0  0  0  0  0
   -5.4251   14.9478    1.4478 C   0  0  0  0  0  0  0  0  0  0  0  0
   -5.0285   14.9461    0.1585 N   0  0  0  0  0  0  0  0  0  0  0  0
  1  2  1  0
  2  3  1  0
  2 19  1  0
  3  4  1  0
  4  5  1  0
  5  6  2  0
  5  7  1  0
  7 15  1  0
  7  8  1  0
  8  9  1  0
  9 10  1  0
  9 13  1  0
 10 11  1  0
 10 12  2  0
 13 14  1  0
 14 15  1  0
 15 16  1  0
 16 17  2  0
 16 18  1  0
 19 34  1  0
 19 20  2  0
 20 21  1  0
 21 22  2  0
 22 23  1  0
 22 33  1  0
 23 24  1  0
 24 25  2  0
 24 26  1  0
 26 27  1  0
 27 32  1  0
 27 28  2  0
 28 29  1  0
 29 30  2  0
 30 31  1  0
 31 32  2  0
 33 34  2  0
M  CHG  1  18  -1
M  END
>  <original SMILES>  (47) 
CN(CCC(=O)C1CN(C(N)=O)CCC1C(=O)[O-])c1ccc(NC(=O)Nc2ccccc2)cn1

>  <ref_pdb>  (47) 
Combi88.pdb

>  <ref_mols>  (47) 
x0088_0A

>  <Glide GScore>  (47) 
-8.37483403920021

>  <RMSLigA>  (47) 
0.898432705081674

>  <RMSLigB>  (47) 
0.398201432502655

$$$$
Combi88_000044
     RDKit          3D

 33 35  0  0  1  0  0  0  0  0999 V2000
   -2.6440   12.7743   -4.1819 C   0  0  0  0  0  0  0  0  0  0  0  0
   -2.4101   13.8397   -3.0910 C   0  0  0  0  0  0  0  0  0  0  0  0
   -3.6247   14.8021   -2.9539 C   0  0  0  0  0  0  0  0  0  0  0  0
   -4.8752   14.1680   -2.5311 N   0  0  0  0  0  0  0  0  0  0  0  0
   -5.7693   13.6392   -3.5576 C   0  0  0  0  0  0  0  0  0  0  0  0
   -5.3662   14.3332   -1.2141 C   0  0  0  0  0  0  0  0  0  0  0  0
   -6.7044   14.0028   -0.8869 C   0  0  0  0  0  0  0  0  0  0  0  0
   -7.1597   14.1806    0.4306 C   0  0  0  0  0  0  0  0  0  0  0  0
   -6.2679   14.6788    1.4001 C   0  0  0  0  0  0  0  0  0  0  0  0
   -6.6283   14.8356    2.7633 N   0  0  0  0  0  0  0  0  0  0  0  0
   -7.8119   15.2443    3.2448 C   0  0  0  0  0  0  0  0  0  0  0  0
   -8.7630   15.5902    2.5409 O   0  0  0  0  0  0  0  0  0  0  0  0
   -7.8292   15.2443    4.5870 N   0  0  0  0  0  0  0  0  0  0  0  0
   -8.7352   15.9388    5.4289 C   0  0  0  0  0  0  0  0  0  0  0  0
   -9.3669   17.1467    5.0424 C   0  0  0  0  0  0  0  0  0  0  0  0
  -10.2185   17.8203    5.9377 C   0  0  0  0  0  0  0  0  0  0  0  0
  -10.4574   17.2881    7.2195 C   0  0  0  0  0  0  0  0  0  0  0  0
   -9.8257   16.0915    7.6117 C   0  0  0  0  0  0  0  0  0  0  0  0
   -8.9569   15.4275    6.7245 C   0  0  0  0  0  0  0  0  0  0  0  0
   -4.9509   14.9645    0.9929 C   0  0  0  0  0  0  0  0  0  0  0  0
   -4.5151   14.8165   -0.2773 N   0  0  0  0  0  0  0  0  0  0  0  0
   -1.0768   14.6315   -3.3001 C   0  0  0  0  0  0  0  0  0  0  0  0
   -1.1455   15.6108   -4.5049 C   0  0  0  0  0  0  0  0  0  0  0  0
    0.0589   16.4505   -4.5656 N   0  0  0  0  0  0  0  0  0  0  0  0
    0.0048   17.8000   -4.4442 C   0  0  0  0  0  0  0  0  0  0  0  0
    1.1644   18.4441   -4.5589 N   0  0  0  0  0  0  0  0  0  0  0  0
   -1.0292   18.4366   -4.2552 O   0  0  0  0  0  0  0  0  0  0  0  0
    1.2733   15.6536   -4.7748 C   0  0  0  0  0  0  0  0  0  0  0  0
    1.4577   14.6810   -3.6123 C   0  0  0  0  0  0  0  0  0  0  0  0
    0.2223   13.7683   -3.4524 C   0  0  0  0  0  0  0  0  0  0  0  0
    0.4656   12.7957   -2.2893 C   0  0  0  0  0  0  0  0  0  0  0  0
    0.9687   13.2493   -1.2383 O   0  0  0  0  0  0  0  0  0  0  0  0
    0.1714   11.5917   -2.4574 O   0  0  0  0  0  0  0  0  0  0  0  0
  1  2  1  0
  2  3  1  0
  2 22  1  0
  3  4  1  0
  4  5  1  0
  4  6  1  0
  6 21  1  0
  6  7  2  0
  7  8  1  0
  8  9  2  0
  9 10  1  0
  9 20  1  0
 10 11  1  0
 11 12  2  0
 11 13  1  0
 13 14  1  0
 14 19  1  0
 14 15  2  0
 15 16  1  0
 16 17  2  0
 17 18  1  0
 18 19  2  0
 20 21  2  0
 22 30  1  0
 22 23  1  0
 23 24  1  0
 24 25  1  0
 24 28  1  0
 25 26  1  0
 25 27  2  0
 28 29  1  0
 29 30  1  0
 30 31  1  0
 31 32  2  0
 31 33  1  0
M  CHG  1  33  -1
M  END
>  <original SMILES>  (48) 
CC(CN(C)c1ccc(NC(=O)Nc2ccccc2)cn1)C1CN(C(N)=O)CCC1C(=O)[O-]

>  <ref_pdb>  (48) 
Combi88.pdb

>  <ref_mols>  (48) 
x0088_0A

>  <Glide GScore>  (48) 
-8.78625160561916

>  <RMSLigA>  (48) 
0.468750397168298

>  <RMSLigB>  (48) 
0.930205230763083

$$$$
Combi88_000001
     RDKit          3D

 34 37  0  0  1  0  0  0  0  0999 V2000
    0.9707   18.2227   -4.3289 N   0  0  0  0  0  0  0  0  0  0  0  0
   -0.1481   17.5055   -4.3789 C   0  0  0  0  0  0  0  0  0  0  0  0
   -1.2416   18.0413   -4.1973 O   0  0  0  0  0  0  0  0  0  0  0  0
    0.0158   16.1855   -4.6375 N   0  0  0  0  0  0  0  0  0  0  0  0
    1.2959   15.4888   -4.8334 C   0  0  0  0  0  0  0  0  0  0  0  0
    1.5105   14.4819   -3.7021 C   0  0  0  0  0  0  0  0  0  0  0  0
    0.3334   13.4864   -3.5765 C   0  0  0  0  0  0  0  0  0  0  0  0
    0.5703   12.6395   -2.3210 C   0  0  0  0  0  0  0  0  0  0  0  0
    0.7283   13.2442   -1.2389 O   0  0  0  0  0  0  0  0  0  0  0  0
    0.5708   11.3956   -2.4378 O   0  0  0  0  0  0  0  0  0  0  0  0
   -1.0284   14.2548   -3.5180 C   0  0  0  0  0  0  0  0  0  0  0  0
   -2.2762   13.4228   -3.4992 N   0  0  0  0  0  0  0  0  0  0  0  0
   -3.0445   13.5566   -2.2377 C   0  0  0  0  0  0  0  0  0  0  0  0
   -3.9916   14.7668   -2.2617 C   0  0  0  0  0  0  0  0  0  0  0  0
   -4.7839   14.8497   -0.9725 C   0  0  0  0  0  0  0  0  0  0  0  0
   -6.1404   14.4648   -0.9295 C   0  0  0  0  0  0  0  0  0  0  0  0
   -6.7967   14.4613    0.3165 C   0  0  0  0  0  0  0  0  0  0  0  0
   -6.0686   14.8444    1.4624 C   0  0  0  0  0  0  0  0  0  0  0  0
   -6.6087   14.7813    2.7673 N   0  0  0  0  0  0  0  0  0  0  0  0
   -7.7946   15.2447    3.1763 C   0  0  0  0  0  0  0  0  0  0  0  0
   -8.6925   15.6138    2.4178 O   0  0  0  0  0  0  0  0  0  0  0  0
   -7.8718   15.2453    4.5157 N   0  0  0  0  0  0  0  0  0  0  0  0
   -8.7658   15.9951    5.3262 C   0  0  0  0  0  0  0  0  0  0  0  0
   -9.3915   17.1884    4.8841 C   0  0  0  0  0  0  0  0  0  0  0  0
  -10.2286   17.9148    5.7545 C   0  0  0  0  0  0  0  0  0  0  0  0
  -10.4545   17.4557    7.0645 C   0  0  0  0  0  0  0  0  0  0  0  0
   -9.8274   16.2757    7.5122 C   0  0  0  0  0  0  0  0  0  0  0  0
   -8.9772   15.5554    6.6500 C   0  0  0  0  0  0  0  0  0  0  0  0
   -4.7222   15.2333    1.3061 C   0  0  0  0  0  0  0  0  0  0  0  0
   -4.0890   15.2460    0.1135 N   0  0  0  0  0  0  0  0  0  0  0  0
   -2.1754   12.0098   -3.9498 C   0  0  0  0  0  0  0  0  0  0  0  0
   -3.3838   11.5563   -4.7395 C   0  0  0  0  0  0  0  0  0  0  0  0
   -2.0736   11.8163   -5.4475 C   0  0  0  0  0  0  0  0  0  0  0  0
   -1.1188   15.2580   -4.6861 C   0  0  0  0  0  0  0  0  0  0  0  0
  1  2  1  0
  2  3  2  0
  2  4  1  0
  4 34  1  0
  4  5  1  0
  5  6  1  0
  6  7  1  0
  7  8  1  0
  7 11  1  0
  8  9  2  0
  8 10  1  0
 11 12  1  0
 11 34  1  0
 12 13  1  0
 12 31  1  0
 13 14  1  0
 14 15  1  0
 15 30  1  0
 15 16  2  0
 16 17  1  0
 17 18  2  0
 18 19  1  0
 18 29  1  0
 19 20  1  0
 20 21  2  0
 20 22  1  0
 22 23  1  0
 23 28  1  0
 23 24  2  0
 24 25  1  0
 25 26  2  0
 26 27  1  0
 27 28  2  0
 29 30  2  0
 31 33  1  0
 31 32  1  0
 32 33  1  0
M  CHG  2  10  -1  12   1
M  END
>  <original SMILES>  (49) 
NC(=O)N1CCC(C(=O)[O-])C([NH+](CCc2ccc(NC(=O)Nc3ccccc3)cn2)C2CC2)C1

>  <ref_pdb>  (49) 
Combi88.pdb

>  <ref_mols>  (49) 
x0088_0A

>  <Glide GScore>  (49) 
-7.86258041916071

>  <RMSLigA>  (49) 
0.213447397960686

>  <RMSLigB>  (49) 
0.752542396778248

$$$$
Combi88_000151
     RDKit          3D

 33 35  0  0  1  0  0  0  0  0999 V2000
   -6.1442   14.3585   -3.4583 C   0  0  0  0  0  0  0  0  0  0  0  0
   -5.0587   14.3746   -2.3637 C   0  0  0  0  0  0  0  0  0  0  0  0
   -4.1855   13.1011   -2.3985 C   0  0  0  0  0  0  0  0  0  0  0  0
   -2.8789   13.2899   -3.1628 C   0  0  0  0  0  0  0  0  0  0  0  0
   -2.1526   14.2553   -2.4183 O   0  0  0  0  0  0  0  0  0  0  0  0
   -1.0026   14.8314   -3.0146 C   0  0  0  0  0  0  0  0  0  0  0  0
   -1.3611   15.6455   -4.2698 C   0  0  0  0  0  0  0  0  0  0  0  0
   -0.1737   16.3958   -4.6739 N   0  0  0  0  0  0  0  0  0  0  0  0
   -0.1507   17.7488   -4.6435 C   0  0  0  0  0  0  0  0  0  0  0  0
    1.0119   18.3188   -4.9445 N   0  0  0  0  0  0  0  0  0  0  0  0
   -1.1175   18.4441   -4.3513 O   0  0  0  0  0  0  0  0  0  0  0  0
    0.9225   15.4978   -5.0646 C   0  0  0  0  0  0  0  0  0  0  0  0
    1.3566   14.6231   -3.8714 C   0  0  0  0  0  0  0  0  0  0  0  0
    0.1533   13.8429   -3.3006 C   0  0  0  0  0  0  0  0  0  0  0  0
    0.5711   13.0597   -2.0465 C   0  0  0  0  0  0  0  0  0  0  0  0
    0.5847   13.6442   -0.9416 O   0  0  0  0  0  0  0  0  0  0  0  0
    0.9092   11.8684   -2.2107 O   0  0  0  0  0  0  0  0  0  0  0  0
   -5.5964   14.5839   -0.9560 C   0  0  0  0  0  0  0  0  0  0  0  0
   -6.8743   14.1285   -0.5693 C   0  0  0  0  0  0  0  0  0  0  0  0
   -7.2525   14.2634    0.7753 C   0  0  0  0  0  0  0  0  0  0  0  0
   -6.3403   14.8344    1.6877 C   0  0  0  0  0  0  0  0  0  0  0  0
   -6.6345   14.9589    3.0662 N   0  0  0  0  0  0  0  0  0  0  0  0
   -7.8202   15.3125    3.5767 C   0  0  0  0  0  0  0  0  0  0  0  0
   -8.7850   15.6696    2.8943 O   0  0  0  0  0  0  0  0  0  0  0  0
   -7.8295   15.2469    4.9150 N   0  0  0  0  0  0  0  0  0  0  0  0
   -8.7604   15.8865    5.7767 C   0  0  0  0  0  0  0  0  0  0  0  0
   -8.9786   15.3326    7.0534 C   0  0  0  0  0  0  0  0  0  0  0  0
   -9.8877   15.9327    7.9458 C   0  0  0  0  0  0  0  0  0  0  0  0
  -10.5744   17.1063    7.5747 C   0  0  0  0  0  0  0  0  0  0  0  0
  -10.3401   17.6851    6.3140 C   0  0  0  0  0  0  0  0  0  0  0  0
   -9.4365   17.0803    5.4199 C   0  0  0  0  0  0  0  0  0  0  0  0
   -5.0804   15.2444    1.2077 C   0  0  0  0  0  0  0  0  0  0  0  0
   -4.7223   15.1439   -0.0876 N   0  0  0  0  0  0  0  0  0  0  0  0
  1  2  1  0
  2  3  1  0
  2 18  1  0
  3  4  1  0
  4  5  1  0
  5  6  1  0
  6 14  1  0
  6  7  1  0
  7  8  1  0
  8  9  1  0
  8 12  1  0
  9 10  1  0
  9 11  2  0
 12 13  1  0
 13 14  1  0
 14 15  1  0
 15 16  2  0
 15 17  1  0
 18 33  1  0
 18 19  2  0
 19 20  1  0
 20 21  2  0
 21 22  1  0
 21 32  1  0
 22 23  1  0
 23 24  2  0
 23 25  1  0
 25 26  1  0
 26 31  1  0
 26 27  2  0
 27 28  1  0
 28 29  2  0
 29 30  1  0
 30 31  2  0
 32 33  2  0
M  CHG  1  17  -1
M  END
>  <original SMILES>  (50) 
CC(CCOC1CN(C(N)=O)CCC1C(=O)[O-])c1ccc(NC(=O)Nc2ccccc2)cn1

>  <ref_pdb>  (50) 
Combi88.pdb

>  <ref_mols>  (50) 
x0088_0A

>  <Glide GScore>  (50) 
-7.82725003250938

>  <RMSLigA>  (50) 
0.619275882355453

>  <RMSLigB>  (50) 
1.00012464422649

$$$$
Combi88_000043
     RDKit          3D

 33 35  0  0  1  0  0  0  0  0999 V2000
   -5.0773   15.1422   -2.8378 C   0  0  0  0  0  0  0  0  0  0  0  0
   -4.7408   13.9448   -1.9753 C   0  0  0  0  0  0  0  0  0  0  0  0
   -5.2304   12.6478   -2.6684 C   0  0  0  0  0  0  0  0  0  0  0  0
   -3.2015   13.9192   -1.7896 C   0  0  0  0  0  0  0  0  0  0  0  0
   -2.4101   13.5144   -2.9853 N   0  0  0  0  0  0  0  0  0  0  0  0
   -1.1816   14.3145   -3.2413 C   0  0  0  0  0  0  0  0  0  0  0  0
   -1.4616   15.4107   -4.2889 C   0  0  0  0  0  0  0  0  0  0  0  0
   -0.2459   16.2091   -4.5033 N   0  0  0  0  0  0  0  0  0  0  0  0
   -0.2284   17.5437   -4.2859 C   0  0  0  0  0  0  0  0  0  0  0  0
    0.9706   18.1219   -4.2928 N   0  0  0  0  0  0  0  0  0  0  0  0
   -1.2385   18.1985   -4.0371 O   0  0  0  0  0  0  0  0  0  0  0  0
    0.8681   15.4191   -5.0465 C   0  0  0  0  0  0  0  0  0  0  0  0
    1.2343   14.3041   -4.0634 C   0  0  0  0  0  0  0  0  0  0  0  0
    0.0007   13.4357   -3.7242 C   0  0  0  0  0  0  0  0  0  0  0  0
    0.3707   12.4172   -2.6466 C   0  0  0  0  0  0  0  0  0  0  0  0
    0.9727   12.8443   -1.6367 O   0  0  0  0  0  0  0  0  0  0  0  0
   -0.0581   11.2548   -2.8067 O   0  0  0  0  0  0  0  0  0  0  0  0
   -5.4360   14.1660   -0.6171 C   0  0  0  0  0  0  0  0  0  0  0  0
   -6.7788   13.7802   -0.3918 C   0  0  0  0  0  0  0  0  0  0  0  0
   -7.3623   14.0375    0.8630 C   0  0  0  0  0  0  0  0  0  0  0  0
   -6.5772   14.6566    1.8547 C   0  0  0  0  0  0  0  0  0  0  0  0
   -7.0291   14.8263    3.1784 N   0  0  0  0  0  0  0  0  0  0  0  0
   -8.1580   15.4314    3.5574 C   0  0  0  0  0  0  0  0  0  0  0  0
   -9.0185   15.8469    2.7789 O   0  0  0  0  0  0  0  0  0  0  0  0
   -8.2295   15.5217    4.8932 N   0  0  0  0  0  0  0  0  0  0  0  0
   -9.0939   16.3583    5.6398 C   0  0  0  0  0  0  0  0  0  0  0  0
   -9.5151   17.6227    5.1634 C   0  0  0  0  0  0  0  0  0  0  0  0
  -10.3291   18.4425    5.9663 C   0  0  0  0  0  0  0  0  0  0  0  0
  -10.7419   18.0057    7.2386 C   0  0  0  0  0  0  0  0  0  0  0  0
  -10.3162   16.7511    7.7177 C   0  0  0  0  0  0  0  0  0  0  0  0
   -9.4789   15.9386    6.9293 C   0  0  0  0  0  0  0  0  0  0  0  0
   -5.2645   15.0395    1.5324 C   0  0  0  0  0  0  0  0  0  0  0  0
   -4.7232   14.8443    0.3147 N   0  0  0  0  0  0  0  0  0  0  0  0
  1  2  1  0
  2  3  1  0
  2  4  1  0
  2 18  1  0
  4  5  1  0
  5  6  1  0
  6 14  1  0
  6  7  1  0
  7  8  1  0
  8  9  1  0
  8 12  1  0
  9 10  1  0
  9 11  2  0
 12 13  1  0
 13 14  1  0
 14 15  1  0
 15 16  2  0
 15 17  1  0
 18 33  1  0
 18 19  2  0
 19 20  1  0
 20 21  2  0
 21 22  1  0
 21 32  1  0
 22 23  1  0
 23 24  2  0
 23 25  1  0
 25 26  1  0
 26 31  1  0
 26 27  2  0
 27 28  1  0
 28 29  2  0
 29 30  1  0
 30 31  2  0
 32 33  2  0
M  CHG  2   5   1  17  -1
M  END
>  <original SMILES>  (51) 
CC(C)(C[NH2+]C1CN(C(N)=O)CCC1C(=O)[O-])c1ccc(NC(=O)Nc2ccccc2)cn1

>  <ref_pdb>  (51) 
Combi88.pdb

>  <ref_mols>  (51) 
x0088_0A

>  <Glide GScore>  (51) 
-7.76499862160029

>  <RMSLigA>  (51) 
0.753375550503532

>  <RMSLigB>  (51) 
0.704549063751714

$$$$
Combi88_000088
     RDKit          3D

 33 35  0  0  1  0  0  0  0  0999 V2000
   -1.9710   11.7772   -5.0208 C   0  0  0  0  0  0  0  0  0  0  0  0
   -2.0518   12.6426   -3.8150 N   0  0  0  0  0  0  0  0  0  0  0  0
   -3.4622   13.0331   -3.5402 C   0  0  0  0  0  0  0  0  0  0  0  0
   -3.6668   13.7999   -2.2252 C   0  0  0  0  0  0  0  0  0  0  0  0
   -5.0654   13.9321   -2.0176 O   0  0  0  0  0  0  0  0  0  0  0  0
   -5.4969   14.2995   -0.7636 C   0  0  0  0  0  0  0  0  0  0  0  0
   -6.8644   14.1602   -0.4645 C   0  0  0  0  0  0  0  0  0  0  0  0
   -7.3013   14.4332    0.8439 C   0  0  0  0  0  0  0  0  0  0  0  0
   -6.3513   14.8443    1.8021 C   0  0  0  0  0  0  0  0  0  0  0  0
   -6.6769   15.0642    3.1631 N   0  0  0  0  0  0  0  0  0  0  0  0
   -7.8287   15.5607    3.6415 C   0  0  0  0  0  0  0  0  0  0  0  0
   -8.7255   16.0241    2.9333 O   0  0  0  0  0  0  0  0  0  0  0  0
   -7.8699   15.5049    4.9805 N   0  0  0  0  0  0  0  0  0  0  0  0
   -8.8730   16.0445    5.8279 C   0  0  0  0  0  0  0  0  0  0  0  0
   -9.0903   15.4263    7.0750 C   0  0  0  0  0  0  0  0  0  0  0  0
  -10.0584   15.9369    7.9627 C   0  0  0  0  0  0  0  0  0  0  0  0
  -10.8044   17.0801    7.6159 C   0  0  0  0  0  0  0  0  0  0  0  0
  -10.5717   17.7222    6.3856 C   0  0  0  0  0  0  0  0  0  0  0  0
   -9.6080   17.2102    5.4956 C   0  0  0  0  0  0  0  0  0  0  0  0
   -5.0115   14.9897    1.3933 C   0  0  0  0  0  0  0  0  0  0  0  0
   -4.5882   14.7435    0.1368 N   0  0  0  0  0  0  0  0  0  0  0  0
   -1.0613   13.7703   -3.7755 C   0  0  0  0  0  0  0  0  0  0  0  0
   -1.3306   14.8513   -4.8554 C   0  0  0  0  0  0  0  0  0  0  0  0
   -0.3398   15.9315   -4.7531 N   0  0  0  0  0  0  0  0  0  0  0  0
   -0.6722   17.2087   -4.4364 C   0  0  0  0  0  0  0  0  0  0  0  0
    0.3573   18.0440   -4.2995 N   0  0  0  0  0  0  0  0  0  0  0  0
   -1.8253   17.6042   -4.2623 O   0  0  0  0  0  0  0  0  0  0  0  0
    1.0193   15.4258   -4.9885 C   0  0  0  0  0  0  0  0  0  0  0  0
    1.3996   14.4829   -3.8434 C   0  0  0  0  0  0  0  0  0  0  0  0
    0.4194   13.2846   -3.7910 C   0  0  0  0  0  0  0  0  0  0  0  0
    0.6972   12.3803   -2.5786 C   0  0  0  0  0  0  0  0  0  0  0  0
    1.3707   12.8444   -1.6367 O   0  0  0  0  0  0  0  0  0  0  0  0
    0.1705   11.2469   -2.5773 O   0  0  0  0  0  0  0  0  0  0  0  0
  1  2  1  0
  2  3  1  0
  2 22  1  0
  3  4  1  0
  4  5  1  0
  5  6  1  0
  6 21  1  0
  6  7  2  0
  7  8  1  0
  8  9  2  0
  9 10  1  0
  9 20  1  0
 10 11  1  0
 11 12  2  0
 11 13  1  0
 13 14  1  0
 14 19  1  0
 14 15  2  0
 15 16  1  0
 16 17  2  0
 17 18  1  0
 18 19  2  0
 20 21  2  0
 22 30  1  0
 22 23  1  0
 23 24  1  0
 24 25  1  0
 24 28  1  0
 25 26  1  0
 25 27  2  0
 28 29  1  0
 29 30  1  0
 30 31  1  0
 31 32  2  0
 31 33  1  0
M  CHG  2   2   1  33  -1
M  END
>  <original SMILES>  (52) 
C[NH+](CCOc1ccc(NC(=O)Nc2ccccc2)cn1)C1CN(C(N)=O)CCC1C(=O)[O-]

>  <ref_pdb>  (52) 
Combi88.pdb

>  <ref_mols>  (52) 
x0088_0A

>  <Glide GScore>  (52) 
-7.75854346010105

>  <RMSLigA>  (52) 
0.691695078358638

>  <RMSLigB>  (52) 
0.42652160743019

$$$$
Combi88_000182
     RDKit          3D

 34 37  0  0  1  0  0  0  0  0999 V2000
    1.0965   18.4440   -4.6725 N   0  0  0  0  0  0  0  0  0  0  0  0
   -0.0477   17.8062   -4.4296 C   0  0  0  0  0  0  0  0  0  0  0  0
   -1.0589   18.4439   -4.1550 O   0  0  0  0  0  0  0  0  0  0  0  0
   -0.0106   16.4578   -4.5315 N   0  0  0  0  0  0  0  0  0  0  0  0
    1.1830   15.6460   -4.7774 C   0  0  0  0  0  0  0  0  0  0  0  0
    1.3961   14.6506   -3.6427 C   0  0  0  0  0  0  0  0  0  0  0  0
    0.1679   13.7526   -3.4427 C   0  0  0  0  0  0  0  0  0  0  0  0
    0.4535   12.7828   -2.2841 C   0  0  0  0  0  0  0  0  0  0  0  0
    0.9639   13.2445   -1.2388 O   0  0  0  0  0  0  0  0  0  0  0  0
    0.1714   11.5763   -2.4455 O   0  0  0  0  0  0  0  0  0  0  0  0
   -1.0943   14.6446   -3.2270 C   0  0  0  0  0  0  0  0  0  0  0  0
   -2.4135   13.8644   -2.9719 C   0  0  0  0  0  0  0  0  0  0  0  0
   -3.6050   14.7785   -2.6348 C   0  0  0  0  0  0  0  0  0  0  0  0
   -4.7536   14.0041   -2.1844 N   0  0  0  0  0  0  0  0  0  0  0  0
   -5.3082   14.2487   -0.9102 C   0  0  0  0  0  0  0  0  0  0  0  0
   -6.6794   14.0604   -0.6146 C   0  0  0  0  0  0  0  0  0  0  0  0
   -7.1535   14.3054    0.6909 C   0  0  0  0  0  0  0  0  0  0  0  0
   -6.2512   14.7409    1.6906 C   0  0  0  0  0  0  0  0  0  0  0  0
   -6.6311   14.9483    3.0369 N   0  0  0  0  0  0  0  0  0  0  0  0
   -7.8215   15.3676    3.4872 C   0  0  0  0  0  0  0  0  0  0  0  0
   -8.7477   15.7254    2.7578 O   0  0  0  0  0  0  0  0  0  0  0  0
   -7.8675   15.3567    4.8264 N   0  0  0  0  0  0  0  0  0  0  0  0
   -8.7963   16.0440    5.6481 C   0  0  0  0  0  0  0  0  0  0  0  0
   -9.0292   15.5399    6.9442 C   0  0  0  0  0  0  0  0  0  0  0  0
   -9.9202   16.1952    7.8133 C   0  0  0  0  0  0  0  0  0  0  0  0
  -10.5699   17.3766    7.4026 C   0  0  0  0  0  0  0  0  0  0  0  0
  -10.3216   17.9044    6.1218 C   0  0  0  0  0  0  0  0  0  0  0  0
   -9.4398   17.2401    5.2447 C   0  0  0  0  0  0  0  0  0  0  0  0
   -4.8976   14.9173    1.3440 C   0  0  0  0  0  0  0  0  0  0  0  0
   -4.4899   14.6819    0.0787 N   0  0  0  0  0  0  0  0  0  0  0  0
   -5.3647   13.0611   -3.1247 C   0  0  0  0  0  0  0  0  0  0  0  0
   -4.3477   12.0252   -3.6452 C   0  0  0  0  0  0  0  0  0  0  0  0
   -2.8740   12.7995   -4.3705 S   0  0  0  0  0  0  0  0  0  0  0  0
   -1.2238   15.6364   -4.4103 C   0  0  0  0  0  0  0  0  0  0  0  0
  1  2  1  0
  2  3  2  0
  2  4  1  0
  4 34  1  0
  4  5  1  0
  5  6  1  0
  6  7  1  0
  7  8  1  0
  7 11  1  0
  8  9  2  0
  8 10  1  0
 11 12  1  0
 11 34  1  0
 12 33  1  0
 12 13  1  0
 13 14  1  0
 14 15  1  0
 14 31  1  0
 15 30  1  0
 15 16  2  0
 16 17  1  0
 17 18  2  0
 18 19  1  0
 18 29  1  0
 19 20  1  0
 20 21  2  0
 20 22  1  0
 22 23  1  0
 23 28  1  0
 23 24  2  0
 24 25  1  0
 25 26  2  0
 26 27  1  0
 27 28  2  0
 29 30  2  0
 31 32  1  0
 32 33  1  0
M  CHG  2  10  -1  30   1
M  END
>  <original SMILES>  (53) 
NC(=O)N1CCC(C(=O)[O-])C(C2CN(c3ccc(NC(=O)Nc4ccccc4)c[nH+]3)CCS2)C1

>  <ref_pdb>  (53) 
Combi88.pdb

>  <ref_mols>  (53) 
x0088_0A

>  <Glide GScore>  (53) 
-8.74277244352246

>  <RMSLigA>  (53) 
0.521897420805744

>  <RMSLigB>  (53) 
0.913506276993349

$$$$
Combi88_000104
     RDKit          3D

 34 36  0  0  1  0  0  0  0  0999 V2000
   -1.7684   11.7200   -5.6014 C   0  0  0  0  0  0  0  0  0  0  0  0
   -1.7566   12.2485   -4.2155 N   0  0  0  0  0  0  0  0  0  0  0  0
   -3.0351   12.0841   -3.4842 C   0  0  0  0  0  0  0  0  0  0  0  0
   -4.2424   12.7832   -4.1427 C   0  0  0  0  0  0  0  0  0  0  0  0
   -5.1685   13.4183   -3.1065 C   0  0  0  0  0  0  0  0  0  0  0  0
   -4.3614   14.8204   -2.2777 S   0  0  0  0  0  0  0  0  0  0  0  0
   -5.1302   14.8938   -0.6998 C   0  0  0  0  0  0  0  0  0  0  0  0
   -6.4921   14.5754   -0.5435 C   0  0  0  0  0  0  0  0  0  0  0  0
   -7.0297   14.5954    0.7534 C   0  0  0  0  0  0  0  0  0  0  0  0
   -6.1842   14.9482    1.8263 C   0  0  0  0  0  0  0  0  0  0  0  0
   -6.6320   15.0092    3.1633 N   0  0  0  0  0  0  0  0  0  0  0  0
   -7.8202   15.4543    3.5969 C   0  0  0  0  0  0  0  0  0  0  0  0
   -8.7299   15.8408    2.8601 O   0  0  0  0  0  0  0  0  0  0  0  0
   -7.8881   15.4273    4.9350 N   0  0  0  0  0  0  0  0  0  0  0  0
   -8.8643   16.0442    5.7604 C   0  0  0  0  0  0  0  0  0  0  0  0
   -9.0767   15.5022    7.0432 C   0  0  0  0  0  0  0  0  0  0  0  0
  -10.0140   16.0873    7.9168 C   0  0  0  0  0  0  0  0  0  0  0  0
  -10.7254   17.2371    7.5237 C   0  0  0  0  0  0  0  0  0  0  0  0
  -10.4945   17.8053    6.2571 C   0  0  0  0  0  0  0  0  0  0  0  0
   -9.5691   17.2123    5.3763 C   0  0  0  0  0  0  0  0  0  0  0  0
   -4.8320   15.2462    1.5563 C   0  0  0  0  0  0  0  0  0  0  0  0
   -4.3066   15.2312    0.3130 N   0  0  0  0  0  0  0  0  0  0  0  0
   -1.0373   13.5455   -3.9849 C   0  0  0  0  0  0  0  0  0  0  0  0
   -1.2715   14.6163   -5.0805 C   0  0  0  0  0  0  0  0  0  0  0  0
   -0.4680   15.8239   -4.8346 N   0  0  0  0  0  0  0  0  0  0  0  0
   -1.0219   17.0428   -4.6125 C   0  0  0  0  0  0  0  0  0  0  0  0
   -0.1672   18.0634   -4.6817 N   0  0  0  0  0  0  0  0  0  0  0  0
   -2.2238   17.2435   -4.4367 O   0  0  0  0  0  0  0  0  0  0  0  0
    0.9728   15.5253   -4.8510 C   0  0  0  0  0  0  0  0  0  0  0  0
    1.2872   14.5977   -3.6795 C   0  0  0  0  0  0  0  0  0  0  0  0
    0.4814   13.2799   -3.7982 C   0  0  0  0  0  0  0  0  0  0  0  0
    0.7078   12.3768   -2.5810 C   0  0  0  0  0  0  0  0  0  0  0  0
    0.1711   11.2443   -2.5937 O   0  0  0  0  0  0  0  0  0  0  0  0
    1.3708   12.8442   -1.6367 O   0  0  0  0  0  0  0  0  0  0  0  0
  1  2  1  0
  2  3  1  0
  2 23  1  0
  3  4  1  0
  4  5  1  0
  5  6  1  0
  6  7  1  0
  7 22  1  0
  7  8  2  0
  8  9  1  0
  9 10  2  0
 10 11  1  0
 10 21  1  0
 11 12  1  0
 12 13  2  0
 12 14  1  0
 14 15  1  0
 15 20  1  0
 15 16  2  0
 16 17  1  0
 17 18  2  0
 18 19  1  0
 19 20  2  0
 21 22  2  0
 23 31  1  0
 23 24  1  0
 24 25  1  0
 25 26  1  0
 25 29  1  0
 26 27  1  0
 26 28  2  0
 29 30  1  0
 30 31  1  0
 31 32  1  0
 32 33  2  0
 32 34  1  0
M  CHG  2   2   1  34  -1
M  END
>  <original SMILES>  (54) 
C[NH+](CCCSc1ccc(NC(=O)Nc2ccccc2)cn1)C1CN(C(N)=O)CCC1C(=O)[O-]

>  <ref_pdb>  (54) 
Combi88.pdb

>  <ref_mols>  (54) 
x0088_0A

>  <Glide GScore>  (54) 
-7.70367905031384

>  <RMSLigA>  (54) 
0.501645884707903

>  <RMSLigB>  (54) 
0.991196736897961

$$$$
Combi88_000006
     RDKit          3D

 33 35  0  0  1  0  0  0  0  0999 V2000
   -1.7902   11.8357   -5.2883 C   0  0  0  0  0  0  0  0  0  0  0  0
   -1.9570   12.6105   -4.0315 N   0  0  0  0  0  0  0  0  0  0  0  0
   -3.3929   12.9029   -3.7619 C   0  0  0  0  0  0  0  0  0  0  0  0
   -3.7101   13.2656   -2.2969 C   0  0  0  0  0  0  0  0  0  0  0  0
   -4.4977   14.5809   -2.1513 C   0  0  0  0  0  0  0  0  0  0  0  0
   -5.1322   14.7181   -0.7813 C   0  0  0  0  0  0  0  0  0  0  0  0
   -6.4793   14.3549   -0.5845 C   0  0  0  0  0  0  0  0  0  0  0  0
   -7.0186   14.4444    0.7097 C   0  0  0  0  0  0  0  0  0  0  0  0
   -6.1887   14.8926    1.7596 C   0  0  0  0  0  0  0  0  0  0  0  0
   -6.6294   14.9807    3.1068 N   0  0  0  0  0  0  0  0  0  0  0  0
   -7.8287   15.3877    3.5442 C   0  0  0  0  0  0  0  0  0  0  0  0
   -8.7551   15.7300    2.8074 O   0  0  0  0  0  0  0  0  0  0  0  0
   -7.8821   15.3772    4.8827 N   0  0  0  0  0  0  0  0  0  0  0  0
   -8.8496   15.9983    5.7145 C   0  0  0  0  0  0  0  0  0  0  0  0
   -9.0301   15.4770    7.0105 C   0  0  0  0  0  0  0  0  0  0  0  0
   -9.9585   16.0652    7.8921 C   0  0  0  0  0  0  0  0  0  0  0  0
  -10.6906   17.1997    7.4915 C   0  0  0  0  0  0  0  0  0  0  0  0
  -10.4956   17.7427    6.2088 C   0  0  0  0  0  0  0  0  0  0  0  0
   -9.5807   17.1461    5.3182 C   0  0  0  0  0  0  0  0  0  0  0  0
   -4.8551   15.2405    1.4540 C   0  0  0  0  0  0  0  0  0  0  0  0
   -4.3308   15.1624    0.2107 N   0  0  0  0  0  0  0  0  0  0  0  0
   -1.0475   13.7969   -3.9002 C   0  0  0  0  0  0  0  0  0  0  0  0
   -1.2280   14.8365   -5.0360 C   0  0  0  0  0  0  0  0  0  0  0  0
   -0.3398   15.9903   -4.8325 N   0  0  0  0  0  0  0  0  0  0  0  0
   -0.8154   17.2424   -4.6122 C   0  0  0  0  0  0  0  0  0  0  0  0
    0.1002   18.2086   -4.6617 N   0  0  0  0  0  0  0  0  0  0  0  0
   -2.0022   17.5126   -4.4358 O   0  0  0  0  0  0  0  0  0  0  0  0
    1.0773   15.6020   -4.8383 C   0  0  0  0  0  0  0  0  0  0  0  0
    1.3438   14.6590   -3.6609 C   0  0  0  0  0  0  0  0  0  0  0  0
    0.4536   13.3997   -3.7692 C   0  0  0  0  0  0  0  0  0  0  0  0
    0.6799   12.4411   -2.5933 C   0  0  0  0  0  0  0  0  0  0  0  0
    0.1318   11.3201   -2.6471 O   0  0  0  0  0  0  0  0  0  0  0  0
    1.3704   12.8443   -1.6367 O   0  0  0  0  0  0  0  0  0  0  0  0
  1  2  1  0
  2  3  1  0
  2 22  1  0
  3  4  1  0
  4  5  1  0
  5  6  1  0
  6 21  1  0
  6  7  2  0
  7  8  1  0
  8  9  2  0
  9 10  1  0
  9 20  1  0
 10 11  1  0
 11 12  2  0
 11 13  1  0
 13 14  1  0
 14 19  1  0
 14 15  2  0
 15 16  1  0
 16 17  2  0
 17 18  1  0
 18 19  2  0
 20 21  2  0
 22 30  1  0
 22 23  1  0
 23 24  1  0
 24 25  1  0
 24 28  1  0
 25 26  1  0
 25 27  2  0
 28 29  1  0
 29 30  1  0
 30 31  1  0
 31 32  2  0
 31 33  1  0
M  CHG  2   2   1  33  -1
M  END
>  <original SMILES>  (55) 
C[NH+](CCCc1ccc(NC(=O)Nc2ccccc2)cn1)C1CN(C(N)=O)CCC1C(=O)[O-]

>  <ref_pdb>  (55) 
Combi88.pdb

>  <ref_mols>  (55) 
x0088_0A

>  <Glide GScore>  (55) 
-7.67313761282151

>  <RMSLigA>  (55) 
0.487259015708342

>  <RMSLigB>  (55) 
0.985825206499188

$$$$
Combi88_000107
     RDKit          3D

 34 36  0  0  1  0  0  0  0  0999 V2000
   -3.8718   11.4951   -5.1351 C   0  0  0  0  0  0  0  0  0  0  0  0
   -3.4121   12.7241   -4.3243 C   0  0  0  0  0  0  0  0  0  0  0  0
   -1.9652   12.5682   -4.0209 N   0  0  0  0  0  0  0  0  0  0  0  0
   -1.1153   13.7678   -3.7724 C   0  0  0  0  0  0  0  0  0  0  0  0
   -1.3345   14.8794   -4.8343 C   0  0  0  0  0  0  0  0  0  0  0  0
   -0.3600   15.9710   -4.6835 N   0  0  0  0  0  0  0  0  0  0  0  0
   -0.7044   17.2565   -4.4264 C   0  0  0  0  0  0  0  0  0  0  0  0
    0.3142   18.1079   -4.3172 N   0  0  0  0  0  0  0  0  0  0  0  0
   -1.8613   17.6439   -4.2833 O   0  0  0  0  0  0  0  0  0  0  0  0
    1.0104   15.4890   -4.8437 C   0  0  0  0  0  0  0  0  0  0  0  0
    1.3352   14.5434   -3.7033 C   0  0  0  0  0  0  0  0  0  0  0  0
    0.3789   13.3338   -3.7404 C   0  0  0  0  0  0  0  0  0  0  0  0
    0.6635   12.3986   -2.5623 C   0  0  0  0  0  0  0  0  0  0  0  0
    1.3690   12.8442   -1.6367 O   0  0  0  0  0  0  0  0  0  0  0  0
    0.1634   11.2538   -2.5940 O   0  0  0  0  0  0  0  0  0  0  0  0
   -4.2895   12.9385   -3.0740 C   0  0  0  0  0  0  0  0  0  0  0  0
   -5.1879   12.1330   -2.8362 O   0  0  0  0  0  0  0  0  0  0  0  0
   -4.0410   14.0197   -2.3032 N   0  0  0  0  0  0  0  0  0  0  0  0
   -4.6587   14.3429   -1.0641 C   0  0  0  0  0  0  0  0  0  0  0  0
   -6.0506   14.1490   -0.8925 C   0  0  0  0  0  0  0  0  0  0  0  0
   -6.6334   14.3791    0.3647 C   0  0  0  0  0  0  0  0  0  0  0  0
   -5.8158   14.8214    1.4264 C   0  0  0  0  0  0  0  0  0  0  0  0
   -6.2833   14.9491    2.7616 N   0  0  0  0  0  0  0  0  0  0  0  0
   -7.5230   15.2639    3.1669 C   0  0  0  0  0  0  0  0  0  0  0  0
   -8.4446   15.5692    2.4085 O   0  0  0  0  0  0  0  0  0  0  0  0
   -7.6257   15.2443    4.5027 N   0  0  0  0  0  0  0  0  0  0  0  0
   -8.5984   15.8828    5.3172 C   0  0  0  0  0  0  0  0  0  0  0  0
   -8.7587   15.4058    6.6342 C   0  0  0  0  0  0  0  0  0  0  0  0
   -9.6697   16.0275    7.5119 C   0  0  0  0  0  0  0  0  0  0  0  0
  -10.4177   17.1383    7.0794 C   0  0  0  0  0  0  0  0  0  0  0  0
  -10.2484   17.6345    5.7721 C   0  0  0  0  0  0  0  0  0  0  0  0
   -9.3408   17.0119    4.8931 C   0  0  0  0  0  0  0  0  0  0  0  0
   -4.4568   15.0620    1.1435 C   0  0  0  0  0  0  0  0  0  0  0  0
   -3.8962   14.8481   -0.0693 N   0  0  0  0  0  0  0  0  0  0  0  0
  1  2  1  0
  2  3  1  0
  2 16  1  0
  3  4  1  0
  4 12  1  0
  4  5  1  0
  5  6  1  0
  6  7  1  0
  6 10  1  0
  7  8  1  0
  7  9  2  0
 10 11  1  0
 11 12  1  0
 12 13  1  0
 13 14  2  0
 13 15  1  0
 16 17  2  0
 16 18  1  0
 18 19  1  0
 19 34  1  0
 19 20  2  0
 20 21  1  0
 21 22  2  0
 22 23  1  0
 22 33  1  0
 23 24  1  0
 24 25  2  0
 24 26  1  0
 26 27  1  0
 27 32  1  0
 27 28  2  0
 28 29  1  0
 29 30  2  0
 30 31  1  0
 31 32  2  0
 33 34  2  0
M  CHG  2   3   1  15  -1
M  END
>  <original SMILES>  (56) 
CC([NH2+]C1CN(C(N)=O)CCC1C(=O)[O-])C(=O)Nc1ccc(NC(=O)Nc2ccccc2)cn1

>  <ref_pdb>  (56) 
Combi88.pdb

>  <ref_mols>  (56) 
x0088_0A

>  <Glide GScore>  (56) 
-7.68025915611999

>  <RMSLigA>  (56) 
0.43738247299296

>  <RMSLigB>  (56) 
0.401361098855922

$$$$
Combi88_000023
     RDKit          3D

 33 35  0  0  1  0  0  0  0  0999 V2000
   -2.6496   12.2572   -3.8255 C   0  0  0  0  0  0  0  0  0  0  0  0
   -2.3195   13.3274   -3.0787 C   0  0  0  0  0  0  0  0  0  0  0  0
   -3.1541   13.7190   -1.9615 C   0  0  0  0  0  0  0  0  0  0  0  0
   -4.4763   13.9996   -1.9629 C   0  0  0  0  0  0  0  0  0  0  0  0
   -5.3407   13.9889   -3.2158 C   0  0  0  0  0  0  0  0  0  0  0  0
   -5.1515   14.3526   -0.6936 C   0  0  0  0  0  0  0  0  0  0  0  0
   -6.5321   14.1308   -0.4753 C   0  0  0  0  0  0  0  0  0  0  0  0
   -7.0928   14.3815    0.7944 C   0  0  0  0  0  0  0  0  0  0  0  0
   -6.2557   14.8444    1.8348 C   0  0  0  0  0  0  0  0  0  0  0  0
   -6.6954   15.0121    3.1632 N   0  0  0  0  0  0  0  0  0  0  0  0
   -7.8903   15.4524    3.5768 C   0  0  0  0  0  0  0  0  0  0  0  0
   -8.7853   15.8286    2.8178 O   0  0  0  0  0  0  0  0  0  0  0  0
   -7.9806   15.4313    4.9146 N   0  0  0  0  0  0  0  0  0  0  0  0
   -8.9617   16.0638    5.7208 C   0  0  0  0  0  0  0  0  0  0  0  0
   -9.2244   15.5162    6.9934 C   0  0  0  0  0  0  0  0  0  0  0  0
  -10.1621   16.1251    7.8497 C   0  0  0  0  0  0  0  0  0  0  0  0
  -10.8227   17.3029    7.4499 C   0  0  0  0  0  0  0  0  0  0  0  0
  -10.5420   17.8737    6.1939 C   0  0  0  0  0  0  0  0  0  0  0  0
   -9.6183   17.2561    5.3288 C   0  0  0  0  0  0  0  0  0  0  0  0
   -4.8978   15.0824    1.5635 C   0  0  0  0  0  0  0  0  0  0  0  0
   -4.4111   14.8443    0.3305 N   0  0  0  0  0  0  0  0  0  0  0  0
   -1.0705   14.1585   -3.3500 C   0  0  2  0  0  0  0  0  0  0  0  0
   -1.3696   15.2330   -4.4186 C   0  0  0  0  0  0  0  0  0  0  0  0
   -0.1989   16.1009   -4.5675 N   0  0  0  0  0  0  0  0  0  0  0  0
   -0.2220   17.4279   -4.2950 C   0  0  0  0  0  0  0  0  0  0  0  0
    0.9669   18.0435   -4.2685 N   0  0  0  0  0  0  0  0  0  0  0  0
   -1.2545   18.0445   -4.0369 O   0  0  0  0  0  0  0  0  0  0  0  0
    0.9501   15.3488   -5.0666 C   0  0  0  0  0  0  0  0  0  0  0  0
    1.3846   14.3149   -4.0248 C   0  0  0  0  0  0  0  0  0  0  0  0
    0.2213   13.3493   -3.6864 C   0  0  1  0  0  0  0  0  0  0  0  0
    0.6200   12.4113   -2.5291 C   0  0  0  0  0  0  0  0  0  0  0  0
    1.3671   12.8683   -1.6368 O   0  0  0  0  0  0  0  0  0  0  0  0
    0.1709   11.2443   -2.5295 O   0  0  0  0  0  0  0  0  0  0  0  0
  1  2  2  0
  2  3  1  0
 22  2  1  6
  3  4  2  3
  4  5  1  0
  4  6  1  0
  6 21  1  0
  6  7  2  0
  7  8  1  0
  8  9  2  0
  9 10  1  0
  9 20  1  0
 10 11  1  0
 11 12  2  0
 11 13  1  0
 13 14  1  0
 14 19  1  0
 14 15  2  0
 15 16  1  0
 16 17  2  0
 17 18  1  0
 18 19  2  0
 20 21  2  0
 22 30  1  0
 22 23  1  0
 23 24  1  0
 24 25  1  0
 24 28  1  0
 25 26  1  0
 25 27  2  0
 28 29  1  0
 29 30  1  0
 30 31  1  1
 31 32  2  0
 31 33  1  0
M  CHG  2  21   1  33  -1
M  END
>  <original SMILES>  (57) 
C=C(C=C(C)c1ccc(NC(=O)Nc2ccccc2)c[nH+]1)[C@@H]1CN(C(N)=O)CC[C@H]1C(=O)[O-]

>  <ref_pdb>  (57) 
Combi88.pdb

>  <ref_mols>  (57) 
x0088_0A

>  <Glide GScore>  (57) 
-9.14565219570701

>  <RMSLigA>  (57) 
0.588608227756215

>  <RMSLigB>  (57) 
0.682018847926385

$$$$
Combi88_000168
     RDKit          3D

 33 35  0  0  1  0  0  0  0  0999 V2000
   -6.0665   14.3501   -3.2181 C   0  0  0  0  0  0  0  0  0  0  0  0
   -5.0558   14.1752   -2.1555 N   0  0  0  0  0  0  0  0  0  0  0  0
   -3.8211   13.6678   -2.3496 C   0  0  0  0  0  0  0  0  0  0  0  0
   -3.4184   13.2190   -3.5512 N   0  0  0  0  0  0  0  0  0  0  0  0
   -2.0730   12.8088   -3.7608 N   0  0  0  0  0  0  0  0  0  0  0  0
   -1.1321   13.9218   -3.7074 C   0  0  2  0  0  0  0  0  0  0  0  0
   -1.3800   14.8956   -4.8808 C   0  0  0  0  0  0  0  0  0  0  0  0
   -0.3707   15.9575   -4.8347 N   0  0  0  0  0  0  0  0  0  0  0  0
   -0.6771   17.2419   -4.5423 C   0  0  0  0  0  0  0  0  0  0  0  0
    0.3688   18.0434   -4.3368 N   0  0  0  0  0  0  0  0  0  0  0  0
   -1.8279   17.6627   -4.4336 O   0  0  0  0  0  0  0  0  0  0  0  0
    0.9727   15.4201   -5.0829 C   0  0  0  0  0  0  0  0  0  0  0  0
    1.3570   14.5237   -3.9003 C   0  0  0  0  0  0  0  0  0  0  0  0
    0.3236   13.3818   -3.7211 C   0  0  1  0  0  0  0  0  0  0  0  0
    0.5966   12.5953   -2.4335 C   0  0  0  0  0  0  0  0  0  0  0  0
    0.9707   13.2437   -1.4293 O   0  0  0  0  0  0  0  0  0  0  0  0
    0.3685   11.3657   -2.4381 O   0  0  0  0  0  0  0  0  0  0  0  0
   -5.5141   14.4245   -0.8093 C   0  0  0  0  0  0  0  0  0  0  0  0
   -6.8388   14.0920   -0.4447 C   0  0  0  0  0  0  0  0  0  0  0  0
   -7.2425   14.3122    0.8821 C   0  0  0  0  0  0  0  0  0  0  0  0
   -6.3098   14.8424    1.7973 C   0  0  0  0  0  0  0  0  0  0  0  0
   -6.6301   15.0416    3.1609 N   0  0  0  0  0  0  0  0  0  0  0  0
   -7.7962   15.5041    3.6369 C   0  0  0  0  0  0  0  0  0  0  0  0
   -8.7121   15.9159    2.9214 O   0  0  0  0  0  0  0  0  0  0  0  0
   -7.8313   15.4750    4.9757 N   0  0  0  0  0  0  0  0  0  0  0  0
   -8.8240   16.0475    5.8130 C   0  0  0  0  0  0  0  0  0  0  0  0
   -9.0395   15.4661    7.0779 C   0  0  0  0  0  0  0  0  0  0  0  0
   -9.9973   16.0108    7.9556 C   0  0  0  0  0  0  0  0  0  0  0  0
  -10.7279   17.1557    7.5852 C   0  0  0  0  0  0  0  0  0  0  0  0
  -10.4957   17.7629    6.3379 C   0  0  0  0  0  0  0  0  0  0  0  0
   -9.5474   17.2130    5.4545 C   0  0  0  0  0  0  0  0  0  0  0  0
   -5.0042   15.1176    1.3415 C   0  0  0  0  0  0  0  0  0  0  0  0
   -4.6124   14.9231    0.0630 N   0  0  0  0  0  0  0  0  0  0  0  0
  1  2  1  0
  2  3  1  0
  2 18  1  0
  3  4  2  3
  4  5  1  0
  6  5  1  6
  6 14  1  0
  6  7  1  0
  7  8  1  0
  8  9  1  0
  8 12  1  0
  9 10  1  0
  9 11  2  0
 12 13  1  0
 13 14  1  0
 14 15  1  1
 15 16  2  0
 15 17  1  0
 18 33  1  0
 18 19  2  0
 19 20  1  0
 20 21  2  0
 21 22  1  0
 21 32  1  0
 22 23  1  0
 23 24  2  0
 23 25  1  0
 25 26  1  0
 26 31  1  0
 26 27  2  0
 27 28  1  0
 28 29  2  0
 29 30  1  0
 30 31  2  0
 32 33  2  0
M  CHG  2   4   1  17  -1
M  END
>  <original SMILES>  (58) 
CN(C=[NH+]N[C@@H]1CN(C(N)=O)CC[C@H]1C(=O)[O-])c1ccc(NC(=O)Nc2ccccc2)cn1

>  <ref_pdb>  (58) 
Combi88.pdb

>  <ref_mols>  (58) 
x0088_0A

>  <Glide GScore>  (58) 
-7.61329870384935

>  <RMSLigA>  (58) 
0.650215454583181

>  <RMSLigB>  (58) 
0.403538655707026

$$$$
Combi88_000010
     RDKit          3D

 32 34  0  0  1  0  0  0  0  0999 V2000
    0.8058   18.1277   -4.2875 N   0  0  0  0  0  0  0  0  0  0  0  0
   -0.3491   17.4634   -4.2872 C   0  0  0  0  0  0  0  0  0  0  0  0
   -1.4055   18.0441   -4.0420 O   0  0  0  0  0  0  0  0  0  0  0  0
   -0.2502   16.1337   -4.5234 N   0  0  0  0  0  0  0  0  0  0  0  0
    0.9442   15.4264   -5.0058 C   0  0  0  0  0  0  0  0  0  0  0  0
    1.3890   14.3836   -3.9758 C   0  0  0  0  0  0  0  0  0  0  0  0
    0.2460   13.3842   -3.6798 C   0  0  0  0  0  0  0  0  0  0  0  0
    0.6411   12.4102   -2.5575 C   0  0  0  0  0  0  0  0  0  0  0  0
    1.3679   12.8442   -1.6394 O   0  0  0  0  0  0  0  0  0  0  0  0
    0.1713   11.2529   -2.5963 O   0  0  0  0  0  0  0  0  0  0  0  0
   -1.0470   14.1561   -3.3149 C   0  0  0  0  0  0  0  0  0  0  0  0
   -2.1841   13.2574   -3.1874 N   0  0  0  0  0  0  0  0  0  0  0  0
   -2.8795   13.7403   -2.0363 O   0  0  0  0  0  0  0  0  0  0  0  0
   -4.2729   13.2422   -1.9235 O   0  0  0  0  0  0  0  0  0  0  0  0
   -5.2413   14.2732   -1.9490 N   0  0  0  0  0  0  0  0  0  0  0  0
   -5.7769   14.4827   -0.6764 C   0  0  0  0  0  0  0  0  0  0  0  0
   -7.1642   14.4700   -0.4247 C   0  0  0  0  0  0  0  0  0  0  0  0
   -7.6228   14.6465    0.8973 C   0  0  0  0  0  0  0  0  0  0  0  0
   -6.6878   14.8443    1.9438 C   0  0  0  0  0  0  0  0  0  0  0  0
   -7.0647   15.0172    3.2999 N   0  0  0  0  0  0  0  0  0  0  0  0
   -8.1626   15.6419    3.7504 C   0  0  0  0  0  0  0  0  0  0  0  0
   -9.0132   16.1531    3.0178 O   0  0  0  0  0  0  0  0  0  0  0  0
   -8.2233   15.6423    5.0915 N   0  0  0  0  0  0  0  0  0  0  0  0
   -9.1684   16.3327    5.8965 C   0  0  0  0  0  0  0  0  0  0  0  0
   -9.7143   17.5868    5.5256 C   0  0  0  0  0  0  0  0  0  0  0  0
  -10.6286   18.2447    6.3715 C   0  0  0  0  0  0  0  0  0  0  0  0
  -11.0115   17.6532    7.5898 C   0  0  0  0  0  0  0  0  0  0  0  0
  -10.4558   16.4161    7.9725 C   0  0  0  0  0  0  0  0  0  0  0  0
   -9.5244   15.7672    7.1384 C   0  0  0  0  0  0  0  0  0  0  0  0
   -5.3148   14.8447    1.6281 C   0  0  0  0  0  0  0  0  0  0  0  0
   -4.9180   14.6800    0.3483 N   0  0  0  0  0  0  0  0  0  0  0  0
   -1.3920   15.2254   -4.3688 C   0  0  0  0  0  0  0  0  0  0  0  0
  1  2  1  0
  2  3  2  0
  2  4  1  0
  4 32  1  0
  4  5  1  0
  5  6  1  0
  6  7  1  0
  7  8  1  0
  7 11  1  0
  8  9  2  0
  8 10  1  0
 11 12  1  0
 11 32  1  0
 12 13  1  0
 13 14  1  0
 14 15  1  0
 15 16  1  0
 16 31  1  0
 16 17  2  0
 17 18  1  0
 18 19  2  0
 19 20  1  0
 19 30  1  0
 20 21  1  0
 21 22  2  0
 21 23  1  0
 23 24  1  0
 24 29  1  0
 24 25  2  0
 25 26  1  0
 26 27  2  0
 27 28  1  0
 28 29  2  0
 30 31  2  0
M  CHG  2  10  -1  31   1
M  END
>  <original SMILES>  (59) 
NC(=O)N1CCC(C(=O)[O-])C(NOONc2ccc(NC(=O)Nc3ccccc3)c[nH+]2)C1

>  <ref_pdb>  (59) 
Combi88.pdb

>  <ref_mols>  (59) 
x0088_0A

>  <Glide GScore>  (59) 
-8.53172135611878

>  <RMSLigA>  (59) 
0.866125690007338

>  <RMSLigB>  (59) 
0.62067871862039

$$$$
Combi88_000021
     RDKit          3D

 32 34  0  0  1  0  0  0  0  0999 V2000
    0.3170   18.0442   -4.3032 N   0  0  0  0  0  0  0  0  0  0  0  0
   -0.7173   17.2265   -4.5080 C   0  0  0  0  0  0  0  0  0  0  0  0
   -1.8714   17.6446   -4.4360 O   0  0  0  0  0  0  0  0  0  0  0  0
   -0.3868   15.9380   -4.7638 N   0  0  0  0  0  0  0  0  0  0  0  0
    0.9708   15.4307   -4.9832 C   0  0  0  0  0  0  0  0  0  0  0  0
    1.3546   14.5044   -3.8283 C   0  0  0  0  0  0  0  0  0  0  0  0
    0.3453   13.3355   -3.7281 C   0  0  0  0  0  0  0  0  0  0  0  0
    0.6614   12.3943   -2.5576 C   0  0  0  0  0  0  0  0  0  0  0  0
    0.1708   11.2449   -2.5736 O   0  0  0  0  0  0  0  0  0  0  0  0
    1.3707   12.8469   -1.6367 O   0  0  0  0  0  0  0  0  0  0  0  0
   -1.1224   13.8437   -3.6834 C   0  0  0  0  0  0  0  0  0  0  0  0
   -1.5236   14.3855   -2.3763 N   0  0  0  0  0  0  0  0  0  0  0  0
   -2.8684   14.1127   -2.0362 N   0  0  0  0  0  0  0  0  0  0  0  0
   -4.0591   15.2442   -2.5038 S   0  0  0  0  0  0  0  0  0  0  0  0
   -5.5051   14.2326   -2.0756 C   0  0  0  0  0  0  0  0  0  0  0  0
   -5.9755   14.4700   -0.6497 C   0  0  0  0  0  0  0  0  0  0  0  0
   -7.3531   14.4331   -0.3559 C   0  0  0  0  0  0  0  0  0  0  0  0
   -7.7624   14.6185    0.9771 C   0  0  0  0  0  0  0  0  0  0  0  0
   -6.7804   14.8441    1.9683 C   0  0  0  0  0  0  0  0  0  0  0  0
   -7.0905   15.0447    3.3375 N   0  0  0  0  0  0  0  0  0  0  0  0
   -8.1861   15.6434    3.8305 C   0  0  0  0  0  0  0  0  0  0  0  0
   -9.0621   16.1675    3.1373 O   0  0  0  0  0  0  0  0  0  0  0  0
   -8.2089   15.6092    5.1711 N   0  0  0  0  0  0  0  0  0  0  0  0
   -9.1735   16.2063    6.0241 C   0  0  0  0  0  0  0  0  0  0  0  0
   -9.8295   17.4222    5.7093 C   0  0  0  0  0  0  0  0  0  0  0  0
  -10.7570   17.9817    6.6084 C   0  0  0  0  0  0  0  0  0  0  0  0
  -11.0399   17.3305    7.8247 C   0  0  0  0  0  0  0  0  0  0  0  0
  -10.3762   16.1312    8.1508 C   0  0  0  0  0  0  0  0  0  0  0  0
   -9.4356   15.5800    7.2596 C   0  0  0  0  0  0  0  0  0  0  0  0
   -5.4282   14.8445    1.5723 C   0  0  0  0  0  0  0  0  0  0  0  0
   -5.0302   14.6709    0.2959 N   0  0  0  0  0  0  0  0  0  0  0  0
   -1.3767   14.8528   -4.8257 C   0  0  0  0  0  0  0  0  0  0  0  0
  1  2  1  0
  2  3  2  0
  2  4  1  0
  4 32  1  0
  4  5  1  0
  5  6  1  0
  6  7  1  0
  7  8  1  0
  7 11  1  0
  8  9  2  0
  8 10  1  0
 11 12  1  0
 11 32  1  0
 12 13  1  0
 13 14  1  0
 14 15  1  0
 15 16  1  0
 16 31  1  0
 16 17  2  0
 17 18  1  0
 18 19  2  0
 19 20  1  0
 19 30  1  0
 20 21  1  0
 21 22  2  0
 21 23  1  0
 23 24  1  0
 24 29  1  0
 24 25  2  0
 25 26  1  0
 26 27  2  0
 27 28  1  0
 28 29  2  0
 30 31  2  0
M  CHG  1  10  -1
M  END
>  <original SMILES>  (60) 
NC(=O)N1CCC(C(=O)[O-])C(NNSCc2ccc(NC(=O)Nc3ccccc3)cn2)C1

>  <ref_pdb>  (60) 
Combi88.pdb

>  <ref_mols>  (60) 
x0088_0A

>  <Glide GScore>  (60) 
-8.36982941991569

>  <RMSLigA>  (60) 
0.987891269008291

>  <RMSLigB>  (60) 
0.966403821632982

$$$$
Combi88_000075
     RDKit          3D

 34 36  0  0  1  0  0  0  0  0999 V2000
   -4.9212   13.6659   -4.7162 C   0  0  0  0  0  0  0  0  0  0  0  0
   -4.5383   13.8264   -3.2314 C   0  0  0  0  0  0  0  0  0  0  0  0
   -3.4353   12.8462   -2.7612 C   0  0  0  0  0  0  0  0  0  0  0  0
   -2.1792   12.8348   -3.6387 C   0  0  0  0  0  0  0  0  0  0  0  0
   -1.9959   11.9293   -4.4509 O   0  0  0  0  0  0  0  0  0  0  0  0
   -1.2024   14.0210   -3.5337 C   0  0  0  0  0  0  0  0  0  0  0  0
   -1.4556   14.9804   -4.7177 C   0  0  0  0  0  0  0  0  0  0  0  0
   -0.5666   16.1560   -4.6723 N   0  0  0  0  0  0  0  0  0  0  0  0
   -0.9722   17.4493   -4.6793 C   0  0  0  0  0  0  0  0  0  0  0  0
   -2.2292   17.6458   -5.0795 N   0  0  0  0  0  0  0  0  0  0  0  0
   -0.2514   18.4108   -4.4330 O   0  0  0  0  0  0  0  0  0  0  0  0
    0.8555   15.7892   -4.6915 C   0  0  0  0  0  0  0  0  0  0  0  0
    1.1945   14.8622   -3.5149 C   0  0  0  0  0  0  0  0  0  0  0  0
    0.2955   13.6015   -3.5092 C   0  0  0  0  0  0  0  0  0  0  0  0
    0.6199   12.6976   -2.3059 C   0  0  0  0  0  0  0  0  0  0  0  0
    0.9707   13.2446   -1.2373 O   0  0  0  0  0  0  0  0  0  0  0  0
    0.5082   11.4605   -2.4433 O   0  0  0  0  0  0  0  0  0  0  0  0
   -5.7636   13.5440   -2.5627 O   0  0  0  0  0  0  0  0  0  0  0  0
   -5.9768   13.9058   -1.2508 C   0  0  0  0  0  0  0  0  0  0  0  0
   -7.2266   13.5761   -0.6998 C   0  0  0  0  0  0  0  0  0  0  0  0
   -7.4867   13.9041    0.6383 C   0  0  0  0  0  0  0  0  0  0  0  0
   -6.4846   14.5561    1.3890 C   0  0  0  0  0  0  0  0  0  0  0  0
   -6.6782   14.8698    2.7633 N   0  0  0  0  0  0  0  0  0  0  0  0
   -7.8349   15.2980    3.3003 C   0  0  0  0  0  0  0  0  0  0  0  0
   -8.7996   15.6736    2.6297 O   0  0  0  0  0  0  0  0  0  0  0  0
   -7.8286   15.2784    4.6421 N   0  0  0  0  0  0  0  0  0  0  0  0
   -8.7348   15.9505    5.5041 C   0  0  0  0  0  0  0  0  0  0  0  0
   -8.9529   15.4091    6.7863 C   0  0  0  0  0  0  0  0  0  0  0  0
   -9.8284   16.0460    7.6889 C   0  0  0  0  0  0  0  0  0  0  0  0
  -10.4732   17.2428    7.3247 C   0  0  0  0  0  0  0  0  0  0  0  0
  -10.2382   17.8075    6.0561 C   0  0  0  0  0  0  0  0  0  0  0  0
   -9.3745   17.1657    5.1477 C   0  0  0  0  0  0  0  0  0  0  0  0
   -5.2597   14.8440    0.7468 C   0  0  0  0  0  0  0  0  0  0  0  0
   -5.0074   14.5438   -0.5501 N   0  0  0  0  0  0  0  0  0  0  0  0
  1  2  1  0
  2  3  1  0
  2 18  1  0
  3  4  1  0
  4  5  2  0
  4  6  1  0
  6 14  1  0
  6  7  1  0
  7  8  1  0
  8  9  1  0
  8 12  1  0
  9 10  1  0
  9 11  2  0
 12 13  1  0
 13 14  1  0
 14 15  1  0
 15 16  2  0
 15 17  1  0
 18 19  1  0
 19 34  1  0
 19 20  2  0
 20 21  1  0
 21 22  2  0
 22 23  1  0
 22 33  1  0
 23 24  1  0
 24 25  2  0
 24 26  1  0
 26 27  1  0
 27 32  1  0
 27 28  2  0
 28 29  1  0
 29 30  2  0
 30 31  1  0
 31 32  2  0
 33 34  2  0
M  CHG  1  17  -1
M  END
>  <original SMILES>  (61) 
CC(CC(=O)C1CN(C(N)=O)CCC1C(=O)[O-])Oc1ccc(NC(=O)Nc2ccccc2)cn1

>  <ref_pdb>  (61) 
Combi88.pdb

>  <ref_mols>  (61) 
x0088_0A

>  <Glide GScore>  (61) 
-7.13847503858853

>  <RMSLigA>  (61) 
0.785435225881565

>  <RMSLigB>  (61) 
0.995450555041535

$$$$
Combi88_000190
     RDKit          3D

 32 34  0  0  1  0  0  0  0  0999 V2000
    0.9707   18.2258   -4.3199 N   0  0  0  0  0  0  0  0  0  0  0  0
   -0.1497   17.5038   -4.3458 C   0  0  0  0  0  0  0  0  0  0  0  0
   -1.2412   18.0435   -4.1557 O   0  0  0  0  0  0  0  0  0  0  0  0
    0.0187   16.1800   -4.5876 N   0  0  0  0  0  0  0  0  0  0  0  0
    1.3034   15.5132   -4.8501 C   0  0  0  0  0  0  0  0  0  0  0  0
    1.5463   14.4506   -3.7892 C   0  0  0  0  0  0  0  0  0  0  0  0
    0.3931   13.4205   -3.7251 C   0  0  0  0  0  0  0  0  0  0  0  0
    0.6629   12.4328   -2.5801 C   0  0  0  0  0  0  0  0  0  0  0  0
    1.3708   12.8442   -1.6367 O   0  0  0  0  0  0  0  0  0  0  0  0
    0.1722   11.2816   -2.6477 O   0  0  0  0  0  0  0  0  0  0  0  0
   -0.9819   14.1361   -3.5682 C   0  0  0  0  0  0  0  0  0  0  0  0
   -2.1793   13.1491   -3.6172 C   0  0  0  0  0  0  0  0  0  0  0  0
   -3.5136   13.7972   -3.3300 C   0  0  0  0  0  0  0  0  0  0  0  0
   -3.9598   13.9591   -2.1578 N   0  0  0  0  0  0  0  0  0  0  0  0
   -5.2389   14.6239   -2.0500 C   0  0  0  0  0  0  0  0  0  0  0  0
   -5.7484   14.6693   -0.6186 C   0  0  0  0  0  0  0  0  0  0  0  0
   -7.0899   14.3367   -0.3431 C   0  0  0  0  0  0  0  0  0  0  0  0
   -7.5482   14.4276    0.9822 C   0  0  0  0  0  0  0  0  0  0  0  0
   -6.6463   14.8441    1.9829 C   0  0  0  0  0  0  0  0  0  0  0  0
   -7.0293   14.9642    3.3407 N   0  0  0  0  0  0  0  0  0  0  0  0
   -8.1686   15.5059    3.7975 C   0  0  0  0  0  0  0  0  0  0  0  0
   -9.0476   15.9804    3.0753 O   0  0  0  0  0  0  0  0  0  0  0  0
   -8.2289   15.4581    5.1353 N   0  0  0  0  0  0  0  0  0  0  0  0
   -9.1833   16.0823    5.9788 C   0  0  0  0  0  0  0  0  0  0  0  0
   -9.4438   15.4814    7.2261 C   0  0  0  0  0  0  0  0  0  0  0  0
  -10.3727   16.0560    8.1128 C   0  0  0  0  0  0  0  0  0  0  0  0
  -11.0274   17.2556    7.7694 C   0  0  0  0  0  0  0  0  0  0  0  0
  -10.7449   17.8826    6.5408 C   0  0  0  0  0  0  0  0  0  0  0  0
   -9.8296   17.2987    5.6439 C   0  0  0  0  0  0  0  0  0  0  0  0
   -5.3162   15.1290    1.6103 C   0  0  0  0  0  0  0  0  0  0  0  0
   -4.8772   15.0722    0.3362 N   0  0  0  0  0  0  0  0  0  0  0  0
   -1.1123   15.2422   -4.6503 C   0  0  0  0  0  0  0  0  0  0  0  0
  1  2  1  0
  2  3  2  0
  2  4  1  0
  4 32  1  0
  4  5  1  0
  5  6  1  0
  6  7  1  0
  7  8  1  0
  7 11  1  0
  8  9  2  0
  8 10  1  0
 11 32  1  0
 11 12  1  0
 12 13  1  0
 13 14  2  0
 14 15  1  0
 15 16  1  0
 16 31  1  0
 16 17  2  0
 17 18  1  0
 18 19  2  0
 19 20  1  0
 19 30  1  0
 20 21  1  0
 21 22  2  0
 21 23  1  0
 23 24  1  0
 24 29  1  0
 24 25  2  0
 25 26  1  0
 26 27  2  0
 27 28  1  0
 28 29  2  0
 30 31  2  0
M  CHG  1  10  -1
M  END
>  <original SMILES>  (62) 
NC(=O)N1CCC(C(=O)[O-])C(C/C=N/Cc2ccc(NC(=O)Nc3ccccc3)cn2)C1

>  <ref_pdb>  (62) 
Combi88.pdb

>  <ref_mols>  (62) 
x0088_0A

>  <Glide GScore>  (62) 
-8.87845900853394

>  <RMSLigA>  (62) 
0.892172597230211

>  <RMSLigB>  (62) 
0.736158751078133

$$$$
Combi88_000103
     RDKit          3D

 33 35  0  0  1  0  0  0  0  0999 V2000
    0.9708   18.3440   -4.2762 N   0  0  0  0  0  0  0  0  0  0  0  0
   -0.1772   17.6653   -4.2592 C   0  0  0  0  0  0  0  0  0  0  0  0
   -1.2415   18.2388   -4.0401 O   0  0  0  0  0  0  0  0  0  0  0  0
   -0.0802   16.3407   -4.5079 N   0  0  0  0  0  0  0  0  0  0  0  0
    1.1576   15.6193   -4.8030 C   0  0  0  0  0  0  0  0  0  0  0  0
    1.3710   14.5517   -3.7407 C   0  0  0  0  0  0  0  0  0  0  0  0
    0.2129   13.5377   -3.7896 C   0  0  1  0  0  0  0  0  0  0  0  0
    0.3562   12.5022   -2.6703 C   0  0  0  0  0  0  0  0  0  0  0  0
    0.9713   12.8441   -1.6368 O   0  0  0  0  0  0  0  0  0  0  0  0
   -0.2305   11.4096   -2.8336 O   0  0  0  0  0  0  0  0  0  0  0  0
   -1.1744   14.2350   -3.7116 C   0  0  2  0  0  0  0  0  0  0  0  0
   -2.3225   13.2747   -4.0970 C   0  0  0  0  0  0  0  0  0  0  0  0
   -3.0068   12.7265   -2.9219 N   0  0  0  0  0  0  0  0  0  0  0  0
   -4.1145   13.1529   -2.4056 C   0  0  0  0  0  0  0  0  0  0  0  0
   -5.0350   14.2005   -2.9388 C   0  0  0  0  0  0  0  0  0  0  0  0
   -5.9418   14.8441   -2.3184 N   0  0  0  0  0  0  0  0  0  0  0  0
   -6.1857   14.7429   -0.9432 C   0  0  0  0  0  0  0  0  0  0  0  0
   -7.5279   14.6203   -0.5420 C   0  0  0  0  0  0  0  0  0  0  0  0
   -7.8357   14.6408    0.8281 C   0  0  0  0  0  0  0  0  0  0  0  0
   -6.7909   14.8068    1.7643 C   0  0  0  0  0  0  0  0  0  0  0  0
   -7.0295   14.9205    3.1631 N   0  0  0  0  0  0  0  0  0  0  0  0
   -8.0848   15.5366    3.7261 C   0  0  0  0  0  0  0  0  0  0  0  0
   -8.9839   16.0792    3.0812 O   0  0  0  0  0  0  0  0  0  0  0  0
   -8.0479   15.5015    5.0679 N   0  0  0  0  0  0  0  0  0  0  0  0
   -9.0238   16.0437    5.9482 C   0  0  0  0  0  0  0  0  0  0  0  0
   -9.2691   15.3724    7.1632 C   0  0  0  0  0  0  0  0  0  0  0  0
  -10.2289   15.8648    8.0681 C   0  0  0  0  0  0  0  0  0  0  0  0
  -10.9360   17.0468    7.7765 C   0  0  0  0  0  0  0  0  0  0  0  0
  -10.6752   17.7433    6.5815 C   0  0  0  0  0  0  0  0  0  0  0  0
   -9.7241   17.2453    5.6710 C   0  0  0  0  0  0  0  0  0  0  0  0
   -5.4714   14.8640    1.2705 C   0  0  0  0  0  0  0  0  0  0  0  0
   -5.1715   14.8493   -0.0492 N   0  0  0  0  0  0  0  0  0  0  0  0
   -1.2603   15.4771   -4.6147 C   0  0  0  0  0  0  0  0  0  0  0  0
  1  2  1  0
  2  3  2  0
  2  4  1  0
  4 33  1  0
  4  5  1  0
  5  6  1  0
  6  7  1  0
  7  8  1  1
  7 11  1  0
  8  9  2  0
  8 10  1  0
 11 12  1  6
 11 33  1  0
 12 13  1  0
 13 14  2  3
 14 15  1  0
 15 16  2  3
 16 17  1  0
 17 32  1  0
 17 18  2  0
 18 19  1  0
 19 20  2  0
 20 21  1  0
 20 31  1  0
 21 22  1  0
 22 23  2  0
 22 24  1  0
 24 25  1  0
 25 30  1  0
 25 26  2  0
 26 27  1  0
 27 28  2  0
 28 29  1  0
 29 30  2  0
 31 32  2  0
M  CHG  2  10  -1  13   1
M  END
>  <original SMILES>  (63) 
NC(=O)N1CC[C@@H](C(=O)[O-])[C@H](C[NH+]=CC=Nc2ccc(NC(=O)Nc3ccccc3)cn2)C1

>  <ref_pdb>  (63) 
Combi88.pdb

>  <ref_mols>  (63) 
x0088_0A

>  <Glide GScore>  (63) 
-8.34525668121304

>  <RMSLigA>  (63) 
0.932879276503832

>  <RMSLigB>  (63) 
0.740903895021142

$$$$
Combi88_000195
     RDKit          3D

 33 35  0  0  1  0  0  0  0  0999 V2000
    0.2971   18.0439   -4.1812 N   0  0  0  0  0  0  0  0  0  0  0  0
   -0.7298   17.2317   -4.4363 C   0  0  0  0  0  0  0  0  0  0  0  0
   -1.8870   17.6443   -4.3795 O   0  0  0  0  0  0  0  0  0  0  0  0
   -0.3898   15.9497   -4.7106 N   0  0  0  0  0  0  0  0  0  0  0  0
    0.9708   15.4525   -4.9236 C   0  0  0  0  0  0  0  0  0  0  0  0
    1.3292   14.4976   -3.7894 C   0  0  0  0  0  0  0  0  0  0  0  0
    0.3322   13.3129   -3.7400 C   0  0  1  0  0  0  0  0  0  0  0  0
    0.6432   12.3981   -2.5435 C   0  0  0  0  0  0  0  0  0  0  0  0
    1.3707   12.8492   -1.6367 O   0  0  0  0  0  0  0  0  0  0  0  0
    0.1707   11.2441   -2.5390 O   0  0  0  0  0  0  0  0  0  0  0  0
   -1.1465   13.8079   -3.7338 C   0  0  2  0  0  0  0  0  0  0  0  0
   -2.1425   12.6610   -3.8951 C   0  0  0  0  0  0  0  0  0  0  0  0
   -3.2834   12.4864   -3.2020 C   0  0  0  0  0  0  0  0  0  0  0  0
   -3.7830   13.4230   -2.2196 C   0  0  0  0  0  0  0  0  0  0  0  0
   -4.1379   14.6809   -2.5375 C   0  0  0  0  0  0  0  0  0  0  0  0
   -4.5196   15.6441   -1.6472 O   0  0  0  0  0  0  0  0  0  0  0  0
   -5.1772   15.2817   -0.5059 C   0  0  0  0  0  0  0  0  0  0  0  0
   -6.5057   14.8106   -0.5358 C   0  0  0  0  0  0  0  0  0  0  0  0
   -7.1576   14.5790    0.6898 C   0  0  0  0  0  0  0  0  0  0  0  0
   -6.4496   14.8294    1.8845 C   0  0  0  0  0  0  0  0  0  0  0  0
   -7.0290   14.6647    3.1633 N   0  0  0  0  0  0  0  0  0  0  0  0
   -8.1476   15.2664    3.5842 C   0  0  0  0  0  0  0  0  0  0  0  0
   -9.0006   15.7433    2.8324 O   0  0  0  0  0  0  0  0  0  0  0  0
   -8.2289   15.2600    4.9244 N   0  0  0  0  0  0  0  0  0  0  0  0
   -9.0895   16.0442    5.7369 C   0  0  0  0  0  0  0  0  0  0  0  0
   -9.6070   17.2964    5.3216 C   0  0  0  0  0  0  0  0  0  0  0  0
  -10.4308   18.0448    6.1840 C   0  0  0  0  0  0  0  0  0  0  0  0
  -10.7496   17.5499    7.4624 C   0  0  0  0  0  0  0  0  0  0  0  0
  -10.2246   16.3135    7.8863 C   0  0  0  0  0  0  0  0  0  0  0  0
   -9.3860   15.5716    7.0320 C   0  0  0  0  0  0  0  0  0  0  0  0
   -5.1066   15.2489    1.7943 C   0  0  0  0  0  0  0  0  0  0  0  0
   -4.4842   15.4981    0.6279 N   0  0  0  0  0  0  0  0  0  0  0  0
   -1.3705   14.8654   -4.8367 C   0  0  0  0  0  0  0  0  0  0  0  0
  1  2  1  0
  2  3  2  0
  2  4  1  0
  4 33  1  0
  4  5  1  0
  5  6  1  0
  6  7  1  0
  7  8  1  1
  7 11  1  0
  8  9  2  0
  8 10  1  0
 11 12  1  6
 11 33  1  0
 12 13  2  3
 13 14  1  0
 14 15  2  3
 15 16  1  0
 16 17  1  0
 17 32  1  0
 17 18  2  0
 18 19  1  0
 19 20  2  0
 20 21  1  0
 20 31  1  0
 21 22  1  0
 22 23  2  0
 22 24  1  0
 24 25  1  0
 25 30  1  0
 25 26  2  0
 26 27  1  0
 27 28  2  0
 28 29  1  0
 29 30  2  0
 31 32  2  0
M  CHG  1  10  -1
M  END
>  <original SMILES>  (64) 
NC(=O)N1CC[C@@H](C(=O)[O-])[C@H](C=CC=COc2ccc(NC(=O)Nc3ccccc3)cn2)C1

>  <ref_pdb>  (64) 
Combi88.pdb

>  <ref_mols>  (64) 
x0088_0A

>  <Glide GScore>  (64) 
-7.06094144310032

>  <RMSLigA>  (64) 
0.598481675726741

>  <RMSLigB>  (64) 
0.374850742453135

$$$$
Combi88_000059
     RDKit          3D

 34 36  0  0  1  0  0  0  0  0999 V2000
   -3.7744   11.5879   -4.2582 C   0  0  0  0  0  0  0  0  0  0  0  0
   -2.9412   12.4862   -3.6935 C   0  0  0  0  0  0  0  0  0  0  0  0
   -3.4343   13.0710   -2.4515 C   0  0  0  0  0  0  0  0  0  0  0  0
   -3.5257   14.5322   -2.0440 C   0  0  0  0  0  0  0  0  0  0  0  0
   -4.4307   14.7526   -0.8472 C   0  0  0  0  0  0  0  0  0  0  0  0
   -5.7954   14.3957   -0.8876 C   0  0  0  0  0  0  0  0  0  0  0  0
   -6.5384   14.4441    0.3073 C   0  0  0  0  0  0  0  0  0  0  0  0
   -5.8791   14.8548    1.4854 C   0  0  0  0  0  0  0  0  0  0  0  0
   -6.4689   14.8280    2.7633 N   0  0  0  0  0  0  0  0  0  0  0  0
   -7.6910   15.2432    3.1152 C   0  0  0  0  0  0  0  0  0  0  0  0
   -8.5722   15.5734    2.3195 O   0  0  0  0  0  0  0  0  0  0  0  0
   -7.8296   15.2445    4.4506 N   0  0  0  0  0  0  0  0  0  0  0  0
   -8.7357   16.0200    5.2224 C   0  0  0  0  0  0  0  0  0  0  0  0
   -8.9780   15.6154    6.5514 C   0  0  0  0  0  0  0  0  0  0  0  0
   -9.8355   16.3656    7.3798 C   0  0  0  0  0  0  0  0  0  0  0  0
  -10.4416   17.5401    6.8916 C   0  0  0  0  0  0  0  0  0  0  0  0
  -10.1874   17.9638    5.5733 C   0  0  0  0  0  0  0  0  0  0  0  0
   -9.3410   17.2075    4.7398 C   0  0  0  0  0  0  0  0  0  0  0  0
   -4.5296   15.2428    1.4060 C   0  0  0  0  0  0  0  0  0  0  0  0
   -3.8188   15.2105    0.2666 N   0  0  0  0  0  0  0  0  0  0  0  0
   -1.7002   12.7981   -4.2748 N   0  0  0  0  0  0  0  0  0  0  0  0
   -1.2218   11.9299   -5.2717 N   0  0  0  0  0  0  0  0  0  0  0  0
   -0.8993   13.9935   -4.0184 C   0  0  0  0  0  0  0  0  0  0  0  0
   -0.8786   14.9273   -5.2350 C   0  0  0  0  0  0  0  0  0  0  0  0
   -0.2852   16.2185   -4.8621 N   0  0  0  0  0  0  0  0  0  0  0  0
   -1.0077   17.3564   -4.8322 C   0  0  0  0  0  0  0  0  0  0  0  0
   -0.2939   18.4438   -5.1096 N   0  0  0  0  0  0  0  0  0  0  0  0
   -2.2290   17.4122   -4.7138 O   0  0  0  0  0  0  0  0  0  0  0  0
    1.0973   16.1094   -4.3768 C   0  0  0  0  0  0  0  0  0  0  0  0
    1.1471   15.1518   -3.1795 C   0  0  0  0  0  0  0  0  0  0  0  0
    0.5530   13.7652   -3.5303 C   0  0  0  0  0  0  0  0  0  0  0  0
    0.6765   12.7750   -2.3588 C   0  0  0  0  0  0  0  0  0  0  0  0
    0.9705   13.2444   -1.2368 O   0  0  0  0  0  0  0  0  0  0  0  0
    0.5708   11.5503   -2.5901 O   0  0  0  0  0  0  0  0  0  0  0  0
  1  2  2  0
  2  3  1  0
  2 21  1  0
  3  4  1  0
  4  5  1  0
  5 20  1  0
  5  6  2  0
  6  7  1  0
  7  8  2  0
  8  9  1  0
  8 19  1  0
  9 10  1  0
 10 11  2  0
 10 12  1  0
 12 13  1  0
 13 18  1  0
 13 14  2  0
 14 15  1  0
 15 16  2  0
 16 17  1  0
 17 18  2  0
 19 20  2  0
 21 22  1  0
 21 23  1  0
 23 31  1  0
 23 24  1  0
 24 25  1  0
 25 26  1  0
 25 29  1  0
 26 27  1  0
 26 28  2  0
 29 30  1  0
 30 31  1  0
 31 32  1  0
 32 33  2  0
 32 34  1  0
M  CHG  2   3  -1  34  -1
M  END
>  <original SMILES>  (65) 
C=C([CH-]Cc1ccc(NC(=O)Nc2ccccc2)cn1)N(N)C1CN(C(N)=O)CCC1C(=O)[O-]

>  <ref_pdb>  (65) 
Combi88.pdb

>  <ref_mols>  (65) 
x0088_0A

>  <Glide GScore>  (65) 
-7.92827444514929

>  <RMSLigA>  (65) 
0.338909101996206

>  <RMSLigB>  (65) 
0.690935852941381

$$$$
Combi88_000083
     RDKit          3D

 32 34  0  0  1  0  0  0  0  0999 V2000
   -2.5418   14.1938   -0.9324 C   0  0  0  0  0  0  0  0  0  0  0  0
   -3.3914   13.7485   -2.1284 C   0  0  0  0  0  0  0  0  0  0  0  0
   -4.5772   14.7179   -2.3673 C   0  0  0  0  0  0  0  0  0  0  0  0
   -5.4281   14.8547   -1.1072 C   0  0  0  0  0  0  0  0  0  0  0  0
   -6.5749   14.0559   -0.9071 C   0  0  0  0  0  0  0  0  0  0  0  0
   -7.1507   14.0168    0.3804 C   0  0  0  0  0  0  0  0  0  0  0  0
   -6.5191   14.7292    1.4205 C   0  0  0  0  0  0  0  0  0  0  0  0
   -6.9375   14.6386    2.7654 N   0  0  0  0  0  0  0  0  0  0  0  0
   -8.0283   15.2346    3.2547 C   0  0  0  0  0  0  0  0  0  0  0  0
   -8.9545   15.6521    2.5570 O   0  0  0  0  0  0  0  0  0  0  0  0
   -7.9901   15.2926    4.5939 N   0  0  0  0  0  0  0  0  0  0  0  0
   -8.8312   16.0609    5.4407 C   0  0  0  0  0  0  0  0  0  0  0  0
   -9.0279   15.6114    6.7625 C   0  0  0  0  0  0  0  0  0  0  0  0
   -9.8338   16.3484    7.6515 C   0  0  0  0  0  0  0  0  0  0  0  0
  -10.4215   17.5595    7.2369 C   0  0  0  0  0  0  0  0  0  0  0  0
  -10.2036   18.0315    5.9295 C   0  0  0  0  0  0  0  0  0  0  0  0
   -9.4185   17.2835    5.0310 C   0  0  0  0  0  0  0  0  0  0  0  0
   -5.3902   15.5053    1.1103 C   0  0  0  0  0  0  0  0  0  0  0  0
   -4.9122   15.6419   -0.1387 N   0  0  0  0  0  0  0  0  0  0  0  0
   -2.5129   13.4166   -3.3652 C   0  0  0  0  0  0  0  0  0  0  0  0
   -1.2338   14.2873   -3.5739 C   0  0  0  0  0  0  0  0  0  0  0  0
   -1.4569   15.3052   -4.7010 C   0  0  0  0  0  0  0  0  0  0  0  0
   -0.2965   16.1987   -4.7590 N   0  0  0  0  0  0  0  0  0  0  0  0
   -0.3713   17.4830   -4.3418 C   0  0  0  0  0  0  0  0  0  0  0  0
    0.7958   18.1177   -4.2432 N   0  0  0  0  0  0  0  0  0  0  0  0
   -1.4237   18.0443   -4.0371 O   0  0  0  0  0  0  0  0  0  0  0  0
    0.9261   15.4784   -5.1351 C   0  0  0  0  0  0  0  0  0  0  0  0
    1.2736   14.4646   -4.0471 C   0  0  0  0  0  0  0  0  0  0  0  0
    0.0899   13.4881   -3.8153 C   0  0  0  0  0  0  0  0  0  0  0  0
    0.4403   12.5513   -2.6447 C   0  0  0  0  0  0  0  0  0  0  0  0
    0.9714   13.0645   -1.6362 O   0  0  0  0  0  0  0  0  0  0  0  0
    0.1710   11.3348   -2.7566 O   0  0  0  0  0  0  0  0  0  0  0  0
  1  2  1  0
  2  3  1  0
  2 20  1  0
  3  4  1  0
  4 19  1  0
  4  5  2  0
  5  6  1  0
  6  7  2  0
  7  8  1  0
  7 18  1  0
  8  9  1  0
  9 10  2  0
  9 11  1  0
 11 12  1  0
 12 17  1  0
 12 13  2  0
 13 14  1  0
 14 15  2  0
 15 16  1  0
 16 17  2  0
 18 19  2  0
 20 21  1  0
 21 29  1  0
 21 22  1  0
 22 23  1  0
 23 24  1  0
 23 27  1  0
 24 25  1  0
 24 26  2  0
 27 28  1  0
 28 29  1  0
 29 30  1  0
 30 31  2  0
 30 32  1  0
M  CHG  1  32  -1
M  END
>  <original SMILES>  (66) 
CC(Cc1ccc(NC(=O)Nc2ccccc2)cn1)CC1CN(C(N)=O)CCC1C(=O)[O-]

>  <ref_pdb>  (66) 
Combi88.pdb

>  <ref_mols>  (66) 
x0088_0A

>  <Glide GScore>  (66) 
-6.97258446487482

>  <RMSLigA>  (66) 
0.497095246569634

>  <RMSLigB>  (66) 
0.565558110665916

$$$$
Combi88_000067
     RDKit          3D

 32 34  0  0  1  0  0  0  0  0999 V2000
    0.4330   18.0437   -4.4799 N   0  0  0  0  0  0  0  0  0  0  0  0
   -0.6486   17.2672   -4.4158 C   0  0  0  0  0  0  0  0  0  0  0  0
   -1.7379   17.7363   -4.0827 O   0  0  0  0  0  0  0  0  0  0  0  0
   -0.4497   15.9612   -4.7175 N   0  0  0  0  0  0  0  0  0  0  0  0
    0.8239   15.3331   -5.0892 C   0  0  0  0  0  0  0  0  0  0  0  0
    1.2423   14.3508   -3.9941 C   0  0  0  0  0  0  0  0  0  0  0  0
    0.1457   13.2879   -3.7090 C   0  0  0  0  0  0  0  0  0  0  0  0
    0.5707   12.4272   -2.5023 C   0  0  0  0  0  0  0  0  0  0  0  0
    0.1708   11.2459   -2.4370 O   0  0  0  0  0  0  0  0  0  0  0  0
    1.2928   12.9638   -1.6367 O   0  0  0  0  0  0  0  0  0  0  0  0
   -1.2431   13.9749   -3.4866 C   0  0  0  0  0  0  0  0  0  0  0  0
   -2.4524   13.0067   -3.3550 C   0  0  0  0  0  0  0  0  0  0  0  0
   -2.3954   11.8660   -3.8063 O   0  0  0  0  0  0  0  0  0  0  0  0
   -3.6165   13.5028   -2.8375 O   0  0  0  0  0  0  0  0  0  0  0  0
   -3.5406   14.7469   -2.1421 N   0  0  0  0  0  0  0  0  0  0  0  0
   -4.2759   14.7636   -0.9548 C   0  0  0  0  0  0  0  0  0  0  0  0
   -5.6317   14.3701   -0.9040 C   0  0  0  0  0  0  0  0  0  0  0  0
   -6.3266   14.4271    0.3227 C   0  0  0  0  0  0  0  0  0  0  0  0
   -5.6432   14.8688    1.4783 C   0  0  0  0  0  0  0  0  0  0  0  0
   -6.2293   14.9094    2.7633 N   0  0  0  0  0  0  0  0  0  0  0  0
   -7.4873   15.2441    3.0851 C   0  0  0  0  0  0  0  0  0  0  0  0
   -8.3643   15.5180    2.2641 O   0  0  0  0  0  0  0  0  0  0  0  0
   -7.6611   15.2442    4.4146 N   0  0  0  0  0  0  0  0  0  0  0  0
   -8.6417   15.9398    5.1698 C   0  0  0  0  0  0  0  0  0  0  0  0
   -8.8986   15.4873    6.4809 C   0  0  0  0  0  0  0  0  0  0  0  0
   -9.8226   16.1628    7.3003 C   0  0  0  0  0  0  0  0  0  0  0  0
  -10.4796   17.3147    6.8226 C   0  0  0  0  0  0  0  0  0  0  0  0
  -10.2111   17.7856    5.5239 C   0  0  0  0  0  0  0  0  0  0  0  0
   -9.3013   17.0997    4.6953 C   0  0  0  0  0  0  0  0  0  0  0  0
   -4.2904   15.2442    1.3702 C   0  0  0  0  0  0  0  0  0  0  0  0
   -3.6654   15.1901    0.1738 N   0  0  0  0  0  0  0  0  0  0  0  0
   -1.5234   14.9660   -4.6448 C   0  0  0  0  0  0  0  0  0  0  0  0
  1  2  1  0
  2  3  2  0
  2  4  1  0
  4 32  1  0
  4  5  1  0
  5  6  1  0
  6  7  1  0
  7  8  1  0
  7 11  1  0
  8  9  2  0
  8 10  1  0
 11 12  1  0
 11 32  1  0
 12 13  2  0
 12 14  1  0
 14 15  1  0
 15 16  1  0
 16 31  1  0
 16 17  2  0
 17 18  1  0
 18 19  2  0
 19 20  1  0
 19 30  1  0
 20 21  1  0
 21 22  2  0
 21 23  1  0
 23 24  1  0
 24 29  1  0
 24 25  2  0
 25 26  1  0
 26 27  2  0
 27 28  1  0
 28 29  2  0
 30 31  2  0
M  CHG  2  10  -1  31   1
M  END
>  <original SMILES>  (67) 
NC(=O)N1CCC(C(=O)[O-])C(C(=O)ONc2ccc(NC(=O)Nc3ccccc3)c[nH+]2)C1

>  <ref_pdb>  (67) 
Combi88.pdb

>  <ref_mols>  (67) 
x0088_0A

>  <Glide GScore>  (67) 
-8.75051634713402

>  <RMSLigA>  (67) 
0.470989598965174

>  <RMSLigB>  (67) 
0.982062149202466

$$$$
Combi88_000086
     RDKit          3D

 33 35  0  0  1  0  0  0  0  0999 V2000
   -5.3851   11.9847   -2.6548 C   0  0  0  0  0  0  0  0  0  0  0  0
   -5.4785   13.3964   -2.3283 N   0  0  0  0  0  0  0  0  0  0  0  0
   -5.1034   14.4219   -3.2846 C   0  0  0  0  0  0  0  0  0  0  0  0
   -3.6731   14.9605   -3.1310 C   0  0  0  0  0  0  0  0  0  0  0  0
   -2.5285   13.9733   -3.4615 C   0  0  0  0  0  0  0  0  0  0  0  0
   -1.1501   14.6784   -3.5101 C   0  0  0  0  0  0  0  0  0  0  0  0
   -1.1017   15.6610   -4.7112 C   0  0  0  0  0  0  0  0  0  0  0  0
    0.1170   16.4625   -4.6585 N   0  0  0  0  0  0  0  0  0  0  0  0
    0.1066   17.8011   -4.4335 C   0  0  0  0  0  0  0  0  0  0  0  0
    1.2901   18.4246   -4.4618 N   0  0  0  0  0  0  0  0  0  0  0  0
   -0.9212   18.4442   -4.2283 O   0  0  0  0  0  0  0  0  0  0  0  0
    1.2856   15.6137   -4.8467 C   0  0  0  0  0  0  0  0  0  0  0  0
    1.3852   14.5802   -3.7254 C   0  0  0  0  0  0  0  0  0  0  0  0
    0.0953   13.7367   -3.6164 C   0  0  0  0  0  0  0  0  0  0  0  0
    0.2708   12.7663   -2.4364 C   0  0  0  0  0  0  0  0  0  0  0  0
    0.5707   13.2444   -1.3176 O   0  0  0  0  0  0  0  0  0  0  0  0
    0.1707   11.5413   -2.6671 O   0  0  0  0  0  0  0  0  0  0  0  0
   -5.8568   13.7698   -1.0321 C   0  0  0  0  0  0  0  0  0  0  0  0
   -7.1079   13.3703   -0.5196 C   0  0  0  0  0  0  0  0  0  0  0  0
   -7.4479   13.7432    0.7925 C   0  0  0  0  0  0  0  0  0  0  0  0
   -6.5156   14.4882    1.5470 C   0  0  0  0  0  0  0  0  0  0  0  0
   -6.7328   14.8262    2.8992 N   0  0  0  0  0  0  0  0  0  0  0  0
   -7.8877   15.2452    3.4278 C   0  0  0  0  0  0  0  0  0  0  0  0
   -8.8765   15.5574    2.7604 O   0  0  0  0  0  0  0  0  0  0  0  0
   -7.8310   15.2947    4.7651 N   0  0  0  0  0  0  0  0  0  0  0  0
   -8.7484   15.9573    5.6203 C   0  0  0  0  0  0  0  0  0  0  0  0
   -9.4292   17.1401    5.2371 C   0  0  0  0  0  0  0  0  0  0  0  0
  -10.3093   17.7750    6.1346 C   0  0  0  0  0  0  0  0  0  0  0  0
  -10.5185   17.2332    7.4170 C   0  0  0  0  0  0  0  0  0  0  0  0
   -9.8312   16.0670    7.8080 C   0  0  0  0  0  0  0  0  0  0  0  0
   -8.9404   15.4390    6.9165 C   0  0  0  0  0  0  0  0  0  0  0  0
   -5.2962   14.8437    0.9451 C   0  0  0  0  0  0  0  0  0  0  0  0
   -4.9804   14.5102   -0.3197 N   0  0  0  0  0  0  0  0  0  0  0  0
  1  2  1  0
  2  3  1  0
  2 18  1  0
  3  4  1  0
  4  5  1  0
  5  6  1  0
  6 14  1  0
  6  7  1  0
  7  8  1  0
  8  9  1  0
  8 12  1  0
  9 10  1  0
  9 11  2  0
 12 13  1  0
 13 14  1  0
 14 15  1  0
 15 16  2  0
 15 17  1  0
 18 33  1  0
 18 19  2  0
 19 20  1  0
 20 21  2  0
 21 22  1  0
 21 32  1  0
 22 23  1  0
 23 24  2  0
 23 25  1  0
 25 26  1  0
 26 31  1  0
 26 27  2  0
 27 28  1  0
 28 29  2  0
 29 30  1  0
 30 31  2  0
 32 33  2  0
M  CHG  1  17  -1
M  END
>  <original SMILES>  (68) 
CN(CCCC1CN(C(N)=O)CCC1C(=O)[O-])c1ccc(NC(=O)Nc2ccccc2)cn1

>  <ref_pdb>  (68) 
Combi88.pdb

>  <ref_mols>  (68) 
x0088_0A

>  <Glide GScore>  (68) 
-7.26510238032003

>  <RMSLigA>  (68) 
0.839408918338412

>  <RMSLigB>  (68) 
0.959507692471249

$$$$
Combi88_000181
     RDKit          3D

 32 34  0  0  1  0  0  0  0  0999 V2000
   -0.1989   18.2053   -5.0017 N   0  0  0  0  0  0  0  0  0  0  0  0
   -1.0484   17.2191   -4.7096 C   0  0  0  0  0  0  0  0  0  0  0  0
   -2.2242   17.4645   -4.4398 O   0  0  0  0  0  0  0  0  0  0  0  0
   -0.5315   15.9723   -4.8367 N   0  0  0  0  0  0  0  0  0  0  0  0
    0.9001   15.6329   -4.8366 C   0  0  0  0  0  0  0  0  0  0  0  0
    1.2117   14.7591   -3.6238 C   0  0  0  0  0  0  0  0  0  0  0  0
    0.3414   13.4803   -3.6185 C   0  0  0  0  0  0  0  0  0  0  0  0
    0.5977   12.6439   -2.3587 C   0  0  0  0  0  0  0  0  0  0  0  0
    0.9707   13.2442   -1.3226 O   0  0  0  0  0  0  0  0  0  0  0  0
    0.4187   11.4074   -2.4367 O   0  0  0  0  0  0  0  0  0  0  0  0
   -1.1672   13.8050   -3.8104 C   0  0  0  0  0  0  0  0  0  0  0  0
   -1.8027   14.3987   -2.6448 N   0  0  0  0  0  0  0  0  0  0  0  0
   -3.0860   14.1186   -2.2214 C   0  0  0  0  0  0  0  0  0  0  0  0
   -3.7815   13.1494   -2.5271 O   0  0  0  0  0  0  0  0  0  0  0  0
   -3.4413   15.1258   -1.4292 O   0  0  0  0  0  0  0  0  0  0  0  0
   -4.3491   14.9960   -0.4192 C   0  0  0  0  0  0  0  0  0  0  0  0
   -5.6791   14.5434   -0.5844 C   0  0  0  0  0  0  0  0  0  0  0  0
   -6.4980   14.4534    0.5610 C   0  0  0  0  0  0  0  0  0  0  0  0
   -5.9515   14.8445    1.8013 C   0  0  0  0  0  0  0  0  0  0  0  0
   -6.6293   14.7075    3.0274 N   0  0  0  0  0  0  0  0  0  0  0  0
   -7.8086   15.2440    3.3469 C   0  0  0  0  0  0  0  0  0  0  0  0
   -8.6322   15.6522    2.5270 O   0  0  0  0  0  0  0  0  0  0  0  0
   -7.9737   15.2446    4.6769 N   0  0  0  0  0  0  0  0  0  0  0  0
   -8.8598   16.0453    5.4428 C   0  0  0  0  0  0  0  0  0  0  0  0
   -9.1368   15.6377    6.7631 C   0  0  0  0  0  0  0  0  0  0  0  0
   -9.9807   16.4094    7.5845 C   0  0  0  0  0  0  0  0  0  0  0  0
  -10.5284   17.6146    7.1018 C   0  0  0  0  0  0  0  0  0  0  0  0
  -10.2331   18.0439    5.7946 C   0  0  0  0  0  0  0  0  0  0  0  0
   -9.4123   17.2589    4.9630 C   0  0  0  0  0  0  0  0  0  0  0  0
   -4.6279   15.3141    1.8399 C   0  0  0  0  0  0  0  0  0  0  0  0
   -3.8403   15.3927    0.7600 N   0  0  0  0  0  0  0  0  0  0  0  0
   -1.3842   14.7782   -4.9782 C   0  0  0  0  0  0  0  0  0  0  0  0
  1  2  1  0
  2  3  2  0
  2  4  1  0
  4 32  1  0
  4  5  1  0
  5  6  1  0
  6  7  1  0
  7  8  1  0
  7 11  1  0
  8  9  2  0
  8 10  1  0
 11 12  1  0
 11 32  1  0
 12 13  1  0
 13 14  2  0
 13 15  1  0
 15 16  1  0
 16 31  1  0
 16 17  2  0
 17 18  1  0
 18 19  2  0
 19 20  1  0
 19 30  1  0
 20 21  1  0
 21 22  2  0
 21 23  1  0
 23 24  1  0
 24 29  1  0
 24 25  2  0
 25 26  1  0
 26 27  2  0
 27 28  1  0
 28 29  2  0
 30 31  2  0
M  CHG  1  10  -1
M  END
>  <original SMILES>  (69) 
NC(=O)N1CCC(C(=O)[O-])C(NC(=O)Oc2ccc(NC(=O)Nc3ccccc3)cn2)C1

>  <ref_pdb>  (69) 
Combi88.pdb

>  <ref_mols>  (69) 
x0088_0A

>  <Glide GScore>  (69) 
-6.5652836060283

>  <RMSLigA>  (69) 
0.469153952227371

>  <RMSLigB>  (69) 
0.426851809451379

$$$$
Combi88_000054
     RDKit          3D

 32 34  0  0  1  0  0  0  0  0999 V2000
   -5.6075   14.3613   -4.2945 C   0  0  0  0  0  0  0  0  0  0  0  0
   -4.5588   14.1166   -3.3081 N   0  0  0  0  0  0  0  0  0  0  0  0
   -3.7553   12.9400   -3.6442 C   0  0  0  0  0  0  0  0  0  0  0  0
   -2.3172   12.9157   -3.0926 C   0  0  0  0  0  0  0  0  0  0  0  0
   -1.2532   13.7701   -3.8361 C   0  0  0  0  0  0  0  0  0  0  0  0
   -1.1410   15.1899   -3.2332 C   0  0  0  0  0  0  0  0  0  0  0  0
   -0.1402   16.0136   -3.9360 N   0  0  0  0  0  0  0  0  0  0  0  0
   -0.4546   17.2355   -4.4379 C   0  0  0  0  0  0  0  0  0  0  0  0
    0.5685   17.9412   -4.9249 N   0  0  0  0  0  0  0  0  0  0  0  0
   -1.5900   17.7107   -4.4370 O   0  0  0  0  0  0  0  0  0  0  0  0
    1.2121   15.4266   -3.8780 C   0  0  0  0  0  0  0  0  0  0  0  0
    1.2067   14.0209   -4.5106 C   0  0  0  0  0  0  0  0  0  0  0  0
    0.1416   13.0735   -3.9065 C   0  0  0  0  0  0  0  0  0  0  0  0
    0.6066   12.4794   -2.5555 C   0  0  0  0  0  0  0  0  0  0  0  0
    0.9711   13.2455   -1.6408 O   0  0  0  0  0  0  0  0  0  0  0  0
    0.5708   11.2374   -2.4371 O   0  0  0  0  0  0  0  0  0  0  0  0
   -5.0267   14.1763   -1.9760 C   0  0  0  0  0  0  0  0  0  0  0  0
   -6.3123   13.7331   -1.5779 C   0  0  0  0  0  0  0  0  0  0  0  0
   -6.7293   13.8939   -0.2409 C   0  0  0  0  0  0  0  0  0  0  0  0
   -5.8565   14.4880    0.6996 C   0  0  0  0  0  0  0  0  0  0  0  0
   -6.2126   14.6675    2.0673 N   0  0  0  0  0  0  0  0  0  0  0  0
   -7.4197   15.0206    2.5448 C   0  0  0  0  0  0  0  0  0  0  0  0
   -8.3977   15.2473    1.8308 O   0  0  0  0  0  0  0  0  0  0  0  0
   -7.4288   15.1020    3.8865 N   0  0  0  0  0  0  0  0  0  0  0  0
   -8.3753   15.7483    4.7193 C   0  0  0  0  0  0  0  0  0  0  0  0
   -9.1626   16.8416    4.2858 C   0  0  0  0  0  0  0  0  0  0  0  0
  -10.0429   17.4777    5.1832 C   0  0  0  0  0  0  0  0  0  0  0  0
  -10.1493   17.0233    6.5120 C   0  0  0  0  0  0  0  0  0  0  0  0
   -9.3566   15.9429    6.9503 C   0  0  0  0  0  0  0  0  0  0  0  0
   -8.4645   15.3167    6.0589 C   0  0  0  0  0  0  0  0  0  0  0  0
   -4.5719   14.8744    0.2617 C   0  0  0  0  0  0  0  0  0  0  0  0
   -4.2179   14.7182   -1.0367 N   0  0  0  0  0  0  0  0  0  0  0  0
  1  2  1  0
  2  3  1  0
  2 17  1  0
  3  4  1  0
  4  5  1  0
  5 13  1  0
  5  6  1  0
  6  7  1  0
  7  8  1  0
  7 11  1  0
  8  9  1  0
  8 10  2  0
 11 12  1  0
 12 13  1  0
 13 14  1  0
 14 15  2  0
 14 16  1  0
 17 32  1  0
 17 18  2  0
 18 19  1  0
 19 20  2  0
 20 21  1  0
 20 31  1  0
 21 22  1  0
 22 23  2  0
 22 24  1  0
 24 25  1  0
 25 30  1  0
 25 26  2  0
 26 27  1  0
 27 28  2  0
 28 29  1  0
 29 30  2  0
 31 32  2  0
M  CHG  2  16  -1  32   1
M  END
>  <original SMILES>  (70) 
CN(CCC1CN(C(N)=O)CCC1C(=O)[O-])c1ccc(NC(=O)Nc2ccccc2)c[nH+]1

>  <ref_pdb>  (70) 
Combi88.pdb

>  <ref_mols>  (70) 
x0088_0A

>  <Glide GScore>  (70) 
-6.65599961218999

>  <RMSLigA>  (70) 
0.947952779545809

>  <RMSLigB>  (70) 
0.906777855200076

$$$$
Combi88_000133
     RDKit          3D

 31 33  0  0  1  0  0  0  0  0999 V2000
   -0.0093   17.9905   -4.3794 N   0  0  0  0  0  0  0  0  0  0  0  0
   -0.9892   17.1008   -4.5507 C   0  0  0  0  0  0  0  0  0  0  0  0
   -2.1650   17.4435   -4.4367 O   0  0  0  0  0  0  0  0  0  0  0  0
   -0.5793   15.8380   -4.8357 N   0  0  0  0  0  0  0  0  0  0  0  0
    0.8167   15.4079   -4.9935 C   0  0  0  0  0  0  0  0  0  0  0  0
    1.1810   14.5491   -3.7825 C   0  0  0  0  0  0  0  0  0  0  0  0
    0.2503   13.3139   -3.7075 C   0  0  0  0  0  0  0  0  0  0  0  0
    0.6215   12.4071   -2.5219 C   0  0  0  0  0  0  0  0  0  0  0  0
    1.3705   12.8709   -1.6368 O   0  0  0  0  0  0  0  0  0  0  0  0
    0.1702   11.2442   -2.5085 O   0  0  0  0  0  0  0  0  0  0  0  0
   -1.2706   13.6876   -3.7731 C   0  0  0  0  0  0  0  0  0  0  0  0
   -1.8908   14.2350   -2.4659 C   0  0  0  0  0  0  0  0  0  0  0  0
   -3.3697   14.2481   -2.4759 N   0  0  0  0  0  0  0  0  0  0  0  0
   -3.7582   15.1427   -1.4616 N   0  0  0  0  0  0  0  0  0  0  0  0
   -4.6330   14.9028   -0.4068 C   0  0  0  0  0  0  0  0  0  0  0  0
   -5.8464   14.2025   -0.5712 C   0  0  0  0  0  0  0  0  0  0  0  0
   -6.6914   14.0532    0.5500 C   0  0  0  0  0  0  0  0  0  0  0  0
   -6.2742   14.5941    1.7848 C   0  0  0  0  0  0  0  0  0  0  0  0
   -7.0198   14.4422    2.9766 N   0  0  0  0  0  0  0  0  0  0  0  0
   -8.0590   15.2152    3.3077 C   0  0  0  0  0  0  0  0  0  0  0  0
   -8.7904   15.7694    2.4853 O   0  0  0  0  0  0  0  0  0  0  0  0
   -8.2136   15.2729    4.6412 N   0  0  0  0  0  0  0  0  0  0  0  0
   -9.0384   16.1584    5.3842 C   0  0  0  0  0  0  0  0  0  0  0  0
   -9.4251   15.7652    6.6827 C   0  0  0  0  0  0  0  0  0  0  0  0
  -10.2286   16.6089    7.4745 C   0  0  0  0  0  0  0  0  0  0  0  0
  -10.6337   17.8642    6.9812 C   0  0  0  0  0  0  0  0  0  0  0  0
  -10.2292   18.2752    5.6970 C   0  0  0  0  0  0  0  0  0  0  0  0
   -9.4349   17.4284    4.9002 C   0  0  0  0  0  0  0  0  0  0  0  0
   -5.0321   15.2537    1.8385 C   0  0  0  0  0  0  0  0  0  0  0  0
   -4.2375   15.4325    0.7654 N   0  0  0  0  0  0  0  0  0  0  0  0
   -1.5001   14.6907   -4.9384 C   0  0  0  0  0  0  0  0  0  0  0  0
  1  2  1  0
  2  3  2  0
  2  4  1  0
  4 31  1  0
  4  5  1  0
  5  6  1  0
  6  7  1  0
  7  8  1  0
  7 11  1  0
  8  9  2  0
  8 10  1  0
 11 12  1  0
 11 31  1  0
 12 13  1  0
 13 14  1  0
 14 15  1  0
 15 30  1  0
 15 16  2  0
 16 17  1  0
 17 18  2  0
 18 19  1  0
 18 29  1  0
 19 20  1  0
 20 21  2  0
 20 22  1  0
 22 23  1  0
 23 28  1  0
 23 24  2  0
 24 25  1  0
 25 26  2  0
 26 27  1  0
 27 28  2  0
 29 30  2  0
M  CHG  1  10  -1
M  END
>  <original SMILES>  (71) 
NC(=O)N1CCC(C(=O)[O-])C(CNNc2ccc(NC(=O)Nc3ccccc3)cn2)C1

>  <ref_pdb>  (71) 
Combi88.pdb

>  <ref_mols>  (71) 
x0088_0A

>  <Glide GScore>  (71) 
-6.16491840644466

>  <RMSLigA>  (71) 
0.566386254196176

>  <RMSLigB>  (71) 
0.305134722481589

$$$$
Combi88_000106
     RDKit          3D

 33 35  0  0  1  0  0  0  0  0999 V2000
   -1.8188   14.8448   -0.4551 C   0  0  0  0  0  0  0  0  0  0  0  0
   -3.0293   15.2441   -1.3647 C   0  0  0  0  0  0  0  0  0  0  0  0
   -3.9589   14.1496   -1.5622 N   0  0  0  0  0  0  0  0  0  0  0  0
   -3.6922   13.1388   -2.4370 N   0  0  0  0  0  0  0  0  0  0  0  0
   -2.6664   12.9850   -3.2375 C   0  0  0  0  0  0  0  0  0  0  0  0
   -1.4480   13.8754   -3.5686 C   0  0  2  0  0  0  0  0  0  0  0  0
   -1.7608   14.8293   -4.7441 C   0  0  0  0  0  0  0  0  0  0  0  0
   -0.6529   15.7882   -4.8361 N   0  0  0  0  0  0  0  0  0  0  0  0
   -0.7621   17.0817   -4.4392 C   0  0  0  0  0  0  0  0  0  0  0  0
    0.3960   17.7268   -4.2851 N   0  0  0  0  0  0  0  0  0  0  0  0
   -1.8292   17.6432   -4.1910 O   0  0  0  0  0  0  0  0  0  0  0  0
    0.5847   15.1079   -5.2367 C   0  0  0  0  0  0  0  0  0  0  0  0
    1.0359   14.1732   -4.1180 C   0  0  0  0  0  0  0  0  0  0  0  0
   -0.0794   13.1403   -3.7927 C   0  0  1  0  0  0  0  0  0  0  0  0
    0.3858   12.3033   -2.5854 C   0  0  0  0  0  0  0  0  0  0  0  0
    0.1709   11.0770   -2.6314 O   0  0  0  0  0  0  0  0  0  0  0  0
    0.9708   12.8758   -1.6365 O   0  0  0  0  0  0  0  0  0  0  0  0
   -5.0153   14.1570   -0.6079 C   0  0  0  0  0  0  0  0  0  0  0  0
   -6.2610   13.5347   -0.8535 C   0  0  0  0  0  0  0  0  0  0  0  0
   -7.2567   13.5702    0.1529 C   0  0  0  0  0  0  0  0  0  0  0  0
   -6.9747   14.2212    1.3738 C   0  0  0  0  0  0  0  0  0  0  0  0
   -7.8306   14.1650    2.4947 N   0  0  0  0  0  0  0  0  0  0  0  0
   -8.4905   15.2354    2.9535 C   0  0  0  0  0  0  0  0  0  0  0  0
   -9.0513   16.0447    2.2146 O   0  0  0  0  0  0  0  0  0  0  0  0
   -8.4912   15.2756    4.2981 N   0  0  0  0  0  0  0  0  0  0  0  0
   -9.1549   16.1951    5.1551 C   0  0  0  0  0  0  0  0  0  0  0  0
   -9.5291   17.5036    4.7637 C   0  0  0  0  0  0  0  0  0  0  0  0
  -10.1960   18.3521    5.6682 C   0  0  0  0  0  0  0  0  0  0  0  0
  -10.4860   17.9090    6.9723 C   0  0  0  0  0  0  0  0  0  0  0  0
  -10.0929   16.6188    7.3767 C   0  0  0  0  0  0  0  0  0  0  0  0
   -9.4220   15.7708    6.4742 C   0  0  0  0  0  0  0  0  0  0  0  0
   -5.7276   14.8443    1.5183 C   0  0  0  0  0  0  0  0  0  0  0  0
   -4.7919   14.8156    0.5613 N   0  0  0  0  0  0  0  0  0  0  0  0
  1  2  1  0
  2  3  1  0
  3  4  1  0
  3 18  1  0
  4  5  2  3
  6  5  1  6
  6 14  1  0
  6  7  1  0
  7  8  1  0
  8  9  1  0
  8 12  1  0
  9 10  1  0
  9 11  2  0
 12 13  1  0
 13 14  1  0
 14 15  1  1
 15 16  2  0
 15 17  1  0
 18 33  1  0
 18 19  2  0
 19 20  1  0
 20 21  2  0
 21 22  1  0
 21 32  1  0
 22 23  1  0
 23 24  2  0
 23 25  1  0
 25 26  1  0
 26 31  1  0
 26 27  2  0
 27 28  1  0
 28 29  2  0
 29 30  1  0
 30 31  2  0
 32 33  2  0
M  CHG  1  17  -1
M  END
>  <original SMILES>  (72) 
CCN(N=C[C@@H]1CN(C(N)=O)CC[C@H]1C(=O)[O-])c1ccc(NC(=O)Nc2ccccc2)cn1

>  <ref_pdb>  (72) 
Combi88.pdb

>  <ref_mols>  (72) 
x0088_0A

>  <Glide GScore>  (72) 
-5.2650114709755

>  <RMSLigA>  (72) 
0.88351348488846

>  <RMSLigB>  (72) 
0.994125975754456

$$$$
Combi88_000015
     RDKit          3D

 33 35  0  0  1  0  0  0  0  0999 V2000
   -4.4599   11.7258   -3.2604 C   0  0  0  0  0  0  0  0  0  0  0  0
   -3.4447   12.8297   -2.8961 C   0  0  0  0  0  0  0  0  0  0  0  0
   -4.0835   14.1380   -2.7712 N   0  0  0  0  0  0  0  0  0  0  0  0
   -4.6905   14.3385   -1.5270 C   0  0  0  0  0  0  0  0  0  0  0  0
   -6.0379   13.9992   -1.2863 C   0  0  0  0  0  0  0  0  0  0  0  0
   -6.5830   14.1913    0.0006 C   0  0  0  0  0  0  0  0  0  0  0  0
   -5.7642   14.7193    1.0266 C   0  0  0  0  0  0  0  0  0  0  0  0
   -6.1974   14.8433    2.3687 N   0  0  0  0  0  0  0  0  0  0  0  0
   -7.4115   15.1902    2.8150 C   0  0  0  0  0  0  0  0  0  0  0  0
   -8.3740   15.4296    2.0877 O   0  0  0  0  0  0  0  0  0  0  0  0
   -7.4323   15.2442    4.1548 N   0  0  0  0  0  0  0  0  0  0  0  0
   -8.4058   15.8648    4.9790 C   0  0  0  0  0  0  0  0  0  0  0  0
   -8.5636   15.3762    6.2927 C   0  0  0  0  0  0  0  0  0  0  0  0
   -9.4757   15.9852    7.1752 C   0  0  0  0  0  0  0  0  0  0  0  0
  -10.2285   17.0981    6.7523 C   0  0  0  0  0  0  0  0  0  0  0  0
  -10.0621   17.6050    5.4491 C   0  0  0  0  0  0  0  0  0  0  0  0
   -9.1575   16.9897    4.5614 C   0  0  0  0  0  0  0  0  0  0  0  0
   -4.4288   15.0564    0.7230 C   0  0  0  0  0  0  0  0  0  0  0  0
   -3.9485   14.8657   -0.5263 N   0  0  0  0  0  0  0  0  0  0  0  0
   -2.2721   12.8698   -3.9004 C   0  0  0  0  0  0  0  0  0  0  0  0
   -2.1511   12.0675   -4.8248 O   0  0  0  0  0  0  0  0  0  0  0  0
   -1.2573   14.0214   -3.7650 C   0  0  0  0  0  0  0  0  0  0  0  0
   -1.4352   14.9648   -4.9724 C   0  0  0  0  0  0  0  0  0  0  0  0
   -0.5743   16.1496   -4.8298 N   0  0  0  0  0  0  0  0  0  0  0  0
   -1.0139   17.4215   -4.6843 C   0  0  0  0  0  0  0  0  0  0  0  0
   -2.2292   17.6474   -5.1814 N   0  0  0  0  0  0  0  0  0  0  0  0
   -0.3452   18.3485   -4.2389 O   0  0  0  0  0  0  0  0  0  0  0  0
    0.8500   15.8034   -4.7880 C   0  0  0  0  0  0  0  0  0  0  0  0
    1.1373   14.8566   -3.6152 C   0  0  0  0  0  0  0  0  0  0  0  0
    0.2350   13.5934   -3.6563 C   0  0  0  0  0  0  0  0  0  0  0  0
    0.4948   12.7050   -2.4272 C   0  0  0  0  0  0  0  0  0  0  0  0
    0.9691   13.2441   -1.4025 O   0  0  0  0  0  0  0  0  0  0  0  0
    0.1803   11.4967   -2.4935 O   0  0  0  0  0  0  0  0  0  0  0  0
  1  2  1  0
  2  3  1  0
  2 20  1  0
  3  4  1  0
  4 19  1  0
  4  5  2  0
  5  6  1  0
  6  7  2  0
  7  8  1  0
  7 18  1  0
  8  9  1  0
  9 10  2  0
  9 11  1  0
 11 12  1  0
 12 17  1  0
 12 13  2  0
 13 14  1  0
 14 15  2  0
 15 16  1  0
 16 17  2  0
 18 19  2  0
 20 21  2  0
 20 22  1  0
 22 30  1  0
 22 23  1  0
 23 24  1  0
 24 25  1  0
 24 28  1  0
 25 26  1  0
 25 27  2  0
 28 29  1  0
 29 30  1  0
 30 31  1  0
 31 32  2  0
 31 33  1  0
M  CHG  2  19   1  33  -1
M  END
>  <original SMILES>  (73) 
CC(Nc1ccc(NC(=O)Nc2ccccc2)c[nH+]1)C(=O)C1CN(C(N)=O)CCC1C(=O)[O-]

>  <ref_pdb>  (73) 
Combi88.pdb

>  <ref_mols>  (73) 
x0088_0A

>  <Glide GScore>  (73) 
-4.97618381512104

>  <RMSLigA>  (73) 
0.641422162599835

>  <RMSLigB>  (73) 
0.968273102873831

$$$$
Combi88_000095
     RDKit          3D

 33 35  0  0  1  0  0  0  0  0999 V2000
    0.3417   18.0198   -4.2838 N   0  0  0  0  0  0  0  0  0  0  0  0
   -0.6776   17.1718   -4.4370 C   0  0  0  0  0  0  0  0  0  0  0  0
   -1.8305   17.5397   -4.2089 O   0  0  0  0  0  0  0  0  0  0  0  0
   -0.3364   15.9189   -4.8347 N   0  0  0  0  0  0  0  0  0  0  0  0
    1.0279   15.4195   -5.0310 C   0  0  0  0  0  0  0  0  0  0  0  0
    1.3885   14.4877   -3.8662 C   0  0  0  0  0  0  0  0  0  0  0  0
    0.3837   13.3092   -3.7791 C   0  0  0  0  0  0  0  0  0  0  0  0
    0.6777   12.3926   -2.5765 C   0  0  0  0  0  0  0  0  0  0  0  0
    1.3707   12.8449   -1.6383 O   0  0  0  0  0  0  0  0  0  0  0  0
    0.1712   11.2508   -2.5822 O   0  0  0  0  0  0  0  0  0  0  0  0
   -1.0983   13.7953   -3.8014 C   0  0  0  0  0  0  0  0  0  0  0  0
   -1.5780   14.3628   -2.4484 C   0  0  0  0  0  0  0  0  0  0  0  0
   -2.9486   14.8441   -2.4954 N   0  0  0  0  0  0  0  0  0  0  0  0
   -4.0662   14.0504   -2.3676 C   0  0  0  0  0  0  0  0  0  0  0  0
   -4.1252   12.8277   -2.4330 O   0  0  0  0  0  0  0  0  0  0  0  0
   -5.0892   14.8518   -2.0530 O   0  0  0  0  0  0  0  0  0  0  0  0
   -5.6272   14.7596   -0.7930 C   0  0  0  0  0  0  0  0  0  0  0  0
   -7.0064   14.5685   -0.5793 C   0  0  0  0  0  0  0  0  0  0  0  0
   -7.5034   14.5847    0.7405 C   0  0  0  0  0  0  0  0  0  0  0  0
   -6.6110   14.8095    1.8170 C   0  0  0  0  0  0  0  0  0  0  0  0
   -7.0297   14.8324    3.1645 N   0  0  0  0  0  0  0  0  0  0  0  0
   -8.1457   15.4080    3.6360 C   0  0  0  0  0  0  0  0  0  0  0  0
   -9.0140   15.9089    2.9172 O   0  0  0  0  0  0  0  0  0  0  0  0
   -8.2012   15.3585    4.9760 N   0  0  0  0  0  0  0  0  0  0  0  0
   -9.1059   16.0489    5.8236 C   0  0  0  0  0  0  0  0  0  0  0  0
   -9.3618   15.4999    7.0963 C   0  0  0  0  0  0  0  0  0  0  0  0
  -10.2455   16.1422    7.9836 C   0  0  0  0  0  0  0  0  0  0  0  0
  -10.8557   17.3581    7.6168 C   0  0  0  0  0  0  0  0  0  0  0  0
  -10.5804   17.9313    6.3616 C   0  0  0  0  0  0  0  0  0  0  0  0
   -9.7087   17.2813    5.4663 C   0  0  0  0  0  0  0  0  0  0  0  0
   -5.2387   14.9703    1.5471 C   0  0  0  0  0  0  0  0  0  0  0  0
   -4.8040   14.9613    0.2700 N   0  0  0  0  0  0  0  0  0  0  0  0
   -1.3029   14.8161   -4.9516 C   0  0  0  0  0  0  0  0  0  0  0  0
  1  2  1  0
  2  3  2  0
  2  4  1  0
  4 33  1  0
  4  5  1  0
  5  6  1  0
  6  7  1  0
  7  8  1  0
  7 11  1  0
  8  9  2  0
  8 10  1  0
 11 12  1  0
 11 33  1  0
 12 13  1  0
 13 14  1  0
 14 15  2  0
 14 16  1  0
 16 17  1  0
 17 32  1  0
 17 18  2  0
 18 19  1  0
 19 20  2  0
 20 21  1  0
 20 31  1  0
 21 22  1  0
 22 23  2  0
 22 24  1  0
 24 25  1  0
 25 30  1  0
 25 26  2  0
 26 27  1  0
 27 28  2  0
 28 29  1  0
 29 30  2  0
 31 32  2  0
M  CHG  2  10  -1  32   1
M  END
>  <original SMILES>  (74) 
NC(=O)N1CCC(C(=O)[O-])C(CNC(=O)Oc2ccc(NC(=O)Nc3ccccc3)c[nH+]2)C1

>  <ref_pdb>  (74) 
Combi88.pdb

>  <ref_mols>  (74) 
x0088_0A

>  <Glide GScore>  (74) 
-3.49643033921786

>  <RMSLigA>  (74) 
0.713727377093182

>  <RMSLigB>  (74) 
0.422993165406862

$$$$
