ver_1.2
     RDKit          2D

  1  0  0  0  0  0  0  0  0  0999 V2000
    0.0000    0.0000    0.0000 C   0  0  0  0  0  0  0  0  0  0  0  0
M  END
>  <ref_mols>  (1) 
Two inspiration fragments, order of X0077_0A (Lig A), X0077_1A (LigB), used for enumerating the compound designs from combisoak data

>  <ref_url>  (1) 
https://docs.google.com/document/d/1_MsEhKuhqbCONTLeQ_KZyKYpMG5UmMyJb8FyxqoWOmA/edit

>  <submitter_name>  (1) 
MCR

>  <submitter_email>  (1) 
bajusz.david@ttk.hu

>  <submitter_institution>  (1) 
Medicinal Chemistry Research Group - Budapest

>  <generation_date>  (1) 
2022-03-23

>  <method>  (1) 
2A-Combi77

>  <Glide GScore>  (1) 
Glide GScore

>  <RMSLigA>  (1) 
RMS between docking pose and ligand A

>  <RMSLigB>  (1) 
RMS between docking pose and ligand B

$$$$
Combi77_000063
     RDKit          3D

 29 31  0  0  1  0  0  0  0  0999 V2000
    1.8805   12.8953   -5.4009 C   0  0  0  0  0  0  0  0  0  0  0  0
    0.5074   12.3162   -4.9992 C   0  0  0  0  0  0  0  0  0  0  0  0
    0.2606   11.0184   -5.6365 N   0  0  0  0  0  0  0  0  0  0  0  0
    0.3689   10.6753   -6.9316 C   0  0  0  0  0  0  0  0  0  0  0  0
    0.7225   11.4540   -7.8179 O   0  0  0  0  0  0  0  0  0  0  0  0
    0.0491    9.2113   -7.2684 C   0  0  0  0  0  0  0  0  0  0  0  0
   -1.1917    9.0751   -8.1745 C   0  0  0  0  0  0  0  0  0  0  0  0
   -0.7916    8.1711   -9.3489 C   0  0  0  0  0  0  0  0  0  0  0  0
    0.4888    7.4682   -8.9007 C   0  0  0  0  0  0  0  0  0  0  0  0
    1.1898    8.5088   -8.0310 C   0  0  0  0  0  0  0  0  0  0  0  0
    0.4436   12.1328   -3.4694 C   0  0  0  0  0  0  0  0  0  0  0  0
   -0.1607   11.2215   -2.9013 O   0  0  0  0  0  0  0  0  0  0  0  0
    1.1239   13.1022   -2.8403 O   0  0  0  0  0  0  0  0  0  0  0  0
    0.9390   13.1218   -1.3653 O   0  0  0  0  0  0  0  0  0  0  0  0
    0.7231   14.4329   -0.8716 N   0  0  0  0  0  0  0  0  0  0  0  0
   -0.6005   14.6367   -0.5037 C   0  0  0  0  0  0  0  0  0  0  0  0
   -0.9618   14.9546    0.8157 C   0  0  0  0  0  0  0  0  0  0  0  0
   -2.2503   15.0650    1.1813 N   0  0  0  0  0  0  0  0  0  0  0  0
   -3.1830   14.8940    0.2397 C   0  0  0  0  0  0  0  0  0  0  0  0
   -4.5153   14.9859    0.6370 N   0  0  0  0  0  0  0  0  0  0  0  0
   -4.9091   15.6889    1.8571 C   0  0  0  0  0  0  0  0  0  0  0  0
   -5.9732   14.9083    2.6356 C   0  0  0  0  0  0  0  0  0  0  0  0
   -7.1740   14.5114    1.7657 C   0  0  0  0  0  0  0  0  0  0  0  0
   -8.2143   13.6942    2.5566 C   0  0  0  0  0  0  0  0  0  0  0  0
   -7.6772   12.4779    3.0353 O   0  0  0  0  0  0  0  0  0  0  0  0
   -6.6769   13.7840    0.5034 C   0  0  0  0  0  0  0  0  0  0  0  0
   -5.6280   14.6205   -0.2460 C   0  0  0  0  0  0  0  0  0  0  0  0
   -2.9406   14.6355   -1.0483 N   0  0  0  0  0  0  0  0  0  0  0  0
   -1.6565   14.4991   -1.4229 C   0  0  0  0  0  0  0  0  0  0  0  0
  1  2  1  0
  2  3  1  0
  2 11  1  0
  3  4  1  0
  4  5  2  0
  4  6  1  0
  6 10  1  0
  6  7  1  0
  7  8  1  0
  8  9  1  0
  9 10  1  0
 11 12  2  0
 11 13  1  0
 13 14  1  0
 14 15  1  0
 15 16  1  0
 16 29  1  0
 16 17  2  0
 17 18  1  0
 18 19  2  0
 19 20  1  0
 19 28  1  0
 20 27  1  0
 20 21  1  0
 21 22  1  0
 22 23  1  0
 23 24  1  0
 23 26  1  0
 24 25  1  0
 26 27  1  0
 28 29  2  0
M  END
>  <original SMILES>  (2) 
CC(NC(=O)C1CCCC1)C(=O)OONc1cnc(N2CCC(CO)CC2)nc1

>  <ref_pdb>  (2) 
Combi77.pdb

>  <ref_mols>  (2) 
x0077_0A,x0077_1A

>  <Glide GScore>  (2) 
-7.51078421896204

>  <RMSLigA>  (2) 
1.50325171973504

>  <RMSLigB>  (2) 
1.26578249941212

$$$$
Combi77_000106
     RDKit          3D

 33 35  0  0  1  0  0  0  0  0999 V2000
    2.3628   12.4130   -4.9158 C   0  0  0  0  0  0  0  0  0  0  0  0
    1.0250   12.6372   -5.6290 C   0  0  0  0  0  0  0  0  0  0  0  0
    0.3232   11.3828   -5.8721 N   0  0  0  0  0  0  0  0  0  0  0  0
    0.4227   10.6571   -6.9928 C   0  0  0  0  0  0  0  0  0  0  0  0
    1.1334   10.9926   -7.9411 O   0  0  0  0  0  0  0  0  0  0  0  0
   -0.4000    9.3597   -7.0423 C   0  0  0  0  0  0  0  0  0  0  0  0
   -1.2439    9.2629   -8.3284 C   0  0  0  0  0  0  0  0  0  0  0  0
   -0.4423    8.3733   -9.2771 C   0  0  0  0  0  0  0  0  0  0  0  0
    0.2049    7.3468   -8.3507 C   0  0  0  0  0  0  0  0  0  0  0  0
    0.5062    8.1074   -7.0533 C   0  0  0  0  0  0  0  0  0  0  0  0
    0.1355   13.6371   -4.9102 C   0  0  0  0  0  0  0  0  0  0  0  0
   -0.9963   13.3921   -4.4924 O   0  0  0  0  0  0  0  0  0  0  0  0
    0.7857   14.8060   -4.7794 O   0  0  0  0  0  0  0  0  0  0  0  0
    0.2927   15.8284   -3.9312 C   0  0  0  0  0  0  0  0  0  0  0  0
    0.6451   17.1741   -4.5649 C   0  0  0  0  0  0  0  0  0  0  0  0
    0.1209   18.2129   -4.1655 O   0  0  0  0  0  0  0  0  0  0  0  0
    0.9406   15.6959   -2.5349 C   0  0  0  0  0  0  0  0  0  0  0  0
    0.4703   14.4886   -1.7142 C   0  0  0  0  0  0  0  0  0  0  0  0
    1.1225   13.4456   -1.6966 O   0  0  0  0  0  0  0  0  0  0  0  0
   -0.7655   14.6603   -0.9518 C   0  0  0  0  0  0  0  0  0  0  0  0
   -0.7622   14.7624    0.4506 C   0  0  0  0  0  0  0  0  0  0  0  0
   -1.9078   14.9268    1.1407 N   0  0  0  0  0  0  0  0  0  0  0  0
   -3.0377   14.9905    0.4310 C   0  0  0  0  0  0  0  0  0  0  0  0
   -4.1984   15.2592    1.1280 N   0  0  0  0  0  0  0  0  0  0  0  0
   -4.6024   14.4023    2.2348 C   0  0  0  0  0  0  0  0  0  0  0  0
   -5.6910   13.4116    1.7839 C   0  0  0  0  0  0  0  0  0  0  0  0
   -6.8968   14.1376    1.1576 C   0  0  0  0  0  0  0  0  0  0  0  0
   -7.9631   13.1292    0.6929 C   0  0  0  0  0  0  0  0  0  0  0  0
   -9.1273   13.7997    0.2555 O   0  0  0  0  0  0  0  0  0  0  0  0
   -6.3990   15.0454    0.0129 C   0  0  0  0  0  0  0  0  0  0  0  0
   -5.2911   15.9926    0.5047 C   0  0  0  0  0  0  0  0  0  0  0  0
   -3.1501   14.8618   -0.8905 N   0  0  0  0  0  0  0  0  0  0  0  0
   -2.0201   14.6663   -1.5831 C   0  0  0  0  0  0  0  0  0  0  0  0
  1  2  1  0
  2  3  1  0
  2 11  1  0
  3  4  1  0
  4  5  2  0
  4  6  1  0
  6 10  1  0
  6  7  1  0
  7  8  1  0
  8  9  1  0
  9 10  1  0
 11 12  2  0
 11 13  1  0
 13 14  1  0
 14 15  1  0
 14 17  1  0
 15 16  2  0
 17 18  1  0
 18 19  2  0
 18 20  1  0
 20 33  1  0
 20 21  2  0
 21 22  1  0
 22 23  2  0
 23 24  1  0
 23 32  1  0
 24 31  1  0
 24 25  1  0
 25 26  1  0
 26 27  1  0
 27 28  1  0
 27 30  1  0
 28 29  1  0
 30 31  1  0
 32 33  2  0
M  END
>  <original SMILES>  (3) 
CC(NC(=O)C1CCCC1)C(=O)OC(C=O)CC(=O)c1cnc(N2CCC(CO)CC2)nc1

>  <ref_pdb>  (3) 
Combi77.pdb

>  <ref_mols>  (3) 
x0077_0A,x0077_1A

>  <Glide GScore>  (3) 
-7.43257463308945

>  <RMSLigA>  (3) 
1.2569294406101

>  <RMSLigB>  (3) 
1.91661881502446

$$$$
Combi77_000107
     RDKit          3D

 29 31  0  0  1  0  0  0  0  0999 V2000
    1.7385   13.0470   -5.1845 C   0  0  0  0  0  0  0  0  0  0  0  0
    0.4400   12.4721   -4.5954 C   0  0  0  0  0  0  0  0  0  0  0  0
    0.0068   11.4214   -5.5118 N   0  0  0  0  0  0  0  0  0  0  0  0
   -1.2603   11.1624   -5.8620 C   0  0  0  0  0  0  0  0  0  0  0  0
   -2.2111   11.8291   -5.4572 O   0  0  0  0  0  0  0  0  0  0  0  0
   -1.4866    9.9951   -6.8388 C   0  0  0  0  0  0  0  0  0  0  0  0
   -0.9556   10.3049   -8.2588 C   0  0  0  0  0  0  0  0  0  0  0  0
   -0.0850    9.1106   -8.6641 C   0  0  0  0  0  0  0  0  0  0  0  0
    0.4054    8.5156   -7.3472 C   0  0  0  0  0  0  0  0  0  0  0  0
   -0.7842    8.6903   -6.4048 C   0  0  0  0  0  0  0  0  0  0  0  0
    0.7224   11.8692   -3.1895 C   0  0  0  0  0  0  0  0  0  0  0  0
    0.7242   10.6642   -2.9609 O   0  0  0  0  0  0  0  0  0  0  0  0
    1.0080   12.7575   -2.2043 O   0  0  0  0  0  0  0  0  0  0  0  0
    0.7235   14.1498   -2.4084 N   0  0  0  0  0  0  0  0  0  0  0  0
    0.3054   14.6425   -1.1755 N   0  0  0  0  0  0  0  0  0  0  0  0
   -1.0147   14.6857   -0.7251 C   0  0  0  0  0  0  0  0  0  0  0  0
   -1.3200   15.0282    0.6036 C   0  0  0  0  0  0  0  0  0  0  0  0
   -2.5886   15.0674    1.0435 N   0  0  0  0  0  0  0  0  0  0  0  0
   -3.5668   14.8223    0.1671 C   0  0  0  0  0  0  0  0  0  0  0  0
   -4.8834   14.9396    0.6190 N   0  0  0  0  0  0  0  0  0  0  0  0
   -5.2117   15.3167    1.9924 C   0  0  0  0  0  0  0  0  0  0  0  0
   -6.1420   14.2827    2.6350 C   0  0  0  0  0  0  0  0  0  0  0  0
   -7.3816   13.9445    1.7934 C   0  0  0  0  0  0  0  0  0  0  0  0
   -8.1608   12.7710    2.4192 C   0  0  0  0  0  0  0  0  0  0  0  0
   -8.4959   13.0324    3.7676 O   0  0  0  0  0  0  0  0  0  0  0  0
   -6.9544   13.6238    0.3480 C   0  0  0  0  0  0  0  0  0  0  0  0
   -6.0552   14.7268   -0.2357 C   0  0  0  0  0  0  0  0  0  0  0  0
   -3.3831   14.5024   -1.1155 N   0  0  0  0  0  0  0  0  0  0  0  0
   -2.1182   14.4211   -1.5622 C   0  0  0  0  0  0  0  0  0  0  0  0
  1  2  1  0
  2  3  1  0
  2 11  1  0
  3  4  1  0
  4  5  2  0
  4  6  1  0
  6 10  1  0
  6  7  1  0
  7  8  1  0
  8  9  1  0
  9 10  1  0
 11 12  2  0
 11 13  1  0
 13 14  1  0
 14 15  1  0
 15 16  1  0
 16 29  1  0
 16 17  2  0
 17 18  1  0
 18 19  2  0
 19 20  1  0
 19 28  1  0
 20 27  1  0
 20 21  1  0
 21 22  1  0
 22 23  1  0
 23 24  1  0
 23 26  1  0
 24 25  1  0
 26 27  1  0
 28 29  2  0
M  END
>  <original SMILES>  (4) 
CC(NC(=O)C1CCCC1)C(=O)ONNc1cnc(N2CCC(CO)CC2)nc1

>  <ref_pdb>  (4) 
Combi77.pdb

>  <ref_mols>  (4) 
x0077_0A,x0077_1A

>  <Glide GScore>  (4) 
-5.73678831837322

>  <RMSLigA>  (4) 
1.84533337877629

>  <RMSLigB>  (4) 
1.66642950235468

$$$$
Combi77_000025
     RDKit          3D

 29 31  0  0  1  0  0  0  0  0999 V2000
   -1.8492   11.8485   -3.4374 C   0  0  0  0  0  0  0  0  0  0  0  0
   -0.4715   11.9741   -4.1071 C   0  0  0  0  0  0  0  0  0  0  0  0
   -0.4391   10.9831   -5.1772 N   0  0  0  0  0  0  0  0  0  0  0  0
    0.3209   11.0623   -6.2794 C   0  0  0  0  0  0  0  0  0  0  0  0
    1.1325   11.9672   -6.4672 O   0  0  0  0  0  0  0  0  0  0  0  0
    0.1364    9.9649   -7.3376 C   0  0  0  0  0  0  0  0  0  0  0  0
    0.6027    8.5768   -6.8481 C   0  0  0  0  0  0  0  0  0  0  0  0
   -0.5052    7.5950   -7.2334 C   0  0  0  0  0  0  0  0  0  0  0  0
   -1.7778    8.4350   -7.2124 C   0  0  0  0  0  0  0  0  0  0  0  0
   -1.3357    9.7890   -7.7725 C   0  0  0  0  0  0  0  0  0  0  0  0
    0.5992   11.6745   -3.0226 C   0  0  0  0  0  0  0  0  0  0  0  0
    1.0226   10.5473   -2.7939 O   0  0  0  0  0  0  0  0  0  0  0  0
    0.9889   12.7199   -2.2533 O   0  0  0  0  0  0  0  0  0  0  0  0
    0.7233   14.0864   -2.5246 C   0  0  0  0  0  0  0  0  0  0  0  0
    0.5643   15.0653   -1.0146 S   0  0  0  0  0  0  0  0  0  0  0  0
   -1.1209   14.9521   -0.5069 C   0  0  0  0  0  0  0  0  0  0  0  0
   -1.4757   15.0560    0.8467 C   0  0  0  0  0  0  0  0  0  0  0  0
   -2.7643   15.0656    1.2360 N   0  0  0  0  0  0  0  0  0  0  0  0
   -3.7039   15.0106    0.2853 C   0  0  0  0  0  0  0  0  0  0  0  0
   -5.0343   15.1513    0.6794 N   0  0  0  0  0  0  0  0  0  0  0  0
   -5.4245   15.3975    2.0653 C   0  0  0  0  0  0  0  0  0  0  0  0
   -6.1558   14.1803    2.6330 C   0  0  0  0  0  0  0  0  0  0  0  0
   -7.3684   13.7630    1.7815 C   0  0  0  0  0  0  0  0  0  0  0  0
   -8.0139   12.4685    2.3160 C   0  0  0  0  0  0  0  0  0  0  0  0
   -8.4769   12.6249    3.6432 O   0  0  0  0  0  0  0  0  0  0  0  0
   -6.9222   13.6028    0.3121 C   0  0  0  0  0  0  0  0  0  0  0  0
   -6.1708   14.8486   -0.1946 C   0  0  0  0  0  0  0  0  0  0  0  0
   -3.4680   14.8969   -1.0231 N   0  0  0  0  0  0  0  0  0  0  0  0
   -2.1859   14.8618   -1.4218 C   0  0  0  0  0  0  0  0  0  0  0  0
  1  2  1  0
  2  3  1  0
  2 11  1  0
  3  4  1  0
  4  5  2  0
  4  6  1  0
  6 10  1  0
  6  7  1  0
  7  8  1  0
  8  9  1  0
  9 10  1  0
 11 12  2  0
 11 13  1  0
 13 14  1  0
 14 15  1  0
 15 16  1  0
 16 29  1  0
 16 17  2  0
 17 18  1  0
 18 19  2  0
 19 20  1  0
 19 28  1  0
 20 27  1  0
 20 21  1  0
 21 22  1  0
 22 23  1  0
 23 24  1  0
 23 26  1  0
 24 25  1  0
 26 27  1  0
 28 29  2  0
M  END
>  <original SMILES>  (5) 
CC(NC(=O)C1CCCC1)C(=O)OCSc1cnc(N2CCC(CO)CC2)nc1

>  <ref_pdb>  (5) 
Combi77.pdb

>  <ref_mols>  (5) 
x0077_0A,x0077_1A

>  <Glide GScore>  (5) 
-3.36725685005748

>  <RMSLigA>  (5) 
1.89984893880726

>  <RMSLigB>  (5) 
1.64167901121038

$$$$
Combi77_000056
     RDKit          3D

 30 32  0  0  1  0  0  0  0  0999 V2000
   -2.0298   11.4864   -3.8041 C   0  0  0  0  0  0  0  0  0  0  0  0
   -0.7272   11.6009   -4.6136 C   0  0  0  0  0  0  0  0  0  0  0  0
   -0.6438   10.4361   -5.4908 N   0  0  0  0  0  0  0  0  0  0  0  0
    0.0351   10.4117   -6.6470 C   0  0  0  0  0  0  0  0  0  0  0  0
    0.7408   11.3505   -7.0181 O   0  0  0  0  0  0  0  0  0  0  0  0
   -0.1425    9.1610   -7.5286 C   0  0  0  0  0  0  0  0  0  0  0  0
   -0.5010    9.5381   -8.9786 C   0  0  0  0  0  0  0  0  0  0  0  0
    0.8309    9.5777   -9.7265 C   0  0  0  0  0  0  0  0  0  0  0  0
    1.6431    8.4462   -9.1008 C   0  0  0  0  0  0  0  0  0  0  0  0
    1.1514    8.3274   -7.6505 C   0  0  0  0  0  0  0  0  0  0  0  0
    0.4579   11.6273   -3.6083 C   0  0  0  0  0  0  0  0  0  0  0  0
    0.7493   10.6659   -2.9023 O   0  0  0  0  0  0  0  0  0  0  0  0
    1.1738   12.7809   -3.5550 O   0  0  0  0  0  0  0  0  0  0  0  0
    0.6785   14.0455   -3.9745 C   0  0  0  0  0  0  0  0  0  0  0  0
    0.9214   15.0762   -2.8602 C   0  0  0  0  0  0  0  0  0  0  0  0
    0.6371   14.5691   -1.5518 O   0  0  0  0  0  0  0  0  0  0  0  0
   -0.6518   14.6959   -1.0774 C   0  0  0  0  0  0  0  0  0  0  0  0
   -1.8088   14.7550   -1.8837 C   0  0  0  0  0  0  0  0  0  0  0  0
   -3.0298   14.9710   -1.3729 N   0  0  0  0  0  0  0  0  0  0  0  0
   -3.1367   15.1308   -0.0540 C   0  0  0  0  0  0  0  0  0  0  0  0
   -4.4086   15.4454    0.4349 N   0  0  0  0  0  0  0  0  0  0  0  0
   -4.6986   15.7010    1.8459 C   0  0  0  0  0  0  0  0  0  0  0  0
   -5.5828   14.5908    2.4358 C   0  0  0  0  0  0  0  0  0  0  0  0
   -6.8476   14.3143    1.5995 C   0  0  0  0  0  0  0  0  0  0  0  0
   -7.6183   13.0846    2.1155 C   0  0  0  0  0  0  0  0  0  0  0  0
   -8.0783   13.2781    3.4359 O   0  0  0  0  0  0  0  0  0  0  0  0
   -6.4721   14.1469    0.1150 C   0  0  0  0  0  0  0  0  0  0  0  0
   -5.6197   15.3258   -0.3808 C   0  0  0  0  0  0  0  0  0  0  0  0
   -2.1175   15.0632    0.8102 N   0  0  0  0  0  0  0  0  0  0  0  0
   -0.8851   14.8336    0.3062 C   0  0  0  0  0  0  0  0  0  0  0  0
  1  2  1  0
  2  3  1  0
  2 11  1  0
  3  4  1  0
  4  5  2  0
  4  6  1  0
  6 10  1  0
  6  7  1  0
  7  8  1  0
  8  9  1  0
  9 10  1  0
 11 12  2  0
 11 13  1  0
 13 14  1  0
 14 15  1  0
 15 16  1  0
 16 17  1  0
 17 30  1  0
 17 18  2  0
 18 19  1  0
 19 20  2  0
 20 21  1  0
 20 29  1  0
 21 28  1  0
 21 22  1  0
 22 23  1  0
 23 24  1  0
 24 25  1  0
 24 27  1  0
 25 26  1  0
 27 28  1  0
 29 30  2  0
M  END
>  <original SMILES>  (6) 
CC(NC(=O)C1CCCC1)C(=O)OCCOc1cnc(N2CCC(CO)CC2)nc1

>  <ref_pdb>  (6) 
Combi77.pdb

>  <ref_mols>  (6) 
x0077_0A,x0077_1A

>  <Glide GScore>  (6) 
-2.93888114317341

>  <RMSLigA>  (6) 
1.51933402467655

>  <RMSLigB>  (6) 
1.90072427716317

$$$$
