ver_1.2
     RDKit          2D

  1  0  0  0  0  0  0  0  0  0999 V2000
    0.0000    0.0000    0.0000 C   0  0  0  0  0  0  0  0  0  0  0  0
M  END
>  <ref_mols>  (1) 
Two inspiration fragments, order of X0054_0A (Lig A), X0054_1A (LigB), used for enumerating the compound designs from combisoak data

>  <ref_url>  (1) 
https://docs.google.com/document/d/1_MsEhKuhqbCONTLeQ_KZyKYpMG5UmMyJb8FyxqoWOmA/edit

>  <submitter_name>  (1) 
MCR

>  <submitter_email>  (1) 
bajusz.david@ttk.hu

>  <submitter_institution>  (1) 
Medicinal Chemistry Research Group - Budapest

>  <generation_date>  (1) 
2022-03-25

>  <method>  (1) 
2A-Combi54.1

>  <Glide GScore>  (1) 
Glide GScore

>  <RMSLigA>  (1) 
RMS between docking pose and ligand A

>  <RMSLigB>  (1) 
RMS between docking pose and ligand B

$$$$
Combi54_000075
     RDKit          3D

 28 30  0  0  1  0  0  0  0  0999 V2000
    0.3999   11.1447   -3.3110 C   0  0  0  0  0  0  0  0  0  0  0  0
    0.7527   11.7864   -4.6653 C   0  0  0  0  0  0  0  0  0  0  0  0
    0.1163   11.0208   -5.7350 N   0  0  0  0  0  0  0  0  0  0  0  0
    0.5552   10.9879   -7.0037 C   0  0  0  0  0  0  0  0  0  0  0  0
    1.5028   11.6731   -7.3943 O   0  0  0  0  0  0  0  0  0  0  0  0
   -0.1549   10.0493   -7.9951 C   0  0  0  0  0  0  0  0  0  0  0  0
    0.5349    8.6820   -8.0572 C   0  0  0  0  0  0  0  0  0  0  0  0
   -0.1252    7.8623   -6.9453 C   0  0  0  0  0  0  0  0  0  0  0  0
   -1.5648    8.3881   -6.8385 C   0  0  0  0  0  0  0  0  0  0  0  0
   -1.6132    9.7020   -7.6361 C   0  0  0  0  0  0  0  0  0  0  0  0
    0.2357   13.2265   -4.6180 C   0  0  0  0  0  0  0  0  0  0  0  0
   -0.8815   13.5851   -4.9994 O   0  0  0  0  0  0  0  0  0  0  0  0
    1.1466   13.9982   -4.0054 O   0  0  0  0  0  0  0  0  0  0  0  0
    0.6688   15.2567   -3.5292 N   0  0  0  0  0  0  0  0  0  0  0  0
    0.8346   15.2375   -2.1410 N   0  0  0  0  0  0  0  0  0  0  0  0
   -0.1836   15.1365   -1.1920 C   0  0  0  0  0  0  0  0  0  0  0  0
    0.0910   15.2750    0.1803 C   0  0  0  0  0  0  0  0  0  0  0  0
   -0.8683   15.2623    1.1247 N   0  0  0  0  0  0  0  0  0  0  0  0
   -2.1686   15.1196    0.7759 C   0  0  0  0  0  0  0  0  0  0  0  0
   -3.1196   15.1238    1.7300 N   0  0  0  0  0  0  0  0  0  0  0  0
   -4.4166   14.9778    1.3996 C   0  0  0  0  0  0  0  0  0  0  0  0
   -4.8519   14.8153    0.0764 C   0  0  0  0  0  0  0  0  0  0  0  0
   -3.8889   14.7962   -0.9406 C   0  0  0  0  0  0  0  0  0  0  0  0
   -4.4539   14.5521   -2.7444 Br  0  0  0  0  0  0  0  0  0  0  0  0
   -2.5290   14.9534   -0.5925 C   0  0  0  0  0  0  0  0  0  0  0  0
   -1.5236   14.9512   -1.5790 C   0  0  0  0  0  0  0  0  0  0  0  0
    1.5376   16.2634   -4.0414 O   0  0  0  0  0  0  0  0  0  0  0  0
    0.8340   17.2779   -4.8056 O   0  0  0  0  0  0  0  0  0  0  0  0
  1  2  1  0
  2  3  1  0
  2 11  1  0
  3  4  1  0
  4  5  2  0
  4  6  1  0
  6 10  1  0
  6  7  1  0
  7  8  1  0
  8  9  1  0
  9 10  1  0
 11 12  2  0
 11 13  1  0
 13 14  1  0
 14 15  1  0
 14 27  1  0
 15 16  1  0
 16 26  1  0
 16 17  2  0
 17 18  1  0
 18 19  2  0
 19 25  1  0
 19 20  1  0
 20 21  2  0
 21 22  1  0
 22 23  2  0
 23 24  1  0
 23 25  1  0
 25 26  2  0
 27 28  1  0
M  END
>  <original SMILES>  (2) 
CC(NC(=O)C1CCCC1)C(=O)ON(Nc1cnc2nccc(Br)c2c1)OO

>  <ref_pdb>  (2) 
Combi54.pdb

>  <ref_mols>  (2) 
x0054_0A,x0054_1A

>  <Glide GScore>  (2) 
-6.65695662674623

>  <RMSLigA>  (2) 
0.927862996352616

>  <RMSLigB>  (2) 
1.93421806135845

$$$$
Combi54_000053
     RDKit          3D

 30 32  0  0  1  0  0  0  0  0999 V2000
    0.6919   18.1303   -4.1532 C   0  0  0  0  0  0  0  0  0  0  0  0
    0.1256   17.1931   -5.2233 C   0  0  0  0  0  0  0  0  0  0  0  0
   -0.7717   18.0099   -6.1700 C   0  0  0  0  0  0  0  0  0  0  0  0
   -0.6638   16.0157   -4.6162 C   0  0  0  0  0  0  0  0  0  0  0  0
    0.2654   14.8802   -4.0848 C   0  0  0  0  0  0  0  0  0  0  0  0
   -0.3095   13.6343   -4.3726 O   0  0  0  0  0  0  0  0  0  0  0  0
    0.3708   12.5270   -3.9645 C   0  0  0  0  0  0  0  0  0  0  0  0
    1.3986   12.5020   -3.2816 O   0  0  0  0  0  0  0  0  0  0  0  0
   -0.3235   11.2533   -4.4851 C   0  0  0  0  0  0  0  0  0  0  0  0
   -1.8023   11.1545   -4.0729 C   0  0  0  0  0  0  0  0  0  0  0  0
   -0.1978   10.9742   -5.9226 N   0  0  0  0  0  0  0  0  0  0  0  0
    0.7359   11.3474   -6.8179 C   0  0  0  0  0  0  0  0  0  0  0  0
    1.6350   12.1533   -6.5858 O   0  0  0  0  0  0  0  0  0  0  0  0
    0.6395   10.7233   -8.2200 C   0  0  0  0  0  0  0  0  0  0  0  0
    1.1950    9.2822   -8.2453 C   0  0  0  0  0  0  0  0  0  0  0  0
    0.0437    8.3692   -8.6893 C   0  0  0  0  0  0  0  0  0  0  0  0
   -1.2355    9.1839   -8.5010 C   0  0  0  0  0  0  0  0  0  0  0  0
   -0.8004   10.6261   -8.7627 C   0  0  0  0  0  0  0  0  0  0  0  0
    0.6132   15.0822   -2.7336 O   0  0  0  0  0  0  0  0  0  0  0  0
   -0.3398   14.9956   -1.7344 C   0  0  0  0  0  0  0  0  0  0  0  0
    0.0745   15.2748   -0.4195 C   0  0  0  0  0  0  0  0  0  0  0  0
   -0.7677   15.3530    0.6289 N   0  0  0  0  0  0  0  0  0  0  0  0
   -2.0951   15.1714    0.4468 C   0  0  0  0  0  0  0  0  0  0  0  0
   -2.9378   15.3093    1.4886 N   0  0  0  0  0  0  0  0  0  0  0  0
   -4.2612   15.1224    1.3267 C   0  0  0  0  0  0  0  0  0  0  0  0
   -4.8362   14.7783    0.0958 C   0  0  0  0  0  0  0  0  0  0  0  0
   -3.9893   14.6230   -1.0101 C   0  0  0  0  0  0  0  0  0  0  0  0
   -4.7475   14.1584   -2.6970 Br  0  0  0  0  0  0  0  0  0  0  0  0
   -2.6011   14.8276   -0.8394 C   0  0  0  0  0  0  0  0  0  0  0  0
   -1.7107   14.7097   -1.9248 C   0  0  0  0  0  0  0  0  0  0  0  0
  1  2  1  0
  2  3  1  0
  2  4  1  0
  4  5  1  0
  5  6  1  0
  5 19  1  0
  6  7  1  0
  7  8  2  0
  7  9  1  0
  9 10  1  0
  9 11  1  0
 11 12  1  0
 12 13  2  0
 12 14  1  0
 14 18  1  0
 14 15  1  0
 15 16  1  0
 16 17  1  0
 17 18  1  0
 19 20  1  0
 20 30  1  0
 20 21  2  0
 21 22  1  0
 22 23  2  0
 23 29  1  0
 23 24  1  0
 24 25  2  0
 25 26  1  0
 26 27  2  0
 27 28  1  0
 27 29  1  0
 29 30  2  0
M  END
>  <original SMILES>  (3) 
CC(C)CC(OC(=O)C(C)NC(=O)C1CCCC1)Oc1cnc2nccc(Br)c2c1

>  <ref_pdb>  (3) 
Combi54.pdb

>  <ref_mols>  (3) 
x0054_0A,x0054_1A

>  <Glide GScore>  (3) 
-6.22656191689646

>  <RMSLigA>  (3) 
1.24777582751146

>  <RMSLigB>  (3) 
1.88189387495461

$$$$
Combi54_000122
     RDKit          3D

 26 28  0  0  1  0  0  0  0  0999 V2000
   -1.9989   11.3500   -3.6805 C   0  0  0  0  0  0  0  0  0  0  0  0
   -0.9518   11.9782   -4.6100 C   0  0  0  0  0  0  0  0  0  0  0  0
   -0.5139   11.0007   -5.6060 N   0  0  0  0  0  0  0  0  0  0  0  0
    0.4346   11.1689   -6.5436 C   0  0  0  0  0  0  0  0  0  0  0  0
    1.1729   12.1530   -6.6005 O   0  0  0  0  0  0  0  0  0  0  0  0
    0.5612   10.0662   -7.6010 C   0  0  0  0  0  0  0  0  0  0  0  0
    0.9776    8.7106   -7.0025 C   0  0  0  0  0  0  0  0  0  0  0  0
    0.0739    7.6615   -7.6539 C   0  0  0  0  0  0  0  0  0  0  0  0
   -1.2204    8.4132   -7.9532 C   0  0  0  0  0  0  0  0  0  0  0  0
   -0.7525    9.8102   -8.3713 C   0  0  0  0  0  0  0  0  0  0  0  0
    0.1859   12.6125   -3.7918 C   0  0  0  0  0  0  0  0  0  0  0  0
    1.0082   11.9774   -3.1245 O   0  0  0  0  0  0  0  0  0  0  0  0
    0.0856   13.9577   -3.8920 O   0  0  0  0  0  0  0  0  0  0  0  0
    0.8968   14.7271   -3.0593 C   0  0  0  0  0  0  0  0  0  0  0  0
    0.8350   14.4029   -1.6985 O   0  0  0  0  0  0  0  0  0  0  0  0
   -0.2987   14.7336   -0.9938 C   0  0  0  0  0  0  0  0  0  0  0  0
   -0.1656   15.0166    0.3765 C   0  0  0  0  0  0  0  0  0  0  0  0
   -1.2051   15.3238    1.1744 N   0  0  0  0  0  0  0  0  0  0  0  0
   -2.4641   15.3274    0.6785 C   0  0  0  0  0  0  0  0  0  0  0  0
   -3.5035   15.5979    1.4889 N   0  0  0  0  0  0  0  0  0  0  0  0
   -4.7652   15.5462    1.0322 C   0  0  0  0  0  0  0  0  0  0  0  0
   -5.0783   15.2518   -0.3014 C   0  0  0  0  0  0  0  0  0  0  0  0
   -4.0214   14.9859   -1.1834 C   0  0  0  0  0  0  0  0  0  0  0  0
   -4.4159   14.5525   -2.9974 Br  0  0  0  0  0  0  0  0  0  0  0  0
   -2.6963   15.0271   -0.6933 C   0  0  0  0  0  0  0  0  0  0  0  0
   -1.6013   14.7572   -1.5360 C   0  0  0  0  0  0  0  0  0  0  0  0
  1  2  1  0
  2  3  1  0
  2 11  1  0
  3  4  1  0
  4  5  2  0
  4  6  1  0
  6 10  1  0
  6  7  1  0
  7  8  1  0
  8  9  1  0
  9 10  1  0
 11 12  2  0
 11 13  1  0
 13 14  1  0
 14 15  1  0
 15 16  1  0
 16 26  1  0
 16 17  2  0
 17 18  1  0
 18 19  2  0
 19 25  1  0
 19 20  1  0
 20 21  2  0
 21 22  1  0
 22 23  2  0
 23 24  1  0
 23 25  1  0
 25 26  2  0
M  END
>  <original SMILES>  (4) 
CC(NC(=O)C1CCCC1)C(=O)OCOc1cnc2nccc(Br)c2c1

>  <ref_pdb>  (4) 
Combi54.pdb

>  <ref_mols>  (4) 
x0054_0A,x0054_1A

>  <Glide GScore>  (4) 
-6.18794241775764

>  <RMSLigA>  (4) 
0.818781422774057

>  <RMSLigB>  (4) 
1.82057737865276

$$$$
Combi54_000118
     RDKit          3D

 27 29  0  0  1  0  0  0  0  0999 V2000
    2.7417   12.7164   -4.7688 C   0  0  0  0  0  0  0  0  0  0  0  0
    1.4171   12.9852   -5.4979 C   0  0  0  0  0  0  0  0  0  0  0  0
    0.7929   11.7488   -5.9431 N   0  0  0  0  0  0  0  0  0  0  0  0
    0.9240   11.2296   -7.1704 C   0  0  0  0  0  0  0  0  0  0  0  0
    1.6331   11.7426   -8.0389 O   0  0  0  0  0  0  0  0  0  0  0  0
    0.1185    9.9532   -7.4566 C   0  0  0  0  0  0  0  0  0  0  0  0
   -0.8464   10.1362   -8.6476 C   0  0  0  0  0  0  0  0  0  0  0  0
   -0.2861    9.2835   -9.7876 C   0  0  0  0  0  0  0  0  0  0  0  0
    0.4067    8.1252   -9.0783 C   0  0  0  0  0  0  0  0  0  0  0  0
    1.0224    8.7571   -7.8287 C   0  0  0  0  0  0  0  0  0  0  0  0
    0.4580   13.8197   -4.6671 C   0  0  0  0  0  0  0  0  0  0  0  0
   -0.5286   13.3705   -4.0833 O   0  0  0  0  0  0  0  0  0  0  0  0
    0.8774   15.0870   -4.6364 O   0  0  0  0  0  0  0  0  0  0  0  0
    0.2418   15.8777   -3.5535 O   0  0  0  0  0  0  0  0  0  0  0  0
    1.0145   15.7528   -2.2879 O   0  0  0  0  0  0  0  0  0  0  0  0
    0.7196   14.4918   -1.5556 O   0  0  0  0  0  0  0  0  0  0  0  0
   -0.3575   14.7268   -0.7628 C   0  0  0  0  0  0  0  0  0  0  0  0
   -0.1859   15.0134    0.5966 C   0  0  0  0  0  0  0  0  0  0  0  0
   -1.2209   15.2605    1.4148 N   0  0  0  0  0  0  0  0  0  0  0  0
   -2.4919   15.2288    0.9517 C   0  0  0  0  0  0  0  0  0  0  0  0
   -3.5144   15.4368    1.7999 N   0  0  0  0  0  0  0  0  0  0  0  0
   -4.7864   15.3561    1.3721 C   0  0  0  0  0  0  0  0  0  0  0  0
   -5.1229   15.0968    0.0358 C   0  0  0  0  0  0  0  0  0  0  0  0
   -4.0816   14.8900   -0.8804 C   0  0  0  0  0  0  0  0  0  0  0  0
   -4.5083   14.4956   -2.6957 Br  0  0  0  0  0  0  0  0  0  0  0  0
   -2.7472   14.9531   -0.4203 C   0  0  0  0  0  0  0  0  0  0  0  0
   -1.6621   14.7084   -1.2853 C   0  0  0  0  0  0  0  0  0  0  0  0
  1  2  1  0
  2  3  1  0
  2 11  1  0
  3  4  1  0
  4  5  2  0
  4  6  1  0
  6 10  1  0
  6  7  1  0
  7  8  1  0
  8  9  1  0
  9 10  1  0
 11 12  2  0
 11 13  1  0
 13 14  1  0
 14 15  1  0
 15 16  1  0
 16 17  1  0
 17 27  1  0
 17 18  2  0
 18 19  1  0
 19 20  2  0
 20 26  1  0
 20 21  1  0
 21 22  2  0
 22 23  1  0
 23 24  2  0
 24 25  1  0
 24 26  1  0
 26 27  2  0
M  END
>  <original SMILES>  (5) 
CC(NC(=O)C1CCCC1)C(=O)OOOOc1cnc2nccc(Br)c2c1

>  <ref_pdb>  (5) 
Combi54.pdb

>  <ref_mols>  (5) 
x0054_0A,x0054_1A

>  <Glide GScore>  (5) 
-5.99847780675409

>  <RMSLigA>  (5) 
0.832804207289881

>  <RMSLigB>  (5) 
1.83422464893365

$$$$
Combi54_000112
     RDKit          3D

 27 29  0  0  1  0  0  0  0  0999 V2000
    2.6260   12.5539   -4.7741 C   0  0  0  0  0  0  0  0  0  0  0  0
    1.3435   12.8538   -5.5692 C   0  0  0  0  0  0  0  0  0  0  0  0
    0.6727   11.6414   -6.0296 N   0  0  0  0  0  0  0  0  0  0  0  0
    0.8406   11.0784   -7.2343 C   0  0  0  0  0  0  0  0  0  0  0  0
    1.6353   11.5252   -8.0606 O   0  0  0  0  0  0  0  0  0  0  0  0
   -0.0111    9.8534   -7.5979 C   0  0  0  0  0  0  0  0  0  0  0  0
    0.8041    8.5478   -7.6489 C   0  0  0  0  0  0  0  0  0  0  0  0
   -0.1343    7.4335   -7.1587 C   0  0  0  0  0  0  0  0  0  0  0  0
   -1.5081    8.0851   -6.9790 C   0  0  0  0  0  0  0  0  0  0  0  0
   -1.1936    9.5441   -6.6652 C   0  0  0  0  0  0  0  0  0  0  0  0
    0.3926   13.7466   -4.7903 C   0  0  0  0  0  0  0  0  0  0  0  0
   -0.7341   13.4046   -4.4198 O   0  0  0  0  0  0  0  0  0  0  0  0
    1.0011   14.9361   -4.5607 O   0  0  0  0  0  0  0  0  0  0  0  0
    0.3880   15.7676   -3.6414 C   0  0  0  0  0  0  0  0  0  0  0  0
    0.8356   17.1088   -3.8001 N   0  0  0  0  0  0  0  0  0  0  0  0
    0.6786   15.3620   -2.2762 N   0  0  0  0  0  0  0  0  0  0  0  0
   -0.3133   15.1939   -1.3041 C   0  0  0  0  0  0  0  0  0  0  0  0
    0.0017   15.3534    0.0576 C   0  0  0  0  0  0  0  0  0  0  0  0
   -0.9298   15.3524    1.0291 N   0  0  0  0  0  0  0  0  0  0  0  0
   -2.2363   15.1822    0.7212 C   0  0  0  0  0  0  0  0  0  0  0  0
   -3.1653   15.2229    1.6938 N   0  0  0  0  0  0  0  0  0  0  0  0
   -4.4687   15.0497    1.4005 C   0  0  0  0  0  0  0  0  0  0  0  0
   -4.9374   14.8170    0.1018 C   0  0  0  0  0  0  0  0  0  0  0  0
   -3.9986   14.7625   -0.9345 C   0  0  0  0  0  0  0  0  0  0  0  0
   -4.6088   14.4543   -2.7138 Br  0  0  0  0  0  0  0  0  0  0  0  0
   -2.6342   14.9542   -0.6258 C   0  0  0  0  0  0  0  0  0  0  0  0
   -1.6590   14.9422   -1.6367 C   0  0  0  0  0  0  0  0  0  0  0  0
  1  2  1  0
  2  3  1  0
  2 11  1  0
  3  4  1  0
  4  5  2  0
  4  6  1  0
  6 10  1  0
  6  7  1  0
  7  8  1  0
  8  9  1  0
  9 10  1  0
 11 12  2  0
 11 13  1  0
 13 14  1  0
 14 15  1  0
 14 16  1  0
 16 17  1  0
 17 27  1  0
 17 18  2  0
 18 19  1  0
 19 20  2  0
 20 26  1  0
 20 21  1  0
 21 22  2  0
 22 23  1  0
 23 24  2  0
 24 25  1  0
 24 26  1  0
 26 27  2  0
M  END
>  <original SMILES>  (6) 
CC(NC(=O)C1CCCC1)C(=O)OC(N)Nc1cnc2nccc(Br)c2c1

>  <ref_pdb>  (6) 
Combi54.pdb

>  <ref_mols>  (6) 
x0054_0A,x0054_1A

>  <Glide GScore>  (6) 
-5.72883585318877

>  <RMSLigA>  (6) 
1.02523452601526

>  <RMSLigB>  (6) 
1.94518175015993

$$$$
Combi54_000125
     RDKit          3D

 26 28  0  0  1  0  0  0  0  0999 V2000
   -1.9957   12.2102   -5.2913 C   0  0  0  0  0  0  0  0  0  0  0  0
   -0.9991   11.2041   -4.6761 C   0  0  0  0  0  0  0  0  0  0  0  0
   -0.4467   10.3236   -5.7089 N   0  0  0  0  0  0  0  0  0  0  0  0
    0.3257   10.6534   -6.7596 C   0  0  0  0  0  0  0  0  0  0  0  0
    0.8348   11.7601   -6.8973 O   0  0  0  0  0  0  0  0  0  0  0  0
    0.5869    9.5778   -7.8249 C   0  0  0  0  0  0  0  0  0  0  0  0
    0.6604    8.1529   -7.2518 C   0  0  0  0  0  0  0  0  0  0  0  0
   -0.6658    7.4878   -7.6158 C   0  0  0  0  0  0  0  0  0  0  0  0
   -1.0140    8.0955   -8.9718 C   0  0  0  0  0  0  0  0  0  0  0  0
   -0.5250    9.5474   -8.8964 C   0  0  0  0  0  0  0  0  0  0  0  0
    0.0893   11.8427   -3.7753 C   0  0  0  0  0  0  0  0  0  0  0  0
    0.7914   11.1866   -3.0012 O   0  0  0  0  0  0  0  0  0  0  0  0
    0.1251   13.1960   -3.9329 O   0  0  0  0  0  0  0  0  0  0  0  0
    1.0232   13.9847   -3.1081 N   0  0  0  0  0  0  0  0  0  0  0  0
    0.8334   13.6432   -1.7154 O   0  0  0  0  0  0  0  0  0  0  0  0
   -0.1567   14.3650   -1.0921 C   0  0  0  0  0  0  0  0  0  0  0  0
    0.0757   14.8621    0.2033 C   0  0  0  0  0  0  0  0  0  0  0  0
   -0.9004   15.3382    0.9998 N   0  0  0  0  0  0  0  0  0  0  0  0
   -2.1819   15.3535    0.5668 C   0  0  0  0  0  0  0  0  0  0  0  0
   -3.1648   15.7466    1.4003 N   0  0  0  0  0  0  0  0  0  0  0  0
   -4.4451   15.7531    0.9966 C   0  0  0  0  0  0  0  0  0  0  0  0
   -4.8328   15.4047   -0.3036 C   0  0  0  0  0  0  0  0  0  0  0  0
   -3.8378   14.9981   -1.2035 C   0  0  0  0  0  0  0  0  0  0  0  0
   -4.3425   14.5202   -2.9779 Br  0  0  0  0  0  0  0  0  0  0  0  0
   -2.4948   14.9532   -0.7637 C   0  0  0  0  0  0  0  0  0  0  0  0
   -1.4673   14.4759   -1.6024 C   0  0  0  0  0  0  0  0  0  0  0  0
  1  2  1  0
  2  3  1  0
  2 11  1  0
  3  4  1  0
  4  5  2  0
  4  6  1  0
  6 10  1  0
  6  7  1  0
  7  8  1  0
  8  9  1  0
  9 10  1  0
 11 12  2  0
 11 13  1  0
 13 14  1  0
 14 15  1  0
 15 16  1  0
 16 26  1  0
 16 17  2  0
 17 18  1  0
 18 19  2  0
 19 25  1  0
 19 20  1  0
 20 21  2  0
 21 22  1  0
 22 23  2  0
 23 24  1  0
 23 25  1  0
 25 26  2  0
M  END
>  <original SMILES>  (7) 
CC(NC(=O)C1CCCC1)C(=O)ONOc1cnc2nccc(Br)c2c1

>  <ref_pdb>  (7) 
Combi54.pdb

>  <ref_mols>  (7) 
x0054_0A,x0054_1A

>  <Glide GScore>  (7) 
-5.43254950055297

>  <RMSLigA>  (7) 
0.83724529840478

>  <RMSLigB>  (7) 
1.68990493423772

$$$$
Combi54_000143
     RDKit          3D

 28 30  0  0  1  0  0  0  0  0999 V2000
   -1.9124   11.0308   -3.6844 C   0  0  0  0  0  0  0  0  0  0  0  0
   -0.4471   11.1315   -4.1150 C   0  0  0  0  0  0  0  0  0  0  0  0
   -0.3493   10.9999   -5.5740 N   0  0  0  0  0  0  0  0  0  0  0  0
    0.6022   11.3997   -6.4371 C   0  0  0  0  0  0  0  0  0  0  0  0
    1.5308   12.1535   -6.1438 O   0  0  0  0  0  0  0  0  0  0  0  0
    0.4935   10.8832   -7.8832 C   0  0  0  0  0  0  0  0  0  0  0  0
    1.1582    9.5077   -8.0448 C   0  0  0  0  0  0  0  0  0  0  0  0
    0.0551    8.4897   -7.7357 C   0  0  0  0  0  0  0  0  0  0  0  0
   -1.2700    9.1709   -8.1107 C   0  0  0  0  0  0  0  0  0  0  0  0
   -0.9468   10.6514   -8.3776 C   0  0  0  0  0  0  0  0  0  0  0  0
    0.2836   12.3122   -3.4488 C   0  0  0  0  0  0  0  0  0  0  0  0
    1.2179   12.1523   -2.6576 O   0  0  0  0  0  0  0  0  0  0  0  0
   -0.2841   13.5062   -3.8323 O   0  0  0  0  0  0  0  0  0  0  0  0
    0.3044   14.7180   -3.4184 C   0  0  0  0  0  0  0  0  0  0  0  0
   -0.5651   15.8360   -4.0238 C   0  0  0  0  0  0  0  0  0  0  0  0
    1.6404   14.8364   -3.9195 N   0  0  0  0  0  0  0  0  0  0  0  0
    0.4349   14.9561   -1.6017 S   0  0  0  0  0  0  0  0  0  0  0  0
   -1.1317   14.9535   -0.7800 C   0  0  0  0  0  0  0  0  0  0  0  0
   -1.1975   15.3467    0.5678 C   0  0  0  0  0  0  0  0  0  0  0  0
   -2.3405   15.3532    1.2762 N   0  0  0  0  0  0  0  0  0  0  0  0
   -3.5096   15.0039    0.6921 C   0  0  0  0  0  0  0  0  0  0  0  0
   -4.6557   15.0476    1.3990 N   0  0  0  0  0  0  0  0  0  0  0  0
   -5.8180   14.6677    0.8421 C   0  0  0  0  0  0  0  0  0  0  0  0
   -5.9214   14.2465   -0.4905 C   0  0  0  0  0  0  0  0  0  0  0  0
   -4.7526   14.2076   -1.2655 C   0  0  0  0  0  0  0  0  0  0  0  0
   -4.8665   13.6502   -3.0850 Br  0  0  0  0  0  0  0  0  0  0  0  0
   -3.5275   14.5877   -0.6726 C   0  0  0  0  0  0  0  0  0  0  0  0
   -2.3230   14.5524   -1.4063 C   0  0  0  0  0  0  0  0  0  0  0  0
  1  2  1  0
  2  3  1  0
  2 11  1  0
  3  4  1  0
  4  5  2  0
  4  6  1  0
  6 10  1  0
  6  7  1  0
  7  8  1  0
  8  9  1  0
  9 10  1  0
 11 12  2  0
 11 13  1  0
 13 14  1  0
 14 15  1  0
 14 16  1  0
 14 17  1  0
 17 18  1  0
 18 28  1  0
 18 19  2  0
 19 20  1  0
 20 21  2  0
 21 27  1  0
 21 22  1  0
 22 23  2  0
 23 24  1  0
 24 25  2  0
 25 26  1  0
 25 27  1  0
 27 28  2  0
M  END
>  <original SMILES>  (8) 
CC(NC(=O)C1CCCC1)C(=O)OC(C)(N)Sc1cnc2nccc(Br)c2c1

>  <ref_pdb>  (8) 
Combi54.pdb

>  <ref_mols>  (8) 
x0054_0A,x0054_1A

>  <Glide GScore>  (8) 
-5.37085517756985

>  <RMSLigA>  (8) 
1.64929692518848

>  <RMSLigB>  (8) 
1.86175263584334

$$$$
Combi54_000144
     RDKit          3D

 27 29  0  0  1  0  0  0  0  0999 V2000
   -1.9239   11.8903   -3.9738 C   0  0  0  0  0  0  0  0  0  0  0  0
   -0.5096   12.0576   -4.5637 C   0  0  0  0  0  0  0  0  0  0  0  0
   -0.3627   10.9805   -5.5396 N   0  0  0  0  0  0  0  0  0  0  0  0
    0.4580   10.9535   -6.5994 C   0  0  0  0  0  0  0  0  0  0  0  0
    1.2350   11.8650   -6.8709 O   0  0  0  0  0  0  0  0  0  0  0  0
    0.4110    9.7112   -7.5040 C   0  0  0  0  0  0  0  0  0  0  0  0
    0.1816    8.3864   -6.7474 C   0  0  0  0  0  0  0  0  0  0  0  0
   -1.2878    8.0340   -6.9756 C   0  0  0  0  0  0  0  0  0  0  0  0
   -1.5662    8.5318   -8.3919 C   0  0  0  0  0  0  0  0  0  0  0  0
   -0.7259    9.8055   -8.5456 C   0  0  0  0  0  0  0  0  0  0  0  0
    0.5052   11.8845   -3.3974 C   0  0  0  0  0  0  0  0  0  0  0  0
    0.4359   10.9536   -2.5997 O   0  0  0  0  0  0  0  0  0  0  0  0
    1.4707   12.8380   -3.2641 O   0  0  0  0  0  0  0  0  0  0  0  0
    1.7456   13.8717   -4.2011 C   0  0  0  0  0  0  0  0  0  0  0  0
    0.9944   15.5448   -3.8919 S   0  0  0  0  0  0  0  0  0  0  0  0
   -0.0747   15.7532   -4.9658 O   0  0  0  0  0  0  0  0  0  0  0  0
    0.0822   15.2133   -2.3424 C   0  0  0  0  0  0  0  0  0  0  0  0
    0.7038   15.3520   -1.0922 C   0  0  0  0  0  0  0  0  0  0  0  0
    0.0346   15.2435    0.0719 N   0  0  0  0  0  0  0  0  0  0  0  0
   -1.3071   15.0617    0.0719 C   0  0  0  0  0  0  0  0  0  0  0  0
   -1.9844   15.0617    1.2424 N   0  0  0  0  0  0  0  0  0  0  0  0
   -3.3271   14.9512    1.2431 C   0  0  0  0  0  0  0  0  0  0  0  0
   -4.0847   14.7928    0.0757 C   0  0  0  0  0  0  0  0  0  0  0  0
   -3.4126   14.7625   -1.1525 C   0  0  0  0  0  0  0  0  0  0  0  0
   -4.4242   14.5528   -2.7541 Br  0  0  0  0  0  0  0  0  0  0  0  0
   -2.0079   14.9116   -1.1639 C   0  0  0  0  0  0  0  0  0  0  0  0
   -1.2949   14.9537   -2.3819 C   0  0  0  0  0  0  0  0  0  0  0  0
  1  2  1  0
  2  3  1  0
  2 11  1  0
  3  4  1  0
  4  5  2  0
  4  6  1  0
  6 10  1  0
  6  7  1  0
  7  8  1  0
  8  9  1  0
  9 10  1  0
 11 12  2  0
 11 13  1  0
 13 14  1  0
 14 15  1  0
 15 16  2  0
 15 17  1  0
 17 27  1  0
 17 18  2  0
 18 19  1  0
 19 20  2  0
 20 26  1  0
 20 21  1  0
 21 22  2  0
 22 23  1  0
 23 24  2  0
 24 25  1  0
 24 26  1  0
 26 27  2  0
M  END
>  <original SMILES>  (9) 
CC(NC(=O)C1CCCC1)C(=O)OCS(=O)c1cnc2nccc(Br)c2c1

>  <ref_pdb>  (9) 
Combi54.pdb

>  <ref_mols>  (9) 
x0054_0A,x0054_1A

>  <Glide GScore>  (9) 
-4.36222031815618

>  <RMSLigA>  (9) 
1.61230973409992

>  <RMSLigB>  (9) 
1.36023694876823

$$$$
Combi54_000081
     RDKit          3D

 30 32  0  0  1  0  0  0  0  0999 V2000
    0.8344   17.1142   -4.3966 C   0  0  0  0  0  0  0  0  0  0  0  0
    0.8623   15.6991   -4.9836 C   0  0  0  0  0  0  0  0  0  0  0  0
    1.3440   14.6002   -4.0372 C   0  0  0  0  0  0  0  0  0  0  0  0
    2.4350   14.0607   -4.1997 O   0  0  0  0  0  0  0  0  0  0  0  0
    0.3760   14.1147   -2.9549 C   0  0  0  0  0  0  0  0  0  0  0  0
    0.3972   15.0136   -1.6986 C   0  0  0  0  0  0  0  0  0  0  0  0
   -0.8881   14.9534   -0.8931 C   0  0  0  0  0  0  0  0  0  0  0  0
   -0.8668   14.9729    0.5126 C   0  0  0  0  0  0  0  0  0  0  0  0
   -1.9879   14.9886    1.2604 N   0  0  0  0  0  0  0  0  0  0  0  0
   -3.2053   14.9552    0.6633 C   0  0  0  0  0  0  0  0  0  0  0  0
   -4.3286   14.9809    1.4004 N   0  0  0  0  0  0  0  0  0  0  0  0
   -5.5440   14.9007    0.8337 C   0  0  0  0  0  0  0  0  0  0  0  0
   -5.7251   14.7896   -0.5503 C   0  0  0  0  0  0  0  0  0  0  0  0
   -4.5818   14.7789   -1.3601 C   0  0  0  0  0  0  0  0  0  0  0  0
   -4.7836   14.5533   -3.2412 Br  0  0  0  0  0  0  0  0  0  0  0  0
   -3.3105   14.8922   -0.7531 C   0  0  0  0  0  0  0  0  0  0  0  0
   -2.1426   14.9343   -1.5292 C   0  0  0  0  0  0  0  0  0  0  0  0
    0.6756   12.7702   -2.5629 O   0  0  0  0  0  0  0  0  0  0  0  0
    0.3705   11.6563   -3.2970 C   0  0  0  0  0  0  0  0  0  0  0  0
    0.8337   10.5565   -2.9995 O   0  0  0  0  0  0  0  0  0  0  0  0
   -0.6795   11.8747   -4.4247 C   0  0  0  0  0  0  0  0  0  0  0  0
   -2.0789   11.8108   -3.7888 C   0  0  0  0  0  0  0  0  0  0  0  0
   -0.6324   10.8286   -5.4391 N   0  0  0  0  0  0  0  0  0  0  0  0
    0.1244   10.8639   -6.5440 C   0  0  0  0  0  0  0  0  0  0  0  0
    0.9817   11.7267   -6.7422 O   0  0  0  0  0  0  0  0  0  0  0  0
   -0.1796    9.7852   -7.5962 C   0  0  0  0  0  0  0  0  0  0  0  0
   -0.3315   10.3587   -9.0210 C   0  0  0  0  0  0  0  0  0  0  0  0
    0.2569    9.2965   -9.9486 C   0  0  0  0  0  0  0  0  0  0  0  0
    1.4111    8.7066   -9.1451 C   0  0  0  0  0  0  0  0  0  0  0  0
    0.9139    8.7023   -7.6950 C   0  0  0  0  0  0  0  0  0  0  0  0
  1  2  1  0
  2  3  1  0
  3  4  2  0
  3  5  1  0
  5  6  1  0
  5 18  1  0
  6  7  1  0
  7 17  1  0
  7  8  2  0
  8  9  1  0
  9 10  2  0
 10 16  1  0
 10 11  1  0
 11 12  2  0
 12 13  1  0
 13 14  2  0
 14 15  1  0
 14 16  1  0
 16 17  2  0
 18 19  1  0
 19 20  2  0
 19 21  1  0
 21 22  1  0
 21 23  1  0
 23 24  1  0
 24 25  2  0
 24 26  1  0
 26 30  1  0
 26 27  1  0
 27 28  1  0
 28 29  1  0
 29 30  1  0
M  END
>  <original SMILES>  (10) 
CCC(=O)C(Cc1cnc2nccc(Br)c2c1)OC(=O)C(C)NC(=O)C1CCCC1

>  <ref_pdb>  (10) 
Combi54.pdb

>  <ref_mols>  (10) 
x0054_0A,x0054_1A

>  <Glide GScore>  (10) 
-4.18239788958913

>  <RMSLigA>  (10) 
1.29500106728791

>  <RMSLigB>  (10) 
1.78902582864203

$$$$
Combi54_000114
     RDKit          3D

 27 29  0  0  1  0  0  0  0  0999 V2000
    1.9701   14.3500   -4.3159 C   0  0  0  0  0  0  0  0  0  0  0  0
    0.7547   14.1033   -3.4097 C   0  0  0  0  0  0  0  0  0  0  0  0
    0.8350   15.0039   -2.2750 N   0  0  0  0  0  0  0  0  0  0  0  0
   -0.1771   15.0617   -1.3106 C   0  0  0  0  0  0  0  0  0  0  0  0
    0.1367   15.2680    0.0453 C   0  0  0  0  0  0  0  0  0  0  0  0
   -0.7978   15.3532    1.0109 N   0  0  0  0  0  0  0  0  0  0  0  0
   -2.1109   15.2411    0.7039 C   0  0  0  0  0  0  0  0  0  0  0  0
   -3.0371   15.3282    1.6788 N   0  0  0  0  0  0  0  0  0  0  0  0
   -4.3470   15.2099    1.3917 C   0  0  0  0  0  0  0  0  0  0  0  0
   -4.8231   14.9877    0.0922 C   0  0  0  0  0  0  0  0  0  0  0  0
   -3.8884   14.8849   -0.9470 C   0  0  0  0  0  0  0  0  0  0  0  0
   -4.5079   14.5533   -2.7188 Br  0  0  0  0  0  0  0  0  0  0  0  0
   -2.5149   15.0194   -0.6435 C   0  0  0  0  0  0  0  0  0  0  0  0
   -1.5361   14.9435   -1.6535 C   0  0  0  0  0  0  0  0  0  0  0  0
    0.7586   12.7750   -2.9698 O   0  0  0  0  0  0  0  0  0  0  0  0
    0.3130   11.7513   -3.7713 C   0  0  0  0  0  0  0  0  0  0  0  0
    0.4349   10.5870   -3.3996 O   0  0  0  0  0  0  0  0  0  0  0  0
   -0.4403   12.1351   -5.0800 C   0  0  0  0  0  0  0  0  0  0  0  0
   -1.9350   12.2517   -4.7326 C   0  0  0  0  0  0  0  0  0  0  0  0
   -0.3227   11.0848   -6.0924 N   0  0  0  0  0  0  0  0  0  0  0  0
    0.6615   10.9859   -6.9997 C   0  0  0  0  0  0  0  0  0  0  0  0
    1.6267   11.7533   -7.0238 O   0  0  0  0  0  0  0  0  0  0  0  0
    0.4944    9.8901   -8.0637 C   0  0  0  0  0  0  0  0  0  0  0  0
    1.0183   10.2991   -9.4499 C   0  0  0  0  0  0  0  0  0  0  0  0
    1.3083    8.9726  -10.1481 C   0  0  0  0  0  0  0  0  0  0  0  0
    1.8553    8.0702   -9.0416 C   0  0  0  0  0  0  0  0  0  0  0  0
    1.2455    8.5879   -7.7303 C   0  0  0  0  0  0  0  0  0  0  0  0
  1  2  1  0
  2  3  1  0
  2 15  1  0
  3  4  1  0
  4 14  1  0
  4  5  2  0
  5  6  1  0
  6  7  2  0
  7 13  1  0
  7  8  1  0
  8  9  2  0
  9 10  1  0
 10 11  2  0
 11 12  1  0
 11 13  1  0
 13 14  2  0
 15 16  1  0
 16 17  2  0
 16 18  1  0
 18 19  1  0
 18 20  1  0
 20 21  1  0
 21 22  2  0
 21 23  1  0
 23 27  1  0
 23 24  1  0
 24 25  1  0
 25 26  1  0
 26 27  1  0
M  END
>  <original SMILES>  (11) 
CC(Nc1cnc2nccc(Br)c2c1)OC(=O)C(C)NC(=O)C1CCCC1

>  <ref_pdb>  (11) 
Combi54.pdb

>  <ref_mols>  (11) 
x0054_0A,x0054_1A

>  <Glide GScore>  (11) 
-3.88746473562638

>  <RMSLigA>  (11) 
0.957034147593254

>  <RMSLigB>  (11) 
1.88170439224597

$$$$
Combi54_000050
     RDKit          3D

 29 32  0  0  1  0  0  0  0  0999 V2000
    1.7909   12.1531   -5.9546 C   0  0  0  0  0  0  0  0  0  0  0  0
    0.4614   11.8015   -5.2575 C   0  0  0  0  0  0  0  0  0  0  0  0
    0.0343   10.4622   -5.6499 N   0  0  0  0  0  0  0  0  0  0  0  0
   -0.4943   10.1080   -6.8274 C   0  0  0  0  0  0  0  0  0  0  0  0
   -0.6509   10.9028   -7.7537 O   0  0  0  0  0  0  0  0  0  0  0  0
   -0.8946    8.6300   -6.9674 C   0  0  0  0  0  0  0  0  0  0  0  0
   -2.1568    8.4333   -7.8272 C   0  0  0  0  0  0  0  0  0  0  0  0
   -1.6434    8.1046   -9.2281 C   0  0  0  0  0  0  0  0  0  0  0  0
   -0.3948    7.2634   -8.9716 C   0  0  0  0  0  0  0  0  0  0  0  0
    0.2080    7.8048   -7.6680 C   0  0  0  0  0  0  0  0  0  0  0  0
    0.5179   11.8649   -3.7072 C   0  0  0  0  0  0  0  0  0  0  0  0
    0.4348   10.8637   -2.9994 O   0  0  0  0  0  0  0  0  0  0  0  0
    0.6407   13.0856   -3.1356 O   0  0  0  0  0  0  0  0  0  0  0  0
    0.9681   14.3178   -3.7718 C   0  0  0  0  0  0  0  0  0  0  0  0
   -0.0149   14.8452   -4.8365 C   0  0  0  0  0  0  0  0  0  0  0  0
   -0.1916   16.3484   -4.6250 C   0  0  0  0  0  0  0  0  0  0  0  0
    0.8353   16.7028   -3.5617 C   0  0  0  0  0  0  0  0  0  0  0  0
    1.0362   15.4349   -2.7223 C   0  0  0  0  0  0  0  0  0  0  0  0
    0.0306   15.2480   -1.5794 C   0  0  0  0  0  0  0  0  0  0  0  0
    0.4220   15.3534   -0.2312 C   0  0  0  0  0  0  0  0  0  0  0  0
   -0.4443   15.2538    0.7987 N   0  0  0  0  0  0  0  0  0  0  0  0
   -1.7653   15.0630    0.5658 C   0  0  0  0  0  0  0  0  0  0  0  0
   -2.6376   15.0012    1.5946 N   0  0  0  0  0  0  0  0  0  0  0  0
   -3.9566   14.8502    1.3551 C   0  0  0  0  0  0  0  0  0  0  0  0
   -4.4960   14.7122    0.0713 C   0  0  0  0  0  0  0  0  0  0  0  0
   -3.6172   14.7322   -1.0157 C   0  0  0  0  0  0  0  0  0  0  0  0
   -4.3232   14.5365   -2.7763 Br  0  0  0  0  0  0  0  0  0  0  0  0
   -2.2385   14.9138   -0.7687 C   0  0  0  0  0  0  0  0  0  0  0  0
   -1.3237   14.9535   -1.8323 C   0  0  0  0  0  0  0  0  0  0  0  0
  1  2  1  0
  2  3  1  0
  2 11  1  0
  3  4  1  0
  4  5  2  0
  4  6  1  0
  6 10  1  0
  6  7  1  0
  7  8  1  0
  8  9  1  0
  9 10  1  0
 11 12  2  0
 11 13  1  0
 13 14  1  0
 14 18  1  0
 14 15  1  0
 15 16  1  0
 16 17  1  0
 17 18  1  0
 18 19  1  0
 19 29  1  0
 19 20  2  0
 20 21  1  0
 21 22  2  0
 22 28  1  0
 22 23  1  0
 23 24  2  0
 24 25  1  0
 25 26  2  0
 26 27  1  0
 26 28  1  0
 28 29  2  0
M  END
>  <original SMILES>  (12) 
CC(NC(=O)C1CCCC1)C(=O)OC1CCCC1c1cnc2nccc(Br)c2c1

>  <ref_pdb>  (12) 
Combi54.pdb

>  <ref_mols>  (12) 
x0054_0A,x0054_1A

>  <Glide GScore>  (12) 
-3.78968810369041

>  <RMSLigA>  (12) 
1.11797553830789

>  <RMSLigB>  (12) 
1.82574288518377

$$$$
Combi54_000157
     RDKit          3D

 28 30  0  0  1  0  0  0  0  0999 V2000
    2.7512   12.5732   -4.8676 C   0  0  0  0  0  0  0  0  0  0  0  0
    1.4111   12.8845   -5.5621 C   0  0  0  0  0  0  0  0  0  0  0  0
    0.7185   11.6709   -5.9836 N   0  0  0  0  0  0  0  0  0  0  0  0
    0.8583   11.0704   -7.1721 C   0  0  0  0  0  0  0  0  0  0  0  0
    1.6248   11.4944   -8.0397 O   0  0  0  0  0  0  0  0  0  0  0  0
    0.0177    9.8055   -7.4109 C   0  0  0  0  0  0  0  0  0  0  0  0
   -0.7661    9.8654   -8.7434 C   0  0  0  0  0  0  0  0  0  0  0  0
   -0.2269    8.7347   -9.6324 C   0  0  0  0  0  0  0  0  0  0  0  0
    1.1146    8.3392   -9.0201 C   0  0  0  0  0  0  0  0  0  0  0  0
    0.9089    8.5550   -7.5234 C   0  0  0  0  0  0  0  0  0  0  0  0
    0.5000   13.7601   -4.7143 C   0  0  0  0  0  0  0  0  0  0  0  0
   -0.7232   13.5967   -4.6145 O   0  0  0  0  0  0  0  0  0  0  0  0
    1.2627   14.7198   -4.1222 O   0  0  0  0  0  0  0  0  0  0  0  0
    0.7005   15.3634   -3.0986 C   0  0  0  0  0  0  0  0  0  0  0  0
    0.4350   16.5552   -3.1800 O   0  0  0  0  0  0  0  0  0  0  0  0
    0.5689   14.5548   -1.9571 N   0  0  0  0  0  0  0  0  0  0  0  0
    1.1211   13.3363   -1.7332 O   0  0  0  0  0  0  0  0  0  0  0  0
   -0.4591   14.8094   -1.0302 C   0  0  0  0  0  0  0  0  0  0  0  0
   -0.1863   15.0949    0.3182 C   0  0  0  0  0  0  0  0  0  0  0  0
   -1.1615   15.3311    1.2218 N   0  0  0  0  0  0  0  0  0  0  0  0
   -2.4635   15.2474    0.8521 C   0  0  0  0  0  0  0  0  0  0  0  0
   -3.4331   15.4209    1.7717 N   0  0  0  0  0  0  0  0  0  0  0  0
   -4.7298   15.3315    1.4199 C   0  0  0  0  0  0  0  0  0  0  0  0
   -5.1556   15.0713    0.1115 C   0  0  0  0  0  0  0  0  0  0  0  0
   -4.1763   14.8775   -0.8699 C   0  0  0  0  0  0  0  0  0  0  0  0
   -4.7224   14.5082   -2.6581 Br  0  0  0  0  0  0  0  0  0  0  0  0
   -2.8162   14.9597   -0.4991 C   0  0  0  0  0  0  0  0  0  0  0  0
   -1.7986   14.7450   -1.4459 C   0  0  0  0  0  0  0  0  0  0  0  0
  1  2  1  0
  2  3  1  0
  2 11  1  0
  3  4  1  0
  4  5  2  0
  4  6  1  0
  6 10  1  0
  6  7  1  0
  7  8  1  0
  8  9  1  0
  9 10  1  0
 11 12  2  0
 11 13  1  0
 13 14  1  0
 14 15  2  0
 14 16  1  0
 16 17  1  0
 16 18  1  0
 18 28  1  0
 18 19  2  0
 19 20  1  0
 20 21  2  0
 21 27  1  0
 21 22  1  0
 22 23  2  0
 23 24  1  0
 24 25  2  0
 25 26  1  0
 25 27  1  0
 27 28  2  0
M  CHG  1  17  -1
M  END
>  <original SMILES>  (13) 
CC(NC(=O)C1CCCC1)C(=O)OC(=O)N([O-])c1cnc2nccc(Br)c2c1

>  <ref_pdb>  (13) 
Combi54.pdb

>  <ref_mols>  (13) 
x0054_0A,x0054_1A

>  <Glide GScore>  (13) 
-3.31988525926289

>  <RMSLigA>  (13) 
0.96783608899305

>  <RMSLigB>  (13) 
1.86845829958988

$$$$
Combi54_000105
     RDKit          3D

 30 32  0  0  1  0  0  0  0  0999 V2000
    0.6134   16.3164   -4.1843 C   0  0  0  0  0  0  0  0  0  0  0  0
    0.9534   14.8911   -3.7558 C   0  0  0  0  0  0  0  0  0  0  0  0
    1.9567   14.3308   -4.1993 O   0  0  0  0  0  0  0  0  0  0  0  0
   -0.0307   14.1693   -2.8083 C   0  0  0  0  0  0  0  0  0  0  0  0
    0.4439   12.8553   -2.5015 O   0  0  0  0  0  0  0  0  0  0  0  0
    0.2444   11.7439   -3.2626 C   0  0  0  0  0  0  0  0  0  0  0  0
    0.8210   10.6905   -2.9987 O   0  0  0  0  0  0  0  0  0  0  0  0
   -0.8324   11.8866   -4.3737 C   0  0  0  0  0  0  0  0  0  0  0  0
   -2.2179   11.7249   -3.7260 C   0  0  0  0  0  0  0  0  0  0  0  0
   -0.7317   10.8251   -5.3648 N   0  0  0  0  0  0  0  0  0  0  0  0
    0.0519   10.8375   -6.4493 C   0  0  0  0  0  0  0  0  0  0  0  0
    0.8411   11.7521   -6.6873 O   0  0  0  0  0  0  0  0  0  0  0  0
   -0.1277    9.6658   -7.4316 C   0  0  0  0  0  0  0  0  0  0  0  0
    1.1391    9.3140   -8.2407 C   0  0  0  0  0  0  0  0  0  0  0  0
    1.2979    7.7898   -8.1667 C   0  0  0  0  0  0  0  0  0  0  0  0
   -0.0570    7.2585   -7.7091 C   0  0  0  0  0  0  0  0  0  0  0  0
   -0.5563    8.3440   -6.7656 C   0  0  0  0  0  0  0  0  0  0  0  0
   -0.1627   14.9121   -1.4637 C   0  0  0  0  0  0  0  0  0  0  0  0
    0.8383   15.3707   -0.9224 O   0  0  0  0  0  0  0  0  0  0  0  0
   -1.4896   14.9536   -0.7859 C   0  0  0  0  0  0  0  0  0  0  0  0
   -1.5479   15.2756    0.5861 C   0  0  0  0  0  0  0  0  0  0  0  0
   -2.6930   15.3300    1.2893 N   0  0  0  0  0  0  0  0  0  0  0  0
   -3.8784   15.0870    0.6874 C   0  0  0  0  0  0  0  0  0  0  0  0
   -5.0216   15.1285    1.4003 N   0  0  0  0  0  0  0  0  0  0  0  0
   -6.2031   14.8666    0.8169 C   0  0  0  0  0  0  0  0  0  0  0  0
   -6.3297   14.5759   -0.5481 C   0  0  0  0  0  0  0  0  0  0  0  0
   -5.1642   14.5425   -1.3271 C   0  0  0  0  0  0  0  0  0  0  0  0
   -5.3112   14.1498   -3.1870 Br  0  0  0  0  0  0  0  0  0  0  0  0
   -3.9187   14.7958   -0.7077 C   0  0  0  0  0  0  0  0  0  0  0  0
   -2.7174   14.7498   -1.4467 C   0  0  0  0  0  0  0  0  0  0  0  0
  1  2  1  0
  2  3  2  0
  2  4  1  0
  4  5  1  0
  4 18  1  0
  5  6  1  0
  6  7  2  0
  6  8  1  0
  8  9  1  0
  8 10  1  0
 10 11  1  0
 11 12  2  0
 11 13  1  0
 13 17  1  0
 13 14  1  0
 14 15  1  0
 15 16  1  0
 16 17  1  0
 18 19  2  0
 18 20  1  0
 20 30  1  0
 20 21  2  0
 21 22  1  0
 22 23  2  0
 23 29  1  0
 23 24  1  0
 24 25  2  0
 25 26  1  0
 26 27  2  0
 27 28  1  0
 27 29  1  0
 29 30  2  0
M  END
>  <original SMILES>  (14) 
CC(=O)C(OC(=O)C(C)NC(=O)C1CCCC1)C(=O)c1cnc2nccc(Br)c2c1

>  <ref_pdb>  (14) 
Combi54.pdb

>  <ref_mols>  (14) 
x0054_0A,x0054_1A

>  <Glide GScore>  (14) 
-3.50238135752065

>  <RMSLigA>  (14) 
1.89345995827662

>  <RMSLigB>  (14) 
1.87197198496187

$$$$
