ver_1.2
     RDKit          2D

  1  0  0  0  0  0  0  0  0  0999 V2000
    0.0000    0.0000    0.0000 C   0  0  0  0  0  0  0  0  0  0  0  0
M  END
>  <ref_mols>  (1) 
Two inspiration fragments, order of X0003_0A (Lig A), X0003_1A (LigB), used for enumerating the compound designs from combisoak data

>  <ref_url>  (1) 
https://docs.google.com/document/d/1_MsEhKuhqbCONTLeQ_KZyKYpMG5UmMyJb8FyxqoWOmA/edit

>  <submitter_name>  (1) 
MCR

>  <submitter_email>  (1) 
bajusz.david@ttk.hu

>  <submitter_institution>  (1) 
Medicinal Chemistry Research Group - Budapest

>  <generation_date>  (1) 
2022-03-23

>  <method>  (1) 
2A-Combi03

>  <Glide GScore>  (1) 
Glide GScore

>  <RMSLigA>  (1) 
RMS between docking pose and ligand A

>  <RMSLigB>  (1) 
RMS between docking pose and ligand B

$$$$
Combi03_000076
     RDKit          3D

 30 31  0  0  1  0  0  0  0  0999 V2000
   -7.7795   15.1192    3.8040 C   0  0  0  0  0  0  0  0  0  0  0  0
   -6.5582   15.0963    2.9800 N   0  0  0  0  0  0  0  0  0  0  0  0
   -6.5369   14.0292    1.9676 C   0  0  0  0  0  0  0  0  0  0  0  0
   -5.3453   14.1586    1.0242 C   0  0  0  0  0  0  0  0  0  0  0  0
   -5.5312   13.8973   -0.1614 O   0  0  0  0  0  0  0  0  0  0  0  0
   -4.1791   14.5857    1.5569 N   0  0  0  0  0  0  0  0  0  0  0  0
   -2.8988   14.7038    0.9585 C   0  0  0  0  0  0  0  0  0  0  0  0
   -2.7346   14.7084   -0.4452 C   0  0  0  0  0  0  0  0  0  0  0  0
   -1.4426   14.6963   -0.9898 C   0  0  0  0  0  0  0  0  0  0  0  0
   -1.2890   14.5504   -2.4815 C   0  0  0  0  0  0  0  0  0  0  0  0
   -0.0991   15.1831   -3.0116 N   0  0  0  0  0  0  0  0  0  0  0  0
    0.6085   14.8275   -4.1464 C   0  0  0  0  0  0  0  0  0  0  0  0
    0.1534   13.5594   -4.8630 C   0  0  0  0  0  0  0  0  0  0  0  0
    0.8574   12.2275   -4.4831 C   0  0  2  0  0  0  0  0  0  0  0  0
    0.1702   11.1251   -5.1575 N   0  0  0  0  0  0  0  0  0  0  0  0
    0.2461   10.7940   -6.4530 C   0  0  0  0  0  0  0  0  0  0  0  0
    0.8910   11.4500   -7.2732 O   0  0  0  0  0  0  0  0  0  0  0  0
   -0.4850    9.5092   -6.8741 C   0  0  0  0  0  0  0  0  0  0  0  0
   -1.4801    9.7552   -8.0318 C   0  0  0  0  0  0  0  0  0  0  0  0
   -1.0025    8.9115   -9.2212 C   0  0  0  0  0  0  0  0  0  0  0  0
    0.4583    8.5811   -8.9262 C   0  0  0  0  0  0  0  0  0  0  0  0
    0.5030    8.4533   -7.4047 C   0  0  0  0  0  0  0  0  0  0  0  0
    1.0306   11.8678   -2.9900 C   0  0  0  0  0  0  0  0  0  0  0  0
    1.5667   12.6963   -2.2205 O   0  0  0  0  0  0  0  0  0  0  0  0
    0.6421   10.7360   -2.6201 O   0  0  0  0  0  0  0  0  0  0  0  0
    1.5993   15.4958   -4.6200 N   0  0  0  0  0  0  0  0  0  0  0  0
    1.8384   16.6557   -3.8201 O   0  0  0  0  0  0  0  0  0  0  0  0
   -0.3332   14.7341   -0.1239 C   0  0  0  0  0  0  0  0  0  0  0  0
   -0.5794   14.7888    1.2564 C   0  0  0  0  0  0  0  0  0  0  0  0
   -1.8259   14.7766    1.7799 N   0  0  0  0  0  0  0  0  0  0  0  0
  1  2  1  0
  2  3  1  0
  3  4  1  0
  4  5  2  0
  4  6  1  0
  6  7  1  0
  7 30  2  0
  7  8  1  0
  8  9  2  0
  9 10  1  0
  9 28  1  0
 10 11  1  0
 11 12  1  0
 12 13  1  0
 12 26  2  3
 14 13  1  1
 14 15  1  0
 14 23  1  0
 15 16  1  0
 16 17  2  0
 16 18  1  0
 18 22  1  0
 18 19  1  0
 19 20  1  0
 20 21  1  0
 21 22  1  0
 23 24  2  0
 23 25  1  0
 26 27  1  0
 28 29  2  0
 29 30  1  0
M  CHG  2   2   1  25  -1
M  END
>  <original SMILES>  (2) 
C[NH2+]CC(=O)Nc1cc(CNC(C[C@H](NC(=O)C2CCCC2)C(=O)[O-])=NO)ccn1

>  <ref_pdb>  (2) 
Combi03.pdb

>  <ref_mols>  (2) 
x0003_0A,x0003_1A

>  <Glide GScore>  (2) 
-9.52224239850452

>  <RMSLigA>  (2) 
1.11040535553955

>  <RMSLigB>  (2) 
1.08058441367659

$$$$
Combi03_000079
     RDKit          3D

 31 32  0  0  1  0  0  0  0  0999 V2000
   -7.7568   14.8271    3.7981 C   0  0  0  0  0  0  0  0  0  0  0  0
   -6.5580   15.0961    2.9799 N   0  0  0  0  0  0  0  0  0  0  0  0
   -6.3749   14.1625    1.8599 C   0  0  0  0  0  0  0  0  0  0  0  0
   -5.3021   14.6759    0.9105 C   0  0  0  0  0  0  0  0  0  0  0  0
   -5.6477   15.0957   -0.1914 O   0  0  0  0  0  0  0  0  0  0  0  0
   -4.0456   14.7083    1.3921 N   0  0  0  0  0  0  0  0  0  0  0  0
   -2.8235   14.8795    0.6961 C   0  0  0  0  0  0  0  0  0  0  0  0
   -2.7606   14.6968   -0.7045 C   0  0  0  0  0  0  0  0  0  0  0  0
   -1.5152   14.6977   -1.3517 C   0  0  0  0  0  0  0  0  0  0  0  0
   -1.4496   14.4669   -2.8447 C   0  0  0  0  0  0  0  0  0  0  0  0
   -0.6465   15.5370   -3.6386 C   0  0  0  0  0  0  0  0  0  0  0  0
    0.5522   14.9590   -4.4387 C   0  0  0  0  0  0  0  0  0  0  0  0
    0.2818   13.6484   -5.2104 C   0  0  0  0  0  0  0  0  0  0  0  0
    0.9831   12.3412   -4.7549 C   0  0  0  0  0  0  0  0  0  0  0  0
    0.3842   11.2259   -5.4864 N   0  0  0  0  0  0  0  0  0  0  0  0
    0.6417   10.8777   -6.7561 C   0  0  0  0  0  0  0  0  0  0  0  0
    1.4246   11.4963   -7.4806 O   0  0  0  0  0  0  0  0  0  0  0  0
   -0.0933    9.6335   -7.2811 C   0  0  0  0  0  0  0  0  0  0  0  0
   -1.1257    9.9969   -8.3730 C   0  0  0  0  0  0  0  0  0  0  0  0
   -0.6766    9.3074   -9.6684 C   0  0  0  0  0  0  0  0  0  0  0  0
    0.7855    8.9297   -9.4477 C   0  0  0  0  0  0  0  0  0  0  0  0
    0.8681    8.6340   -7.9509 C   0  0  0  0  0  0  0  0  0  0  0  0
    1.0509   12.0209   -3.2456 C   0  0  0  0  0  0  0  0  0  0  0  0
    1.8420   12.6960   -2.5479 O   0  0  0  0  0  0  0  0  0  0  0  0
    0.3164   11.1081   -2.7971 O   0  0  0  0  0  0  0  0  0  0  0  0
   -1.6078   16.3670   -4.5188 C   0  0  0  0  0  0  0  0  0  0  0  0
   -2.2379   15.7733   -5.4201 O   0  0  0  0  0  0  0  0  0  0  0  0
   -1.7574   17.5778   -4.2337 O   0  0  0  0  0  0  0  0  0  0  0  0
   -0.3528   14.8811   -0.5795 C   0  0  0  0  0  0  0  0  0  0  0  0
   -0.5034   15.0961    0.8008 C   0  0  0  0  0  0  0  0  0  0  0  0
   -1.7034   15.0962    1.4228 N   0  0  0  0  0  0  0  0  0  0  0  0
  1  2  1  0
  2  3  1  0
  3  4  1  0
  4  5  2  0
  4  6  1  0
  6  7  1  0
  7 31  2  0
  7  8  1  0
  8  9  2  0
  9 10  1  0
  9 29  1  0
 10 11  1  0
 11 12  1  0
 11 26  1  0
 12 13  1  0
 13 14  1  0
 14 15  1  0
 14 23  1  0
 15 16  1  0
 16 17  2  0
 16 18  1  0
 18 22  1  0
 18 19  1  0
 19 20  1  0
 20 21  1  0
 21 22  1  0
 23 24  2  0
 23 25  1  0
 26 27  2  0
 26 28  1  0
 29 30  2  0
 30 31  1  0
M  CHG  3   2   1  25  -1  28  -1
M  END
>  <original SMILES>  (3) 
C[NH2+]CC(=O)Nc1cc(CC(CCC(NC(=O)C2CCCC2)C(=O)[O-])C(=O)[O-])ccn1

>  <ref_pdb>  (3) 
Combi03.pdb

>  <ref_mols>  (3) 
x0003_0A,x0003_1A

>  <Glide GScore>  (3) 
-9.44987927984445

>  <RMSLigA>  (3) 
1.16523235304021

>  <RMSLigB>  (3) 
1.05554005279751

$$$$
Combi03_000027
     RDKit          3D

 30 31  0  0  1  0  0  0  0  0999 V2000
   -8.2816   13.1813    2.4366 C   0  0  0  0  0  0  0  0  0  0  0  0
   -6.8475   13.4911    2.5814 N   0  0  0  0  0  0  0  0  0  0  0  0
   -6.4978   14.9166    2.4318 C   0  0  0  0  0  0  0  0  0  0  0  0
   -5.4283   15.0583    1.3599 C   0  0  0  0  0  0  0  0  0  0  0  0
   -5.8125   15.0961    0.1943 O   0  0  0  0  0  0  0  0  0  0  0  0
   -4.1496   15.1306    1.7799 N   0  0  0  0  0  0  0  0  0  0  0  0
   -2.9438   15.0705    1.0157 C   0  0  0  0  0  0  0  0  0  0  0  0
   -2.9633   14.8926   -0.3913 C   0  0  0  0  0  0  0  0  0  0  0  0
   -1.7691   14.6784   -1.0974 C   0  0  0  0  0  0  0  0  0  0  0  0
   -1.8560   14.2582   -2.5556 C   0  0  0  0  0  0  0  0  0  0  0  0
   -1.2499   15.2347   -3.5652 C   0  0  0  0  0  0  0  0  0  0  0  0
   -1.9812   15.9804   -4.2179 O   0  0  0  0  0  0  0  0  0  0  0  0
    0.2784   15.2528   -3.7460 C   0  0  0  0  0  0  0  0  0  0  0  0
    0.7578   16.6524   -4.1710 C   0  0  0  0  0  0  0  0  0  0  0  0
    0.8024   14.1746   -4.7259 C   0  0  0  0  0  0  0  0  0  0  0  0
    0.4190   12.6939   -4.4570 C   0  0  0  0  0  0  0  0  0  0  0  0
    0.9591   11.8915   -5.5452 N   0  0  0  0  0  0  0  0  0  0  0  0
    0.2409   11.2593   -6.4860 C   0  0  0  0  0  0  0  0  0  0  0  0
   -0.9900   11.2363   -6.4953 O   0  0  0  0  0  0  0  0  0  0  0  0
    1.0349   10.5759   -7.6057 C   0  0  0  0  0  0  0  0  0  0  0  0
    0.9359    9.0383   -7.5478 C   0  0  0  0  0  0  0  0  0  0  0  0
    0.7451    8.5495   -8.9903 C   0  0  0  0  0  0  0  0  0  0  0  0
    0.9747    9.7742   -9.8800 C   0  0  0  0  0  0  0  0  0  0  0  0
    0.5456   10.9527   -9.0132 C   0  0  0  0  0  0  0  0  0  0  0  0
    0.8881   12.1285   -3.1008 C   0  0  0  0  0  0  0  0  0  0  0  0
    1.8430   12.6964   -2.5326 O   0  0  0  0  0  0  0  0  0  0  0  0
    0.2600   11.1582   -2.6210 O   0  0  0  0  0  0  0  0  0  0  0  0
   -0.5566   14.6960   -0.3807 C   0  0  0  0  0  0  0  0  0  0  0  0
   -0.6092   14.9442    1.0011 C   0  0  0  0  0  0  0  0  0  0  0  0
   -1.7661   15.0960    1.6826 N   0  0  0  0  0  0  0  0  0  0  0  0
  1  2  1  0
  2  3  1  0
  3  4  1  0
  4  5  2  0
  4  6  1  0
  6  7  1  0
  7 30  2  0
  7  8  1  0
  8  9  2  0
  9 10  1  0
  9 28  1  0
 10 11  1  0
 11 12  2  0
 11 13  1  0
 13 14  1  0
 13 15  1  0
 15 16  1  0
 16 17  1  0
 16 25  1  0
 17 18  1  0
 18 19  2  0
 18 20  1  0
 20 24  1  0
 20 21  1  0
 21 22  1  0
 22 23  1  0
 23 24  1  0
 25 26  2  0
 25 27  1  0
 28 29  2  0
 29 30  1  0
M  CHG  2   2   1  27  -1
M  END
>  <original SMILES>  (4) 
C[NH2+]CC(=O)Nc1cc(CC(=O)C(C)CC(NC(=O)C2CCCC2)C(=O)[O-])ccn1

>  <ref_pdb>  (4) 
Combi03.pdb

>  <ref_mols>  (4) 
x0003_0A,x0003_1A

>  <Glide GScore>  (4) 
-9.42324893048667

>  <RMSLigA>  (4) 
0.90445756645474

>  <RMSLigB>  (4) 
1.39297969715154

$$$$
Combi03_000043
     RDKit          3D

 32 33  0  0  1  0  0  0  0  0999 V2000
   -3.7124   14.6969   -5.1245 C   0  0  0  0  0  0  0  0  0  0  0  0
   -3.2831   15.4784   -3.8703 C   0  0  0  0  0  0  0  0  0  0  0  0
   -1.9142   15.1385   -3.4592 N   0  0  0  0  0  0  0  0  0  0  0  0
   -1.8474   14.1201   -2.4040 C   0  0  0  0  0  0  0  0  0  0  0  0
   -1.9375   14.6199   -0.9774 C   0  0  0  0  0  0  0  0  0  0  0  0
   -0.7766   14.8497   -0.2154 C   0  0  0  0  0  0  0  0  0  0  0  0
   -0.9262   15.0963    1.1555 C   0  0  0  0  0  0  0  0  0  0  0  0
   -2.1236   15.0949    1.7799 N   0  0  0  0  0  0  0  0  0  0  0  0
   -3.2520   14.8882    1.0659 C   0  0  0  0  0  0  0  0  0  0  0  0
   -4.4812   14.7809    1.7757 N   0  0  0  0  0  0  0  0  0  0  0  0
   -5.7300   14.6847    1.2726 C   0  0  0  0  0  0  0  0  0  0  0  0
   -6.0580   15.0381    0.1426 O   0  0  0  0  0  0  0  0  0  0  0  0
   -6.8291   14.2101    2.2160 C   0  0  0  0  0  0  0  0  0  0  0  0
   -6.9579   15.0964    3.3811 N   0  0  0  0  0  0  0  0  0  0  0  0
   -8.1350   14.8157    4.2264 C   0  0  0  0  0  0  0  0  0  0  0  0
   -3.1862   14.6658   -0.3323 C   0  0  0  0  0  0  0  0  0  0  0  0
   -0.8487   15.6665   -4.1158 C   0  0  0  0  0  0  0  0  0  0  0  0
   -0.9924   16.4941   -5.0170 O   0  0  0  0  0  0  0  0  0  0  0  0
    0.5893   15.2652   -3.7477 C   0  0  0  0  0  0  0  0  0  0  0  0
    1.1692   14.1611   -4.6615 C   0  0  0  0  0  0  0  0  0  0  0  0
    0.6164   12.7291   -4.4278 C   0  0  0  0  0  0  0  0  0  0  0  0
    0.9955   11.8948   -5.5592 N   0  0  0  0  0  0  0  0  0  0  0  0
    0.1386   11.3107   -6.4130 C   0  0  0  0  0  0  0  0  0  0  0  0
   -1.0801   11.4881   -6.3793 O   0  0  0  0  0  0  0  0  0  0  0  0
    0.7623   10.3935   -7.4762 C   0  0  0  0  0  0  0  0  0  0  0  0
    0.5364    8.9054   -7.1335 C   0  0  0  0  0  0  0  0  0  0  0  0
    0.0816    8.2305   -8.4299 C   0  0  0  0  0  0  0  0  0  0  0  0
   -0.6664    9.3323   -9.1716 C   0  0  0  0  0  0  0  0  0  0  0  0
    0.1558   10.5901   -8.8850 C   0  0  0  0  0  0  0  0  0  0  0  0
    1.0860   12.0554   -3.1160 C   0  0  0  0  0  0  0  0  0  0  0  0
    1.8422   12.6962   -2.3556 O   0  0  0  0  0  0  0  0  0  0  0  0
    0.6422   10.9169   -2.8518 O   0  0  0  0  0  0  0  0  0  0  0  0
  1  2  1  0
  2  3  1  0
  3  4  1  0
  3 17  1  0
  4  5  1  0
  5 16  1  0
  5  6  2  0
  6  7  1  0
  7  8  2  0
  8  9  1  0
  9 10  1  0
  9 16  2  0
 10 11  1  0
 11 12  2  0
 11 13  1  0
 13 14  1  0
 14 15  1  0
 17 18  2  0
 17 19  1  0
 19 20  1  0
 20 21  1  0
 21 22  1  0
 21 30  1  0
 22 23  1  0
 23 24  2  0
 23 25  1  0
 25 29  1  0
 25 26  1  0
 26 27  1  0
 27 28  1  0
 28 29  1  0
 30 31  2  0
 30 32  1  0
M  CHG  2  14   1  32  -1
M  END
>  <original SMILES>  (5) 
CCN(Cc1ccnc(NC(=O)C[NH2+]C)c1)C(=O)CCC(NC(=O)C1CCCC1)C(=O)[O-]

>  <ref_pdb>  (5) 
Combi03.pdb

>  <ref_mols>  (5) 
x0003_0A,x0003_1A

>  <Glide GScore>  (5) 
-8.99648637064874

>  <RMSLigA>  (5) 
1.27051145483033

>  <RMSLigB>  (5) 
1.16501531367416

$$$$
Combi03_000034
     RDKit          3D

 32 34  0  0  1  0  0  0  0  0999 V2000
   -8.1385   14.8469    4.2586 C   0  0  0  0  0  0  0  0  0  0  0  0
   -6.9635   15.1193    3.4055 N   0  0  0  0  0  0  0  0  0  0  0  0
   -6.8554   14.2390    2.2327 C   0  0  0  0  0  0  0  0  0  0  0  0
   -5.7513   14.6959    1.2840 C   0  0  0  0  0  0  0  0  0  0  0  0
   -6.0786   15.0333    0.1484 O   0  0  0  0  0  0  0  0  0  0  0  0
   -4.4987   14.7881    1.7790 N   0  0  0  0  0  0  0  0  0  0  0  0
   -3.2693   14.8865    1.0708 C   0  0  0  0  0  0  0  0  0  0  0  0
   -3.2091   14.6619   -0.3268 C   0  0  0  0  0  0  0  0  0  0  0  0
   -1.9640   14.6095   -0.9721 C   0  0  0  0  0  0  0  0  0  0  0  0
   -1.8891   14.1886   -2.4190 C   0  0  0  0  0  0  0  0  0  0  0  0
   -1.2722   15.2508   -3.2436 N   0  0  0  0  0  0  0  0  0  0  0  0
   -2.1617   15.9161   -4.2150 C   0  0  0  0  0  0  0  0  0  0  0  0
   -1.2208   16.7430   -5.0987 C   0  0  0  0  0  0  0  0  0  0  0  0
    0.1881   16.1515   -4.8670 C   0  0  0  0  0  0  0  0  0  0  0  0
    1.1311   17.1715   -4.2171 C   0  0  0  0  0  0  0  0  0  0  0  0
   -0.0282   14.9134   -3.9637 C   0  0  0  0  0  0  0  0  0  0  0  0
   -0.1875   13.6042   -4.7825 C   0  0  0  0  0  0  0  0  0  0  0  0
    0.8014   12.4528   -4.5262 C   0  0  0  0  0  0  0  0  0  0  0  0
    0.3609   11.3129   -5.3264 N   0  0  0  0  0  0  0  0  0  0  0  0
    0.6449   11.0978   -6.6205 C   0  0  0  0  0  0  0  0  0  0  0  0
    1.3552   11.8659   -7.2716 O   0  0  0  0  0  0  0  0  0  0  0  0
    0.0342    9.8506   -7.2859 C   0  0  0  0  0  0  0  0  0  0  0  0
    0.8626    9.2941   -8.4698 C   0  0  0  0  0  0  0  0  0  0  0  0
    1.0375    7.7882   -8.2264 C   0  0  0  0  0  0  0  0  0  0  0  0
   -0.0290    7.4151   -7.2001 C   0  0  0  0  0  0  0  0  0  0  0  0
   -0.1515    8.6607   -6.3271 C   0  0  0  0  0  0  0  0  0  0  0  0
    0.9903   12.0442   -3.0609 C   0  0  0  0  0  0  0  0  0  0  0  0
    1.8255   12.6958   -2.3899 O   0  0  0  0  0  0  0  0  0  0  0  0
    0.2501   11.1339   -2.6202 O   0  0  0  0  0  0  0  0  0  0  0  0
   -0.7954   14.8392   -0.2217 C   0  0  0  0  0  0  0  0  0  0  0  0
   -0.9412   15.0955    1.1518 C   0  0  0  0  0  0  0  0  0  0  0  0
   -2.1384   15.0959    1.7794 N   0  0  0  0  0  0  0  0  0  0  0  0
  1  2  1  0
  2  3  1  0
  3  4  1  0
  4  5  2  0
  4  6  1  0
  6  7  1  0
  7 32  2  0
  7  8  1  0
  8  9  2  0
  9 10  1  0
  9 30  1  0
 10 11  1  0
 11 16  1  0
 11 12  1  0
 12 13  1  0
 13 14  1  0
 14 15  1  0
 14 16  1  0
 16 17  1  0
 17 18  1  0
 18 19  1  0
 18 27  1  0
 19 20  1  0
 20 21  2  0
 20 22  1  0
 22 26  1  0
 22 23  1  0
 23 24  1  0
 24 25  1  0
 25 26  1  0
 27 28  2  0
 27 29  1  0
 30 31  2  0
 31 32  1  0
M  CHG  3   2   1  11   1  29  -1
M  END
>  <original SMILES>  (6) 
C[NH2+]CC(=O)Nc1cc(C[NH+]2CCC(C)C2CC(NC(=O)C2CCCC2)C(=O)[O-])ccn1

>  <ref_pdb>  (6) 
Combi03.pdb

>  <ref_mols>  (6) 
x0003_0A,x0003_1A

>  <Glide GScore>  (6) 
-8.98636021226212

>  <RMSLigA>  (6) 
1.28452038802941

>  <RMSLigB>  (6) 
0.870321958427322

$$$$
Combi03_000057
     RDKit          3D

 31 32  0  0  1  0  0  0  0  0999 V2000
    0.4452   16.8271   -4.0981 C   0  0  0  0  0  0  0  0  0  0  0  0
   -0.7533   16.1930   -4.8249 C   0  0  0  0  0  0  0  0  0  0  0  0
   -1.0535   14.7107   -4.4609 C   0  0  0  0  0  0  0  0  0  0  0  0
   -2.3290   14.2079   -5.1980 C   0  0  0  0  0  0  0  0  0  0  0  0
    0.1473   13.7823   -4.7552 C   0  0  0  0  0  0  0  0  0  0  0  0
   -0.0237   12.3130   -4.2491 C   0  0  0  0  0  0  0  0  0  0  0  0
   -0.1049   11.2976   -5.3089 N   0  0  0  0  0  0  0  0  0  0  0  0
    0.6398   11.1661   -6.4215 C   0  0  0  0  0  0  0  0  0  0  0  0
    1.5860   11.8971   -6.7055 O   0  0  0  0  0  0  0  0  0  0  0  0
    0.2773   10.0213   -7.3767 C   0  0  0  0  0  0  0  0  0  0  0  0
    0.6389    8.6391   -6.8038 C   0  0  0  0  0  0  0  0  0  0  0  0
   -0.4840    7.7089   -7.2590 C   0  0  0  0  0  0  0  0  0  0  0  0
   -1.7233    8.6001   -7.2417 C   0  0  0  0  0  0  0  0  0  0  0  0
   -1.2224    9.9575   -7.7449 C   0  0  0  0  0  0  0  0  0  0  0  0
    0.7729   11.8831   -3.0005 C   0  0  0  0  0  0  0  0  0  0  0  0
    1.4426   12.7393   -2.3772 O   0  0  0  0  0  0  0  0  0  0  0  0
    0.6421   10.6973   -2.6216 O   0  0  0  0  0  0  0  0  0  0  0  0
   -1.2065   14.6401   -3.0515 O   0  0  0  0  0  0  0  0  0  0  0  0
   -2.4481   15.0429   -2.5119 C   0  0  0  0  0  0  0  0  0  0  0  0
   -2.4231   15.0036   -1.0121 C   0  0  0  0  0  0  0  0  0  0  0  0
   -1.2279   15.0960   -0.2748 C   0  0  0  0  0  0  0  0  0  0  0  0
   -1.3211   15.0904    1.1246 C   0  0  0  0  0  0  0  0  0  0  0  0
   -2.4910   14.9252    1.7795 N   0  0  0  0  0  0  0  0  0  0  0  0
   -3.6351   14.7941    1.0687 C   0  0  0  0  0  0  0  0  0  0  0  0
   -4.8350   14.6003    1.7800 N   0  0  0  0  0  0  0  0  0  0  0  0
   -6.0555   14.1940    1.3712 C   0  0  0  0  0  0  0  0  0  0  0  0
   -6.3529   13.8958    0.2176 O   0  0  0  0  0  0  0  0  0  0  0  0
   -7.1572   14.1261    2.4290 C   0  0  0  0  0  0  0  0  0  0  0  0
   -6.9578   15.0965    3.5214 N   0  0  0  0  0  0  0  0  0  0  0  0
   -8.0434   15.1163    4.5190 C   0  0  0  0  0  0  0  0  0  0  0  0
   -3.6389   14.8807   -0.3354 C   0  0  0  0  0  0  0  0  0  0  0  0
  1  2  1  0
  2  3  1  0
  3  4  1  0
  3  5  1  0
  3 18  1  0
  5  6  1  0
  6  7  1  0
  6 15  1  0
  7  8  1  0
  8  9  2  0
  8 10  1  0
 10 14  1  0
 10 11  1  0
 11 12  1  0
 12 13  1  0
 13 14  1  0
 15 16  2  0
 15 17  1  0
 18 19  1  0
 19 20  1  0
 20 31  1  0
 20 21  2  0
 21 22  1  0
 22 23  2  0
 23 24  1  0
 24 25  1  0
 24 31  2  0
 25 26  1  0
 26 27  2  0
 26 28  1  0
 28 29  1  0
 29 30  1  0
M  CHG  2  17  -1  29   1
M  END
>  <original SMILES>  (7) 
CCC(C)(CC(NC(=O)C1CCCC1)C(=O)[O-])OCc1ccnc(NC(=O)C[NH2+]C)c1

>  <ref_pdb>  (7) 
Combi03.pdb

>  <ref_mols>  (7) 
x0003_0A,x0003_1A

>  <Glide GScore>  (7) 
-8.78079221474457

>  <RMSLigA>  (7) 
1.431323948327

>  <RMSLigB>  (7) 
1.16126953549964

$$$$
Combi03_000042
     RDKit          3D

 31 32  0  0  1  0  0  0  0  0999 V2000
    1.0291   17.1284   -4.4337 C   0  0  0  0  0  0  0  0  0  0  0  0
    0.9248   16.0660   -3.4218 N   0  0  0  0  0  0  0  0  0  0  0  0
    0.0487   15.0245   -3.7653 N   0  0  0  0  0  0  0  0  0  0  0  0
    0.6158   14.0838   -4.7486 C   0  0  0  0  0  0  0  0  0  0  0  0
    0.3303   12.5893   -4.4639 C   0  0  0  0  0  0  0  0  0  0  0  0
    0.8266   11.7463   -5.5481 N   0  0  0  0  0  0  0  0  0  0  0  0
    0.0660   11.1325   -6.4698 C   0  0  0  0  0  0  0  0  0  0  0  0
   -1.1486   11.3117   -6.5620 O   0  0  0  0  0  0  0  0  0  0  0  0
    0.7894   10.1804   -7.4377 C   0  0  0  0  0  0  0  0  0  0  0  0
    0.6413    8.7214   -6.9863 C   0  0  0  0  0  0  0  0  0  0  0  0
   -0.6758    8.2425   -7.5967 C   0  0  0  0  0  0  0  0  0  0  0  0
   -0.8200    9.0152   -8.9121 C   0  0  0  0  0  0  0  0  0  0  0  0
    0.1832   10.1799   -8.8525 C   0  0  0  0  0  0  0  0  0  0  0  0
    0.8776   12.0859   -3.1231 C   0  0  0  0  0  0  0  0  0  0  0  0
    0.3139   11.0921   -2.6178 O   0  0  0  0  0  0  0  0  0  0  0  0
    1.8423   12.6993   -2.6175 O   0  0  0  0  0  0  0  0  0  0  0  0
   -1.2769   15.1838   -3.5590 C   0  0  0  0  0  0  0  0  0  0  0  0
   -1.9257   16.0911   -4.0845 O   0  0  0  0  0  0  0  0  0  0  0  0
   -1.9953   14.2269   -2.5964 C   0  0  0  0  0  0  0  0  0  0  0  0
   -1.9157   14.6481   -1.1344 C   0  0  0  0  0  0  0  0  0  0  0  0
   -0.6872   14.7247   -0.4468 C   0  0  0  0  0  0  0  0  0  0  0  0
   -0.7108   14.9839    0.9356 C   0  0  0  0  0  0  0  0  0  0  0  0
   -1.8554   15.0950    1.6459 N   0  0  0  0  0  0  0  0  0  0  0  0
   -3.0465   15.0116    1.0086 C   0  0  0  0  0  0  0  0  0  0  0  0
   -4.2423   15.1133    1.7769 N   0  0  0  0  0  0  0  0  0  0  0  0
   -5.4564   14.6045    1.4965 C   0  0  0  0  0  0  0  0  0  0  0  0
   -5.7269   13.8970    0.5283 O   0  0  0  0  0  0  0  0  0  0  0  0
   -6.5801   14.9271    2.4731 C   0  0  0  0  0  0  0  0  0  0  0  0
   -7.1866   13.6856    2.9800 N   0  0  0  0  0  0  0  0  0  0  0  0
   -8.4894   13.8732    3.6405 C   0  0  0  0  0  0  0  0  0  0  0  0
   -3.1019   14.8288   -0.3970 C   0  0  0  0  0  0  0  0  0  0  0  0
  1  2  1  0
  2  3  1  0
  3  4  1  0
  3 17  1  0
  4  5  1  0
  5  6  1  0
  5 14  1  0
  6  7  1  0
  7  8  2  0
  7  9  1  0
  9 13  1  0
  9 10  1  0
 10 11  1  0
 11 12  1  0
 12 13  1  0
 14 15  2  0
 14 16  1  0
 17 18  2  0
 17 19  1  0
 19 20  1  0
 20 31  1  0
 20 21  2  0
 21 22  1  0
 22 23  2  0
 23 24  1  0
 24 25  1  0
 24 31  2  0
 25 26  1  0
 26 27  2  0
 26 28  1  0
 28 29  1  0
 29 30  1  0
M  CHG  2  16  -1  29   1
M  END
>  <original SMILES>  (8) 
CNN(CC(NC(=O)C1CCCC1)C(=O)[O-])C(=O)Cc1ccnc(NC(=O)C[NH2+]C)c1

>  <ref_pdb>  (8) 
Combi03.pdb

>  <ref_mols>  (8) 
x0003_0A,x0003_1A

>  <Glide GScore>  (8) 
-8.75430233575075

>  <RMSLigA>  (8) 
1.0168930327633

>  <RMSLigB>  (8) 
1.41696278671001

$$$$
Combi03_000040
     RDKit          3D

 29 30  0  0  1  0  0  0  0  0999 V2000
   -7.7865   15.0715    3.7931 C   0  0  0  0  0  0  0  0  0  0  0  0
   -6.5582   15.0962    2.9800 N   0  0  0  0  0  0  0  0  0  0  0  0
   -6.5597   14.1409    1.8579 C   0  0  0  0  0  0  0  0  0  0  0  0
   -5.3462   14.2894    0.9393 C   0  0  0  0  0  0  0  0  0  0  0  0
   -5.5257   14.1243   -0.2648 O   0  0  0  0  0  0  0  0  0  0  0  0
   -4.1684   14.6251    1.5077 N   0  0  0  0  0  0  0  0  0  0  0  0
   -2.8717   14.6990    0.9335 C   0  0  0  0  0  0  0  0  0  0  0  0
   -2.6713   14.7692   -0.4653 C   0  0  0  0  0  0  0  0  0  0  0  0
   -1.3636   14.7688   -0.9804 C   0  0  0  0  0  0  0  0  0  0  0  0
   -1.1633   14.8350   -2.4766 C   0  0  0  0  0  0  0  0  0  0  0  0
    0.1796   15.1373   -2.8313 O   0  0  0  0  0  0  0  0  0  0  0  0
    0.4199   15.2373   -4.2270 C   0  0  0  0  0  0  0  0  0  0  0  0
    1.3129   16.4716   -4.3816 C   0  0  0  0  0  0  0  0  0  0  0  0
    1.1059   13.9770   -4.8054 C   0  0  0  0  0  0  0  0  0  0  0  0
    0.4436   12.6314   -4.4221 C   0  0  0  0  0  0  0  0  0  0  0  0
    0.7234   11.6062   -5.4246 N   0  0  0  0  0  0  0  0  0  0  0  0
   -0.1615   11.0850   -6.2882 C   0  0  0  0  0  0  0  0  0  0  0  0
   -1.3161   11.4963   -6.4057 O   0  0  0  0  0  0  0  0  0  0  0  0
    0.3256    9.9076   -7.1477 C   0  0  0  0  0  0  0  0  0  0  0  0
   -0.4084    8.5972   -6.7757 C   0  0  0  0  0  0  0  0  0  0  0  0
   -0.9316    8.0060   -8.0862 C   0  0  0  0  0  0  0  0  0  0  0  0
   -1.1281    9.2134   -8.9968 C   0  0  0  0  0  0  0  0  0  0  0  0
    0.0473   10.1270   -8.6501 C   0  0  0  0  0  0  0  0  0  0  0  0
    0.8539   12.1032   -3.0346 C   0  0  0  0  0  0  0  0  0  0  0  0
    0.2426   11.0963   -2.6200 O   0  0  0  0  0  0  0  0  0  0  0  0
    1.7585   12.6962   -2.4016 O   0  0  0  0  0  0  0  0  0  0  0  0
   -0.2780   14.7166   -0.0861 C   0  0  0  0  0  0  0  0  0  0  0  0
   -0.5577   14.6975    1.2886 C   0  0  0  0  0  0  0  0  0  0  0  0
   -1.8168   14.6988    1.7799 N   0  0  0  0  0  0  0  0  0  0  0  0
  1  2  1  0
  2  3  1  0
  3  4  1  0
  4  5  2  0
  4  6  1  0
  6  7  1  0
  7 29  2  0
  7  8  1  0
  8  9  2  0
  9 10  1  0
  9 27  1  0
 10 11  1  0
 11 12  1  0
 12 13  1  0
 12 14  1  0
 14 15  1  0
 15 16  1  0
 15 24  1  0
 16 17  1  0
 17 18  2  0
 17 19  1  0
 19 23  1  0
 19 20  1  0
 20 21  1  0
 21 22  1  0
 22 23  1  0
 24 25  2  0
 24 26  1  0
 27 28  2  0
 28 29  1  0
M  CHG  2   2   1  26  -1
M  END
>  <original SMILES>  (9) 
C[NH2+]CC(=O)Nc1cc(COC(C)CC(NC(=O)C2CCCC2)C(=O)[O-])ccn1

>  <ref_pdb>  (9) 
Combi03.pdb

>  <ref_mols>  (9) 
x0003_0A,x0003_1A

>  <Glide GScore>  (9) 
-8.72812835355621

>  <RMSLigA>  (9) 
1.11929277234889

>  <RMSLigB>  (9) 
1.42604999465387

$$$$
Combi03_000053
     RDKit          3D

 27 28  0  0  1  0  0  0  0  0999 V2000
   -7.9657   12.8485    2.6667 C   0  0  0  0  0  0  0  0  0  0  0  0
   -7.3581   13.9902    3.3796 N   0  0  0  0  0  0  0  0  0  0  0  0
   -6.8321   15.0936    2.5414 C   0  0  0  0  0  0  0  0  0  0  0  0
   -5.7937   14.6869    1.4811 C   0  0  0  0  0  0  0  0  0  0  0  0
   -6.1808   14.1571    0.4421 O   0  0  0  0  0  0  0  0  0  0  0  0
   -4.5107   14.9611    1.7800 N   0  0  0  0  0  0  0  0  0  0  0  0
   -3.3302   14.9159    0.9942 C   0  0  0  0  0  0  0  0  0  0  0  0
   -3.3666   14.7345   -0.4104 C   0  0  0  0  0  0  0  0  0  0  0  0
   -2.1596   14.6961   -1.1368 C   0  0  0  0  0  0  0  0  0  0  0  0
   -2.1780   14.4417   -2.6333 C   0  0  0  0  0  0  0  0  0  0  0  0
   -0.9269   13.9557   -3.0935 O   0  0  0  0  0  0  0  0  0  0  0  0
   -1.0011   13.0497   -4.1853 C   0  0  0  0  0  0  0  0  0  0  0  0
    0.3644   12.3735   -4.4303 C   0  0  0  0  0  0  0  0  0  0  0  0
    0.1649   11.2366   -5.3319 N   0  0  0  0  0  0  0  0  0  0  0  0
    0.6421   11.0945   -6.5786 C   0  0  0  0  0  0  0  0  0  0  0  0
    1.4189   11.8966   -7.0982 O   0  0  0  0  0  0  0  0  0  0  0  0
    0.1595    9.8495   -7.3469 C   0  0  0  0  0  0  0  0  0  0  0  0
   -0.9584   10.2041   -8.3427 C   0  0  0  0  0  0  0  0  0  0  0  0
   -0.2949   10.4174   -9.7142 C   0  0  0  0  0  0  0  0  0  0  0  0
    1.1604    9.9527   -9.5794 C   0  0  0  0  0  0  0  0  0  0  0  0
    1.2350    9.2105   -8.2422 C   0  0  0  0  0  0  0  0  0  0  0  0
    1.0122   11.9205   -3.1109 C   0  0  0  0  0  0  0  0  0  0  0  0
    1.8434   12.6957   -2.5851 O   0  0  0  0  0  0  0  0  0  0  0  0
    0.6422   10.8277   -2.6226 O   0  0  0  0  0  0  0  0  0  0  0  0
   -0.9481   14.8806   -0.4419 C   0  0  0  0  0  0  0  0  0  0  0  0
   -1.0019   15.0959    0.9443 C   0  0  0  0  0  0  0  0  0  0  0  0
   -2.1568   15.0960    1.6413 N   0  0  0  0  0  0  0  0  0  0  0  0
  1  2  1  0
  2  3  1  0
  3  4  1  0
  4  5  2  0
  4  6  1  0
  6  7  1  0
  7 27  2  0
  7  8  1  0
  8  9  2  0
  9 10  1  0
  9 25  1  0
 10 11  1  0
 11 12  1  0
 12 13  1  0
 13 14  1  0
 13 22  1  0
 14 15  1  0
 15 16  2  0
 15 17  1  0
 17 21  1  0
 17 18  1  0
 18 19  1  0
 19 20  1  0
 20 21  1  0
 22 23  2  0
 22 24  1  0
 25 26  2  0
 26 27  1  0
M  CHG  2   2   1  24  -1
M  END
>  <original SMILES>  (10) 
C[NH2+]CC(=O)Nc1cc(COCC(NC(=O)C2CCCC2)C(=O)[O-])ccn1

>  <ref_pdb>  (10) 
Combi03.pdb

>  <ref_mols>  (10) 
x0003_0A,x0003_1A

>  <Glide GScore>  (10) 
-8.6738824232056

>  <RMSLigA>  (10) 
1.05987569886883

>  <RMSLigB>  (10) 
1.41386363925943

$$$$
Combi03_000118
     RDKit          3D

 30 32  0  0  1  0  0  0  0  0999 V2000
   -7.9749   12.7308    2.6131 C   0  0  0  0  0  0  0  0  0  0  0  0
   -7.3582   13.8317    3.3800 N   0  0  0  0  0  0  0  0  0  0  0  0
   -6.8997   15.0101    2.6156 C   0  0  0  0  0  0  0  0  0  0  0  0
   -5.8744   14.6965    1.5226 C   0  0  0  0  0  0  0  0  0  0  0  0
   -6.2642   14.1660    0.4837 O   0  0  0  0  0  0  0  0  0  0  0  0
   -4.6021   15.0509    1.7800 N   0  0  0  0  0  0  0  0  0  0  0  0
   -3.4802   15.0639    0.9084 C   0  0  0  0  0  0  0  0  0  0  0  0
   -3.6528   15.1045   -0.4976 C   0  0  0  0  0  0  0  0  0  0  0  0
   -2.5285   15.0958   -1.3413 C   0  0  0  0  0  0  0  0  0  0  0  0
   -2.7086   15.1783   -2.8472 C   0  0  0  0  0  0  0  0  0  0  0  0
   -3.0261   13.8259   -3.4798 C   0  0  0  0  0  0  0  0  0  0  0  0
   -3.5639   13.7635   -4.9140 C   0  0  0  0  0  0  0  0  0  0  0  0
   -2.8810   12.4005   -5.0339 C   0  0  0  0  0  0  0  0  0  0  0  0
   -1.9094   12.8592   -3.9336 C   0  0  0  0  0  0  0  0  0  0  0  0
   -0.5362   13.3981   -4.3777 C   0  0  0  0  0  0  0  0  0  0  0  0
    0.5823   12.3361   -4.3747 C   0  0  0  0  0  0  0  0  0  0  0  0
    0.2422   11.2255   -5.2600 N   0  0  0  0  0  0  0  0  0  0  0  0
    0.5797   11.0967   -6.5508 C   0  0  0  0  0  0  0  0  0  0  0  0
    1.3050   11.8960   -7.1432 O   0  0  0  0  0  0  0  0  0  0  0  0
    0.0164    9.8600   -7.2731 C   0  0  0  0  0  0  0  0  0  0  0  0
   -0.9593   10.2624   -8.3948 C   0  0  0  0  0  0  0  0  0  0  0  0
   -0.1358   10.2241   -9.6808 C   0  0  0  0  0  0  0  0  0  0  0  0
    0.7910    9.0285   -9.4749 C   0  0  0  0  0  0  0  0  0  0  0  0
    1.1135    9.0245   -7.9740 C   0  0  0  0  0  0  0  0  0  0  0  0
    0.9540   11.8604   -2.9650 C   0  0  0  0  0  0  0  0  0  0  0  0
    1.5105   12.6963   -2.2200 O   0  0  0  0  0  0  0  0  0  0  0  0
    0.6420   10.6967   -2.6217 O   0  0  0  0  0  0  0  0  0  0  0  0
   -1.2492   15.0594   -0.7542 C   0  0  0  0  0  0  0  0  0  0  0  0
   -1.1614   15.0945    0.6486 C   0  0  0  0  0  0  0  0  0  0  0  0
   -2.2437   15.0961    1.4561 N   0  0  0  0  0  0  0  0  0  0  0  0
  1  2  1  0
  2  3  1  0
  3  4  1  0
  4  5  2  0
  4  6  1  0
  6  7  1  0
  7 30  2  0
  7  8  1  0
  8  9  2  0
  9 10  1  0
  9 28  1  0
 10 11  1  0
 11 14  1  0
 11 12  1  0
 12 13  1  0
 13 14  1  0
 14 15  1  0
 15 16  1  0
 16 17  1  0
 16 25  1  0
 17 18  1  0
 18 19  2  0
 18 20  1  0
 20 24  1  0
 20 21  1  0
 21 22  1  0
 22 23  1  0
 23 24  1  0
 25 26  2  0
 25 27  1  0
 28 29  2  0
 29 30  1  0
M  CHG  2   2   1  27  -1
M  END
>  <original SMILES>  (11) 
C[NH2+]CC(=O)Nc1cc(CC2CCC2CC(NC(=O)C2CCCC2)C(=O)[O-])ccn1

>  <ref_pdb>  (11) 
Combi03.pdb

>  <ref_mols>  (11) 
x0003_0A,x0003_1A

>  <Glide GScore>  (11) 
-8.48599315246654

>  <RMSLigA>  (11) 
1.18893086800692

>  <RMSLigB>  (11) 
1.25246192233798

$$$$
Combi03_000066
     RDKit          3D

 31 33  0  0  1  0  0  0  0  0999 V2000
   -8.2499   13.9229    3.6700 C   0  0  0  0  0  0  0  0  0  0  0  0
   -6.9579   13.7658    2.9799 N   0  0  0  0  0  0  0  0  0  0  0  0
   -6.4561   14.9992    2.3467 C   0  0  0  0  0  0  0  0  0  0  0  0
   -5.3078   14.6982    1.3830 C   0  0  0  0  0  0  0  0  0  0  0  0
   -5.5479   14.0364    0.3752 O   0  0  0  0  0  0  0  0  0  0  0  0
   -4.0970   15.1828    1.7215 N   0  0  0  0  0  0  0  0  0  0  0  0
   -2.8795   15.0913    0.9920 C   0  0  0  0  0  0  0  0  0  0  0  0
   -2.8812   15.0733   -0.4261 C   0  0  0  0  0  0  0  0  0  0  0  0
   -1.6684   14.9286   -1.1345 C   0  0  0  0  0  0  0  0  0  0  0  0
   -1.6919   14.9506   -2.6650 C   0  0  0  0  0  0  0  0  0  0  0  0
   -0.3756   15.2139   -3.3675 C   0  0  0  0  0  0  0  0  0  0  0  0
    0.3368   16.2963   -3.0845 N   0  0  0  0  0  0  0  0  0  0  0  0
    1.4418   16.2050   -3.8430 N   0  0  0  0  0  0  0  0  0  0  0  0
    1.4332   15.0770   -4.6132 C   0  0  0  0  0  0  0  0  0  0  0  0
    0.2574   14.4371   -4.3778 C   0  0  0  0  0  0  0  0  0  0  0  0
   -0.1571   13.1596   -5.0200 C   0  0  0  0  0  0  0  0  0  0  0  0
   -0.2147   11.9070   -4.1091 C   0  0  0  0  0  0  0  0  0  0  0  0
   -0.5800   10.6966   -4.8612 N   0  0  0  0  0  0  0  0  0  0  0  0
   -0.1771   10.2699   -6.0740 C   0  0  0  0  0  0  0  0  0  0  0  0
    0.6418   10.8543   -6.7831 O   0  0  0  0  0  0  0  0  0  0  0  0
   -0.8159    8.9678   -6.5806 C   0  0  0  0  0  0  0  0  0  0  0  0
   -1.6213    9.1959   -7.8773 C   0  0  0  0  0  0  0  0  0  0  0  0
   -0.7815    8.5993   -9.0063 C   0  0  0  0  0  0  0  0  0  0  0  0
   -0.0895    7.4103   -8.3493 C   0  0  0  0  0  0  0  0  0  0  0  0
    0.2417    7.8968   -6.9371 C   0  0  0  0  0  0  0  0  0  0  0  0
    0.8689   11.6832   -3.0201 C   0  0  0  0  0  0  0  0  0  0  0  0
    1.4424   12.6651   -2.4930 O   0  0  0  0  0  0  0  0  0  0  0  0
    1.0377   10.5127   -2.6201 O   0  0  0  0  0  0  0  0  0  0  0  0
   -0.4797   14.8007   -0.3855 C   0  0  0  0  0  0  0  0  0  0  0  0
   -0.5565   14.8970    1.0145 C   0  0  0  0  0  0  0  0  0  0  0  0
   -1.7198   15.0485    1.6847 N   0  0  0  0  0  0  0  0  0  0  0  0
  1  2  1  0
  2  3  1  0
  3  4  1  0
  4  5  2  0
  4  6  1  0
  6  7  1  0
  7 31  2  0
  7  8  1  0
  8  9  2  0
  9 10  1  0
  9 29  1  0
 10 11  1  0
 11 15  1  0
 11 12  2  0
 12 13  1  0
 13 14  1  0
 14 15  2  0
 15 16  1  0
 16 17  1  0
 17 18  1  0
 17 26  1  0
 18 19  1  0
 19 20  2  0
 19 21  1  0
 21 25  1  0
 21 22  1  0
 22 23  1  0
 23 24  1  0
 24 25  1  0
 26 27  2  0
 26 28  1  0
 29 30  2  0
 30 31  1  0
M  CHG  2   2   1  28  -1
M  END
>  <original SMILES>  (12) 
C[NH2+]CC(=O)Nc1cc(Cc2n[nH]cc2CC(NC(=O)C2CCCC2)C(=O)[O-])ccn1

>  <ref_pdb>  (12) 
Combi03.pdb

>  <ref_mols>  (12) 
x0003_0A,x0003_1A

>  <Glide GScore>  (12) 
-8.94509769348243

>  <RMSLigA>  (12) 
1.0244181505567

>  <RMSLigB>  (12) 
1.51595355185875

$$$$
Combi03_000075
     RDKit          3D

 28 29  0  0  1  0  0  0  0  0999 V2000
   -8.1577   14.7681    4.1752 C   0  0  0  0  0  0  0  0  0  0  0  0
   -6.9578   15.0964    3.3799 N   0  0  0  0  0  0  0  0  0  0  0  0
   -6.6768   14.1517    2.2797 C   0  0  0  0  0  0  0  0  0  0  0  0
   -5.5825   14.6539    1.3307 C   0  0  0  0  0  0  0  0  0  0  0  0
   -5.9230   15.0893    0.2330 O   0  0  0  0  0  0  0  0  0  0  0  0
   -4.3110   14.6306    1.7798 N   0  0  0  0  0  0  0  0  0  0  0  0
   -3.0899   14.7804    1.0598 C   0  0  0  0  0  0  0  0  0  0  0  0
   -3.0367   14.6954   -0.3563 C   0  0  0  0  0  0  0  0  0  0  0  0
   -1.7893   14.7456   -1.0115 C   0  0  0  0  0  0  0  0  0  0  0  0
   -1.6980   14.6981   -2.5229 C   0  0  0  0  0  0  0  0  0  0  0  0
   -2.0477   13.3228   -3.1030 C   0  0  0  0  0  0  0  0  0  0  0  0
   -1.7661   13.2503   -4.8946 S   0  0  0  0  0  0  0  0  0  0  0  0
    0.0589   13.3309   -5.0538 C   0  0  0  0  0  0  0  0  0  0  0  0
    0.7674   12.0155   -4.6680 C   0  0  0  0  0  0  0  0  0  0  0  0
    0.1131   10.8564   -5.2737 N   0  0  0  0  0  0  0  0  0  0  0  0
    0.2247   10.4666   -6.5523 C   0  0  0  0  0  0  0  0  0  0  0  0
    0.8653   11.1005   -7.3932 O   0  0  0  0  0  0  0  0  0  0  0  0
   -0.4835    9.1557   -6.9313 C   0  0  0  0  0  0  0  0  0  0  0  0
   -1.5117    9.3710   -8.0561 C   0  0  0  0  0  0  0  0  0  0  0  0
   -0.7743    9.0313   -9.3496 C   0  0  0  0  0  0  0  0  0  0  0  0
    0.1374    7.8701   -8.9584 C   0  0  0  0  0  0  0  0  0  0  0  0
    0.5054    8.1053   -7.4866 C   0  0  0  0  0  0  0  0  0  0  0  0
    1.0512   11.8188   -3.1722 C   0  0  0  0  0  0  0  0  0  0  0  0
    0.6013   10.7899   -2.6202 O   0  0  0  0  0  0  0  0  0  0  0  0
    1.7309   12.6963   -2.5948 O   0  0  0  0  0  0  0  0  0  0  0  0
   -0.6222   14.8823   -0.2386 C   0  0  0  0  0  0  0  0  0  0  0  0
   -0.7602   14.9868    1.1527 C   0  0  0  0  0  0  0  0  0  0  0  0
   -1.9549   14.9301    1.7801 N   0  0  0  0  0  0  0  0  0  0  0  0
  1  2  1  0
  2  3  1  0
  3  4  1  0
  4  5  2  0
  4  6  1  0
  6  7  1  0
  7 28  2  0
  7  8  1  0
  8  9  2  0
  9 10  1  0
  9 26  1  0
 10 11  1  0
 11 12  1  0
 12 13  1  0
 13 14  1  0
 14 15  1  0
 14 23  1  0
 15 16  1  0
 16 17  2  0
 16 18  1  0
 18 22  1  0
 18 19  1  0
 19 20  1  0
 20 21  1  0
 21 22  1  0
 23 24  2  0
 23 25  1  0
 26 27  2  0
 27 28  1  0
M  CHG  2   2   1  25  -1
M  END
>  <original SMILES>  (13) 
C[NH2+]CC(=O)Nc1cc(CCSCC(NC(=O)C2CCCC2)C(=O)[O-])ccn1

>  <ref_pdb>  (13) 
Combi03.pdb

>  <ref_mols>  (13) 
x0003_0A,x0003_1A

>  <Glide GScore>  (13) 
-8.36738974614922

>  <RMSLigA>  (13) 
1.22717176099298

>  <RMSLigB>  (13) 
1.48951346346029

$$$$
Combi03_000070
     RDKit          3D

 29 30  0  0  1  0  0  0  0  0999 V2000
   -7.9910   15.4536    4.8308 C   0  0  0  0  0  0  0  0  0  0  0  0
   -6.9577   15.4960    3.7785 N   0  0  0  0  0  0  0  0  0  0  0  0
   -7.2162   14.5864    2.6379 C   0  0  0  0  0  0  0  0  0  0  0  0
   -6.2033   14.6952    1.4835 C   0  0  0  0  0  0  0  0  0  0  0  0
   -6.6506   14.7959    0.3436 O   0  0  0  0  0  0  0  0  0  0  0  0
   -4.8859   14.7098    1.7813 N   0  0  0  0  0  0  0  0  0  0  0  0
   -3.7532   14.7381    0.9192 C   0  0  0  0  0  0  0  0  0  0  0  0
   -3.8300   14.3296   -0.4372 C   0  0  0  0  0  0  0  0  0  0  0  0
   -2.6616   14.2975   -1.2275 C   0  0  0  0  0  0  0  0  0  0  0  0
   -2.7032   13.6892   -2.6211 C   0  0  0  0  0  0  0  0  0  0  0  0
   -2.1246   14.5594   -3.7371 C   0  0  0  0  0  0  0  0  0  0  0  0
   -2.2619   15.7827   -3.7619 O   0  0  0  0  0  0  0  0  0  0  0  0
   -1.4379   13.8236   -4.8846 C   0  0  0  0  0  0  0  0  0  0  0  0
    0.1107   13.8774   -4.8415 C   0  0  0  0  0  0  0  0  0  0  0  0
    0.8111   12.5442   -4.4837 C   0  0  0  0  0  0  0  0  0  0  0  0
    0.3097   11.4464   -5.3095 N   0  0  0  0  0  0  0  0  0  0  0  0
    0.6420   11.1809   -6.5822 C   0  0  0  0  0  0  0  0  0  0  0  0
    1.4279   11.8741   -7.2320 O   0  0  0  0  0  0  0  0  0  0  0  0
   -0.0162    9.9412   -7.2077 C   0  0  0  0  0  0  0  0  0  0  0  0
   -1.0410   10.3184   -8.2964 C   0  0  0  0  0  0  0  0  0  0  0  0
   -0.9092    9.2427   -9.3722 C   0  0  0  0  0  0  0  0  0  0  0  0
    0.5782    8.9068   -9.3704 C   0  0  0  0  0  0  0  0  0  0  0  0
    0.9909    8.9927   -7.8988 C   0  0  0  0  0  0  0  0  0  0  0  0
    0.8270   12.1736   -2.9924 C   0  0  0  0  0  0  0  0  0  0  0  0
    1.4418   12.9430   -2.2199 O   0  0  0  0  0  0  0  0  0  0  0  0
    0.2407   11.1270   -2.6317 O   0  0  0  0  0  0  0  0  0  0  0  0
   -1.4451   14.6962   -0.6423 C   0  0  0  0  0  0  0  0  0  0  0  0
   -1.4561   15.0960    0.7039 C   0  0  0  0  0  0  0  0  0  0  0  0
   -2.5702   15.0964    1.4654 N   0  0  0  0  0  0  0  0  0  0  0  0
  1  2  1  0
  2  3  1  0
  3  4  1  0
  4  5  2  0
  4  6  1  0
  6  7  1  0
  7 29  2  0
  7  8  1  0
  8  9  2  0
  9 10  1  0
  9 27  1  0
 10 11  1  0
 11 12  2  0
 11 13  1  0
 13 14  1  0
 14 15  1  0
 15 16  1  0
 15 24  1  0
 16 17  1  0
 17 18  2  0
 17 19  1  0
 19 23  1  0
 19 20  1  0
 20 21  1  0
 21 22  1  0
 22 23  1  0
 24 25  2  0
 24 26  1  0
 27 28  2  0
 28 29  1  0
M  CHG  2   2   1  26  -1
M  END
>  <original SMILES>  (14) 
C[NH2+]CC(=O)Nc1cc(CC(=O)CCC(NC(=O)C2CCCC2)C(=O)[O-])ccn1

>  <ref_pdb>  (14) 
Combi03.pdb

>  <ref_mols>  (14) 
x0003_0A,x0003_1A

>  <Glide GScore>  (14) 
-8.3351093105413

>  <RMSLigA>  (14) 
1.70513139613394

>  <RMSLigB>  (14) 
0.949959387778559

$$$$
Combi03_000036
     RDKit          3D

 32 33  0  0  1  0  0  0  0  0999 V2000
   -1.8269   16.2551   -5.1266 C   0  0  0  0  0  0  0  0  0  0  0  0
   -1.0670   15.4761   -4.3259 C   0  0  0  0  0  0  0  0  0  0  0  0
   -1.5137   14.9008   -3.1628 O   0  0  0  0  0  0  0  0  0  0  0  0
   -2.7899   15.2220   -2.6369 C   0  0  0  0  0  0  0  0  0  0  0  0
   -2.7721   15.0882   -1.1293 C   0  0  0  0  0  0  0  0  0  0  0  0
   -1.5548   15.0962   -0.4199 C   0  0  0  0  0  0  0  0  0  0  0  0
   -1.5976   15.0959    0.9801 C   0  0  0  0  0  0  0  0  0  0  0  0
   -2.7486   15.0214    1.6750 N   0  0  0  0  0  0  0  0  0  0  0  0
   -3.9236   14.9643    1.0096 C   0  0  0  0  0  0  0  0  0  0  0  0
   -5.1080   14.9249    1.7800 N   0  0  0  0  0  0  0  0  0  0  0  0
   -6.3457   14.5208    1.4435 C   0  0  0  0  0  0  0  0  0  0  0  0
   -6.6429   13.9687    0.3857 O   0  0  0  0  0  0  0  0  0  0  0  0
   -7.4508   14.7862    2.4708 C   0  0  0  0  0  0  0  0  0  0  0  0
   -7.7239   13.6529    3.3801 N   0  0  0  0  0  0  0  0  0  0  0  0
   -8.1626   12.3903    2.7511 C   0  0  0  0  0  0  0  0  0  0  0  0
   -3.9740   15.0300   -0.4034 C   0  0  0  0  0  0  0  0  0  0  0  0
    0.3226   15.1935   -4.6490 C   0  0  0  0  0  0  0  0  0  0  0  0
    1.2310   16.1906   -4.6854 C   0  0  0  0  0  0  0  0  0  0  0  0
    1.0015   17.6641   -4.3963 C   0  0  0  0  0  0  0  0  0  0  0  0
    0.7664   13.7728   -5.0135 C   0  0  0  0  0  0  0  0  0  0  0  0
    0.0655   12.5883   -4.2849 C   0  0  1  0  0  0  0  0  0  0  0  0
   -0.0403   11.4446   -5.1913 N   0  0  0  0  0  0  0  0  0  0  0  0
   -1.0180   11.2797   -6.0979 C   0  0  0  0  0  0  0  0  0  0  0  0
   -1.9521   12.0732   -6.2202 O   0  0  0  0  0  0  0  0  0  0  0  0
   -0.9350   10.0733   -7.0413 C   0  0  0  0  0  0  0  0  0  0  0  0
    0.2142   10.1697   -8.0672 C   0  0  0  0  0  0  0  0  0  0  0  0
    0.9439    8.8199   -8.0260 C   0  0  0  0  0  0  0  0  0  0  0  0
   -0.0263    7.8535   -7.3482 C   0  0  0  0  0  0  0  0  0  0  0  0
   -0.7619    8.7236   -6.3324 C   0  0  0  0  0  0  0  0  0  0  0  0
    0.6416   12.1892   -2.9162 C   0  0  0  0  0  0  0  0  0  0  0  0
    1.0599   13.0961   -2.1622 O   0  0  0  0  0  0  0  0  0  0  0  0
    0.6422   10.9726   -2.6200 O   0  0  0  0  0  0  0  0  0  0  0  0
  1  2  2  0
  2  3  1  0
  2 17  1  0
  3  4  1  0
  4  5  1  0
  5 16  1  0
  5  6  2  0
  6  7  1  0
  7  8  2  0
  8  9  1  0
  9 10  1  0
  9 16  2  0
 10 11  1  0
 11 12  2  0
 11 13  1  0
 13 14  1  0
 14 15  1  0
 17 18  2  3
 17 20  1  0
 18 19  1  0
 21 20  1  6
 21 22  1  0
 21 30  1  0
 22 23  1  0
 23 24  2  0
 23 25  1  0
 25 29  1  0
 25 26  1  0
 26 27  1  0
 27 28  1  0
 28 29  1  0
 30 31  2  0
 30 32  1  0
M  CHG  2  14   1  32  -1
M  END
>  <original SMILES>  (15) 
C=C(OCc1ccnc(NC(=O)C[NH2+]C)c1)C(=CC)C[C@@H](NC(=O)C1CCCC1)C(=O)[O-]

>  <ref_pdb>  (15) 
Combi03.pdb

>  <ref_mols>  (15) 
x0003_0A,x0003_1A

>  <Glide GScore>  (15) 
-8.36597520620153

>  <RMSLigA>  (15) 
1.37551958274143

>  <RMSLigB>  (15) 
1.50422678484465

$$$$
Combi03_000005
     RDKit          3D

 32 33  0  0  1  0  0  0  0  0999 V2000
   -7.8312   13.6342    3.3251 C   0  0  0  0  0  0  0  0  0  0  0  0
   -6.5619   13.5865    2.5772 N   0  0  0  0  0  0  0  0  0  0  0  0
   -6.1234   14.8900    2.0518 C   0  0  0  0  0  0  0  0  0  0  0  0
   -4.9250   14.7010    1.1290 C   0  0  0  0  0  0  0  0  0  0  0  0
   -5.0931   14.1204    0.0561 O   0  0  0  0  0  0  0  0  0  0  0  0
   -3.7510   15.1868    1.5667 N   0  0  0  0  0  0  0  0  0  0  0  0
   -2.4735   15.0421    0.9704 C   0  0  0  0  0  0  0  0  0  0  0  0
   -2.3194   15.0968   -0.4333 C   0  0  0  0  0  0  0  0  0  0  0  0
   -1.0354   14.9230   -1.0009 C   0  0  0  0  0  0  0  0  0  0  0  0
   -0.7573   15.0547   -2.4932 C   0  0  0  0  0  0  0  0  0  0  0  0
   -1.9150   14.6346   -3.4353 C   0  0  0  0  0  0  0  0  0  0  0  0
   -2.1153   13.0936   -3.3773 C   0  0  0  0  0  0  0  0  0  0  0  0
   -1.3408   12.2366   -4.4030 C   0  0  0  0  0  0  0  0  0  0  0  0
    0.2085   12.3618   -4.4480 C   0  0  0  0  0  0  0  0  0  0  0  0
    0.8131   11.8755   -5.6985 N   0  0  0  0  0  0  0  0  0  0  0  0
    0.3708   10.9322   -6.5576 C   0  0  0  0  0  0  0  0  0  0  0  0
   -0.6872   10.3196   -6.4214 O   0  0  0  0  0  0  0  0  0  0  0  0
    1.2604   10.6389   -7.7771 C   0  0  0  0  0  0  0  0  0  0  0  0
    1.4385    9.1297   -8.0436 C   0  0  0  0  0  0  0  0  0  0  0  0
    1.6945    8.9837   -9.5486 C   0  0  0  0  0  0  0  0  0  0  0  0
    1.3325   10.3306  -10.1873 C   0  0  0  0  0  0  0  0  0  0  0  0
    0.6517   11.1505   -9.0895 C   0  0  0  0  0  0  0  0  0  0  0  0
    0.9652   11.9173   -3.1769 C   0  0  0  0  0  0  0  0  0  0  0  0
    1.8393   12.6953   -2.7227 O   0  0  0  0  0  0  0  0  0  0  0  0
    0.6422   10.8359   -2.6394 O   0  0  0  0  0  0  0  0  0  0  0  0
   -1.8353   15.2191   -4.8757 C   0  0  0  0  0  0  0  0  0  0  0  0
   -1.4171   16.7088   -4.9489 C   0  0  0  0  0  0  0  0  0  0  0  0
   -3.1558   14.9817   -5.6265 C   0  0  0  0  0  0  0  0  0  0  0  0
   -3.7467   15.8943   -6.1996 O   0  0  0  0  0  0  0  0  0  0  0  0
    0.0462   14.7011   -0.1339 C   0  0  0  0  0  0  0  0  0  0  0  0
   -0.1827   14.6962    1.2493 C   0  0  0  0  0  0  0  0  0  0  0  0
   -1.4098   14.8641    1.7802 N   0  0  0  0  0  0  0  0  0  0  0  0
  1  2  1  0
  2  3  1  0
  3  4  1  0
  4  5  2  0
  4  6  1  0
  6  7  1  0
  7 32  2  0
  7  8  1  0
  8  9  2  0
  9 10  1  0
  9 30  1  0
 10 11  1  0
 11 12  1  0
 11 26  1  0
 12 13  1  0
 13 14  1  0
 14 15  1  0
 14 23  1  0
 15 16  1  0
 16 17  2  0
 16 18  1  0
 18 22  1  0
 18 19  1  0
 19 20  1  0
 20 21  1  0
 21 22  1  0
 23 24  2  0
 23 25  1  0
 26 27  1  0
 26 28  1  0
 28 29  2  0
 30 31  2  0
 31 32  1  0
M  CHG  2   2   1  25  -1
M  END
>  <original SMILES>  (16) 
C[NH2+]CC(=O)Nc1cc(CC(CCC(NC(=O)C2CCCC2)C(=O)[O-])C(C)C=O)ccn1

>  <ref_pdb>  (16) 
Combi03.pdb

>  <ref_mols>  (16) 
x0003_0A,x0003_1A

>  <Glide GScore>  (16) 
-8.44742071860649

>  <RMSLigA>  (16) 
1.09826122023928

>  <RMSLigB>  (16) 
1.94163420121198

$$$$
Combi03_000144
     RDKit          3D

 29 30  0  0  1  0  0  0  0  0999 V2000
   -7.8072   13.0575    3.1862 C   0  0  0  0  0  0  0  0  0  0  0  0
   -6.5545   13.5406    2.5800 N   0  0  0  0  0  0  0  0  0  0  0  0
   -6.7355   14.6238    1.5932 C   0  0  0  0  0  0  0  0  0  0  0  0
   -5.4500   15.0145    0.8506 C   0  0  0  0  0  0  0  0  0  0  0  0
   -5.5664   15.4938   -0.2753 O   0  0  0  0  0  0  0  0  0  0  0  0
   -4.2666   14.8439    1.4759 N   0  0  0  0  0  0  0  0  0  0  0  0
   -2.9583   14.8759    0.9275 C   0  0  0  0  0  0  0  0  0  0  0  0
   -2.7404   14.7353   -0.4628 C   0  0  0  0  0  0  0  0  0  0  0  0
   -1.4287   14.6963   -0.9585 C   0  0  0  0  0  0  0  0  0  0  0  0
   -1.2128   14.5709   -2.4447 C   0  0  0  0  0  0  0  0  0  0  0  0
    0.0439   15.1883   -2.8750 N   0  0  0  0  0  0  0  0  0  0  0  0
    0.7633   14.8320   -3.9490 C   0  0  0  0  0  0  0  0  0  0  0  0
    1.8931   15.4954   -4.2197 N   0  0  0  0  0  0  0  0  0  0  0  0
    0.3315   13.7326   -4.8670 C   0  0  0  0  0  0  0  0  0  0  0  0
    0.9737   12.3782   -4.5139 C   0  0  2  0  0  0  0  0  0  0  0  0
    0.3607   11.3335   -5.3347 N   0  0  0  0  0  0  0  0  0  0  0  0
    0.6422   11.1220   -6.6307 C   0  0  0  0  0  0  0  0  0  0  0  0
    1.4417   11.8233   -7.2545 O   0  0  0  0  0  0  0  0  0  0  0  0
   -0.0501    9.9560   -7.3462 C   0  0  0  0  0  0  0  0  0  0  0  0
    0.3790    8.5845   -6.8184 C   0  0  0  0  0  0  0  0  0  0  0  0
   -0.7427    7.6520   -7.2678 C   0  0  0  0  0  0  0  0  0  0  0  0
   -2.0202    8.4917   -7.1704 C   0  0  0  0  0  0  0  0  0  0  0  0
   -1.5882    9.9645   -7.2634 C   0  0  0  0  0  0  0  0  0  0  0  0
    0.9857   12.0161   -3.0211 C   0  0  0  0  0  0  0  0  0  0  0  0
    1.7217   12.6962   -2.2739 O   0  0  0  0  0  0  0  0  0  0  0  0
    0.2362   11.0966   -2.6269 O   0  0  0  0  0  0  0  0  0  0  0  0
   -0.3518   14.7598   -0.0529 C   0  0  0  0  0  0  0  0  0  0  0  0
   -0.6499   14.8907    1.3101 C   0  0  0  0  0  0  0  0  0  0  0  0
   -1.9142   14.9525    1.7800 N   0  0  0  0  0  0  0  0  0  0  0  0
  1  2  1  0
  2  3  1  0
  3  4  1  0
  4  5  2  0
  4  6  1  0
  6  7  1  0
  7 29  2  0
  7  8  1  0
  8  9  2  0
  9 10  1  0
  9 27  1  0
 10 11  1  0
 11 12  1  0
 12 13  2  3
 12 14  1  0
 15 14  1  1
 15 16  1  0
 15 24  1  0
 16 17  1  0
 17 18  2  0
 17 19  1  0
 19 23  1  0
 19 20  1  0
 20 21  1  0
 21 22  1  0
 22 23  1  0
 24 25  2  0
 24 26  1  0
 27 28  2  0
 28 29  1  0
M  CHG  3   2   1  13   1  26  -1
M  END
>  <original SMILES>  (17) 
C[NH2+]CC(=O)Nc1cc(CNC(=[NH2+])C[C@H](NC(=O)C2CCCC2)C(=O)[O-])ccn1

>  <ref_pdb>  (17) 
Combi03.pdb

>  <ref_mols>  (17) 
x0003_0A,x0003_1A

>  <Glide GScore>  (17) 
-8.22677722281776

>  <RMSLigA>  (17) 
1.09486297248577

>  <RMSLigB>  (17) 
1.07667579703334

$$$$
Combi03_000093
     RDKit          3D

 30 31  0  0  1  0  0  0  0  0999 V2000
   -7.7774   15.0529    3.8049 C   0  0  0  0  0  0  0  0  0  0  0  0
   -6.5577   15.0961    2.9799 N   0  0  0  0  0  0  0  0  0  0  0  0
   -6.5391   14.1134    1.8809 C   0  0  0  0  0  0  0  0  0  0  0  0
   -5.3560   14.2962    0.9281 C   0  0  0  0  0  0  0  0  0  0  0  0
   -5.5746   14.1687   -0.2738 O   0  0  0  0  0  0  0  0  0  0  0  0
   -4.1639   14.6288    1.4689 N   0  0  0  0  0  0  0  0  0  0  0  0
   -2.8751   14.7051    0.8700 C   0  0  0  0  0  0  0  0  0  0  0  0
   -2.6969   14.7099   -0.5371 C   0  0  0  0  0  0  0  0  0  0  0  0
   -1.4014   14.6970   -1.0910 C   0  0  0  0  0  0  0  0  0  0  0  0
   -1.2647   14.6646   -2.6117 C   0  0  0  0  0  0  0  0  0  0  0  0
    0.0238   15.0905   -3.2091 N   0  0  0  0  0  0  0  0  0  0  0  0
    0.6421   16.2962   -2.8599 N   0  0  0  0  0  0  0  0  0  0  0  0
    0.6390   14.4450   -4.2351 C   0  0  0  0  0  0  0  0  0  0  0  0
    1.8422   14.8864   -4.6201 N   0  0  0  0  0  0  0  0  0  0  0  0
    0.0558   13.2816   -4.9677 C   0  0  0  0  0  0  0  0  0  0  0  0
    0.7851   11.9894   -4.6004 C   0  0  0  0  0  0  0  0  0  0  0  0
    0.0715   10.8510   -5.1689 N   0  0  0  0  0  0  0  0  0  0  0  0
    0.0870   10.4525   -6.4463 C   0  0  0  0  0  0  0  0  0  0  0  0
    0.6501   11.0859   -7.3407 O   0  0  0  0  0  0  0  0  0  0  0  0
   -0.6286    9.1254   -6.7347 C   0  0  0  0  0  0  0  0  0  0  0  0
   -1.6143    9.2124   -7.9183 C   0  0  0  0  0  0  0  0  0  0  0  0
   -1.4520    7.8976   -8.6805 C   0  0  0  0  0  0  0  0  0  0  0  0
    0.0257    7.5560   -8.5178 C   0  0  0  0  0  0  0  0  0  0  0  0
    0.3668    8.0017   -7.0938 C   0  0  0  0  0  0  0  0  0  0  0  0
    1.0189   11.7848   -3.0992 C   0  0  0  0  0  0  0  0  0  0  0  0
    0.6421   10.6962   -2.6200 O   0  0  0  0  0  0  0  0  0  0  0  0
    1.5742   12.6947   -2.4444 O   0  0  0  0  0  0  0  0  0  0  0  0
   -0.3050   14.6961   -0.2059 C   0  0  0  0  0  0  0  0  0  0  0  0
   -0.5599   14.7460    1.1761 C   0  0  0  0  0  0  0  0  0  0  0  0
   -1.8071   14.7429    1.7017 N   0  0  0  0  0  0  0  0  0  0  0  0
  1  2  1  0
  2  3  1  0
  3  4  1  0
  4  5  2  0
  4  6  1  0
  6  7  1  0
  7 30  2  0
  7  8  1  0
  8  9  2  0
  9 10  1  0
  9 28  1  0
 10 11  1  0
 11 12  1  0
 11 13  1  0
 13 14  2  0
 13 15  1  0
 15 16  1  0
 16 17  1  0
 16 25  1  0
 17 18  1  0
 18 19  2  0
 18 20  1  0
 20 24  1  0
 20 21  1  0
 21 22  1  0
 22 23  1  0
 23 24  1  0
 25 26  2  0
 25 27  1  0
 28 29  2  0
 29 30  1  0
M  CHG  4   2   1  12  -1  14   1  27  -1
M  END
>  <original SMILES>  (18) 
C[NH2+]CC(=O)Nc1cc(CN([NH-])C(=[NH2+])CC(NC(=O)C2CCCC2)C(=O)[O-])ccn1

>  <ref_pdb>  (18) 
Combi03.pdb

>  <ref_mols>  (18) 
x0003_0A,x0003_1A

>  <Glide GScore>  (18) 
-8.222127497761

>  <RMSLigA>  (18) 
1.11114896840962

>  <RMSLigB>  (18) 
1.53329921855222

$$$$
Combi03_000050
     RDKit          3D

 30 31  0  0  1  0  0  0  0  0999 V2000
   -7.7908   15.0144    3.7849 C   0  0  0  0  0  0  0  0  0  0  0  0
   -6.5582   15.0735    2.9798 N   0  0  0  0  0  0  0  0  0  0  0  0
   -6.5286   14.1213    1.8573 C   0  0  0  0  0  0  0  0  0  0  0  0
   -5.3111   14.2933    0.9493 C   0  0  0  0  0  0  0  0  0  0  0  0
   -5.4650   14.0390   -0.2424 O   0  0  0  0  0  0  0  0  0  0  0  0
   -4.1606   14.7395    1.5033 N   0  0  0  0  0  0  0  0  0  0  0  0
   -2.8614   14.8212    0.9346 C   0  0  0  0  0  0  0  0  0  0  0  0
   -2.6647   14.8204   -0.4674 C   0  0  0  0  0  0  0  0  0  0  0  0
   -1.3652   14.7688   -0.9986 C   0  0  0  0  0  0  0  0  0  0  0  0
   -1.2240   14.6812   -2.5108 C   0  0  0  0  0  0  0  0  0  0  0  0
    0.0592   15.0952   -3.1153 N   0  0  0  0  0  0  0  0  0  0  0  0
    0.6422   16.2844   -2.6935 N   0  0  0  0  0  0  0  0  0  0  0  0
    0.6594   14.4926   -4.1705 C   0  0  0  0  0  0  0  0  0  0  0  0
    1.8425   14.9344   -4.6205 N   0  0  0  0  0  0  0  0  0  0  0  0
    0.0610   13.3239   -4.8960 C   0  0  0  0  0  0  0  0  0  0  0  0
    0.8169   12.0347   -4.5681 C   0  0  2  0  0  0  0  0  0  0  0  0
    0.1496   10.9061   -5.2119 N   0  0  0  0  0  0  0  0  0  0  0  0
    0.2407   10.5656   -6.5052 C   0  0  0  0  0  0  0  0  0  0  0  0
    0.8762   11.2293   -7.3266 O   0  0  0  0  0  0  0  0  0  0  0  0
   -0.4837    9.2754   -6.9208 C   0  0  0  0  0  0  0  0  0  0  0  0
   -1.4636    9.5010   -8.0959 C   0  0  0  0  0  0  0  0  0  0  0  0
   -1.1042    8.4643   -9.1652 C   0  0  0  0  0  0  0  0  0  0  0  0
    0.3708    8.1577   -8.9275 C   0  0  0  0  0  0  0  0  0  0  0  0
    0.5058    8.1983   -7.4060 C   0  0  0  0  0  0  0  0  0  0  0  0
    1.0242   11.7917   -3.0704 C   0  0  0  0  0  0  0  0  0  0  0  0
    1.5484   12.6969   -2.3843 O   0  0  0  0  0  0  0  0  0  0  0  0
    0.6404   10.6963   -2.6201 O   0  0  0  0  0  0  0  0  0  0  0  0
   -0.2774   14.7654   -0.1026 C   0  0  0  0  0  0  0  0  0  0  0  0
   -0.5526   14.8487    1.2740 C   0  0  0  0  0  0  0  0  0  0  0  0
   -1.8060   14.8708    1.7800 N   0  0  0  0  0  0  0  0  0  0  0  0
  1  2  1  0
  2  3  1  0
  3  4  1  0
  4  5  2  0
  4  6  1  0
  6  7  1  0
  7 30  2  0
  7  8  1  0
  8  9  2  0
  9 10  1  0
  9 28  1  0
 10 11  1  0
 11 12  1  0
 11 13  1  0
 13 14  2  3
 13 15  1  0
 16 15  1  1
 16 17  1  0
 16 25  1  0
 17 18  1  0
 18 19  2  0
 18 20  1  0
 20 24  1  0
 20 21  1  0
 21 22  1  0
 22 23  1  0
 23 24  1  0
 25 26  2  0
 25 27  1  0
 28 29  2  0
 29 30  1  0
M  CHG  3   2   1  14   1  27  -1
M  END
>  <original SMILES>  (19) 
C[NH2+]CC(=O)Nc1cc(CN(N)C(=[NH2+])C[C@H](NC(=O)C2CCCC2)C(=O)[O-])ccn1

>  <ref_pdb>  (19) 
Combi03.pdb

>  <ref_mols>  (19) 
x0003_0A,x0003_1A

>  <Glide GScore>  (19) 
-8.09078265647474

>  <RMSLigA>  (19) 
1.10701440364443

>  <RMSLigB>  (19) 
1.1519007285726

$$$$
Combi03_000056
     RDKit          3D

 32 33  0  0  1  0  0  0  0  0999 V2000
   -8.9718   13.4997    4.6105 C   0  0  0  0  0  0  0  0  0  0  0  0
   -7.7582   13.5923    3.7800 N   0  0  0  0  0  0  0  0  0  0  0  0
   -7.5956   14.8770    3.0914 C   0  0  0  0  0  0  0  0  0  0  0  0
   -6.6304   14.6965    1.9369 C   0  0  0  0  0  0  0  0  0  0  0  0
   -7.0621   14.2392    0.8798 O   0  0  0  0  0  0  0  0  0  0  0  0
   -5.3521   15.0333    2.1797 N   0  0  0  0  0  0  0  0  0  0  0  0
   -4.2603   15.1084    1.2743 C   0  0  0  0  0  0  0  0  0  0  0  0
   -4.4773   15.2483   -0.1153 C   0  0  0  0  0  0  0  0  0  0  0  0
   -3.3811   15.2255   -0.9963 C   0  0  0  0  0  0  0  0  0  0  0  0
   -3.6104   15.3850   -2.4919 C   0  0  0  0  0  0  0  0  0  0  0  0
   -3.1872   14.2240   -3.2997 N   0  0  0  0  0  0  0  0  0  0  0  0
   -1.8992   14.1571   -3.7336 C   0  0  0  0  0  0  0  0  0  0  0  0
   -1.1068   15.0851   -3.5632 O   0  0  0  0  0  0  0  0  0  0  0  0
   -1.3978   12.9177   -4.4901 C   0  0  0  0  0  0  0  0  0  0  0  0
    0.1375   12.6751   -4.4279 C   0  0  0  0  0  0  0  0  0  0  0  0
    0.6425   11.8657   -5.5489 N   0  0  0  0  0  0  0  0  0  0  0  0
    0.0296   10.8767   -6.2283 C   0  0  0  0  0  0  0  0  0  0  0  0
   -1.0990   10.4608   -5.9715 O   0  0  0  0  0  0  0  0  0  0  0  0
    0.8168   10.2649   -7.3973 C   0  0  0  0  0  0  0  0  0  0  0  0
    0.8751    8.7214   -7.3095 C   0  0  0  0  0  0  0  0  0  0  0  0
    0.3034    8.1742   -8.6239 C   0  0  0  0  0  0  0  0  0  0  0  0
    0.4266    9.3296   -9.6137 C   0  0  0  0  0  0  0  0  0  0  0  0
    0.1699   10.5721   -8.7600 C   0  0  0  0  0  0  0  0  0  0  0  0
    0.6534   12.1968   -3.0528 C   0  0  0  0  0  0  0  0  0  0  0  0
    1.4423   12.9425   -2.4276 O   0  0  0  0  0  0  0  0  0  0  0  0
    0.2412   11.0979   -2.6229 O   0  0  0  0  0  0  0  0  0  0  0  0
   -4.2631   13.2914   -3.7283 C   0  0  0  0  0  0  0  0  0  0  0  0
   -4.8348   13.7076   -5.0970 C   0  0  0  0  0  0  0  0  0  0  0  0
   -5.3780   13.0869   -2.6812 C   0  0  0  0  0  0  0  0  0  0  0  0
   -2.0884   15.1039   -0.4498 C   0  0  0  0  0  0  0  0  0  0  0  0
   -1.9512   15.0954    0.9451 C   0  0  0  0  0  0  0  0  0  0  0  0
   -3.0070   15.0865    1.7799 N   0  0  0  0  0  0  0  0  0  0  0  0
  1  2  1  0
  2  3  1  0
  3  4  1  0
  4  5  2  0
  4  6  1  0
  6  7  1  0
  7 32  2  0
  7  8  1  0
  8  9  2  0
  9 10  1  0
  9 30  1  0
 10 11  1  0
 11 12  1  0
 11 27  1  0
 12 13  2  0
 12 14  1  0
 14 15  1  0
 15 16  1  0
 15 24  1  0
 16 17  1  0
 17 18  2  0
 17 19  1  0
 19 23  1  0
 19 20  1  0
 20 21  1  0
 21 22  1  0
 22 23  1  0
 24 25  2  0
 24 26  1  0
 27 28  1  0
 27 29  1  0
 30 31  2  0
 31 32  1  0
M  CHG  2   2   1  26  -1
M  END
>  <original SMILES>  (20) 
C[NH2+]CC(=O)Nc1cc(CN(C(=O)CC(NC(=O)C2CCCC2)C(=O)[O-])C(C)C)ccn1

>  <ref_pdb>  (20) 
Combi03.pdb

>  <ref_mols>  (20) 
x0003_0A,x0003_1A

>  <Glide GScore>  (20) 
-8.02651860143502

>  <RMSLigA>  (20) 
1.92794873669837

>  <RMSLigB>  (20) 
1.5583256387773

$$$$
Combi03_000051
     RDKit          3D

 29 30  0  0  1  0  0  0  0  0999 V2000
   -8.1059   13.7536    3.0445 C   0  0  0  0  0  0  0  0  0  0  0  0
   -6.7101   13.6720    2.5800 N   0  0  0  0  0  0  0  0  0  0  0  0
   -6.1537   14.9488    2.1027 C   0  0  0  0  0  0  0  0  0  0  0  0
   -4.9949   14.6645    1.1618 C   0  0  0  0  0  0  0  0  0  0  0  0
   -5.1971   13.8959    0.2230 O   0  0  0  0  0  0  0  0  0  0  0  0
   -3.8237   15.2711    1.4229 N   0  0  0  0  0  0  0  0  0  0  0  0
   -2.6023   15.0962    0.7271 C   0  0  0  0  0  0  0  0  0  0  0  0
   -2.6124   14.9372   -0.6778 C   0  0  0  0  0  0  0  0  0  0  0  0
   -1.4062   14.7131   -1.3638 C   0  0  0  0  0  0  0  0  0  0  0  0
   -1.4237   14.5241   -2.8683 C   0  0  0  0  0  0  0  0  0  0  0  0
   -0.5430   15.5259   -3.6671 C   0  0  0  0  0  0  0  0  0  0  0  0
   -1.3888   16.2994   -4.6945 C   0  0  0  0  0  0  0  0  0  0  0  0
    0.6977   14.8902   -4.3388 C   0  0  0  0  0  0  0  0  0  0  0  0
    0.4103   13.5998   -5.1420 C   0  0  0  0  0  0  0  0  0  0  0  0
    0.9743   12.2451   -4.6295 C   0  0  0  0  0  0  0  0  0  0  0  0
    0.2403   11.1529   -5.2702 N   0  0  0  0  0  0  0  0  0  0  0  0
    0.3391   10.7599   -6.5491 C   0  0  0  0  0  0  0  0  0  0  0  0
    1.0422   11.3434   -7.3768 O   0  0  0  0  0  0  0  0  0  0  0  0
   -0.4577    9.5052   -6.9419 C   0  0  0  0  0  0  0  0  0  0  0  0
   -1.4247    9.7727   -8.1180 C   0  0  0  0  0  0  0  0  0  0  0  0
   -0.9393    8.9295   -9.3058 C   0  0  0  0  0  0  0  0  0  0  0  0
    0.4845    8.5008   -8.9565 C   0  0  0  0  0  0  0  0  0  0  0  0
    0.4725    8.3814   -7.4340 C   0  0  0  0  0  0  0  0  0  0  0  0
    1.0342   12.0008   -3.1056 C   0  0  0  0  0  0  0  0  0  0  0  0
    0.2711   11.1313   -2.6200 O   0  0  0  0  0  0  0  0  0  0  0  0
    1.8423   12.6853   -2.4369 O   0  0  0  0  0  0  0  0  0  0  0  0
   -0.2100   14.6966   -0.6231 C   0  0  0  0  0  0  0  0  0  0  0  0
   -0.2809   14.9063    0.7654 C   0  0  0  0  0  0  0  0  0  0  0  0
   -1.4448   15.0960    1.4247 N   0  0  0  0  0  0  0  0  0  0  0  0
  1  2  1  0
  2  3  1  0
  3  4  1  0
  4  5  2  0
  4  6  1  0
  6  7  1  0
  7 29  2  0
  7  8  1  0
  8  9  2  0
  9 10  1  0
  9 27  1  0
 10 11  1  0
 11 12  1  0
 11 13  1  0
 13 14  1  0
 14 15  1  0
 15 16  1  0
 15 24  1  0
 16 17  1  0
 17 18  2  0
 17 19  1  0
 19 23  1  0
 19 20  1  0
 20 21  1  0
 21 22  1  0
 22 23  1  0
 24 25  2  0
 24 26  1  0
 27 28  2  0
 28 29  1  0
M  CHG  2   2   1  26  -1
M  END
>  <original SMILES>  (21) 
C[NH2+]CC(=O)Nc1cc(CC(C)CCC(NC(=O)C2CCCC2)C(=O)[O-])ccn1

>  <ref_pdb>  (21) 
Combi03.pdb

>  <ref_mols>  (21) 
x0003_0A,x0003_1A

>  <Glide GScore>  (21) 
-7.84497259198068

>  <RMSLigA>  (21) 
0.952291478945795

>  <RMSLigB>  (21) 
1.36226885086106

$$$$
Combi03_000044
     RDKit          3D

 31 32  0  0  1  0  0  0  0  0999 V2000
   -8.7046   13.8489    4.1413 C   0  0  0  0  0  0  0  0  0  0  0  0
   -7.4479   13.7428    3.3795 N   0  0  0  0  0  0  0  0  0  0  0  0
   -7.0174   14.9937    2.7403 C   0  0  0  0  0  0  0  0  0  0  0  0
   -6.0483   14.6918    1.6091 C   0  0  0  0  0  0  0  0  0  0  0  0
   -6.4570   14.0570    0.6393 O   0  0  0  0  0  0  0  0  0  0  0  0
   -4.7915   15.1321    1.7799 N   0  0  0  0  0  0  0  0  0  0  0  0
   -3.7051   15.0978    0.8803 C   0  0  0  0  0  0  0  0  0  0  0  0
   -3.9394   15.1440   -0.5121 C   0  0  0  0  0  0  0  0  0  0  0  0
   -2.8499   15.1402   -1.3947 C   0  0  0  0  0  0  0  0  0  0  0  0
   -3.0847   15.2846   -2.8846 C   0  0  0  0  0  0  0  0  0  0  0  0
   -2.6840   14.1026   -3.6357 N   0  0  0  0  0  0  0  0  0  0  0  0
   -3.6143   13.1279   -3.7374 C   0  0  0  0  0  0  0  0  0  0  0  0
   -4.4355   12.3175   -3.8257 N   0  0  0  0  0  0  0  0  0  0  0  0
   -1.4692   14.0060   -4.2171 C   0  0  0  0  0  0  0  0  0  0  0  0
   -0.6399   14.9136   -4.1773 O   0  0  0  0  0  0  0  0  0  0  0  0
   -1.1312   12.7296   -5.0015 C   0  0  0  0  0  0  0  0  0  0  0  0
    0.3459   12.2860   -4.9352 C   0  0  0  0  0  0  0  0  0  0  0  0
    0.4448   11.0988   -5.7839 N   0  0  0  0  0  0  0  0  0  0  0  0
    0.9623   11.0017   -7.0205 C   0  0  0  0  0  0  0  0  0  0  0  0
    1.6130   11.8942   -7.5553 O   0  0  0  0  0  0  0  0  0  0  0  0
    0.6923    9.7029   -7.8098 C   0  0  0  0  0  0  0  0  0  0  0  0
    0.3032    8.4776   -6.9556 C   0  0  0  0  0  0  0  0  0  0  0  0
   -1.2255    8.4574   -6.9634 C   0  0  0  0  0  0  0  0  0  0  0  0
   -1.5702    8.8824   -8.3901 C   0  0  0  0  0  0  0  0  0  0  0  0
   -0.4853    9.8954   -8.7936 C   0  0  0  0  0  0  0  0  0  0  0  0
    0.8358   11.9959   -3.4957 C   0  0  0  0  0  0  0  0  0  0  0  0
    1.7829   12.6834   -3.0467 O   0  0  0  0  0  0  0  0  0  0  0  0
    0.2417   11.0965   -2.8564 O   0  0  0  0  0  0  0  0  0  0  0  0
   -1.5503   15.0926   -0.8551 C   0  0  0  0  0  0  0  0  0  0  0  0
   -1.4037   15.0957    0.5405 C   0  0  0  0  0  0  0  0  0  0  0  0
   -2.4528   15.0968    1.3858 N   0  0  0  0  0  0  0  0  0  0  0  0
  1  2  1  0
  2  3  1  0
  3  4  1  0
  4  5  2  0
  4  6  1  0
  6  7  1  0
  7 31  2  0
  7  8  1  0
  8  9  2  0
  9 10  1  0
  9 29  1  0
 10 11  1  0
 11 12  1  0
 11 14  1  0
 12 13  3  0
 14 15  2  0
 14 16  1  0
 16 17  1  0
 17 18  1  0
 17 26  1  0
 18 19  1  0
 19 20  2  0
 19 21  1  0
 21 25  1  0
 21 22  1  0
 22 23  1  0
 23 24  1  0
 24 25  1  0
 26 27  2  0
 26 28  1  0
 29 30  2  0
 30 31  1  0
M  CHG  2   2   1  28  -1
M  END
>  <original SMILES>  (22) 
C[NH2+]CC(=O)Nc1cc(CN(C#N)C(=O)CC(NC(=O)C2CCCC2)C(=O)[O-])ccn1

>  <ref_pdb>  (22) 
Combi03.pdb

>  <ref_mols>  (22) 
x0003_0A,x0003_1A

>  <Glide GScore>  (22) 
-7.84189308285036

>  <RMSLigA>  (22) 
1.46050087232189

>  <RMSLigB>  (22) 
1.13779969263149

$$$$
Combi03_000069
     RDKit          3D

 31 32  0  0  1  0  0  0  0  0999 V2000
    0.2183   16.1980   -3.8229 C   0  0  0  0  0  0  0  0  0  0  0  0
   -1.2212   16.0024   -4.3420 C   0  0  0  0  0  0  0  0  0  0  0  0
   -1.9439   14.8935   -3.6857 N   0  0  0  0  0  0  0  0  0  0  0  0
   -3.0700   15.2664   -2.8226 C   0  0  0  0  0  0  0  0  0  0  0  0
   -2.8397   15.1145   -1.3292 C   0  0  0  0  0  0  0  0  0  0  0  0
   -1.5555   15.0699   -0.7480 C   0  0  0  0  0  0  0  0  0  0  0  0
   -1.4551   15.0963    0.6524 C   0  0  0  0  0  0  0  0  0  0  0  0
   -2.5301   15.0961    1.4648 N   0  0  0  0  0  0  0  0  0  0  0  0
   -3.7650   15.0975    0.9178 C   0  0  0  0  0  0  0  0  0  0  0  0
   -4.8766   15.1659    1.7799 N   0  0  0  0  0  0  0  0  0  0  0  0
   -6.1194   14.6836    1.6125 C   0  0  0  0  0  0  0  0  0  0  0  0
   -6.5000   14.0236    0.6469 O   0  0  0  0  0  0  0  0  0  0  0  0
   -7.1157   14.9964    2.7249 C   0  0  0  0  0  0  0  0  0  0  0  0
   -7.5707   13.7596    3.3800 N   0  0  0  0  0  0  0  0  0  0  0  0
   -8.8055   13.9062    4.1695 C   0  0  0  0  0  0  0  0  0  0  0  0
   -3.9562   15.1357   -0.4794 C   0  0  0  0  0  0  0  0  0  0  0  0
   -1.7468   13.5780   -3.9399 C   0  0  0  0  0  0  0  0  0  0  0  0
   -2.3612   12.6964   -3.3360 O   0  0  0  0  0  0  0  0  0  0  0  0
   -0.8001   13.1581   -5.0673 C   0  0  0  0  0  0  0  0  0  0  0  0
   -0.0341   11.8540   -4.7821 C   0  0  0  0  0  0  0  0  0  0  0  0
    0.7374   11.4959   -5.9641 N   0  0  0  0  0  0  0  0  0  0  0  0
    0.2448   10.9253   -7.0749 C   0  0  0  0  0  0  0  0  0  0  0  0
   -0.9523   10.6949   -7.2428 O   0  0  0  0  0  0  0  0  0  0  0  0
    1.2603   10.5816   -8.1690 C   0  0  0  0  0  0  0  0  0  0  0  0
    1.2739    9.0771   -8.5191 C   0  0  0  0  0  0  0  0  0  0  0  0
    1.0482    8.9834  -10.0314 C   0  0  0  0  0  0  0  0  0  0  0  0
    1.4982   10.3371  -10.5713 C   0  0  0  0  0  0  0  0  0  0  0  0
    1.0211   11.3171   -9.4997 C   0  0  0  0  0  0  0  0  0  0  0  0
    0.8783   11.9008   -3.5439 C   0  0  0  0  0  0  0  0  0  0  0  0
    1.7992   12.7489   -3.5337 O   0  0  0  0  0  0  0  0  0  0  0  0
    0.6406   11.0928   -2.6204 O   0  0  0  0  0  0  0  0  0  0  0  0
  1  2  1  0
  2  3  1  0
  3  4  1  0
  3 17  1  0
  4  5  1  0
  5 16  1  0
  5  6  2  0
  6  7  1  0
  7  8  2  0
  8  9  1  0
  9 10  1  0
  9 16  2  0
 10 11  1  0
 11 12  2  0
 11 13  1  0
 13 14  1  0
 14 15  1  0
 17 18  2  0
 17 19  1  0
 19 20  1  0
 20 21  1  0
 20 29  1  0
 21 22  1  0
 22 23  2  0
 22 24  1  0
 24 28  1  0
 24 25  1  0
 25 26  1  0
 26 27  1  0
 27 28  1  0
 29 30  2  0
 29 31  1  0
M  CHG  2  14   1  31  -1
M  END
>  <original SMILES>  (23) 
CCN(Cc1ccnc(NC(=O)C[NH2+]C)c1)C(=O)CC(NC(=O)C1CCCC1)C(=O)[O-]

>  <ref_pdb>  (23) 
Combi03.pdb

>  <ref_mols>  (23) 
x0003_0A,x0003_1A

>  <Glide GScore>  (23) 
-7.68657641108034

>  <RMSLigA>  (23) 
1.46917245699441

>  <RMSLigB>  (23) 
1.93864480158379

$$$$
Combi03_000091
     RDKit          3D

 28 29  0  0  1  0  0  0  0  0999 V2000
   -8.5584   13.1237    3.8365 C   0  0  0  0  0  0  0  0  0  0  0  0
   -7.3582   13.1701    2.9826 N   0  0  0  0  0  0  0  0  0  0  0  0
   -6.9495   14.5282    2.5921 C   0  0  0  0  0  0  0  0  0  0  0  0
   -5.9073   14.4378    1.4907 C   0  0  0  0  0  0  0  0  0  0  0  0
   -6.2274   13.9024    0.4302 O   0  0  0  0  0  0  0  0  0  0  0  0
   -4.6942   14.9353    1.7800 N   0  0  0  0  0  0  0  0  0  0  0  0
   -3.5487   15.0188    0.9544 C   0  0  0  0  0  0  0  0  0  0  0  0
   -3.6918   15.0909   -0.4498 C   0  0  0  0  0  0  0  0  0  0  0  0
   -2.5488   15.0961   -1.2618 C   0  0  0  0  0  0  0  0  0  0  0  0
   -2.7051   15.1651   -2.7724 C   0  0  0  0  0  0  0  0  0  0  0  0
   -1.7496   14.3973   -3.4792 O   0  0  0  0  0  0  0  0  0  0  0  0
   -1.9734   13.0136   -3.1499 N   0  0  0  0  0  0  0  0  0  0  0  0
   -1.4011   12.2682   -4.2531 C   0  0  0  0  0  0  0  0  0  0  0  0
    0.1431   12.3867   -4.3381 C   0  0  0  0  0  0  0  0  0  0  0  0
    0.7023   11.8690   -5.5954 N   0  0  0  0  0  0  0  0  0  0  0  0
    0.2420   10.8868   -6.3961 C   0  0  0  0  0  0  0  0  0  0  0  0
   -0.7892   10.2507   -6.1881 O   0  0  0  0  0  0  0  0  0  0  0  0
    1.0739   10.5902   -7.6557 C   0  0  0  0  0  0  0  0  0  0  0  0
    1.3201    9.0799   -7.8771 C   0  0  0  0  0  0  0  0  0  0  0  0
    1.3436    8.8976   -9.3923 C   0  0  0  0  0  0  0  0  0  0  0  0
    0.2808    9.8722   -9.8869 C   0  0  0  0  0  0  0  0  0  0  0  0
    0.3756   11.0788   -8.9476 C   0  0  0  0  0  0  0  0  0  0  0  0
    0.9217   11.9174   -3.0943 C   0  0  0  0  0  0  0  0  0  0  0  0
    1.7831   12.6963   -2.6203 O   0  0  0  0  0  0  0  0  0  0  0  0
    0.6426   10.7935   -2.6205 O   0  0  0  0  0  0  0  0  0  0  0  0
   -1.2826   15.0884   -0.6437 C   0  0  0  0  0  0  0  0  0  0  0  0
   -1.2275   15.0961    0.7604 C   0  0  0  0  0  0  0  0  0  0  0  0
   -2.3298   15.0565    1.5390 N   0  0  0  0  0  0  0  0  0  0  0  0
  1  2  1  0
  2  3  1  0
  3  4  1  0
  4  5  2  0
  4  6  1  0
  6  7  1  0
  7 28  2  0
  7  8  1  0
  8  9  2  0
  9 10  1  0
  9 26  1  0
 10 11  1  0
 11 12  1  0
 12 13  1  0
 13 14  1  0
 14 15  1  0
 14 23  1  0
 15 16  1  0
 16 17  2  0
 16 18  1  0
 18 22  1  0
 18 19  1  0
 19 20  1  0
 20 21  1  0
 21 22  1  0
 23 24  2  0
 23 25  1  0
 26 27  2  0
 27 28  1  0
M  CHG  2   2   1  25  -1
M  END
>  <original SMILES>  (24) 
C[NH2+]CC(=O)Nc1cc(CONCC(NC(=O)C2CCCC2)C(=O)[O-])ccn1

>  <ref_pdb>  (24) 
Combi03.pdb

>  <ref_mols>  (24) 
x0003_0A,x0003_1A

>  <Glide GScore>  (24) 
-7.55703621550924

>  <RMSLigA>  (24) 
1.25627129915406

>  <RMSLigB>  (24) 
1.81561130643373

$$$$
Combi03_000022
     RDKit          3D

 29 30  0  0  1  0  0  0  0  0999 V2000
   -8.1723   14.8061    4.1681 C   0  0  0  0  0  0  0  0  0  0  0  0
   -6.9578   15.0963    3.3805 N   0  0  0  0  0  0  0  0  0  0  0  0
   -6.6108   14.0697    2.3831 C   0  0  0  0  0  0  0  0  0  0  0  0
   -5.5927   14.5850    1.3641 C   0  0  0  0  0  0  0  0  0  0  0  0
   -6.0047   14.8821    0.2453 O   0  0  0  0  0  0  0  0  0  0  0  0
   -4.3182   14.7501    1.7796 N   0  0  0  0  0  0  0  0  0  0  0  0
   -3.1263   14.8823    1.0063 C   0  0  0  0  0  0  0  0  0  0  0  0
   -3.1275   14.6975   -0.4003 C   0  0  0  0  0  0  0  0  0  0  0  0
   -1.9151   14.6961   -1.1164 C   0  0  0  0  0  0  0  0  0  0  0  0
   -1.9291   14.4297   -2.6108 C   0  0  0  0  0  0  0  0  0  0  0  0
   -1.2267   15.4239   -3.4209 N   0  0  0  0  0  0  0  0  0  0  0  0
    0.0865   14.9784   -3.8739 C   0  0  0  0  0  0  0  0  0  0  0  0
    0.7798   16.1683   -4.5546 C   0  0  0  0  0  0  0  0  0  0  0  0
   -0.0452   13.7614   -4.8276 C   0  0  0  0  0  0  0  0  0  0  0  0
    0.7852   12.4984   -4.4956 C   0  0  0  0  0  0  0  0  0  0  0  0
    0.3181   11.3970   -5.3390 N   0  0  0  0  0  0  0  0  0  0  0  0
    0.6426   11.1640   -6.6203 C   0  0  0  0  0  0  0  0  0  0  0  0
    1.4282   11.8755   -7.2516 O   0  0  0  0  0  0  0  0  0  0  0  0
   -0.0068    9.9335   -7.2774 C   0  0  0  0  0  0  0  0  0  0  0  0
   -1.1118   10.3354   -8.2831 C   0  0  0  0  0  0  0  0  0  0  0  0
   -0.7526    9.6853   -9.6224 C   0  0  0  0  0  0  0  0  0  0  0  0
    0.7541    9.4617   -9.5560 C   0  0  0  0  0  0  0  0  0  0  0  0
    1.0009    9.0976   -8.0947 C   0  0  0  0  0  0  0  0  0  0  0  0
    0.7949   12.0567   -3.0204 C   0  0  0  0  0  0  0  0  0  0  0  0
    0.0630   11.0963   -2.6916 O   0  0  0  0  0  0  0  0  0  0  0  0
    1.5197   12.6940   -2.2213 O   0  0  0  0  0  0  0  0  0  0  0  0
   -0.7180   14.8986   -0.4061 C   0  0  0  0  0  0  0  0  0  0  0  0
   -0.7993   15.1058    0.9805 C   0  0  0  0  0  0  0  0  0  0  0  0
   -1.9642   15.0960    1.6664 N   0  0  0  0  0  0  0  0  0  0  0  0
  1  2  1  0
  2  3  1  0
  3  4  1  0
  4  5  2  0
  4  6  1  0
  6  7  1  0
  7 29  2  0
  7  8  1  0
  8  9  2  0
  9 10  1  0
  9 27  1  0
 10 11  1  0
 11 12  1  0
 12 13  1  0
 12 14  1  0
 14 15  1  0
 15 16  1  0
 15 24  1  0
 16 17  1  0
 17 18  2  0
 17 19  1  0
 19 23  1  0
 19 20  1  0
 20 21  1  0
 21 22  1  0
 22 23  1  0
 24 25  2  0
 24 26  1  0
 27 28  2  0
 28 29  1  0
M  CHG  2   2   1  26  -1
M  END
>  <original SMILES>  (25) 
C[NH2+]CC(=O)Nc1cc(CNC(C)CC(NC(=O)C2CCCC2)C(=O)[O-])ccn1

>  <ref_pdb>  (25) 
Combi03.pdb

>  <ref_mols>  (25) 
x0003_0A,x0003_1A

>  <Glide GScore>  (25) 
-8.92457391613523

>  <RMSLigA>  (25) 
1.22372316117067

>  <RMSLigB>  (25) 
1.37148945529806

$$$$
Combi03_000083
     RDKit          3D

 31 32  0  0  1  0  0  0  0  0999 V2000
   -8.0033   12.6711    2.6465 C   0  0  0  0  0  0  0  0  0  0  0  0
   -7.3954   13.7993    3.3797 N   0  0  0  0  0  0  0  0  0  0  0  0
   -7.0230   14.9820    2.5731 C   0  0  0  0  0  0  0  0  0  0  0  0
   -6.0071   14.6994    1.4607 C   0  0  0  0  0  0  0  0  0  0  0  0
   -6.4091   14.3093    0.3699 O   0  0  0  0  0  0  0  0  0  0  0  0
   -4.7277   14.9375    1.7799 N   0  0  0  0  0  0  0  0  0  0  0  0
   -3.5389   14.9058    1.0163 C   0  0  0  0  0  0  0  0  0  0  0  0
   -3.5424   14.7181   -0.3868 C   0  0  0  0  0  0  0  0  0  0  0  0
   -2.3215   14.6965   -1.0865 C   0  0  0  0  0  0  0  0  0  0  0  0
   -2.3360   14.4917   -2.5992 C   0  0  0  0  0  0  0  0  0  0  0  0
   -1.5427   15.4557   -3.3836 N   0  0  0  0  0  0  0  0  0  0  0  0
   -0.2059   15.0805   -3.1970 N   0  0  0  0  0  0  0  0  0  0  0  0
    0.6297   15.2183   -4.2807 C   0  0  0  0  0  0  0  0  0  0  0  0
    1.0309   13.8935   -4.9392 C   0  0  0  0  0  0  0  0  0  0  0  0
    0.4251   12.5734   -4.3703 C   0  0  1  0  0  0  0  0  0  0  0  0
    0.6384   11.4863   -5.3197 N   0  0  0  0  0  0  0  0  0  0  0  0
   -0.2150   11.0286   -6.2440 C   0  0  0  0  0  0  0  0  0  0  0  0
   -1.3362   11.5042   -6.4182 O   0  0  0  0  0  0  0  0  0  0  0  0
    0.2785    9.8447   -7.0968 C   0  0  0  0  0  0  0  0  0  0  0  0
   -0.4409    8.5331   -6.6976 C   0  0  0  0  0  0  0  0  0  0  0  0
   -1.0157    7.9342   -7.9845 C   0  0  0  0  0  0  0  0  0  0  0  0
   -1.2321    9.1376   -8.8978 C   0  0  0  0  0  0  0  0  0  0  0  0
   -0.0298   10.0372   -8.5987 C   0  0  0  0  0  0  0  0  0  0  0  0
    0.8914   12.1305   -2.9682 C   0  0  0  0  0  0  0  0  0  0  0  0
    0.6428   10.9563   -2.6226 O   0  0  0  0  0  0  0  0  0  0  0  0
    1.4400   12.9760   -2.2252 O   0  0  0  0  0  0  0  0  0  0  0  0
    1.0789   16.3357   -4.7356 N   0  0  0  0  0  0  0  0  0  0  0  0
    0.6026   17.4171   -3.9359 O   0  0  0  0  0  0  0  0  0  0  0  0
   -1.1287   14.8602   -0.3469 C   0  0  0  0  0  0  0  0  0  0  0  0
   -1.2197   15.0962    1.0306 C   0  0  0  0  0  0  0  0  0  0  0  0
   -2.3888   15.0959    1.6962 N   0  0  0  0  0  0  0  0  0  0  0  0
  1  2  1  0
  2  3  1  0
  3  4  1  0
  4  5  2  0
  4  6  1  0
  6  7  1  0
  7 31  2  0
  7  8  1  0
  8  9  2  0
  9 10  1  0
  9 29  1  0
 10 11  1  0
 11 12  1  0
 12 13  1  0
 13 14  1  0
 13 27  2  3
 15 14  1  6
 15 16  1  0
 15 24  1  0
 16 17  1  0
 17 18  2  0
 17 19  1  0
 19 23  1  0
 19 20  1  0
 20 21  1  0
 21 22  1  0
 22 23  1  0
 24 25  2  0
 24 26  1  0
 27 28  1  0
 29 30  2  0
 30 31  1  0
M  CHG  2   2   1  26  -1
M  END
>  <original SMILES>  (26) 
C[NH2+]CC(=O)Nc1cc(CNNC(C[C@@H](NC(=O)C2CCCC2)C(=O)[O-])=NO)ccn1

>  <ref_pdb>  (26) 
Combi03.pdb

>  <ref_mols>  (26) 
x0003_0A,x0003_1A

>  <Glide GScore>  (26) 
-7.83057892288557

>  <RMSLigA>  (26) 
1.13971087846601

>  <RMSLigB>  (26) 
1.44481491722714

$$$$
Combi03_000088
     RDKit          3D

 31 33  0  0  1  0  0  0  0  0999 V2000
   -7.9838   12.7430    2.6115 C   0  0  0  0  0  0  0  0  0  0  0  0
   -7.3582   13.8377    3.3800 N   0  0  0  0  0  0  0  0  0  0  0  0
   -6.8909   15.0156    2.6218 C   0  0  0  0  0  0  0  0  0  0  0  0
   -5.8676   14.6963    1.5302 C   0  0  0  0  0  0  0  0  0  0  0  0
   -6.2598   14.1575    0.4958 O   0  0  0  0  0  0  0  0  0  0  0  0
   -4.5926   15.0495    1.7800 N   0  0  0  0  0  0  0  0  0  0  0  0
   -3.4816   15.0613    0.8945 C   0  0  0  0  0  0  0  0  0  0  0  0
   -3.6820   15.1025   -0.5066 C   0  0  0  0  0  0  0  0  0  0  0  0
   -2.5783   15.0961   -1.3735 C   0  0  0  0  0  0  0  0  0  0  0  0
   -2.8174   15.2190   -2.8662 C   0  0  0  0  0  0  0  0  0  0  0  0
   -3.1257   13.9031   -3.4683 N   0  0  0  0  0  0  0  0  0  0  0  0
   -3.8687   13.9353   -4.7459 C   0  0  0  0  0  0  0  0  0  0  0  0
   -3.6179   12.5728   -5.4076 C   0  0  0  0  0  0  0  0  0  0  0  0
   -2.7308   11.8156   -4.4153 C   0  0  0  0  0  0  0  0  0  0  0  0
   -2.0272   12.9214   -3.6168 C   0  0  0  0  0  0  0  0  0  0  0  0
   -0.7694   13.5123   -4.3357 C   0  0  0  0  0  0  0  0  0  0  0  0
    0.4973   12.6307   -4.3577 C   0  0  0  0  0  0  0  0  0  0  0  0
    0.3601   11.5485   -5.3252 N   0  0  0  0  0  0  0  0  0  0  0  0
    0.9220   11.4916   -6.5412 C   0  0  0  0  0  0  0  0  0  0  0  0
    1.7595   12.2960   -6.9393 O   0  0  0  0  0  0  0  0  0  0  0  0
    0.5058   10.3222   -7.4498 C   0  0  0  0  0  0  0  0  0  0  0  0
    0.6416    8.9258   -6.8019 C   0  0  0  0  0  0  0  0  0  0  0  0
   -0.5626    8.1260   -7.2952 C   0  0  0  0  0  0  0  0  0  0  0  0
   -1.6703    9.1672   -7.4280 C   0  0  0  0  0  0  0  0  0  0  0  0
   -0.9595   10.4294   -7.9282 C   0  0  0  0  0  0  0  0  0  0  0  0
    0.8846   12.1351   -2.9640 C   0  0  0  0  0  0  0  0  0  0  0  0
    1.4422   12.9682   -2.2193 O   0  0  0  0  0  0  0  0  0  0  0  0
    0.5408   10.9828   -2.6201 O   0  0  0  0  0  0  0  0  0  0  0  0
   -1.2854   15.0560   -0.8181 C   0  0  0  0  0  0  0  0  0  0  0  0
   -1.1675   15.0960    0.5837 C   0  0  0  0  0  0  0  0  0  0  0  0
   -2.2333   15.0949    1.4141 N   0  0  0  0  0  0  0  0  0  0  0  0
  1  2  1  0
  2  3  1  0
  3  4  1  0
  4  5  2  0
  4  6  1  0
  6  7  1  0
  7 31  2  0
  7  8  1  0
  8  9  2  0
  9 10  1  0
  9 29  1  0
 10 11  1  0
 11 15  1  0
 11 12  1  0
 12 13  1  0
 13 14  1  0
 14 15  1  0
 15 16  1  0
 16 17  1  0
 17 18  1  0
 17 26  1  0
 18 19  1  0
 19 20  2  0
 19 21  1  0
 21 25  1  0
 21 22  1  0
 22 23  1  0
 23 24  1  0
 24 25  1  0
 26 27  2  0
 26 28  1  0
 29 30  2  0
 30 31  1  0
M  CHG  3   2   1  11   1  28  -1
M  END
>  <original SMILES>  (27) 
C[NH2+]CC(=O)Nc1cc(C[NH+]2CCCC2CC(NC(=O)C2CCCC2)C(=O)[O-])ccn1

>  <ref_pdb>  (27) 
Combi03.pdb

>  <ref_mols>  (27) 
x0003_0A,x0003_1A

>  <Glide GScore>  (27) 
-7.60871380221679

>  <RMSLigA>  (27) 
1.20815202120031

>  <RMSLigB>  (27) 
1.15979979233533

$$$$
Combi03_000062
     RDKit          3D

 30 31  0  0  1  0  0  0  0  0999 V2000
   -7.8886   15.6245    4.9509 C   0  0  0  0  0  0  0  0  0  0  0  0
   -6.9579   15.4962    3.8139 N   0  0  0  0  0  0  0  0  0  0  0  0
   -7.3991   14.5216    2.7953 C   0  0  0  0  0  0  0  0  0  0  0  0
   -6.4735   14.4600    1.5783 C   0  0  0  0  0  0  0  0  0  0  0  0
   -6.9726   14.1659    0.4952 O   0  0  0  0  0  0  0  0  0  0  0  0
   -5.1712   14.7481    1.7800 N   0  0  0  0  0  0  0  0  0  0  0  0
   -4.1023   14.8938    0.8682 C   0  0  0  0  0  0  0  0  0  0  0  0
   -4.3298   14.9967   -0.5215 C   0  0  0  0  0  0  0  0  0  0  0  0
   -3.2379   15.0926   -1.3967 C   0  0  0  0  0  0  0  0  0  0  0  0
   -3.5204   15.2475   -2.8827 C   0  0  0  0  0  0  0  0  0  0  0  0
   -2.4453   14.8976   -3.8035 N   0  0  0  0  0  0  0  0  0  0  0  0
   -2.0562   16.1263   -4.9635 S   0  0  0  0  0  0  0  0  0  0  0  0
   -1.9484   13.6405   -3.8460 C   0  0  0  0  0  0  0  0  0  0  0  0
   -2.3923   12.7425   -3.1272 O   0  0  0  0  0  0  0  0  0  0  0  0
   -0.8134   13.3290   -4.8293 C   0  0  0  0  0  0  0  0  0  0  0  0
   -0.1048   11.9782   -4.5715 C   0  0  0  0  0  0  0  0  0  0  0  0
    0.7025   11.6070   -5.7300 N   0  0  0  0  0  0  0  0  0  0  0  0
    0.2430   11.0184   -6.8468 C   0  0  0  0  0  0  0  0  0  0  0  0
   -0.9464   10.7647   -7.0355 O   0  0  0  0  0  0  0  0  0  0  0  0
    1.2837   10.6742   -7.9233 C   0  0  0  0  0  0  0  0  0  0  0  0
    1.4172    9.1477   -8.1276 C   0  0  0  0  0  0  0  0  0  0  0  0
    1.5938    8.9462   -9.6314 C   0  0  0  0  0  0  0  0  0  0  0  0
    0.7373   10.0472  -10.2454 C   0  0  0  0  0  0  0  0  0  0  0  0
    0.9399   11.2476   -9.3185 C   0  0  0  0  0  0  0  0  0  0  0  0
    0.7255   11.8939   -3.2751 C   0  0  0  0  0  0  0  0  0  0  0  0
    0.6420   10.8320   -2.6200 O   0  0  0  0  0  0  0  0  0  0  0  0
    1.4467   12.8657   -2.9541 O   0  0  0  0  0  0  0  0  0  0  0  0
   -1.9390   15.0963   -0.8502 C   0  0  0  0  0  0  0  0  0  0  0  0
   -1.8056   15.0944    0.5469 C   0  0  0  0  0  0  0  0  0  0  0  0
   -2.8564   14.9819    1.3839 N   0  0  0  0  0  0  0  0  0  0  0  0
  1  2  1  0
  2  3  1  0
  3  4  1  0
  4  5  2  0
  4  6  1  0
  6  7  1  0
  7 30  2  0
  7  8  1  0
  8  9  2  0
  9 10  1  0
  9 28  1  0
 10 11  1  0
 11 12  1  0
 11 13  1  0
 13 14  2  0
 13 15  1  0
 15 16  1  0
 16 17  1  0
 16 25  1  0
 17 18  1  0
 18 19  2  0
 18 20  1  0
 20 24  1  0
 20 21  1  0
 21 22  1  0
 22 23  1  0
 23 24  1  0
 25 26  2  0
 25 27  1  0
 28 29  2  0
 29 30  1  0
M  CHG  3   2   1  12  -1  27  -1
M  END
>  <original SMILES>  (28) 
C[NH2+]CC(=O)Nc1cc(CN([S-])C(=O)CC(NC(=O)C2CCCC2)C(=O)[O-])ccn1

>  <ref_pdb>  (28) 
Combi03.pdb

>  <ref_mols>  (28) 
x0003_0A,x0003_1A

>  <Glide GScore>  (28) 
-7.43521147136815

>  <RMSLigA>  (28) 
1.92982675238867

>  <RMSLigB>  (28) 
1.9836417665502

$$$$
Combi03_000048
     RDKit          3D

 31 33  0  0  1  0  0  0  0  0999 V2000
   -7.9993   15.5370    4.8257 C   0  0  0  0  0  0  0  0  0  0  0  0
   -6.9578   15.4962    3.7799 N   0  0  0  0  0  0  0  0  0  0  0  0
   -7.2682   14.5802    2.6635 C   0  0  0  0  0  0  0  0  0  0  0  0
   -6.2358   14.5629    1.5264 C   0  0  0  0  0  0  0  0  0  0  0  0
   -6.6335   14.1920    0.4249 O   0  0  0  0  0  0  0  0  0  0  0  0
   -4.9689   14.9604    1.7799 N   0  0  0  0  0  0  0  0  0  0  0  0
   -3.8484   15.0209    0.9038 C   0  0  0  0  0  0  0  0  0  0  0  0
   -4.0003   15.0779   -0.5056 C   0  0  0  0  0  0  0  0  0  0  0  0
   -2.8676   15.0964   -1.3433 C   0  0  0  0  0  0  0  0  0  0  0  0
   -3.0800   15.1968   -2.8517 C   0  0  0  0  0  0  0  0  0  0  0  0
   -1.8394   15.2247   -3.6751 N   0  0  0  0  0  0  0  0  0  0  0  0
   -1.3094   13.8569   -3.9071 C   0  0  0  0  0  0  0  0  0  0  0  0
    0.1720   13.8477   -4.3498 C   0  0  0  0  0  0  0  0  0  0  0  0
    0.8495   12.4657   -4.2129 C   0  0  0  0  0  0  0  0  0  0  0  0
    0.2414   11.4955   -5.1197 N   0  0  0  0  0  0  0  0  0  0  0  0
    0.5719   11.2655   -6.3964 C   0  0  0  0  0  0  0  0  0  0  0  0
    1.4420   11.8964   -6.9975 O   0  0  0  0  0  0  0  0  0  0  0  0
   -0.2047   10.1361   -7.0874 C   0  0  0  0  0  0  0  0  0  0  0  0
   -0.6523   10.4715   -8.5227 C   0  0  0  0  0  0  0  0  0  0  0  0
   -0.4502    9.1939   -9.3562 C   0  0  0  0  0  0  0  0  0  0  0  0
   -0.0194    8.1053   -8.3725 C   0  0  0  0  0  0  0  0  0  0  0  0
    0.6360    8.8617   -7.2229 C   0  0  0  0  0  0  0  0  0  0  0  0
    0.8688   11.9169   -2.7795 C   0  0  0  0  0  0  0  0  0  0  0  0
    0.6426   10.6963   -2.6200 O   0  0  0  0  0  0  0  0  0  0  0  0
    1.0484   12.7345   -1.8471 O   0  0  0  0  0  0  0  0  0  0  0  0
   -2.0385   15.9785   -4.9393 C   0  0  0  0  0  0  0  0  0  0  0  0
   -1.9689   17.4848   -4.7855 C   0  0  0  0  0  0  0  0  0  0  0  0
   -0.8261   16.7448   -5.4194 C   0  0  0  0  0  0  0  0  0  0  0  0
   -1.5959   15.0873   -0.7332 C   0  0  0  0  0  0  0  0  0  0  0  0
   -1.5293   15.0963    0.6711 C   0  0  0  0  0  0  0  0  0  0  0  0
   -2.6196   15.0677    1.4624 N   0  0  0  0  0  0  0  0  0  0  0  0
  1  2  1  0
  2  3  1  0
  3  4  1  0
  4  5  2  0
  4  6  1  0
  6  7  1  0
  7 31  2  0
  7  8  1  0
  8  9  2  0
  9 10  1  0
  9 29  1  0
 10 11  1  0
 11 12  1  0
 11 26  1  0
 12 13  1  0
 13 14  1  0
 14 15  1  0
 14 23  1  0
 15 16  1  0
 16 17  2  0
 16 18  1  0
 18 22  1  0
 18 19  1  0
 19 20  1  0
 20 21  1  0
 21 22  1  0
 23 24  2  0
 23 25  1  0
 26 28  1  0
 26 27  1  0
 27 28  1  0
 29 30  2  0
 30 31  1  0
M  CHG  3   2   1  11   1  25  -1
M  END
>  <original SMILES>  (29) 
C[NH2+]CC(=O)Nc1cc(C[NH+](CCC(NC(=O)C2CCCC2)C(=O)[O-])C2CC2)ccn1

>  <ref_pdb>  (29) 
Combi03.pdb

>  <ref_mols>  (29) 
x0003_0A,x0003_1A

>  <Glide GScore>  (29) 
-7.60649319442316

>  <RMSLigA>  (29) 
1.73654856188768

>  <RMSLigB>  (29) 
1.19478586090685

$$$$
Combi03_000054
     RDKit          3D

 31 32  0  0  1  0  0  0  0  0999 V2000
   -8.5953   13.9778    4.1572 C   0  0  0  0  0  0  0  0  0  0  0  0
   -7.3601   13.7766    3.3799 N   0  0  0  0  0  0  0  0  0  0  0  0
   -6.8666   14.9882    2.7017 C   0  0  0  0  0  0  0  0  0  0  0  0
   -5.8478   14.6355    1.6208 C   0  0  0  0  0  0  0  0  0  0  0  0
   -6.2133   13.9308    0.6804 O   0  0  0  0  0  0  0  0  0  0  0  0
   -4.6027   15.1220    1.7799 N   0  0  0  0  0  0  0  0  0  0  0  0
   -3.5053   15.0542    0.8790 C   0  0  0  0  0  0  0  0  0  0  0  0
   -3.7276   15.0119   -0.5211 C   0  0  0  0  0  0  0  0  0  0  0  0
   -2.6325   14.9530   -1.4044 C   0  0  0  0  0  0  0  0  0  0  0  0
   -2.8725   14.9695   -2.9059 C   0  0  0  0  0  0  0  0  0  0  0  0
   -3.1384   13.6068   -3.4436 N   0  0  0  0  0  0  0  0  0  0  0  0
   -1.9468   12.7242   -3.6163 C   0  0  0  0  0  0  0  0  0  0  0  0
   -0.6997   13.3428   -4.3091 C   0  0  0  0  0  0  0  0  0  0  0  0
    0.5014   12.3733   -4.3639 C   0  0  0  0  0  0  0  0  0  0  0  0
    0.1997   11.2505   -5.2474 N   0  0  0  0  0  0  0  0  0  0  0  0
    0.5760   11.0963   -6.5263 C   0  0  0  0  0  0  0  0  0  0  0  0
    1.3073   11.8963   -7.1090 O   0  0  0  0  0  0  0  0  0  0  0  0
    0.0135    9.8655   -7.2597 C   0  0  0  0  0  0  0  0  0  0  0  0
    0.8881    9.3511   -8.4273 C   0  0  0  0  0  0  0  0  0  0  0  0
    1.1151    7.8535   -8.1840 C   0  0  0  0  0  0  0  0  0  0  0  0
   -0.0011    7.4279   -7.2346 C   0  0  0  0  0  0  0  0  0  0  0  0
   -0.1996    8.6471   -6.3414 C   0  0  0  0  0  0  0  0  0  0  0  0
    0.9288   11.8980   -2.9698 C   0  0  0  0  0  0  0  0  0  0  0  0
    1.4423   12.7553   -2.2201 O   0  0  0  0  0  0  0  0  0  0  0  0
    0.6421   10.7296   -2.6240 O   0  0  0  0  0  0  0  0  0  0  0  0
   -4.1569   13.5496   -4.5345 C   0  0  0  0  0  0  0  0  0  0  0  0
   -4.9284   12.2181   -4.5080 C   0  0  0  0  0  0  0  0  0  0  0  0
   -3.5861   13.8482   -5.9295 C   0  0  0  0  0  0  0  0  0  0  0  0
   -1.3338   14.9355   -0.8601 C   0  0  0  0  0  0  0  0  0  0  0  0
   -1.1964   15.0463    0.5367 C   0  0  0  0  0  0  0  0  0  0  0  0
   -2.2500   15.0963    1.3801 N   0  0  0  0  0  0  0  0  0  0  0  0
  1  2  1  0
  2  3  1  0
  3  4  1  0
  4  5  2  0
  4  6  1  0
  6  7  1  0
  7 31  2  0
  7  8  1  0
  8  9  2  0
  9 10  1  0
  9 29  1  0
 10 11  1  0
 11 12  1  0
 11 26  1  0
 12 13  1  0
 13 14  1  0
 14 15  1  0
 14 23  1  0
 15 16  1  0
 16 17  2  0
 16 18  1  0
 18 22  1  0
 18 19  1  0
 19 20  1  0
 20 21  1  0
 21 22  1  0
 23 24  2  0
 23 25  1  0
 26 27  1  0
 26 28  1  0
 29 30  2  0
 30 31  1  0
M  CHG  3   2   1  11   1  25  -1
M  END
>  <original SMILES>  (30) 
C[NH2+]CC(=O)Nc1cc(C[NH+](CCC(NC(=O)C2CCCC2)C(=O)[O-])C(C)C)ccn1

>  <ref_pdb>  (30) 
Combi03.pdb

>  <ref_mols>  (30) 
x0003_0A,x0003_1A

>  <Glide GScore>  (30) 
-7.58378249593841

>  <RMSLigA>  (30) 
1.35372888032657

>  <RMSLigB>  (30) 
1.00050198861856

$$$$
Combi03_000014
     RDKit          3D

 30 31  0  0  1  0  0  0  0  0999 V2000
   -8.8283   13.2306    4.7095 C   0  0  0  0  0  0  0  0  0  0  0  0
   -7.7582   13.3424    3.7036 N   0  0  0  0  0  0  0  0  0  0  0  0
   -7.5543   14.7068    3.1873 C   0  0  0  0  0  0  0  0  0  0  0  0
   -6.6388   14.6724    1.9710 C   0  0  0  0  0  0  0  0  0  0  0  0
   -7.1163   14.3173    0.8942 O   0  0  0  0  0  0  0  0  0  0  0  0
   -5.3577   15.0209    2.1798 N   0  0  0  0  0  0  0  0  0  0  0  0
   -4.2689   15.0767    1.2654 C   0  0  0  0  0  0  0  0  0  0  0  0
   -4.4638   15.1717   -0.1352 C   0  0  0  0  0  0  0  0  0  0  0  0
   -3.3428   15.1670   -0.9891 C   0  0  0  0  0  0  0  0  0  0  0  0
   -3.5186   15.2613   -2.4905 C   0  0  0  0  0  0  0  0  0  0  0  0
   -2.5888   14.4229   -3.2365 N   0  0  0  0  0  0  0  0  0  0  0  0
   -3.0402   13.1911   -3.5436 N   0  0  0  0  0  0  0  0  0  0  0  0
   -2.4157   12.4666   -4.4071 C   0  0  0  0  0  0  0  0  0  0  0  0
   -3.0003   11.1093   -4.6892 C   0  0  0  0  0  0  0  0  0  0  0  0
   -1.1511   12.8969   -5.1499 C   0  0  0  0  0  0  0  0  0  0  0  0
    0.1326   12.1052   -4.7832 C   0  0  2  0  0  0  0  0  0  0  0  0
    0.0531   10.7392   -5.2936 N   0  0  0  0  0  0  0  0  0  0  0  0
    0.2420   10.3320   -6.5561 C   0  0  0  0  0  0  0  0  0  0  0  0
    0.5282   11.0980   -7.4767 O   0  0  0  0  0  0  0  0  0  0  0  0
    0.0709    8.8246   -6.7949 C   0  0  0  0  0  0  0  0  0  0  0  0
   -1.3464    8.4722   -7.2949 C   0  0  0  0  0  0  0  0  0  0  0  0
   -1.1740    7.5950   -8.5412 C   0  0  0  0  0  0  0  0  0  0  0  0
    0.2631    7.0849   -8.4753 C   0  0  0  0  0  0  0  0  0  0  0  0
    1.0303    8.2457   -7.8519 C   0  0  0  0  0  0  0  0  0  0  0  0
    0.5435   12.1033   -3.2951 C   0  0  0  0  0  0  0  0  0  0  0  0
    1.1690   13.0944   -2.8526 O   0  0  0  0  0  0  0  0  0  0  0  0
    0.2423   11.0962   -2.6151 O   0  0  0  0  0  0  0  0  0  0  0  0
   -2.0568   15.0986   -0.4214 C   0  0  0  0  0  0  0  0  0  0  0  0
   -1.9498   15.0954    0.9748 C   0  0  0  0  0  0  0  0  0  0  0  0
   -3.0219   15.0685    1.7858 N   0  0  0  0  0  0  0  0  0  0  0  0
  1  2  1  0
  2  3  1  0
  3  4  1  0
  4  5  2  0
  4  6  1  0
  6  7  1  0
  7 30  2  0
  7  8  1  0
  8  9  2  0
  9 10  1  0
  9 28  1  0
 10 11  1  0
 11 12  1  0
 12 13  2  3
 13 14  1  0
 13 15  1  0
 16 15  1  1
 16 17  1  0
 16 25  1  0
 17 18  1  0
 18 19  2  0
 18 20  1  0
 20 24  1  0
 20 21  1  0
 21 22  1  0
 22 23  1  0
 23 24  1  0
 25 26  2  0
 25 27  1  0
 28 29  2  0
 29 30  1  0
M  CHG  2   2   1  27  -1
M  END
>  <original SMILES>  (31) 
C[NH2+]CC(=O)Nc1cc(CNN=C(C)C[C@H](NC(=O)C2CCCC2)C(=O)[O-])ccn1

>  <ref_pdb>  (31) 
Combi03.pdb

>  <ref_mols>  (31) 
x0003_0A,x0003_1A

>  <Glide GScore>  (31) 
-7.24136093320295

>  <RMSLigA>  (31) 
1.9343790672039

>  <RMSLigB>  (31) 
1.4087066987543

$$$$
Combi03_000095
     RDKit          3D

 29 30  0  0  1  0  0  0  0  0999 V2000
   -7.9667   12.8115    2.0511 C   0  0  0  0  0  0  0  0  0  0  0  0
   -7.1934   13.6618    2.9799 N   0  0  0  0  0  0  0  0  0  0  0  0
   -6.6226   14.9057    2.4149 C   0  0  0  0  0  0  0  0  0  0  0  0
   -5.5177   14.6703    1.3797 C   0  0  0  0  0  0  0  0  0  0  0  0
   -5.8345   14.2739    0.2599 O   0  0  0  0  0  0  0  0  0  0  0  0
   -4.2600   14.9367    1.7800 N   0  0  0  0  0  0  0  0  0  0  0  0
   -3.0418   14.8753    1.0536 C   0  0  0  0  0  0  0  0  0  0  0  0
   -3.0367   15.0087   -0.3556 C   0  0  0  0  0  0  0  0  0  0  0  0
   -1.8215   14.9449   -1.0605 C   0  0  0  0  0  0  0  0  0  0  0  0
   -1.7982   15.1938   -2.5601 C   0  0  0  0  0  0  0  0  0  0  0  0
   -1.9749   13.9390   -3.4025 C   0  0  0  0  0  0  0  0  0  0  0  0
   -2.8717   13.1308   -3.1654 O   0  0  0  0  0  0  0  0  0  0  0  0
   -1.0988   13.8129   -4.4060 N   0  0  0  0  0  0  0  0  0  0  0  0
   -0.9770   12.6719   -5.2979 C   0  0  0  0  0  0  0  0  0  0  0  0
   -0.4940   11.3855   -4.5858 C   0  0  0  0  0  0  0  0  0  0  0  0
   -0.3503   10.2268   -5.4693 N   0  0  0  0  0  0  0  0  0  0  0  0
    0.1895   10.1478   -6.6962 C   0  0  0  0  0  0  0  0  0  0  0  0
    0.7189   11.0945   -7.2788 O   0  0  0  0  0  0  0  0  0  0  0  0
    0.1058    8.7675   -7.3725 C   0  0  0  0  0  0  0  0  0  0  0  0
   -0.9068    8.7812   -8.5325 C   0  0  0  0  0  0  0  0  0  0  0  0
   -0.0769    9.0089   -9.7945 C   0  0  0  0  0  0  0  0  0  0  0  0
    1.2082    8.2302   -9.5288 C   0  0  0  0  0  0  0  0  0  0  0  0
    1.4440    8.3344   -8.0160 C   0  0  0  0  0  0  0  0  0  0  0  0
    0.6425   11.5184   -3.5582 C   0  0  0  0  0  0  0  0  0  0  0  0
    1.4785   12.4400   -3.6950 O   0  0  0  0  0  0  0  0  0  0  0  0
    0.6423   10.6961   -2.6199 O   0  0  0  0  0  0  0  0  0  0  0  0
   -0.6281   14.7687   -0.3319 C   0  0  0  0  0  0  0  0  0  0  0  0
   -0.7115   14.6964    1.0704 C   0  0  0  0  0  0  0  0  0  0  0  0
   -1.8836   14.7461    1.7462 N   0  0  0  0  0  0  0  0  0  0  0  0
  1  2  1  0
  2  3  1  0
  3  4  1  0
  4  5  2  0
  4  6  1  0
  6  7  1  0
  7 29  2  0
  7  8  1  0
  8  9  2  0
  9 10  1  0
  9 27  1  0
 10 11  1  0
 11 12  2  0
 11 13  1  0
 13 14  1  0
 14 15  1  0
 15 16  1  0
 15 24  1  0
 16 17  1  0
 17 18  2  0
 17 19  1  0
 19 23  1  0
 19 20  1  0
 20 21  1  0
 21 22  1  0
 22 23  1  0
 24 25  2  0
 24 26  1  0
 27 28  2  0
 28 29  1  0
M  CHG  2   2   1  26  -1
M  END
>  <original SMILES>  (32) 
C[NH2+]CC(=O)Nc1cc(CC(=O)NCC(NC(=O)C2CCCC2)C(=O)[O-])ccn1

>  <ref_pdb>  (32) 
Combi03.pdb

>  <ref_mols>  (32) 
x0003_0A,x0003_1A

>  <Glide GScore>  (32) 
-7.31381636311964

>  <RMSLigA>  (32) 
0.861431138638978

>  <RMSLigB>  (32) 
1.70684415478848

$$$$
Combi03_000060
     RDKit          3D

 30 31  0  0  1  0  0  0  0  0999 V2000
   -7.2843   15.7595    3.9861 C   0  0  0  0  0  0  0  0  0  0  0  0
   -7.3580   14.4161    3.3799 N   0  0  0  0  0  0  0  0  0  0  0  0
   -7.4834   14.3673    1.9088 C   0  0  0  0  0  0  0  0  0  0  0  0
   -6.2349   14.6962    1.0740 C   0  0  0  0  0  0  0  0  0  0  0  0
   -6.4424   14.9846   -0.1022 O   0  0  0  0  0  0  0  0  0  0  0  0
   -5.0128   14.7227    1.6513 N   0  0  0  0  0  0  0  0  0  0  0  0
   -3.7316   14.8523    1.0299 C   0  0  0  0  0  0  0  0  0  0  0  0
   -3.5469   14.7875   -0.3750 C   0  0  0  0  0  0  0  0  0  0  0  0
   -2.2498   14.8850   -0.9158 C   0  0  0  0  0  0  0  0  0  0  0  0
   -2.0352   14.8324   -2.4093 C   0  0  0  0  0  0  0  0  0  0  0  0
   -2.4227   13.4674   -2.9999 C   0  0  0  0  0  0  0  0  0  0  0  0
   -2.1553   13.2927   -4.5096 C   0  0  0  0  0  0  0  0  0  0  0  0
   -2.6866   11.9073   -4.9279 C   0  0  0  0  0  0  0  0  0  0  0  0
   -2.9796   14.3378   -5.2958 C   0  0  0  0  0  0  0  0  0  0  0  0
   -0.6531   13.4898   -4.8949 C   0  0  0  0  0  0  0  0  0  0  0  0
    0.4462   12.4559   -4.5456 C   0  0  0  0  0  0  0  0  0  0  0  0
    0.2411   11.2420   -5.3338 N   0  0  0  0  0  0  0  0  0  0  0  0
    0.5839   11.0695   -6.6197 C   0  0  0  0  0  0  0  0  0  0  0  0
    1.3436   11.8301   -7.2250 O   0  0  0  0  0  0  0  0  0  0  0  0
   -0.0874    9.8813   -7.3305 C   0  0  0  0  0  0  0  0  0  0  0  0
   -0.5408   10.2216   -8.7687 C   0  0  0  0  0  0  0  0  0  0  0  0
    0.3315    9.3811   -9.7020 C   0  0  0  0  0  0  0  0  0  0  0  0
    0.6467    8.1323   -8.8862 C   0  0  0  0  0  0  0  0  0  0  0  0
    0.8446    8.6642   -7.4671 C   0  0  0  0  0  0  0  0  0  0  0  0
    0.6928   12.1691   -3.0615 C   0  0  0  0  0  0  0  0  0  0  0  0
    0.2470   11.0916   -2.6156 O   0  0  0  0  0  0  0  0  0  0  0  0
    1.3172   13.0233   -2.3903 O   0  0  0  0  0  0  0  0  0  0  0  0
   -1.1567   15.0404   -0.0487 C   0  0  0  0  0  0  0  0  0  0  0  0
   -1.4203   15.0963    1.3245 C   0  0  0  0  0  0  0  0  0  0  0  0
   -2.6629   15.0016    1.8384 N   0  0  0  0  0  0  0  0  0  0  0  0
  1  2  1  0
  2  3  1  0
  3  4  1  0
  4  5  2  0
  4  6  1  0
  6  7  1  0
  7 30  2  0
  7  8  1  0
  8  9  2  0
  9 10  1  0
  9 28  1  0
 10 11  1  0
 11 12  1  0
 12 13  1  0
 12 14  1  0
 12 15  1  0
 15 16  1  0
 16 17  1  0
 16 25  1  0
 17 18  1  0
 18 19  2  0
 18 20  1  0
 20 24  1  0
 20 21  1  0
 21 22  1  0
 22 23  1  0
 23 24  1  0
 25 26  2  0
 25 27  1  0
 28 29  2  0
 29 30  1  0
M  CHG  2   2   1  27  -1
M  END
>  <original SMILES>  (33) 
C[NH2+]CC(=O)Nc1cc(CCC(C)(C)CC(NC(=O)C2CCCC2)C(=O)[O-])ccn1

>  <ref_pdb>  (33) 
Combi03.pdb

>  <ref_mols>  (33) 
x0003_0A,x0003_1A

>  <Glide GScore>  (33) 
-7.15422737858276

>  <RMSLigA>  (33) 
1.37322892138585

>  <RMSLigB>  (33) 
1.3856819685291

$$$$
Combi03_000156
     RDKit          3D

 28 29  0  0  1  0  0  0  0  0999 V2000
   -7.7542   14.7739    3.7810 C   0  0  0  0  0  0  0  0  0  0  0  0
   -6.5578   15.0961    2.9799 N   0  0  0  0  0  0  0  0  0  0  0  0
   -6.4126   14.2695    1.7632 C   0  0  0  0  0  0  0  0  0  0  0  0
   -5.2222   14.6974    0.9029 C   0  0  0  0  0  0  0  0  0  0  0  0
   -5.4328   15.1679   -0.2132 O   0  0  0  0  0  0  0  0  0  0  0  0
   -4.0091   14.5717    1.4676 N   0  0  0  0  0  0  0  0  0  0  0  0
   -2.7127   14.7070    0.9089 C   0  0  0  0  0  0  0  0  0  0  0  0
   -2.4762   14.7511   -0.4874 C   0  0  0  0  0  0  0  0  0  0  0  0
   -1.1437   14.7646   -0.9602 C   0  0  0  0  0  0  0  0  0  0  0  0
   -0.8147   14.8591   -2.4343 C   0  0  0  0  0  0  0  0  0  0  0  0
   -1.7821   14.1915   -3.2949 N   0  0  0  0  0  0  0  0  0  0  0  0
   -1.3207   14.0455   -4.6197 N   0  0  0  0  0  0  0  0  0  0  0  0
   -1.3038   12.6561   -5.0705 C   0  0  0  0  0  0  0  0  0  0  0  0
    0.0246   11.8912   -4.8748 C   0  0  0  0  0  0  0  0  0  0  0  0
   -0.1582   10.5473   -5.4154 N   0  0  0  0  0  0  0  0  0  0  0  0
    0.0331   10.1918   -6.6949 C   0  0  0  0  0  0  0  0  0  0  0  0
    0.4671   10.9691   -7.5476 O   0  0  0  0  0  0  0  0  0  0  0  0
   -0.3243    8.7436   -7.0710 C   0  0  0  0  0  0  0  0  0  0  0  0
   -1.2778    8.6712   -8.2878 C   0  0  0  0  0  0  0  0  0  0  0  0
   -0.5106    7.9754   -9.4216 C   0  0  0  0  0  0  0  0  0  0  0  0
    0.9606    8.0330   -9.0175 C   0  0  0  0  0  0  0  0  0  0  0  0
    0.9200    7.9450   -7.4939 C   0  0  0  0  0  0  0  0  0  0  0  0
    0.6012   11.8348   -3.4462 C   0  0  0  0  0  0  0  0  0  0  0  0
    0.0238   11.0963   -2.6201 O   0  0  0  0  0  0  0  0  0  0  0  0
    1.6093   12.5322   -3.1861 O   0  0  0  0  0  0  0  0  0  0  0  0
   -0.0928   14.7422   -0.0287 C   0  0  0  0  0  0  0  0  0  0  0  0
   -0.4135   14.7049    1.3336 C   0  0  0  0  0  0  0  0  0  0  0  0
   -1.6838   14.6974    1.7801 N   0  0  0  0  0  0  0  0  0  0  0  0
  1  2  1  0
  2  3  1  0
  3  4  1  0
  4  5  2  0
  4  6  1  0
  6  7  1  0
  7 28  2  0
  7  8  1  0
  8  9  2  0
  9 10  1  0
  9 26  1  0
 10 11  1  0
 11 12  1  0
 12 13  1  0
 13 14  1  0
 14 15  1  0
 14 23  1  0
 15 16  1  0
 16 17  2  0
 16 18  1  0
 18 22  1  0
 18 19  1  0
 19 20  1  0
 20 21  1  0
 21 22  1  0
 23 24  2  0
 23 25  1  0
 26 27  2  0
 27 28  1  0
M  CHG  2   2   1  25  -1
M  END
>  <original SMILES>  (34) 
C[NH2+]CC(=O)Nc1cc(CNNCC(NC(=O)C2CCCC2)C(=O)[O-])ccn1

>  <ref_pdb>  (34) 
Combi03.pdb

>  <ref_mols>  (34) 
x0003_0A,x0003_1A

>  <Glide GScore>  (34) 
-7.40180531754134

>  <RMSLigA>  (34) 
1.21057114114486

>  <RMSLigB>  (34) 
1.79555447193714

$$$$
Combi03_000008
     RDKit          3D

 32 33  0  0  1  0  0  0  0  0999 V2000
   -7.9523   15.6185    4.9892 C   0  0  0  0  0  0  0  0  0  0  0  0
   -6.9608   15.4962    3.9048 N   0  0  0  0  0  0  0  0  0  0  0  0
   -7.4719   14.7919    2.7104 C   0  0  0  0  0  0  0  0  0  0  0  0
   -6.4810   14.6963    1.5440 C   0  0  0  0  0  0  0  0  0  0  0  0
   -6.9332   14.3661    0.4508 O   0  0  0  0  0  0  0  0  0  0  0  0
   -5.1844   14.9869    1.7800 N   0  0  0  0  0  0  0  0  0  0  0  0
   -4.0790   15.0351    0.8960 C   0  0  0  0  0  0  0  0  0  0  0  0
   -4.2493   15.1009   -0.5073 C   0  0  0  0  0  0  0  0  0  0  0  0
   -3.1234   15.1180   -1.3468 C   0  0  0  0  0  0  0  0  0  0  0  0
   -3.3391   15.2070   -2.8532 C   0  0  0  0  0  0  0  0  0  0  0  0
   -2.1453   14.9309   -3.6815 N   0  0  0  0  0  0  0  0  0  0  0  0
   -1.4948   15.9992   -4.2199 C   0  0  0  0  0  0  0  0  0  0  0  0
    0.0370   16.0545   -4.2674 C   0  0  0  0  0  0  0  0  0  0  0  0
   -2.0932   17.0202   -4.5672 O   0  0  0  0  0  0  0  0  0  0  0  0
   -1.8201   13.6164   -3.8500 C   0  0  0  0  0  0  0  0  0  0  0  0
   -2.3314   12.7408   -3.1481 O   0  0  0  0  0  0  0  0  0  0  0  0
   -0.9215   13.1359   -5.0068 C   0  0  0  0  0  0  0  0  0  0  0  0
   -0.1233   11.8486   -4.6930 C   0  0  0  0  0  0  0  0  0  0  0  0
    0.6924   11.4962   -5.8500 N   0  0  0  0  0  0  0  0  0  0  0  0
    0.2417   10.9402   -6.9854 C   0  0  0  0  0  0  0  0  0  0  0  0
   -0.9464   10.6876   -7.1835 O   0  0  0  0  0  0  0  0  0  0  0  0
    1.2830   10.6570   -8.0765 C   0  0  0  0  0  0  0  0  0  0  0  0
    1.4269    9.1449   -8.3479 C   0  0  0  0  0  0  0  0  0  0  0  0
    1.6313    9.0161   -9.8560 C   0  0  0  0  0  0  0  0  0  0  0  0
    0.7662   10.1317  -10.4318 C   0  0  0  0  0  0  0  0  0  0  0  0
    0.9209   11.2882   -9.4412 C   0  0  0  0  0  0  0  0  0  0  0  0
    0.7444   11.8963   -3.4207 C   0  0  0  0  0  0  0  0  0  0  0  0
    1.4912   12.8884   -3.2581 O   0  0  0  0  0  0  0  0  0  0  0  0
    0.6424   10.9422   -2.6200 O   0  0  0  0  0  0  0  0  0  0  0  0
   -1.8460   15.0961   -0.7498 C   0  0  0  0  0  0  0  0  0  0  0  0
   -1.7646   15.0962    0.6515 C   0  0  0  0  0  0  0  0  0  0  0  0
   -2.8477   15.0626    1.4515 N   0  0  0  0  0  0  0  0  0  0  0  0
  1  2  1  0
  2  3  1  0
  3  4  1  0
  4  5  2  0
  4  6  1  0
  6  7  1  0
  7 32  2  0
  7  8  1  0
  8  9  2  0
  9 10  1  0
  9 30  1  0
 10 11  1  0
 11 12  1  0
 11 15  1  0
 12 13  1  0
 12 14  2  0
 15 16  2  0
 15 17  1  0
 17 18  1  0
 18 19  1  0
 18 27  1  0
 19 20  1  0
 20 21  2  0
 20 22  1  0
 22 26  1  0
 22 23  1  0
 23 24  1  0
 24 25  1  0
 25 26  1  0
 27 28  2  0
 27 29  1  0
 30 31  2  0
 31 32  1  0
M  CHG  2   2   1  29  -1
M  END
>  <original SMILES>  (35) 
C[NH2+]CC(=O)Nc1cc(CN(C(C)=O)C(=O)CC(NC(=O)C2CCCC2)C(=O)[O-])ccn1

>  <ref_pdb>  (35) 
Combi03.pdb

>  <ref_mols>  (35) 
x0003_0A,x0003_1A

>  <Glide GScore>  (35) 
-7.21093642821549

>  <RMSLigA>  (35) 
1.91756963555123

>  <RMSLigB>  (35) 
1.9109633119688

$$$$
Combi03_000047
     RDKit          3D

 30 31  0  0  1  0  0  0  0  0999 V2000
   -7.8223   13.5551    3.3369 C   0  0  0  0  0  0  0  0  0  0  0  0
   -6.5585   13.4977    2.5794 N   0  0  0  0  0  0  0  0  0  0  0  0
   -6.1591   14.7798    1.9783 C   0  0  0  0  0  0  0  0  0  0  0  0
   -4.9686   14.5704    1.0521 C   0  0  0  0  0  0  0  0  0  0  0  0
   -5.1288   13.9040    0.0313 O   0  0  0  0  0  0  0  0  0  0  0  0
   -3.8104   15.1327    1.4380 N   0  0  0  0  0  0  0  0  0  0  0  0
   -2.5293   15.0252    0.8454 C   0  0  0  0  0  0  0  0  0  0  0  0
   -2.3707   14.8681   -0.5554 C   0  0  0  0  0  0  0  0  0  0  0  0
   -1.0697   14.7723   -1.0930 C   0  0  0  0  0  0  0  0  0  0  0  0
   -0.8276   14.5373   -2.5692 C   0  0  0  0  0  0  0  0  0  0  0  0
   -0.7336   15.8080   -3.4583 C   0  0  0  0  0  0  0  0  0  0  0  0
   -2.1436   16.3037   -3.8218 C   0  0  0  0  0  0  0  0  0  0  0  0
    0.2357   15.6891   -5.0161 S   0  0  0  0  0  0  0  0  0  0  0  0
    0.9444   14.1442   -4.8612 N   0  0  0  0  0  0  0  0  0  0  0  0
    0.0928   13.0140   -5.1685 C   0  0  0  0  0  0  0  0  0  0  0  0
    0.7055   11.6763   -4.7542 C   0  0  0  0  0  0  0  0  0  0  0  0
   -0.1576   10.5945   -5.2314 N   0  0  0  0  0  0  0  0  0  0  0  0
   -0.1692   10.1123   -6.4828 C   0  0  0  0  0  0  0  0  0  0  0  0
    0.4808   10.6138   -7.4009 O   0  0  0  0  0  0  0  0  0  0  0  0
   -1.0325    8.8701   -6.7292 C   0  0  0  0  0  0  0  0  0  0  0  0
   -2.0554    9.0633   -7.8552 C   0  0  0  0  0  0  0  0  0  0  0  0
   -2.3599    7.6426   -8.3240 C   0  0  0  0  0  0  0  0  0  0  0  0
   -1.0196    6.9117   -8.2384 C   0  0  0  0  0  0  0  0  0  0  0  0
   -0.1999    7.6463   -7.1642 C   0  0  0  0  0  0  0  0  0  0  0  0
    0.9910   11.5374   -3.2486 C   0  0  0  0  0  0  0  0  0  0  0  0
    0.3188   10.6963   -2.6201 O   0  0  0  0  0  0  0  0  0  0  0  0
    1.8426   12.2971   -2.7299 O   0  0  0  0  0  0  0  0  0  0  0  0
    0.0279   14.8614   -0.2186 C   0  0  0  0  0  0  0  0  0  0  0  0
   -0.2197   15.0221    1.1504 C   0  0  0  0  0  0  0  0  0  0  0  0
   -1.4612   15.0962    1.6695 N   0  0  0  0  0  0  0  0  0  0  0  0
  1  2  1  0
  2  3  1  0
  3  4  1  0
  4  5  2  0
  4  6  1  0
  6  7  1  0
  7 30  2  0
  7  8  1  0
  8  9  2  0
  9 10  1  0
  9 28  1  0
 10 11  1  0
 11 12  1  0
 11 13  1  0
 13 14  1  0
 14 15  1  0
 15 16  1  0
 16 17  1  0
 16 25  1  0
 17 18  1  0
 18 19  2  0
 18 20  1  0
 20 24  1  0
 20 21  1  0
 21 22  1  0
 22 23  1  0
 23 24  1  0
 25 26  2  0
 25 27  1  0
 28 29  2  0
 29 30  1  0
M  CHG  2   2   1  27  -1
M  END
>  <original SMILES>  (36) 
C[NH2+]CC(=O)Nc1cc(CC(C)SNCC(NC(=O)C2CCCC2)C(=O)[O-])ccn1

>  <ref_pdb>  (36) 
Combi03.pdb

>  <ref_mols>  (36) 
x0003_0A,x0003_1A

>  <Glide GScore>  (36) 
-7.48415351908068

>  <RMSLigA>  (36) 
1.06177904039621

>  <RMSLigB>  (36) 
1.82498967273803

$$$$
Combi03_000052
     RDKit          3D

 29 30  0  0  1  0  0  0  0  0999 V2000
   -8.1314   13.2627    3.3123 C   0  0  0  0  0  0  0  0  0  0  0  0
   -6.8571   13.3803    2.5792 N   0  0  0  0  0  0  0  0  0  0  0  0
   -6.4535   14.7677    2.3025 C   0  0  0  0  0  0  0  0  0  0  0  0
   -5.3239   14.7480    1.2901 C   0  0  0  0  0  0  0  0  0  0  0  0
   -5.6097   14.4906    0.1210 O   0  0  0  0  0  0  0  0  0  0  0  0
   -4.0876   14.9993    1.7616 N   0  0  0  0  0  0  0  0  0  0  0  0
   -2.8499   14.9501    1.0640 C   0  0  0  0  0  0  0  0  0  0  0  0
   -2.7961   15.1039   -0.3427 C   0  0  0  0  0  0  0  0  0  0  0  0
   -1.5676   14.9930   -1.0131 C   0  0  0  0  0  0  0  0  0  0  0  0
   -1.5273   15.0957   -2.5228 C   0  0  0  0  0  0  0  0  0  0  0  0
   -1.6635   13.8169   -3.0993 O   0  0  0  0  0  0  0  0  0  0  0  0
   -1.8830   13.6670   -4.4096 C   0  0  0  0  0  0  0  0  0  0  0  0
   -2.2055   14.5501   -5.2084 O   0  0  0  0  0  0  0  0  0  0  0  0
   -1.6924   12.2173   -4.8451 C   0  0  0  0  0  0  0  0  0  0  0  0
   -0.2136   11.7596   -4.8723 C   0  0  0  0  0  0  0  0  0  0  0  0
   -0.1559   10.3784   -5.3378 N   0  0  0  0  0  0  0  0  0  0  0  0
   -0.1434    9.9537   -6.6090 C   0  0  0  0  0  0  0  0  0  0  0  0
   -0.2161   10.7165   -7.5725 O   0  0  0  0  0  0  0  0  0  0  0  0
   -0.0205    8.4325   -6.8097 C   0  0  0  0  0  0  0  0  0  0  0  0
   -1.2849    7.8381   -7.4621 C   0  0  0  0  0  0  0  0  0  0  0  0
   -0.9506    7.5498   -8.9377 C   0  0  0  0  0  0  0  0  0  0  0  0
    0.4759    8.0559   -9.1676 C   0  0  0  0  0  0  0  0  0  0  0  0
    1.1109    8.0534   -7.7788 C   0  0  0  0  0  0  0  0  0  0  0  0
    0.5587   11.8734   -3.5411 C   0  0  0  0  0  0  0  0  0  0  0  0
    0.2254   11.0967   -2.6194 O   0  0  0  0  0  0  0  0  0  0  0  0
    1.4508   12.7452   -3.4484 O   0  0  0  0  0  0  0  0  0  0  0  0
   -0.4016   14.7855   -0.2558 C   0  0  0  0  0  0  0  0  0  0  0  0
   -0.5297   14.6960    1.1424 C   0  0  0  0  0  0  0  0  0  0  0  0
   -1.7209   14.7453    1.7795 N   0  0  0  0  0  0  0  0  0  0  0  0
  1  2  1  0
  2  3  1  0
  3  4  1  0
  4  5  2  0
  4  6  1  0
  6  7  1  0
  7 29  2  0
  7  8  1  0
  8  9  2  0
  9 10  1  0
  9 27  1  0
 10 11  1  0
 11 12  1  0
 12 13  2  0
 12 14  1  0
 14 15  1  0
 15 16  1  0
 15 24  1  0
 16 17  1  0
 17 18  2  0
 17 19  1  0
 19 23  1  0
 19 20  1  0
 20 21  1  0
 21 22  1  0
 22 23  1  0
 24 25  2  0
 24 26  1  0
 27 28  2  0
 28 29  1  0
M  CHG  2   2   1  26  -1
M  END
>  <original SMILES>  (37) 
C[NH2+]CC(=O)Nc1cc(COC(=O)CC(NC(=O)C2CCCC2)C(=O)[O-])ccn1

>  <ref_pdb>  (37) 
Combi03.pdb

>  <ref_mols>  (37) 
x0003_0A,x0003_1A

>  <Glide GScore>  (37) 
-7.17605856931483

>  <RMSLigA>  (37) 
0.974372597816667

>  <RMSLigB>  (37) 
1.93688550368589

$$$$
Combi03_000124
     RDKit          3D

 30 31  0  0  1  0  0  0  0  0999 V2000
   -7.0212   12.6952    2.8175 C   0  0  0  0  0  0  0  0  0  0  0  0
   -7.0258   14.1555    2.9799 N   0  0  0  0  0  0  0  0  0  0  0  0
   -7.1799   14.8844    1.7083 C   0  0  0  0  0  0  0  0  0  0  0  0
   -5.9318   14.9439    0.8139 C   0  0  0  0  0  0  0  0  0  0  0  0
   -6.1318   15.0939   -0.3895 O   0  0  0  0  0  0  0  0  0  0  0  0
   -4.7069   14.8460    1.3794 N   0  0  0  0  0  0  0  0  0  0  0  0
   -3.4303   14.8598    0.7517 C   0  0  0  0  0  0  0  0  0  0  0  0
   -3.2796   14.5908   -0.6315 C   0  0  0  0  0  0  0  0  0  0  0  0
   -1.9986   14.5859   -1.2043 C   0  0  0  0  0  0  0  0  0  0  0  0
   -1.8260   14.2924   -2.6750 C   0  0  0  0  0  0  0  0  0  0  0  0
   -1.4964   15.4964   -3.4199 N   0  0  0  0  0  0  0  0  0  0  0  0
   -0.7122   15.2588   -4.6161 C   0  0  0  0  0  0  0  0  0  0  0  0
    0.6888   14.9302   -4.2479 N   0  0  0  0  0  0  0  0  0  0  0  0
    1.5680   16.1208   -4.2205 C   0  0  0  0  0  0  0  0  0  0  0  0
    1.2327   13.8313   -5.0740 C   0  0  0  0  0  0  0  0  0  0  0  0
    0.6400   12.4605   -4.6788 C   0  0  0  0  0  0  0  0  0  0  0  0
    1.0373   11.4968   -5.6979 N   0  0  0  0  0  0  0  0  0  0  0  0
    0.2199   10.9525   -6.6144 C   0  0  0  0  0  0  0  0  0  0  0  0
   -0.9968   11.1381   -6.6232 O   0  0  0  0  0  0  0  0  0  0  0  0
    0.8845   10.0994   -7.7028 C   0  0  0  0  0  0  0  0  0  0  0  0
    0.8474    8.5999   -7.3521 C   0  0  0  0  0  0  0  0  0  0  0  0
    0.3319    7.8755   -8.5969 C   0  0  0  0  0  0  0  0  0  0  0  0
   -0.5432    8.9068   -9.3004 C   0  0  0  0  0  0  0  0  0  0  0  0
    0.1954   10.2247   -9.0793 C   0  0  0  0  0  0  0  0  0  0  0  0
    1.0062   12.0145   -3.2489 C   0  0  0  0  0  0  0  0  0  0  0  0
    1.8434   12.6961   -2.6194 O   0  0  0  0  0  0  0  0  0  0  0  0
    0.3561   11.0748   -2.7489 O   0  0  0  0  0  0  0  0  0  0  0  0
   -0.8842   14.8407   -0.3840 C   0  0  0  0  0  0  0  0  0  0  0  0
   -1.1166   15.0964    0.9787 C   0  0  0  0  0  0  0  0  0  0  0  0
   -2.3494   15.0959    1.5292 N   0  0  0  0  0  0  0  0  0  0  0  0
  1  2  1  0
  2  3  1  0
  3  4  1  0
  4  5  2  0
  4  6  1  0
  6  7  1  0
  7 30  2  0
  7  8  1  0
  8  9  2  0
  9 10  1  0
  9 28  1  0
 10 11  1  0
 11 12  1  0
 12 13  1  0
 13 14  1  0
 13 15  1  0
 15 16  1  0
 16 17  1  0
 16 25  1  0
 17 18  1  0
 18 19  2  0
 18 20  1  0
 20 24  1  0
 20 21  1  0
 21 22  1  0
 22 23  1  0
 23 24  1  0
 25 26  2  0
 25 27  1  0
 28 29  2  0
 29 30  1  0
M  CHG  3   2   1  13   1  27  -1
M  END
>  <original SMILES>  (38) 
C[NH2+]CC(=O)Nc1cc(CNC[NH+](C)CC(NC(=O)C2CCCC2)C(=O)[O-])ccn1

>  <ref_pdb>  (38) 
Combi03.pdb

>  <ref_mols>  (38) 
x0003_0A,x0003_1A

>  <Glide GScore>  (38) 
-7.15155772234186

>  <RMSLigA>  (38) 
1.18925241161988

>  <RMSLigB>  (38) 
1.19322875004605

$$$$
Combi03_000143
     RDKit          3D

 30 31  0  0  1  0  0  0  0  0999 V2000
   -8.5264   15.1453    4.6733 C   0  0  0  0  0  0  0  0  0  0  0  0
   -7.3553   15.0956    3.7801 N   0  0  0  0  0  0  0  0  0  0  0  0
   -7.6231   14.4994    2.4462 C   0  0  0  0  0  0  0  0  0  0  0  0
   -6.5102   14.6403    1.3826 C   0  0  0  0  0  0  0  0  0  0  0  0
   -6.8665   14.6959    0.2082 O   0  0  0  0  0  0  0  0  0  0  0  0
   -5.2236   14.7282    1.7800 N   0  0  0  0  0  0  0  0  0  0  0  0
   -4.0084   14.8330    1.0484 C   0  0  0  0  0  0  0  0  0  0  0  0
   -3.9431   14.7610   -0.3654 C   0  0  0  0  0  0  0  0  0  0  0  0
   -2.6914   14.8611   -1.0075 C   0  0  0  0  0  0  0  0  0  0  0  0
   -2.6161   14.8121   -2.5200 C   0  0  0  0  0  0  0  0  0  0  0  0
   -1.3020   14.4258   -3.0256 N   0  0  0  0  0  0  0  0  0  0  0  0
   -1.0510   14.5466   -4.4588 C   0  0  0  0  0  0  0  0  0  0  0  0
   -2.0930   13.6821   -5.1967 C   0  0  0  0  0  0  0  0  0  0  0  0
   -1.1768   16.0465   -4.8374 C   0  0  0  0  0  0  0  0  0  0  0  0
    0.4149   14.0927   -4.7582 C   0  0  0  0  0  0  0  0  0  0  0  0
    0.8769   12.6362   -4.4459 C   0  0  0  0  0  0  0  0  0  0  0  0
    0.2424   11.6199   -5.2838 N   0  0  0  0  0  0  0  0  0  0  0  0
    0.5867   11.2927   -6.5384 C   0  0  0  0  0  0  0  0  0  0  0  0
    1.4515   11.8943   -7.1789 O   0  0  0  0  0  0  0  0  0  0  0  0
   -0.1641   10.1038   -7.1601 C   0  0  0  0  0  0  0  0  0  0  0  0
   -0.7821   10.4388   -8.5367 C   0  0  0  0  0  0  0  0  0  0  0  0
   -0.0262    9.5962   -9.5655 C   0  0  0  0  0  0  0  0  0  0  0  0
    0.3940    8.3534   -8.7900 C   0  0  0  0  0  0  0  0  0  0  0  0
    0.7606    8.8914   -7.4079 C   0  0  0  0  0  0  0  0  0  0  0  0
    0.9019   12.2341   -2.9661 C   0  0  0  0  0  0  0  0  0  0  0  0
    1.4421   13.0483   -2.1857 O   0  0  0  0  0  0  0  0  0  0  0  0
    0.3931   11.1405   -2.6230 O   0  0  0  0  0  0  0  0  0  0  0  0
   -1.5370   15.0423   -0.2201 C   0  0  0  0  0  0  0  0  0  0  0  0
   -1.6893   15.0963    1.1691 C   0  0  0  0  0  0  0  0  0  0  0  0
   -2.8847   14.9950    1.7800 N   0  0  0  0  0  0  0  0  0  0  0  0
  1  2  1  0
  2  3  1  0
  3  4  1  0
  4  5  2  0
  4  6  1  0
  6  7  1  0
  7 30  2  0
  7  8  1  0
  8  9  2  0
  9 10  1  0
  9 28  1  0
 10 11  1  0
 11 12  1  0
 12 13  1  0
 12 14  1  0
 12 15  1  0
 15 16  1  0
 16 17  1  0
 16 25  1  0
 17 18  1  0
 18 19  2  0
 18 20  1  0
 20 24  1  0
 20 21  1  0
 21 22  1  0
 22 23  1  0
 23 24  1  0
 25 26  2  0
 25 27  1  0
 28 29  2  0
 29 30  1  0
M  CHG  2   2   1  27  -1
M  END
>  <original SMILES>  (39) 
C[NH2+]CC(=O)Nc1cc(CNC(C)(C)CC(NC(=O)C2CCCC2)C(=O)[O-])ccn1

>  <ref_pdb>  (39) 
Combi03.pdb

>  <ref_mols>  (39) 
x0003_0A,x0003_1A

>  <Glide GScore>  (39) 
-8.43154619929933

>  <RMSLigA>  (39) 
1.65457209739142

>  <RMSLigB>  (39) 
0.928312100036736

$$$$
Combi03_000059
     RDKit          3D

 29 30  0  0  1  0  0  0  0  0999 V2000
   -7.8010   15.0870    3.7802 C   0  0  0  0  0  0  0  0  0  0  0  0
   -6.5641   15.0961    2.9800 N   0  0  0  0  0  0  0  0  0  0  0  0
   -6.5423   14.1004    1.8969 C   0  0  0  0  0  0  0  0  0  0  0  0
   -5.3058   14.2354    1.0141 C   0  0  0  0  0  0  0  0  0  0  0  0
   -5.4313   13.9971   -0.1850 O   0  0  0  0  0  0  0  0  0  0  0  0
   -4.1600   14.6342    1.6061 N   0  0  0  0  0  0  0  0  0  0  0  0
   -2.8722   14.7637    1.0299 C   0  0  0  0  0  0  0  0  0  0  0  0
   -2.6806   14.9583   -0.3592 C   0  0  0  0  0  0  0  0  0  0  0  0
   -1.3694   14.9896   -0.8632 C   0  0  0  0  0  0  0  0  0  0  0  0
   -1.0951   15.2353   -2.3221 C   0  0  0  0  0  0  0  0  0  0  0  0
   -1.1192   13.9826   -3.1696 C   0  0  0  0  0  0  0  0  0  0  0  0
   -0.1640   14.0561   -4.3056 N   0  0  0  0  0  0  0  0  0  0  0  0
   -0.0940   15.3558   -5.0199 C   0  0  0  0  0  0  0  0  0  0  0  0
   -0.2665   12.8946   -5.2192 C   0  0  0  0  0  0  0  0  0  0  0  0
   -0.0745   11.5371   -4.4876 C   0  0  0  0  0  0  0  0  0  0  0  0
   -0.1578   10.3504   -5.3487 N   0  0  0  0  0  0  0  0  0  0  0  0
    0.2422   10.1771   -6.6198 C   0  0  0  0  0  0  0  0  0  0  0  0
    0.7106   11.0736   -7.3221 O   0  0  0  0  0  0  0  0  0  0  0  0
    0.0965    8.7538   -7.1852 C   0  0  0  0  0  0  0  0  0  0  0  0
   -0.9933    8.6954   -8.2713 C   0  0  0  0  0  0  0  0  0  0  0  0
   -0.2491    8.7938   -9.6023 C   0  0  0  0  0  0  0  0  0  0  0  0
    1.0408    8.0161   -9.3567 C   0  0  0  0  0  0  0  0  0  0  0  0
    1.3889    8.2600   -7.8824 C   0  0  0  0  0  0  0  0  0  0  0  0
    1.0424   11.4963   -3.4203 C   0  0  0  0  0  0  0  0  0  0  0  0
    1.0391   10.5410   -2.6202 O   0  0  0  0  0  0  0  0  0  0  0  0
    1.8192   12.4782   -3.3407 O   0  0  0  0  0  0  0  0  0  0  0  0
   -0.2820   14.8450    0.0161 C   0  0  0  0  0  0  0  0  0  0  0  0
   -0.5582   14.7150    1.3804 C   0  0  0  0  0  0  0  0  0  0  0  0
   -1.8156   14.6963    1.8648 N   0  0  0  0  0  0  0  0  0  0  0  0
  1  2  1  0
  2  3  1  0
  3  4  1  0
  4  5  2  0
  4  6  1  0
  6  7  1  0
  7 29  2  0
  7  8  1  0
  8  9  2  0
  9 10  1  0
  9 27  1  0
 10 11  1  0
 11 12  1  0
 12 13  1  0
 12 14  1  0
 14 15  1  0
 15 16  1  0
 15 24  1  0
 16 17  1  0
 17 18  2  0
 17 19  1  0
 19 23  1  0
 19 20  1  0
 20 21  1  0
 21 22  1  0
 22 23  1  0
 24 25  2  0
 24 26  1  0
 27 28  2  0
 28 29  1  0
M  CHG  3   2   1  12   1  26  -1
M  END
>  <original SMILES>  (40) 
C[NH2+]CC(=O)Nc1cc(CC[NH+](C)CC(NC(=O)C2CCCC2)C(=O)[O-])ccn1

>  <ref_pdb>  (40) 
Combi03.pdb

>  <ref_mols>  (40) 
x0003_0A,x0003_1A

>  <Glide GScore>  (40) 
-7.02666401169322

>  <RMSLigA>  (40) 
1.13708331709595

>  <RMSLigB>  (40) 
1.70988150479497

$$$$
Combi03_000078
     RDKit          3D

 30 31  0  0  1  0  0  0  0  0999 V2000
   -0.7580   16.5162   -4.6200 C   0  0  0  0  0  0  0  0  0  0  0  0
   -0.6419   15.1528   -3.4008 S   0  0  0  0  0  0  0  0  0  0  0  0
    0.1894   13.9051   -4.5051 C   0  0  0  0  0  0  0  0  0  0  0  0
   -0.0892   12.4470   -4.0480 C   0  0  0  0  0  0  0  0  0  0  0  0
   -0.1394   11.5009   -5.1672 N   0  0  0  0  0  0  0  0  0  0  0  0
    0.6418   11.4529   -6.2582 C   0  0  0  0  0  0  0  0  0  0  0  0
    1.5714   12.2306   -6.4705 O   0  0  0  0  0  0  0  0  0  0  0  0
    0.3138   10.3675   -7.2952 C   0  0  0  0  0  0  0  0  0  0  0  0
    0.3525    8.9301   -6.7266 C   0  0  0  0  0  0  0  0  0  0  0  0
   -0.8997    8.2360   -7.2665 C   0  0  0  0  0  0  0  0  0  0  0  0
   -1.9192    9.3613   -7.4120 C   0  0  0  0  0  0  0  0  0  0  0  0
   -1.0918   10.5462   -7.9105 C   0  0  0  0  0  0  0  0  0  0  0  0
    0.7515   11.9147   -2.8812 C   0  0  0  0  0  0  0  0  0  0  0  0
    0.6423   10.6965   -2.6201 O   0  0  0  0  0  0  0  0  0  0  0  0
    1.4423   12.7229   -2.2201 O   0  0  0  0  0  0  0  0  0  0  0  0
   -2.3139   14.5602   -3.4390 N   0  0  0  0  0  0  0  0  0  0  0  0
   -2.9386   14.4108   -4.7534 C   0  0  0  0  0  0  0  0  0  0  0  0
   -3.2654   15.2394   -2.5575 C   0  0  0  0  0  0  0  0  0  0  0  0
   -3.1070   15.0944   -1.0418 C   0  0  0  0  0  0  0  0  0  0  0  0
   -1.8653   15.0961   -0.3697 C   0  0  0  0  0  0  0  0  0  0  0  0
   -1.8506   15.0949    1.0306 C   0  0  0  0  0  0  0  0  0  0  0  0
   -2.9660   15.0231    1.7764 N   0  0  0  0  0  0  0  0  0  0  0  0
   -4.1672   14.9773    1.1607 C   0  0  0  0  0  0  0  0  0  0  0  0
   -5.3101   14.9509    1.9938 N   0  0  0  0  0  0  0  0  0  0  0  0
   -6.5822   14.6060    1.7432 C   0  0  0  0  0  0  0  0  0  0  0  0
   -6.9941   14.1485    0.6788 O   0  0  0  0  0  0  0  0  0  0  0  0
   -7.5735   14.8251    2.8931 C   0  0  0  0  0  0  0  0  0  0  0  0
   -7.7782   13.6548    3.7799 N   0  0  0  0  0  0  0  0  0  0  0  0
   -8.1668   12.3904    3.1210 C   0  0  0  0  0  0  0  0  0  0  0  0
   -4.2734   15.0377   -0.2502 C   0  0  0  0  0  0  0  0  0  0  0  0
  1  2  2  0
  2  3  1  0
  2 16  1  0
  3  4  1  0
  4  5  1  0
  4 13  1  0
  5  6  1  0
  6  7  2  0
  6  8  1  0
  8 12  1  0
  8  9  1  0
  9 10  1  0
 10 11  1  0
 11 12  1  0
 13 14  2  0
 13 15  1  0
 16 17  1  0
 16 18  1  0
 18 19  1  0
 19 30  1  0
 19 20  2  0
 20 21  1  0
 21 22  2  0
 22 23  1  0
 23 24  1  0
 23 30  2  0
 24 25  1  0
 25 26  2  0
 25 27  1  0
 27 28  1  0
 28 29  1  0
M  CHG  2  15  -1  28   1
M  END
>  <original SMILES>  (41) 
C=S(CC(NC(=O)C1CCCC1)C(=O)[O-])N(C)Cc1ccnc(NC(=O)C[NH2+]C)c1

>  <ref_pdb>  (41) 
Combi03.pdb

>  <ref_mols>  (41) 
x0003_0A,x0003_1A

>  <Glide GScore>  (41) 
-8.39085806557709

>  <RMSLigA>  (41) 
1.67403229165107

>  <RMSLigB>  (41) 
1.46143924260596

$$$$
Combi03_000132
     RDKit          3D

 30 31  0  0  1  0  0  0  0  0999 V2000
   -8.3473   12.5560    3.0280 C   0  0  0  0  0  0  0  0  0  0  0  0
   -7.7584   13.7518    3.6656 N   0  0  0  0  0  0  0  0  0  0  0  0
   -7.4621   14.8989    2.7754 C   0  0  0  0  0  0  0  0  0  0  0  0
   -6.5045   14.5897    1.6151 C   0  0  0  0  0  0  0  0  0  0  0  0
   -6.9464   14.0353    0.6101 O   0  0  0  0  0  0  0  0  0  0  0  0
   -5.2260   14.9737    1.7803 N   0  0  0  0  0  0  0  0  0  0  0  0
   -4.1464   14.9918    0.8707 C   0  0  0  0  0  0  0  0  0  0  0  0
   -4.3769   15.0726   -0.5213 C   0  0  0  0  0  0  0  0  0  0  0  0
   -3.2809   15.1379   -1.3996 C   0  0  0  0  0  0  0  0  0  0  0  0
   -3.5173   15.3528   -2.8819 C   0  0  0  0  0  0  0  0  0  0  0  0
   -3.2739   14.1124   -3.7538 C   0  0  0  0  0  0  0  0  0  0  0  0
   -4.0773   14.1925   -5.0654 C   0  0  0  0  0  0  0  0  0  0  0  0
   -1.7931   13.8864   -4.0679 C   0  0  0  0  0  0  0  0  0  0  0  0
   -0.9918   14.8160   -4.1596 O   0  0  0  0  0  0  0  0  0  0  0  0
   -1.4097   12.4402   -4.3479 C   0  0  0  0  0  0  0  0  0  0  0  0
    0.0963   12.1279   -4.3863 C   0  0  0  0  0  0  0  0  0  0  0  0
    0.2188   10.8070   -4.9829 N   0  0  0  0  0  0  0  0  0  0  0  0
    0.2421   10.5204   -6.2906 C   0  0  0  0  0  0  0  0  0  0  0  0
    0.3002   11.3864   -7.1596 O   0  0  0  0  0  0  0  0  0  0  0  0
    0.1965    9.0289   -6.6644 C   0  0  0  0  0  0  0  0  0  0  0  0
   -1.1861    8.6382   -7.2142 C   0  0  0  0  0  0  0  0  0  0  0  0
   -1.0550    8.7332   -8.7331 C   0  0  0  0  0  0  0  0  0  0  0  0
    0.3619    8.2343   -9.0063 C   0  0  0  0  0  0  0  0  0  0  0  0
    1.1923    8.6591   -7.7872 C   0  0  0  0  0  0  0  0  0  0  0  0
    0.7755   12.1073   -3.0085 C   0  0  0  0  0  0  0  0  0  0  0  0
    0.6159   11.0766   -2.3230 O   0  0  0  0  0  0  0  0  0  0  0  0
    1.4418   13.0963   -2.6358 O   0  0  0  0  0  0  0  0  0  0  0  0
   -1.9830   15.0963   -0.8587 C   0  0  0  0  0  0  0  0  0  0  0  0
   -1.8445   15.0903    0.5387 C   0  0  0  0  0  0  0  0  0  0  0  0
   -2.8953   15.0314    1.3801 N   0  0  0  0  0  0  0  0  0  0  0  0
  1  2  1  0
  2  3  1  0
  3  4  1  0
  4  5  2  0
  4  6  1  0
  6  7  1  0
  7 30  2  0
  7  8  1  0
  8  9  2  0
  9 10  1  0
  9 28  1  0
 10 11  1  0
 11 12  1  0
 11 13  1  0
 13 14  2  0
 13 15  1  0
 15 16  1  0
 16 17  1  0
 16 25  1  0
 17 18  1  0
 18 19  2  0
 18 20  1  0
 20 24  1  0
 20 21  1  0
 21 22  1  0
 22 23  1  0
 23 24  1  0
 25 26  2  0
 25 27  1  0
 28 29  2  0
 29 30  1  0
M  CHG  2   2   1  27  -1
M  END
>  <original SMILES>  (42) 
C[NH2+]CC(=O)Nc1cc(CC(C)C(=O)CC(NC(=O)C2CCCC2)C(=O)[O-])ccn1

>  <ref_pdb>  (42) 
Combi03.pdb

>  <ref_mols>  (42) 
x0003_0A,x0003_1A

>  <Glide GScore>  (42) 
-6.70361386433988

>  <RMSLigA>  (42) 
1.66797919182737

>  <RMSLigB>  (42) 
1.59544780399235

$$$$
Combi03_000010
     RDKit          3D

 32 33  0  0  1  0  0  0  0  0999 V2000
   -6.1404   11.6225   -3.5466 C   0  0  0  0  0  0  0  0  0  0  0  0
   -4.8132   11.4418   -3.6688 C   0  0  0  0  0  0  0  0  0  0  0  0
   -4.3101   10.0764   -4.1141 C   0  0  0  0  0  0  0  0  0  0  0  0
   -3.9445   12.5693   -3.3240 C   0  0  0  0  0  0  0  0  0  0  0  0
   -2.6177   12.7409   -3.5682 C   0  0  0  0  0  0  0  0  0  0  0  0
   -1.7177   11.7570   -4.3078 C   0  0  0  0  0  0  0  0  0  0  0  0
   -0.2551   12.2467   -4.5754 C   0  0  2  0  0  0  0  0  0  0  0  0
    0.4496   11.4826   -5.6138 N   0  0  0  0  0  0  0  0  0  0  0  0
    0.0231   11.0505   -6.8158 C   0  0  0  0  0  0  0  0  0  0  0  0
   -1.1443   11.0962   -7.1974 O   0  0  0  0  0  0  0  0  0  0  0  0
    1.0939   10.5059   -7.7710 C   0  0  0  0  0  0  0  0  0  0  0  0
    1.1465    8.9691   -7.7782 C   0  0  0  0  0  0  0  0  0  0  0  0
    1.5612    8.5468   -9.1954 C   0  0  0  0  0  0  0  0  0  0  0  0
    1.6099    9.8238  -10.0409 C   0  0  0  0  0  0  0  0  0  0  0  0
    0.8423   10.8751   -9.2434 C   0  0  0  0  0  0  0  0  0  0  0  0
    0.5980   12.1519   -3.2884 C   0  0  0  0  0  0  0  0  0  0  0  0
    1.3402   13.1166   -2.9954 O   0  0  0  0  0  0  0  0  0  0  0  0
    0.5314   11.0962   -2.6198 O   0  0  0  0  0  0  0  0  0  0  0  0
   -1.9052   13.8686   -3.2188 O   0  0  0  0  0  0  0  0  0  0  0  0
   -2.5635   14.9986   -2.6675 C   0  0  0  0  0  0  0  0  0  0  0  0
   -2.5490   14.9662   -1.1517 C   0  0  0  0  0  0  0  0  0  0  0  0
   -1.3345   15.0959   -0.4535 C   0  0  0  0  0  0  0  0  0  0  0  0
   -1.3703   15.0963    0.9496 C   0  0  0  0  0  0  0  0  0  0  0  0
   -2.5070   14.9255    1.6542 N   0  0  0  0  0  0  0  0  0  0  0  0
   -3.6773   14.7621    0.9971 C   0  0  0  0  0  0  0  0  0  0  0  0
   -4.8199   14.4749    1.7798 N   0  0  0  0  0  0  0  0  0  0  0  0
   -6.1265   14.4704    1.4663 C   0  0  0  0  0  0  0  0  0  0  0  0
   -6.6110   14.9476    0.4408 O   0  0  0  0  0  0  0  0  0  0  0  0
   -7.0715   13.8770    2.5131 C   0  0  0  0  0  0  0  0  0  0  0  0
   -7.9975   14.8951    3.0425 N   0  0  0  0  0  0  0  0  0  0  0  0
   -7.4561   15.6990    4.1576 C   0  0  0  0  0  0  0  0  0  0  0  0
   -3.7375   14.7974   -0.4170 C   0  0  0  0  0  0  0  0  0  0  0  0
  1  2  2  0
  2  3  1  0
  2  4  1  0
  4  5  2  3
  5  6  1  0
  5 19  1  0
  7  6  1  1
  7  8  1  0
  7 16  1  0
  8  9  1  0
  9 10  2  0
  9 11  1  0
 11 15  1  0
 11 12  1  0
 12 13  1  0
 13 14  1  0
 14 15  1  0
 16 17  2  0
 16 18  1  0
 19 20  1  0
 20 21  1  0
 21 32  1  0
 21 22  2  0
 22 23  1  0
 23 24  2  0
 24 25  1  0
 25 26  1  0
 25 32  2  0
 26 27  1  0
 27 28  2  0
 27 29  1  0
 29 30  1  0
 30 31  1  0
M  CHG  2  18  -1  30   1
M  END
>  <original SMILES>  (43) 
C=C(C)C=C(C[C@H](NC(=O)C1CCCC1)C(=O)[O-])OCc1ccnc(NC(=O)C[NH2+]C)c1

>  <ref_pdb>  (43) 
Combi03.pdb

>  <ref_mols>  (43) 
x0003_0A,x0003_1A

>  <Glide GScore>  (43) 
-6.25976017466054

>  <RMSLigA>  (43) 
1.40454914003142

>  <RMSLigB>  (43) 
1.93401821552867

$$$$
Combi03_000055
     RDKit          3D

 30 31  0  0  1  0  0  0  0  0999 V2000
   -5.0045   12.3075   -4.3310 C   0  0  0  0  0  0  0  0  0  0  0  0
   -4.6464   13.2479   -3.1688 C   0  0  0  0  0  0  0  0  0  0  0  0
   -3.3827   13.9991   -3.4008 N   0  0  0  0  0  0  0  0  0  0  0  0
   -2.1569   13.1662   -3.2840 C   0  0  0  0  0  0  0  0  0  0  0  0
   -0.9548   13.7850   -4.0386 C   0  0  0  0  0  0  0  0  0  0  0  0
    0.2409   12.8321   -4.2691 C   0  0  0  0  0  0  0  0  0  0  0  0
   -0.1622   11.7991   -5.2239 N   0  0  0  0  0  0  0  0  0  0  0  0
    0.4629   11.4811   -6.3655 C   0  0  0  0  0  0  0  0  0  0  0  0
    1.5173   11.9996   -6.7289 O   0  0  0  0  0  0  0  0  0  0  0  0
   -0.2364   10.4192   -7.2374 C   0  0  0  0  0  0  0  0  0  0  0  0
   -0.1733   10.7286   -8.7539 C   0  0  0  0  0  0  0  0  0  0  0  0
    0.3207    9.4534   -9.4430 C   0  0  0  0  0  0  0  0  0  0  0  0
    1.1296    8.7208   -8.3783 C   0  0  0  0  0  0  0  0  0  0  0  0
    0.3827    9.0162   -7.0789 C   0  0  0  0  0  0  0  0  0  0  0  0
    0.6990   12.2158   -2.9407 C   0  0  0  0  0  0  0  0  0  0  0  0
    1.4423   12.9154   -2.2203 O   0  0  0  0  0  0  0  0  0  0  0  0
    0.2415   11.0964   -2.6200 O   0  0  0  0  0  0  0  0  0  0  0  0
   -3.3117   15.2708   -2.6301 C   0  0  0  0  0  0  0  0  0  0  0  0
   -3.2858   15.0934   -1.1191 C   0  0  0  0  0  0  0  0  0  0  0  0
   -2.0678   15.0965   -0.4175 C   0  0  0  0  0  0  0  0  0  0  0  0
   -2.1123   15.0716    0.9852 C   0  0  0  0  0  0  0  0  0  0  0  0
   -3.2544   14.8938    1.6796 N   0  0  0  0  0  0  0  0  0  0  0  0
   -4.4304   14.7893    1.0202 C   0  0  0  0  0  0  0  0  0  0  0  0
   -5.6085   14.5366    1.7811 N   0  0  0  0  0  0  0  0  0  0  0  0
   -6.7447   13.9126    1.3918 C   0  0  0  0  0  0  0  0  0  0  0  0
   -6.9425   13.5349    0.2379 O   0  0  0  0  0  0  0  0  0  0  0  0
   -7.8814   13.6303    2.3991 C   0  0  0  0  0  0  0  0  0  0  0  0
   -7.7581   14.1569    3.7800 N   0  0  0  0  0  0  0  0  0  0  0  0
   -8.0423   15.5940    3.9541 C   0  0  0  0  0  0  0  0  0  0  0  0
   -4.4821   14.9596   -0.3870 C   0  0  0  0  0  0  0  0  0  0  0  0
  1  2  1  0
  2  3  1  0
  3  4  1  0
  3 18  1  0
  4  5  1  0
  5  6  1  0
  6  7  1  0
  6 15  1  0
  7  8  1  0
  8  9  2  0
  8 10  1  0
 10 14  1  0
 10 11  1  0
 11 12  1  0
 12 13  1  0
 13 14  1  0
 15 16  2  0
 15 17  1  0
 18 19  1  0
 19 30  1  0
 19 20  2  0
 20 21  1  0
 21 22  2  0
 22 23  1  0
 23 24  1  0
 23 30  2  0
 24 25  1  0
 25 26  2  0
 25 27  1  0
 27 28  1  0
 28 29  1  0
M  CHG  3   3   1  17  -1  28   1
M  END
>  <original SMILES>  (44) 
CC[NH+](CCC(NC(=O)C1CCCC1)C(=O)[O-])Cc1ccnc(NC(=O)C[NH2+]C)c1

>  <ref_pdb>  (44) 
Combi03.pdb

>  <ref_mols>  (44) 
x0003_0A,x0003_1A

>  <Glide GScore>  (44) 
-6.14505805949664

>  <RMSLigA>  (44) 
1.7720769731628

>  <RMSLigB>  (44) 
1.16260228955864

$$$$
