ver_1.2
     RDKit          2D

  1  0  0  0  0  0  0  0  0  0999 V2000
    0.0000    0.0000    0.0000 C   0  0  0  0  0  0  0  0  0  0  0  0
M  END
>  <submitter_name>  (1) 
Ruben Sanchez Garcia

>  <submitter_email>  (1) 
ruben.sanchez-garcia@stats.ox.ac.uk

>  <submitter_institution>  (1) 
University of Oxford

>  <method>  (1) 
Manifold5

>  <ref_url>  (1) 
https://github.com/matteoferla/Fragmenstein

>  <original SMILES>  (1) 
The SMILES of the compound

>  <ref_pdb>  (1) 
A pdb included in fragalysis or uploaded. E.g. x0830_0

>  <ref_mols>  (1) 
The inspirational fragments usded to propose the compound

>  <generation_date>  (1) 
2021-05-20

>  <Price>  (1) 
price in pounds

>  <originalId>  (1) 
originalId

$$$$
Z5024348670
     RDKit          3D

 17 19  0  0  0  0  0  0  0  0999 V2000
   12.1480   42.4275   20.4053 C   0  0  0  0  0  0  0  0  0  0  0  0
   11.2434   41.2573   20.2226 C   0  0  0  0  0  0  0  0  0  0  0  0
    9.9857   41.1254   20.7771 C   0  0  0  0  0  0  0  0  0  0  0  0
    9.5524   39.8884   20.3235 C   0  0  0  0  0  0  0  0  0  0  0  0
    8.2945   39.2387   20.5989 N   0  0  0  0  0  0  0  0  0  0  0  0
    7.1327   39.8701   21.1654 C   0  0  0  0  0  0  0  0  0  0  0  0
    7.0482   41.2272   21.2931 N   0  0  0  0  0  0  0  0  0  0  0  0
    5.9481   41.8411   21.8307 C   0  0  0  0  0  0  0  0  0  0  0  0
    4.8866   41.1018   22.2669 N   0  0  0  0  0  0  0  0  0  0  0  0
    4.9605   39.7563   22.1463 C   0  0  0  0  0  0  0  0  0  0  0  0
    4.0338   38.8638   22.5151 N   0  0  0  0  0  0  0  0  0  0  0  0
    4.4963   37.6533   22.2203 N   0  0  0  0  0  0  0  0  0  0  0  0
    5.7274   37.7822   21.6605 C   0  0  0  0  0  0  0  0  0  0  0  0
    6.0382   39.1270   21.6099 C   0  0  0  0  0  0  0  0  0  0  0  0
   10.5189   39.3483   19.5512 N   0  0  0  0  0  0  0  0  0  0  0  0
   10.4767   38.0575   18.8754 C   0  0  0  0  0  0  0  0  0  0  0  0
   11.5506   40.1735   19.4843 N   0  0  0  0  0  0  0  0  0  0  0  0
  1  2  1  0
  2  3  1  0
  3  4  2  0
  4  5  1  0
  5  6  1  0
  6  7  2  0
  7  8  1  0
  8  9  2  0
  9 10  1  0
 10 11  1  0
 11 12  1  0
 12 13  2  0
 13 14  1  0
  4 15  1  0
 15 16  1  0
 15 17  1  0
 17  2  2  0
 14  6  1  0
 14 10  2  0
M  END
>  <catalogId>  (2) 
Z5024348670

>  <originalId>  (2) 
ACVR1A_x1344_elabsAcceptor8

>  <Price>  (2) 
461.5

>  <original SMILES>  (2) 
Cc1cc(Nc2ncnc3[nH]ncc23)n(C)n1

>  <ref_mols>  (2) 
x1344_0B

>  <ref_pdb>  (2) 
x1344

$$$$
Z5024348675
     RDKit          3D

 17 19  0  0  0  0  0  0  0  0999 V2000
   11.1489   41.7702   17.5863 O   0  0  0  0  0  0  0  0  0  0  0  0
   10.8796   40.4739   18.0151 C   0  0  0  0  0  0  0  0  0  0  0  0
   11.6836   39.4246   17.5695 C   0  0  0  0  0  0  0  0  0  0  0  0
   11.4252   38.1236   17.9870 C   0  0  0  0  0  0  0  0  0  0  0  0
   10.3640   37.8611   18.8497 C   0  0  0  0  0  0  0  0  0  0  0  0
    9.5346   38.9079   19.3210 C   0  0  0  0  0  0  0  0  0  0  0  0
    8.4164   38.7050   20.2198 N   0  0  0  0  0  0  0  0  0  0  0  0
    7.4938   39.7004   20.7074 C   0  0  0  0  0  0  0  0  0  0  0  0
    7.7281   41.0348   20.5505 N   0  0  0  0  0  0  0  0  0  0  0  0
    6.8679   41.9942   21.0071 C   0  0  0  0  0  0  0  0  0  0  0  0
    5.7210   41.6388   21.6520 N   0  0  0  0  0  0  0  0  0  0  0  0
    5.4722   40.3194   21.8159 C   0  0  0  0  0  0  0  0  0  0  0  0
    4.4109   39.7729   22.4196 N   0  0  0  0  0  0  0  0  0  0  0  0
    4.5475   38.4524   22.3630 N   0  0  0  0  0  0  0  0  0  0  0  0
    5.7072   38.1613   21.7179 C   0  0  0  0  0  0  0  0  0  0  0  0
    6.3125   39.3507   21.3634 C   0  0  0  0  0  0  0  0  0  0  0  0
    9.8119   40.2170   18.8864 C   0  0  0  0  0  0  0  0  0  0  0  0
  1  2  1  0
  2  3  2  0
  3  4  1  0
  4  5  2  0
  5  6  1  0
  6  7  1  0
  7  8  1  0
  8  9  2  0
  9 10  1  0
 10 11  2  0
 11 12  1  0
 12 13  1  0
 13 14  1  0
 14 15  2  0
 15 16  1  0
  6 17  2  0
 17  2  1  0
 16  8  1  0
 16 12  2  0
M  END
>  <catalogId>  (3) 
Z5024348675

>  <originalId>  (3) 
ACVR1A_x1344_elabsDonorAcceptor2

>  <Price>  (3) 
461.5

>  <original SMILES>  (3) 
Oc1cccc(Nc2ncnc3[nH]ncc23)c1

>  <ref_mols>  (3) 
x1344_0B

>  <ref_pdb>  (3) 
x1344

$$$$
Z5024348650
     RDKit          3D

 17 19  0  0  0  0  0  0  0  0999 V2000
   10.1068   41.2128   21.3018 C   0  0  0  0  0  0  0  0  0  0  0  0
   10.4149   40.5714   19.9757 C   0  0  0  0  0  0  0  0  0  0  0  0
   11.5321   41.0226   19.2578 C   0  0  0  0  0  0  0  0  0  0  0  0
   11.8449   40.4521   18.0301 C   0  0  0  0  0  0  0  0  0  0  0  0
   11.0707   39.4649   17.5266 N   0  0  0  0  0  0  0  0  0  0  0  0
    9.9821   38.9995   18.1836 C   0  0  0  0  0  0  0  0  0  0  0  0
    9.6076   39.5323   19.4425 C   0  0  0  0  0  0  0  0  0  0  0  0
    8.4480   39.0638   20.1849 N   0  0  0  0  0  0  0  0  0  0  0  0
    7.4055   39.8574   20.7863 C   0  0  0  0  0  0  0  0  0  0  0  0
    7.4021   41.2184   20.7115 N   0  0  0  0  0  0  0  0  0  0  0  0
    6.4241   41.9864   21.2783 C   0  0  0  0  0  0  0  0  0  0  0  0
    5.3959   41.4012   21.9553 N   0  0  0  0  0  0  0  0  0  0  0  0
    5.3827   40.0511   22.0387 C   0  0  0  0  0  0  0  0  0  0  0  0
    4.4683   39.2953   22.6565 N   0  0  0  0  0  0  0  0  0  0  0  0
    4.8202   38.0236   22.5002 N   0  0  0  0  0  0  0  0  0  0  0  0
    5.9693   37.9752   21.7772 C   0  0  0  0  0  0  0  0  0  0  0  0
    6.3431   39.2706   21.4765 C   0  0  0  0  0  0  0  0  0  0  0  0
  1  2  1  0
  2  3  2  0
  3  4  1  0
  4  5  2  0
  5  6  1  0
  6  7  2  0
  7  8  1  0
  8  9  1  0
  9 10  2  0
 10 11  1  0
 11 12  2  0
 12 13  1  0
 13 14  1  0
 14 15  1  0
 15 16  2  0
 16 17  1  0
  7  2  1  0
 17  9  1  0
 17 13  2  0
M  END
>  <catalogId>  (4) 
Z5024348650

>  <originalId>  (4) 
ACVR1A_x1344_elabsAcceptor3

>  <Price>  (4) 
461.5

>  <original SMILES>  (4) 
Cc1ccncc1Nc1ncnc2[nH]ncc12

>  <ref_mols>  (4) 
x1344_0B

>  <ref_pdb>  (4) 
x1344

$$$$
Z5024348698
     RDKit          3D

 17 19  0  0  0  0  0  0  0  0999 V2000
   12.7660   43.0568   20.4127 C   0  0  0  0  0  0  0  0  0  0  0  0
   11.5635   42.1833   20.2733 C   0  0  0  0  0  0  0  0  0  0  0  0
   10.7832   41.8932   21.3887 C   0  0  0  0  0  0  0  0  0  0  0  0
    9.6682   41.0773   21.2504 C   0  0  0  0  0  0  0  0  0  0  0  0
    9.3166   40.5444   19.9897 C   0  0  0  0  0  0  0  0  0  0  0  0
    8.1696   39.6884   19.7675 N   0  0  0  0  0  0  0  0  0  0  0  0
    7.0178   39.5338   20.6220 C   0  0  0  0  0  0  0  0  0  0  0  0
    6.7854   40.3715   21.6730 N   0  0  0  0  0  0  0  0  0  0  0  0
    5.7018   40.2412   22.4959 C   0  0  0  0  0  0  0  0  0  0  0  0
    4.7972   39.2429   22.2888 N   0  0  0  0  0  0  0  0  0  0  0  0
    5.0116   38.4029   21.2504 C   0  0  0  0  0  0  0  0  0  0  0  0
    4.2469   37.3677   20.8861 N   0  0  0  0  0  0  0  0  0  0  0  0
    4.8046   36.8077   19.8178 N   0  0  0  0  0  0  0  0  0  0  0  0
    5.9336   37.4954   19.5043 C   0  0  0  0  0  0  0  0  0  0  0  0
    6.0802   38.5205   20.4175 C   0  0  0  0  0  0  0  0  0  0  0  0
   10.1390   40.8683   18.8969 C   0  0  0  0  0  0  0  0  0  0  0  0
   11.2269   41.6676   19.0613 N   0  0  0  0  0  0  0  0  0  0  0  0
  1  2  1  0
  2  3  2  0
  3  4  1  0
  4  5  2  0
  5  6  1  0
  6  7  1  0
  7  8  2  0
  8  9  1  0
  9 10  2  0
 10 11  1  0
 11 12  1  0
 12 13  1  0
 13 14  2  0
 14 15  1  0
  5 16  1  0
 16 17  2  0
 17  2  1  0
 15  7  1  0
 15 11  2  0
M  END
>  <catalogId>  (5) 
Z5024348698

>  <originalId>  (5) 
ACVR1A_x1344_elabsAcceptor9

>  <Price>  (5) 
461.5

>  <original SMILES>  (5) 
Cc1ccc(Nc2ncnc3[nH]ncc23)cn1

>  <ref_mols>  (5) 
x1344_0B

>  <ref_pdb>  (5) 
x1344

$$$$
Z5024348631
     RDKit          3D

 17 19  0  0  0  0  0  0  0  0999 V2000
   10.2242   40.7162   21.2459 C   0  0  0  0  0  0  0  0  0  0  0  0
   10.5104   39.9413   19.9942 C   0  0  0  0  0  0  0  0  0  0  0  0
   11.6991   40.1585   19.3667 N   0  0  0  0  0  0  0  0  0  0  0  0
   12.0516   39.5091   18.2303 C   0  0  0  0  0  0  0  0  0  0  0  0
   11.1861   38.5856   17.6643 C   0  0  0  0  0  0  0  0  0  0  0  0
    9.9615   38.3360   18.2708 C   0  0  0  0  0  0  0  0  0  0  0  0
    9.5868   39.0061   19.4603 C   0  0  0  0  0  0  0  0  0  0  0  0
    8.3181   38.7778   20.1321 N   0  0  0  0  0  0  0  0  0  0  0  0
    7.4207   39.7643   20.6782 C   0  0  0  0  0  0  0  0  0  0  0  0
    7.6105   41.0995   20.4791 N   0  0  0  0  0  0  0  0  0  0  0  0
    6.7712   42.0483   20.9924 C   0  0  0  0  0  0  0  0  0  0  0  0
    5.6923   41.6804   21.7399 N   0  0  0  0  0  0  0  0  0  0  0  0
    5.4884   40.3594   21.9466 C   0  0  0  0  0  0  0  0  0  0  0  0
    4.4957   39.8015   22.6487 N   0  0  0  0  0  0  0  0  0  0  0  0
    4.6567   38.4834   22.6023 N   0  0  0  0  0  0  0  0  0  0  0  0
    5.7629   38.2053   21.8644 C   0  0  0  0  0  0  0  0  0  0  0  0
    6.3083   39.4012   21.4396 C   0  0  0  0  0  0  0  0  0  0  0  0
  1  2  1  0
  2  3  2  0
  3  4  1  0
  4  5  2  0
  5  6  1  0
  6  7  2  0
  7  8  1  0
  8  9  1  0
  9 10  2  0
 10 11  1  0
 11 12  2  0
 12 13  1  0
 13 14  1  0
 14 15  1  0
 15 16  2  0
 16 17  1  0
  7  2  1  0
 17  9  1  0
 17 13  2  0
M  END
>  <catalogId>  (6) 
Z5024348631

>  <originalId>  (6) 
ACVR1A_x1344_elabsAcceptor1

>  <Price>  (6) 
461.5

>  <original SMILES>  (6) 
Cc1ncccc1Nc1ncnc2[nH]ncc12

>  <ref_mols>  (6) 
x1344_0B

>  <ref_pdb>  (6) 
x1344

$$$$
Z5024348641
     RDKit          3D

 17 19  0  0  0  0  0  0  0  0999 V2000
   12.5880   43.1860   20.6716 O   0  0  0  0  0  0  0  0  0  0  0  0
   11.5165   42.3290   20.4410 C   0  0  0  0  0  0  0  0  0  0  0  0
   11.2622   41.8886   19.1465 C   0  0  0  0  0  0  0  0  0  0  0  0
   10.1943   41.0335   18.8916 C   0  0  0  0  0  0  0  0  0  0  0  0
    9.3511   40.5909   19.9395 C   0  0  0  0  0  0  0  0  0  0  0  0
    8.2252   39.7009   19.7421 N   0  0  0  0  0  0  0  0  0  0  0  0
    7.0567   39.5700   20.5776 C   0  0  0  0  0  0  0  0  0  0  0  0
    6.8044   40.4356   21.6009 N   0  0  0  0  0  0  0  0  0  0  0  0
    5.7047   40.3278   22.4055 C   0  0  0  0  0  0  0  0  0  0  0  0
    4.8033   39.3247   22.2072 N   0  0  0  0  0  0  0  0  0  0  0  0
    5.0375   38.4571   21.1962 C   0  0  0  0  0  0  0  0  0  0  0  0
    4.2791   37.4129   20.8447 N   0  0  0  0  0  0  0  0  0  0  0  0
    4.8570   36.8244   19.8029 N   0  0  0  0  0  0  0  0  0  0  0  0
    5.9927   37.5029   19.4935 C   0  0  0  0  0  0  0  0  0  0  0  0
    6.1224   38.5521   20.3817 C   0  0  0  0  0  0  0  0  0  0  0  0
    9.6223   41.0466   21.2429 C   0  0  0  0  0  0  0  0  0  0  0  0
   10.6946   41.9083   21.4918 C   0  0  0  0  0  0  0  0  0  0  0  0
  1  2  1  0
  2  3  2  0
  3  4  1  0
  4  5  2  0
  5  6  1  0
  6  7  1  0
  7  8  2  0
  8  9  1  0
  9 10  2  0
 10 11  1  0
 11 12  1  0
 12 13  1  0
 13 14  2  0
 14 15  1  0
  5 16  1  0
 16 17  2  0
 17  2  1  0
 15  7  1  0
 15 11  2  0
M  END
>  <catalogId>  (7) 
Z5024348641

>  <originalId>  (7) 
ACVR1A_x1344_elabsDonorAcceptor3

>  <Price>  (7) 
461.5

>  <original SMILES>  (7) 
Oc1ccc(Nc2ncnc3[nH]ncc23)cc1

>  <ref_mols>  (7) 
x1344_0B

>  <ref_pdb>  (7) 
x1344

$$$$
Z5024348699
     RDKit          3D

 17 19  0  0  0  0  0  0  0  0999 V2000
    9.7979   37.9701   18.1438 O   0  0  0  0  0  0  0  0  0  0  0  0
   10.2619   39.1867   18.6430 C   0  0  0  0  0  0  0  0  0  0  0  0
   11.3928   39.7803   18.0644 C   0  0  0  0  0  0  0  0  0  0  0  0
   11.8768   40.9951   18.5444 C   0  0  0  0  0  0  0  0  0  0  0  0
   11.2387   41.6254   19.6055 C   0  0  0  0  0  0  0  0  0  0  0  0
   10.1168   41.0474   20.1925 C   0  0  0  0  0  0  0  0  0  0  0  0
    9.5985   39.8146   19.7226 C   0  0  0  0  0  0  0  0  0  0  0  0
    8.4312   39.1718   20.2989 N   0  0  0  0  0  0  0  0  0  0  0  0
    7.3084   39.8055   20.9463 C   0  0  0  0  0  0  0  0  0  0  0  0
    7.3235   41.1270   21.2827 N   0  0  0  0  0  0  0  0  0  0  0  0
    6.2711   41.7446   21.8989 C   0  0  0  0  0  0  0  0  0  0  0  0
    5.1450   41.0410   22.2064 N   0  0  0  0  0  0  0  0  0  0  0  0
    5.1118   39.7289   21.8792 C   0  0  0  0  0  0  0  0  0  0  0  0
    4.1065   38.8739   22.0971 N   0  0  0  0  0  0  0  0  0  0  0  0
    4.4726   37.6879   21.6226 N   0  0  0  0  0  0  0  0  0  0  0  0
    5.7222   37.7942   21.1004 C   0  0  0  0  0  0  0  0  0  0  0  0
    6.1461   39.0989   21.2608 C   0  0  0  0  0  0  0  0  0  0  0  0
  1  2  1  0
  2  3  2  0
  3  4  1  0
  4  5  2  0
  5  6  1  0
  6  7  2  0
  7  8  1  0
  8  9  1  0
  9 10  2  0
 10 11  1  0
 11 12  2  0
 12 13  1  0
 13 14  1  0
 14 15  1  0
 15 16  2  0
 16 17  1  0
  7  2  1  0
 17  9  1  0
 17 13  2  0
M  END
>  <catalogId>  (8) 
Z5024348699

>  <originalId>  (8) 
ACVR1A_x1344_elabsDonorAcceptor4

>  <Price>  (8) 
461.5

>  <original SMILES>  (8) 
Oc1ccccc1Nc1ncnc2[nH]ncc12

>  <ref_mols>  (8) 
x1344_0B

>  <ref_pdb>  (8) 
x1344

$$$$
Z5024348713
     RDKit          3D

 16 18  0  0  0  0  0  0  0  0999 V2000
   11.4039   38.6790   17.8665 C   0  0  0  0  0  0  0  0  0  0  0  0
   10.2340   38.3628   18.5609 C   0  0  0  0  0  0  0  0  0  0  0  0
    9.6728   39.2899   19.4550 C   0  0  0  0  0  0  0  0  0  0  0  0
    8.4597   38.9230   20.1568 N   0  0  0  0  0  0  0  0  0  0  0  0
    7.4816   39.8107   20.7360 C   0  0  0  0  0  0  0  0  0  0  0  0
    7.5827   41.1658   20.6181 N   0  0  0  0  0  0  0  0  0  0  0  0
    6.6676   42.0240   21.1614 C   0  0  0  0  0  0  0  0  0  0  0  0
    5.5999   41.5409   21.8577 N   0  0  0  0  0  0  0  0  0  0  0  0
    5.4840   40.1992   21.9840 C   0  0  0  0  0  0  0  0  0  0  0  0
    4.5167   39.5354   22.6267 N   0  0  0  0  0  0  0  0  0  0  0  0
    4.7701   38.2362   22.5106 N   0  0  0  0  0  0  0  0  0  0  0  0
    5.9096   38.0773   21.7879 C   0  0  0  0  0  0  0  0  0  0  0  0
    6.3801   39.3296   21.4456 C   0  0  0  0  0  0  0  0  0  0  0  0
   10.3319   40.5304   19.6201 C   0  0  0  0  0  0  0  0  0  0  0  0
   11.4945   40.8038   18.9050 C   0  0  0  0  0  0  0  0  0  0  0  0
   12.0035   39.8826   18.0512 N   0  0  0  0  0  0  0  0  0  0  0  0
  1  2  2  0
  2  3  1  0
  3  4  1  0
  4  5  1  0
  5  6  2  0
  6  7  1  0
  7  8  2  0
  8  9  1  0
  9 10  1  0
 10 11  1  0
 11 12  2  0
 12 13  1  0
  3 14  2  0
 14 15  1  0
 15 16  2  0
 16  1  1  0
 13  5  1  0
 13  9  2  0
M  END
>  <catalogId>  (9) 
Z5024348713

>  <originalId>  (9) 
ACVR1A_x1344_elabsAcceptor28

>  <Price>  (9) 
461.5

>  <original SMILES>  (9) 
c1cc(Nc2ncnc3[nH]ncc23)ccn1

>  <ref_mols>  (9) 
x1344_0B

>  <ref_pdb>  (9) 
x1344

$$$$
Z5024348682
     RDKit          3D

 17 19  0  0  0  0  0  0  0  0999 V2000
   11.8429   41.9526   18.5354 C   0  0  0  0  0  0  0  0  0  0  0  0
   11.3090   40.5597   18.6204 C   0  0  0  0  0  0  0  0  0  0  0  0
   10.1443   40.2754   19.3466 C   0  0  0  0  0  0  0  0  0  0  0  0
    9.6580   38.9598   19.4126 C   0  0  0  0  0  0  0  0  0  0  0  0
    8.4501   38.7110   20.1725 N   0  0  0  0  0  0  0  0  0  0  0  0
    7.5135   39.6879   20.6699 C   0  0  0  0  0  0  0  0  0  0  0  0
    7.7516   41.0269   20.5693 N   0  0  0  0  0  0  0  0  0  0  0  0
    6.8776   41.9688   21.0363 C   0  0  0  0  0  0  0  0  0  0  0  0
    5.7129   41.5899   21.6344 N   0  0  0  0  0  0  0  0  0  0  0  0
    5.4606   40.2652   21.7421 C   0  0  0  0  0  0  0  0  0  0  0  0
    4.3830   39.6969   22.2945 N   0  0  0  0  0  0  0  0  0  0  0  0
    4.5223   38.3794   22.1929 N   0  0  0  0  0  0  0  0  0  0  0  0
    5.7003   38.1123   21.5708 C   0  0  0  0  0  0  0  0  0  0  0  0
    6.3143   39.3141   21.2783 C   0  0  0  0  0  0  0  0  0  0  0  0
   10.3768   37.9536   18.7273 C   0  0  0  0  0  0  0  0  0  0  0  0
   11.5302   38.2780   18.0207 C   0  0  0  0  0  0  0  0  0  0  0  0
   11.9681   39.5590   17.9808 N   0  0  0  0  0  0  0  0  0  0  0  0
  1  2  1  0
  2  3  2  0
  3  4  1  0
  4  5  1  0
  5  6  1  0
  6  7  2  0
  7  8  1  0
  8  9  2  0
  9 10  1  0
 10 11  1  0
 11 12  1  0
 12 13  2  0
 13 14  1  0
  4 15  2  0
 15 16  1  0
 16 17  2  0
 17  2  1  0
 14  6  1  0
 14 10  2  0
M  END
>  <catalogId>  (10) 
Z5024348682

>  <originalId>  (10) 
ACVR1A_x1344_elabsAcceptor29

>  <Price>  (10) 
461.5

>  <original SMILES>  (10) 
Cc1cc(Nc2ncnc3[nH]ncc23)ccn1

>  <ref_mols>  (10) 
x1344_0B

>  <ref_pdb>  (10) 
x1344

$$$$
Z5024348645
     RDKit          3D

 17 19  0  0  0  0  0  0  0  0999 V2000
   12.7958   43.4285   20.6155 Cl  0  0  0  0  0  0  0  0  0  0  0  0
   11.4688   42.3059   20.3818 C   0  0  0  0  0  0  0  0  0  0  0  0
   10.7354   41.8470   21.4767 C   0  0  0  0  0  0  0  0  0  0  0  0
    9.6813   40.9540   21.2811 C   0  0  0  0  0  0  0  0  0  0  0  0
    9.3668   40.5235   19.9837 C   0  0  0  0  0  0  0  0  0  0  0  0
    8.2769   39.6015   19.7889 N   0  0  0  0  0  0  0  0  0  0  0  0
    7.0920   39.5291   20.6031 C   0  0  0  0  0  0  0  0  0  0  0  0
    6.8639   40.4205   21.6147 N   0  0  0  0  0  0  0  0  0  0  0  0
    5.7365   40.3572   22.3938 C   0  0  0  0  0  0  0  0  0  0  0  0
    4.7984   39.3863   22.1825 N   0  0  0  0  0  0  0  0  0  0  0  0
    5.0177   38.4997   21.1844 C   0  0  0  0  0  0  0  0  0  0  0  0
    4.2270   37.4811   20.8238 N   0  0  0  0  0  0  0  0  0  0  0  0
    4.8052   36.8615   19.8001 N   0  0  0  0  0  0  0  0  0  0  0  0
    5.9723   37.4944   19.5119 C   0  0  0  0  0  0  0  0  0  0  0  0
    6.1218   38.5460   20.3952 C   0  0  0  0  0  0  0  0  0  0  0  0
   10.1002   40.9884   18.9315 N   0  0  0  0  0  0  0  0  0  0  0  0
   11.1321   41.8599   19.1006 C   0  0  0  0  0  0  0  0  0  0  0  0
  1  2  1  0
  2  3  2  0
  3  4  1  0
  4  5  2  0
  5  6  1  0
  6  7  1  0
  7  8  2  0
  8  9  1  0
  9 10  2  0
 10 11  1  0
 11 12  1  0
 12 13  1  0
 13 14  2  0
 14 15  1  0
  5 16  1  0
 16 17  2  0
 17  2  1  0
 15  7  1  0
 15 11  2  0
M  END
>  <catalogId>  (11) 
Z5024348645

>  <originalId>  (11) 
ACVR1A_x1344_elabsAcceptor27

>  <Price>  (11) 
738.4

>  <original SMILES>  (11) 
Clc1ccc(Nc2ncnc3[nH]ncc23)nc1

>  <ref_mols>  (11) 
x1344_0B

>  <ref_pdb>  (11) 
x1344

$$$$
Z5024348624
     RDKit          3D

 17 19  0  0  0  0  0  0  0  0999 V2000
   10.0828   41.1183   21.5405 C   0  0  0  0  0  0  0  0  0  0  0  0
   10.4984   40.4796   20.2429 C   0  0  0  0  0  0  0  0  0  0  0  0
   11.6873   40.9079   19.6313 C   0  0  0  0  0  0  0  0  0  0  0  0
   12.0982   40.3599   18.4619 N   0  0  0  0  0  0  0  0  0  0  0  0
   11.3857   39.3907   17.8442 C   0  0  0  0  0  0  0  0  0  0  0  0
   10.1994   38.9298   18.4021 C   0  0  0  0  0  0  0  0  0  0  0  0
    9.7244   39.4629   19.6245 C   0  0  0  0  0  0  0  0  0  0  0  0
    8.4910   39.0151   20.2513 N   0  0  0  0  0  0  0  0  0  0  0  0
    7.4396   39.8270   20.8109 C   0  0  0  0  0  0  0  0  0  0  0  0
    7.4564   41.1874   20.7250 N   0  0  0  0  0  0  0  0  0  0  0  0
    6.4695   41.9720   21.2529 C   0  0  0  0  0  0  0  0  0  0  0  0
    5.4121   41.4051   21.8999 N   0  0  0  0  0  0  0  0  0  0  0  0
    5.3790   40.0561   21.9935 C   0  0  0  0  0  0  0  0  0  0  0  0
    4.4349   39.3167   22.5865 N   0  0  0  0  0  0  0  0  0  0  0  0
    4.7759   38.0395   22.4520 N   0  0  0  0  0  0  0  0  0  0  0  0
    5.9476   37.9711   21.7681 C   0  0  0  0  0  0  0  0  0  0  0  0
    6.3475   39.2592   21.4699 C   0  0  0  0  0  0  0  0  0  0  0  0
  1  2  1  0
  2  3  2  0
  3  4  1  0
  4  5  2  0
  5  6  1  0
  6  7  2  0
  7  8  1  0
  8  9  1  0
  9 10  2  0
 10 11  1  0
 11 12  2  0
 12 13  1  0
 13 14  1  0
 14 15  1  0
 15 16  2  0
 16 17  1  0
  7  2  1  0
 17  9  1  0
 17 13  2  0
M  END
>  <catalogId>  (12) 
Z5024348624

>  <originalId>  (12) 
ACVR1A_x1344_elabsAcceptor23

>  <Price>  (12) 
738.4

>  <original SMILES>  (12) 
Cc1cnccc1Nc1ncnc2[nH]ncc12

>  <ref_mols>  (12) 
x1344_0B

>  <ref_pdb>  (12) 
x1344

$$$$
Z5024348696
     RDKit          3D

 17 19  0  0  0  0  0  0  0  0999 V2000
   12.0001   42.2025   19.3227 C   0  0  0  0  0  0  0  0  0  0  0  0
   11.3947   40.8750   18.9984 C   0  0  0  0  0  0  0  0  0  0  0  0
   11.9207   40.0859   17.9715 C   0  0  0  0  0  0  0  0  0  0  0  0
   11.3363   38.8590   17.6911 C   0  0  0  0  0  0  0  0  0  0  0  0
   10.2399   38.4248   18.4259 C   0  0  0  0  0  0  0  0  0  0  0  0
    9.7203   39.2310   19.4644 C   0  0  0  0  0  0  0  0  0  0  0  0
    8.5841   38.8538   20.2774 N   0  0  0  0  0  0  0  0  0  0  0  0
    7.5546   39.7203   20.8007 C   0  0  0  0  0  0  0  0  0  0  0  0
    7.7125   41.0743   20.8477 N   0  0  0  0  0  0  0  0  0  0  0  0
    6.7530   41.9144   21.3403 C   0  0  0  0  0  0  0  0  0  0  0  0
    5.5781   41.4129   21.8151 N   0  0  0  0  0  0  0  0  0  0  0  0
    5.4032   40.0722   21.7763 C   0  0  0  0  0  0  0  0  0  0  0  0
    4.3295   39.3924   22.1937 N   0  0  0  0  0  0  0  0  0  0  0  0
    4.5572   38.1015   21.9757 N   0  0  0  0  0  0  0  0  0  0  0  0
    5.7875   37.9640   21.4156 C   0  0  0  0  0  0  0  0  0  0  0  0
    6.3436   39.2210   21.2842 C   0  0  0  0  0  0  0  0  0  0  0  0
   10.3206   40.4316   19.7105 N   0  0  0  0  0  0  0  0  0  0  0  0
  1  2  1  0
  2  3  2  0
  3  4  1  0
  4  5  2  0
  5  6  1  0
  6  7  1  0
  7  8  1  0
  8  9  2  0
  9 10  1  0
 10 11  2  0
 11 12  1  0
 12 13  1  0
 13 14  1  0
 14 15  2  0
 15 16  1  0
  6 17  2  0
 17  2  1  0
 16  8  1  0
 16 12  2  0
M  END
>  <catalogId>  (13) 
Z5024348696

>  <originalId>  (13) 
ACVR1A_x1344_elabsAcceptor31

>  <Price>  (13) 
738.4

>  <original SMILES>  (13) 
Cc1cccc(Nc2ncnc3[nH]ncc23)n1

>  <ref_mols>  (13) 
x1344_0B

>  <ref_pdb>  (13) 
x1344

$$$$
Z5024348706
     RDKit          3D

 17 19  0  0  0  0  0  0  0  0999 V2000
   12.8843   39.1964   15.8266 C   0  0  0  0  0  0  0  0  0  0  0  0
   12.1075   38.9688   17.0363 N   0  0  0  0  0  0  0  0  0  0  0  0
   11.9923   37.8085   17.7101 C   0  0  0  0  0  0  0  0  0  0  0  0
   11.2052   37.9236   18.7998 N   0  0  0  0  0  0  0  0  0  0  0  0
   10.8109   39.2144   18.7798 C   0  0  0  0  0  0  0  0  0  0  0  0
    9.9727   39.8439   19.8425 C   0  0  0  0  0  0  0  0  0  0  0  0
    8.6757   39.1757   19.9274 N   0  0  0  0  0  0  0  0  0  0  0  0
    7.5658   39.7899   20.5940 C   0  0  0  0  0  0  0  0  0  0  0  0
    7.6182   41.1014   20.9784 N   0  0  0  0  0  0  0  0  0  0  0  0
    6.5669   41.7063   21.6180 C   0  0  0  0  0  0  0  0  0  0  0  0
    5.4270   41.0060   21.8966 N   0  0  0  0  0  0  0  0  0  0  0  0
    5.3719   39.7075   21.5194 C   0  0  0  0  0  0  0  0  0  0  0  0
    4.3542   38.8573   21.7029 N   0  0  0  0  0  0  0  0  0  0  0  0
    4.7052   37.6857   21.1824 N   0  0  0  0  0  0  0  0  0  0  0  0
    5.9569   37.7966   20.6659 C   0  0  0  0  0  0  0  0  0  0  0  0
    6.3958   39.0882   20.8788 C   0  0  0  0  0  0  0  0  0  0  0  0
   11.3729   39.8684   17.7071 C   0  0  0  0  0  0  0  0  0  0  0  0
  1  2  1  0
  2  3  1  0
  3  4  2  0
  4  5  1  0
  5  6  1  0
  6  7  1  0
  7  8  1  0
  8  9  2  0
  9 10  1  0
 10 11  2  0
 11 12  1  0
 12 13  1  0
 13 14  1  0
 14 15  2  0
 15 16  1  0
  5 17  2  0
 17  2  1  0
 16  8  1  0
 16 12  2  0
M  END
>  <catalogId>  (14) 
Z5024348706

>  <originalId>  (14) 
ACVR1A_x1344_elabsAcceptor2

>  <Price>  (14) 
923.0

>  <original SMILES>  (14) 
Cn1cnc(CNc2ncnc3[nH]ncc23)c1

>  <ref_mols>  (14) 
x1344_0B

>  <ref_pdb>  (14) 
x1344

$$$$
Z5024348707
     RDKit          3D

 17 19  0  0  0  0  0  0  0  0999 V2000
   11.9963   41.5084   18.5832 O   0  0  0  0  0  0  0  0  0  0  0  0
   11.4196   40.3884   18.6194 C   0  0  0  0  0  0  0  0  0  0  0  0
   10.2412   40.2462   19.3452 C   0  0  0  0  0  0  0  0  0  0  0  0
    9.5803   38.9990   19.3925 C   0  0  0  0  0  0  0  0  0  0  0  0
    8.3504   38.7701   20.1226 N   0  0  0  0  0  0  0  0  0  0  0  0
    7.4416   39.7653   20.6375 C   0  0  0  0  0  0  0  0  0  0  0  0
    7.5498   41.0821   20.2985 N   0  0  0  0  0  0  0  0  0  0  0  0
    6.7011   42.0408   20.7767 C   0  0  0  0  0  0  0  0  0  0  0  0
    5.6949   41.7033   21.6316 N   0  0  0  0  0  0  0  0  0  0  0  0
    5.5721   40.4015   21.9783 C   0  0  0  0  0  0  0  0  0  0  0  0
    4.6582   39.8741   22.8002 N   0  0  0  0  0  0  0  0  0  0  0  0
    4.8816   38.5661   22.8693 N   0  0  0  0  0  0  0  0  0  0  0  0
    5.9481   38.2637   22.0838 C   0  0  0  0  0  0  0  0  0  0  0  0
    6.4029   39.4332   21.5079 C   0  0  0  0  0  0  0  0  0  0  0  0
   10.1553   37.9251   18.6939 C   0  0  0  0  0  0  0  0  0  0  0  0
   11.3417   38.1088   17.9799 C   0  0  0  0  0  0  0  0  0  0  0  0
   11.9460   39.3264   17.9549 N   0  0  0  0  0  0  0  0  0  0  0  0
  1  2  2  0
  2  3  1  0
  3  4  2  0
  4  5  1  0
  5  6  1  0
  6  7  2  0
  7  8  1  0
  8  9  2  0
  9 10  1  0
 10 11  1  0
 11 12  1  0
 12 13  2  0
 13 14  1  0
  4 15  1  0
 15 16  2  0
 16 17  1  0
 17  2  1  0
 14  6  1  0
 14 10  2  0
M  END
>  <catalogId>  (15) 
Z5024348707

>  <originalId>  (15) 
ACVR1A_x1344_elabsDonorAcceptor9

>  <Price>  (15) 
923.0

>  <original SMILES>  (15) 
O=c1cc(Nc2ncnc3[nH]ncc23)cc[nH]1

>  <ref_mols>  (15) 
x1344_0B

>  <ref_pdb>  (15) 
x1344

$$$$
Z5024348655
     RDKit          3D

 17 19  0  0  0  0  0  0  0  0999 V2000
   12.0918   42.0308   18.4364 Cl  0  0  0  0  0  0  0  0  0  0  0  0
   11.3657   40.4428   18.5907 C   0  0  0  0  0  0  0  0  0  0  0  0
   10.2186   40.2862   19.3602 C   0  0  0  0  0  0  0  0  0  0  0  0
    9.6182   39.0146   19.4919 C   0  0  0  0  0  0  0  0  0  0  0  0
    8.4227   38.7699   20.2721 N   0  0  0  0  0  0  0  0  0  0  0  0
    7.4914   39.7510   20.7746 C   0  0  0  0  0  0  0  0  0  0  0  0
    7.6262   41.0794   20.4960 N   0  0  0  0  0  0  0  0  0  0  0  0
    6.7570   42.0250   20.9637 C   0  0  0  0  0  0  0  0  0  0  0  0
    5.7017   41.6613   21.7457 N   0  0  0  0  0  0  0  0  0  0  0  0
    5.5520   40.3477   22.0317 C   0  0  0  0  0  0  0  0  0  0  0  0
    4.5897   39.7950   22.7784 N   0  0  0  0  0  0  0  0  0  0  0  0
    4.8015   38.4835   22.8070 N   0  0  0  0  0  0  0  0  0  0  0  0
    5.9094   38.2045   22.0717 C   0  0  0  0  0  0  0  0  0  0  0  0
    6.4031   39.3924   21.5704 C   0  0  0  0  0  0  0  0  0  0  0  0
   10.2222   37.9323   18.8300 C   0  0  0  0  0  0  0  0  0  0  0  0
   11.3773   38.1331   18.0698 C   0  0  0  0  0  0  0  0  0  0  0  0
   11.9199   39.3742   17.9660 N   0  0  0  0  0  0  0  0  0  0  0  0
  1  2  1  0
  2  3  2  0
  3  4  1  0
  4  5  1  0
  5  6  1  0
  6  7  2  0
  7  8  1  0
  8  9  2  0
  9 10  1  0
 10 11  1  0
 11 12  1  0
 12 13  2  0
 13 14  1  0
  4 15  2  0
 15 16  1  0
 16 17  2  0
 17  2  1  0
 14  6  1  0
 14 10  2  0
M  END
>  <catalogId>  (16) 
Z5024348655

>  <originalId>  (16) 
ACVR1A_x1344_elabsAcceptor20

>  <Price>  (16) 
1107.6

>  <original SMILES>  (16) 
Clc1cc(Nc2ncnc3[nH]ncc23)ccn1

>  <ref_mols>  (16) 
x1344_0B

>  <ref_pdb>  (16) 
x1344

$$$$
Z5024348708
     RDKit          3D

 17 19  0  0  0  0  0  0  0  0999 V2000
   12.1146   38.6597   16.8876 C   0  0  0  0  0  0  0  0  0  0  0  0
   11.1086   39.0821   17.9075 C   0  0  0  0  0  0  0  0  0  0  0  0
   10.0463   38.3393   18.2736 N   0  0  0  0  0  0  0  0  0  0  0  0
    9.4385   39.1133   19.1996 C   0  0  0  0  0  0  0  0  0  0  0  0
    8.2374   38.7109   19.8750 N   0  0  0  0  0  0  0  0  0  0  0  0
    7.3555   39.6202   20.5552 C   0  0  0  0  0  0  0  0  0  0  0  0
    7.5973   40.9664   20.5679 N   0  0  0  0  0  0  0  0  0  0  0  0
    6.7638   41.8444   21.2128 C   0  0  0  0  0  0  0  0  0  0  0  0
    5.6560   41.3939   21.8739 N   0  0  0  0  0  0  0  0  0  0  0  0
    5.4113   40.0633   21.8672 C   0  0  0  0  0  0  0  0  0  0  0  0
    4.3887   39.4297   22.4551 N   0  0  0  0  0  0  0  0  0  0  0  0
    4.5179   38.1310   22.2038 N   0  0  0  0  0  0  0  0  0  0  0  0
    5.6330   37.9426   21.4506 C   0  0  0  0  0  0  0  0  0  0  0  0
    6.2171   39.1747   21.2300 C   0  0  0  0  0  0  0  0  0  0  0  0
   10.0600   40.2553   19.4083 O   0  0  0  0  0  0  0  0  0  0  0  0
   11.1040   40.2635   18.6172 C   0  0  0  0  0  0  0  0  0  0  0  0
   12.0962   41.3751   18.5249 C   0  0  0  0  0  0  0  0  0  0  0  0
  1  2  1  0
  2  3  1  0
  3  4  2  0
  4  5  1  0
  5  6  1  0
  6  7  2  0
  7  8  1  0
  8  9  2  0
  9 10  1  0
 10 11  1  0
 11 12  1  0
 12 13  2  0
 13 14  1  0
  4 15  1  0
 15 16  1  0
 16 17  1  0
 16  2  2  0
 14  6  1  0
 14 10  2  0
M  END
>  <catalogId>  (17) 
Z5024348708

>  <originalId>  (17) 
ACVR1A_x1344_elabsAcceptor17

>  <Price>  (17) 
1107.6

>  <original SMILES>  (17) 
Cc1nc(Nc2ncnc3[nH]ncc23)oc1C

>  <ref_mols>  (17) 
x1344_0B

>  <ref_pdb>  (17) 
x1344

$$$$
Z5024348701
     RDKit          3D

 17 19  0  0  0  0  0  0  0  0999 V2000
   10.2125   40.8636   21.0890 C   0  0  0  0  0  0  0  0  0  0  0  0
   10.4737   40.2162   19.7576 C   0  0  0  0  0  0  0  0  0  0  0  0
   11.6204   40.5730   19.0329 C   0  0  0  0  0  0  0  0  0  0  0  0
   11.8812   39.9854   17.7977 C   0  0  0  0  0  0  0  0  0  0  0  0
   10.9910   39.0407   17.2913 C   0  0  0  0  0  0  0  0  0  0  0  0
    9.8816   38.7002   18.0002 N   0  0  0  0  0  0  0  0  0  0  0  0
    9.5910   39.2529   19.2135 C   0  0  0  0  0  0  0  0  0  0  0  0
    8.3994   38.8614   19.9323 N   0  0  0  0  0  0  0  0  0  0  0  0
    7.4651   39.7597   20.5555 C   0  0  0  0  0  0  0  0  0  0  0  0
    7.5606   41.1145   20.4006 N   0  0  0  0  0  0  0  0  0  0  0  0
    6.6704   41.9732   20.9939 C   0  0  0  0  0  0  0  0  0  0  0  0
    5.6529   41.4940   21.7703 N   0  0  0  0  0  0  0  0  0  0  0  0
    5.5534   40.1542   21.9292 C   0  0  0  0  0  0  0  0  0  0  0  0
    4.6368   39.4938   22.6479 N   0  0  0  0  0  0  0  0  0  0  0  0
    4.8928   38.1944   22.5369 N   0  0  0  0  0  0  0  0  0  0  0  0
    5.9818   38.0328   21.7412 C   0  0  0  0  0  0  0  0  0  0  0  0
    6.4169   39.2839   21.3469 C   0  0  0  0  0  0  0  0  0  0  0  0
  1  2  1  0
  2  3  2  0
  3  4  1  0
  4  5  2  0
  5  6  1  0
  6  7  2  0
  7  8  1  0
  8  9  1  0
  9 10  2  0
 10 11  1  0
 11 12  2  0
 12 13  1  0
 13 14  1  0
 14 15  1  0
 15 16  2  0
 16 17  1  0
  7  2  1  0
 17  9  1  0
 17 13  2  0
M  END
>  <catalogId>  (18) 
Z5024348701

>  <originalId>  (18) 
ACVR1A_x1344_elabsAcceptor10

>  <Price>  (18) 
1292.2

>  <original SMILES>  (18) 
Cc1cccnc1Nc1ncnc2[nH]ncc12

>  <ref_mols>  (18) 
x1344_0B

>  <ref_pdb>  (18) 
x1344

$$$$
Z5024348712
     RDKit          3D

 17 19  0  0  0  0  0  0  0  0999 V2000
   11.1134   39.5515   17.8125 C   0  0  0  0  0  0  0  0  0  0  0  0
   10.7732   41.0034   18.0986 C   0  0  0  0  0  0  0  0  0  0  0  0
   10.4933   41.2039   19.5253 N   0  0  0  0  0  0  0  0  0  0  0  0
   11.2806   41.8787   20.3912 C   0  0  0  0  0  0  0  0  0  0  0  0
   10.8486   41.7944   21.6685 N   0  0  0  0  0  0  0  0  0  0  0  0
    9.7342   41.0382   21.6021 C   0  0  0  0  0  0  0  0  0  0  0  0
    9.5023   40.6958   20.2889 C   0  0  0  0  0  0  0  0  0  0  0  0
    8.4582   39.8128   19.8468 N   0  0  0  0  0  0  0  0  0  0  0  0
    7.2258   39.6075   20.5550 C   0  0  0  0  0  0  0  0  0  0  0  0
    6.8937   40.3792   21.6356 N   0  0  0  0  0  0  0  0  0  0  0  0
    5.7060   40.2155   22.3009 C   0  0  0  0  0  0  0  0  0  0  0  0
    4.8246   39.2436   21.9196 N   0  0  0  0  0  0  0  0  0  0  0  0
    5.1604   38.4604   20.8685 C   0  0  0  0  0  0  0  0  0  0  0  0
    4.4467   37.4506   20.3557 N   0  0  0  0  0  0  0  0  0  0  0  0
    5.1306   36.9491   19.3321 N   0  0  0  0  0  0  0  0  0  0  0  0
    6.2874   37.6490   19.1971 C   0  0  0  0  0  0  0  0  0  0  0  0
    6.3206   38.6163   20.1811 C   0  0  0  0  0  0  0  0  0  0  0  0
  1  2  1  0
  2  3  1  0
  3  4  1  0
  4  5  2  0
  5  6  1  0
  6  7  2  0
  7  8  1  0
  8  9  1  0
  9 10  2  0
 10 11  1  0
 11 12  2  0
 12 13  1  0
 13 14  1  0
 14 15  1  0
 15 16  2  0
 16 17  1  0
  7  3  1  0
 17  9  1  0
 17 13  2  0
M  END
>  <catalogId>  (19) 
Z5024348712

>  <originalId>  (19) 
ACVR1A_x1344_elabsAcceptor13

>  <Price>  (19) 
2122.9

>  <original SMILES>  (19) 
CCn1cncc1Nc1ncnc2[nH]ncc12

>  <ref_mols>  (19) 
x1344_0B

>  <ref_pdb>  (19) 
x1344

$$$$
Z1198154018
     RDKit          3D

 14 15  0  0  0  0  0  0  0  0999 V2000
    8.5948   39.4013   21.0965 N   0  0  0  0  0  0  0  0  0  0  0  0
   12.9904   42.5968   19.3198 C   0  0  0  0  0  0  0  0  0  0  0  0
   11.7341   41.8772   19.6664 C   0  0  0  0  0  0  0  0  0  0  0  0
   10.0262   40.1259   19.2412 C   0  0  0  0  0  0  0  0  0  0  0  0
   11.1207   40.9281   18.8044 C   0  0  0  0  0  0  0  0  0  0  0  0
   11.2157   42.0550   20.9075 C   0  0  0  0  0  0  0  0  0  0  0  0
   10.1586   41.2817   21.3426 C   0  0  0  0  0  0  0  0  0  0  0  0
    9.5432   40.2855   20.5689 C   0  0  0  0  0  0  0  0  0  0  0  0
    7.2591   39.7238   21.6186 C   0  0  0  0  0  0  0  0  0  0  0  0
    6.6505   40.9437   21.3435 C   0  0  0  0  0  0  0  0  0  0  0  0
    5.4310   41.2208   21.8291 N   0  0  0  0  0  0  0  0  0  0  0  0
    4.7643   40.3390   22.5886 C   0  0  0  0  0  0  0  0  0  0  0  0
    5.3206   39.1022   22.8976 C   0  0  0  0  0  0  0  0  0  0  0  0
    6.5842   38.7957   22.4042 C   0  0  0  0  0  0  0  0  0  0  0  0
  1  8  1  0
  2  3  1  0
  3  5  2  0
  3  6  1  0
  4  5  1  0
  4  8  2  0
  6  7  2  0
  7  8  1  0
  9 10  2  0
 10 11  1  0
 11 12  2  0
 12 13  1  0
 13 14  2  0
 14  9  1  0
  1  9  1  0
M  END
>  <catalogId>  (20) 
Z1198154018

>  <originalId>  (20) 
DLS-ACVR1A-DF025

>  <Price>  (20) 
369.2

>  <original SMILES>  (20) 
Cc1ccc(Nc2cccnc2)cc1

>  <ref_mols>  (20) 
x1344_0B

>  <ref_pdb>  (20) 
x1344

$$$$
Z5024348718
     RDKit          3D

 16 17  0  0  0  0  0  0  0  0999 V2000
    8.6679   39.8659   20.1120 N   0  0  0  0  0  0  0  0  0  0  0  0
   13.3873   43.0888   19.9382 C   0  0  0  0  0  0  0  0  0  0  0  0
   12.0698   42.3973   19.8890 C   0  0  0  0  0  0  0  0  0  0  0  0
   10.3935   40.9594   18.7545 C   0  0  0  0  0  0  0  0  0  0  0  0
   11.5680   41.7665   18.7183 C   0  0  0  0  0  0  0  0  0  0  0  0
   11.3704   42.2689   21.0444 C   0  0  0  0  0  0  0  0  0  0  0  0
   10.2340   41.4872   21.0923 C   0  0  0  0  0  0  0  0  0  0  0  0
    9.7150   40.7873   19.9921 C   0  0  0  0  0  0  0  0  0  0  0  0
    7.4301   40.0096   20.8916 C   0  0  0  0  0  0  0  0  0  0  0  0
    6.7980   41.2412   21.0239 C   0  0  0  0  0  0  0  0  0  0  0  0
    5.6690   41.3534   21.7400 N   0  0  0  0  0  0  0  0  0  0  0  0
    5.1176   40.2916   22.3460 C   0  0  0  0  0  0  0  0  0  0  0  0
    5.7030   39.0338   22.2498 C   0  0  0  0  0  0  0  0  0  0  0  0
    6.8740   38.8962   21.5124 C   0  0  0  0  0  0  0  0  0  0  0  0
    3.9802   37.3634   22.1645 O   0  0  0  0  0  0  0  0  0  0  0  0
    5.0752   37.8323   22.9373 C   0  0  0  0  0  0  0  0  0  0  0  0
  1  8  1  0
  2  3  1  0
  3  5  2  0
  3  6  1  0
  4  5  1  0
  4  8  2  0
  6  7  2  0
  7  8  1  0
  9 10  2  0
 10 11  1  0
 11 12  2  0
 12 13  1  0
 13 14  2  0
 14  9  1  0
  1  9  1  0
 15 16  1  0
 13 16  1  0
M  END
>  <catalogId>  (21) 
Z5024348718

>  <originalId>  (21) 
DLS-ACVR1A-DF024

>  <Price>  (21) 
646.1

>  <original SMILES>  (21) 
Cc1ccc(Nc2cncc(CO)c2)cc1

>  <ref_mols>  (21) 
x1344_0B

>  <ref_pdb>  (21) 
x1344

$$$$
Z5024348721
     RDKit          3D

 16 17  0  0  0  0  0  0  0  0999 V2000
    8.8864   40.2463   19.7621 N   0  0  0  0  0  0  0  0  0  0  0  0
   13.7381   43.2647   19.9603 C   0  0  0  0  0  0  0  0  0  0  0  0
   12.3963   42.6352   19.8195 C   0  0  0  0  0  0  0  0  0  0  0  0
   10.7107   41.3379   18.5388 C   0  0  0  0  0  0  0  0  0  0  0  0
   11.9180   42.0938   18.5955 C   0  0  0  0  0  0  0  0  0  0  0  0
   11.6447   42.4727   20.9373 C   0  0  0  0  0  0  0  0  0  0  0  0
   10.4760   41.7398   20.8951 C   0  0  0  0  0  0  0  0  0  0  0  0
    9.9747   41.1263   19.7369 C   0  0  0  0  0  0  0  0  0  0  0  0
    7.7131   40.2940   20.6462 C   0  0  0  0  0  0  0  0  0  0  0  0
    6.9256   41.4363   20.7413 C   0  0  0  0  0  0  0  0  0  0  0  0
    5.8586   41.4618   21.5541 N   0  0  0  0  0  0  0  0  0  0  0  0
    5.5189   40.3966   22.2948 C   0  0  0  0  0  0  0  0  0  0  0  0
    6.2671   39.2253   22.2422 C   0  0  0  0  0  0  0  0  0  0  0  0
    7.3774   39.1787   21.4061 C   0  0  0  0  0  0  0  0  0  0  0  0
    5.8792   38.0197   23.0825 C   0  0  0  0  0  0  0  0  0  0  0  0
    5.5881   37.1153   23.7127 N   0  0  0  0  0  0  0  0  0  0  0  0
  1  8  1  0
  2  3  1  0
  3  5  2  0
  3  6  1  0
  4  5  1  0
  4  8  2  0
  6  7  2  0
  7  8  1  0
  9 10  2  0
 10 11  1  0
 11 12  2  0
 12 13  1  0
 13 14  2  0
 14  9  1  0
  1  9  1  0
 15 16  3  0
 13 15  1  0
M  END
>  <catalogId>  (22) 
Z5024348721

>  <originalId>  (22) 
DLS-ACVR1A-DF021

>  <Price>  (22) 
369.2

>  <original SMILES>  (22) 
Cc1ccc(Nc2cncc(C#N)c2)cc1

>  <ref_mols>  (22) 
x1344_0B

>  <ref_pdb>  (22) 
x1344

$$$$
Z5024348720
     RDKit          3D

 17 18  0  0  0  0  0  0  0  0999 V2000
    9.0319   40.2392   19.8999 N   0  0  0  0  0  0  0  0  0  0  0  0
   13.6656   43.5886   19.9120 C   0  0  0  0  0  0  0  0  0  0  0  0
   12.3657   42.8679   19.8253 C   0  0  0  0  0  0  0  0  0  0  0  0
   10.7160   41.4680   18.6076 C   0  0  0  0  0  0  0  0  0  0  0  0
   11.8691   42.3062   18.6179 C   0  0  0  0  0  0  0  0  0  0  0  0
   11.6808   42.6421   20.9746 C   0  0  0  0  0  0  0  0  0  0  0  0
   10.5654   41.8295   20.9772 C   0  0  0  0  0  0  0  0  0  0  0  0
   10.0539   41.1937   19.8357 C   0  0  0  0  0  0  0  0  0  0  0  0
    7.8097   40.2855   20.7150 C   0  0  0  0  0  0  0  0  0  0  0  0
    7.0062   41.4200   20.7494 C   0  0  0  0  0  0  0  0  0  0  0  0
    5.8944   41.4444   21.4997 N   0  0  0  0  0  0  0  0  0  0  0  0
    5.5242   40.3854   22.2347 C   0  0  0  0  0  0  0  0  0  0  0  0
    6.2863   39.2220   22.2409 C   0  0  0  0  0  0  0  0  0  0  0  0
    7.4429   39.1767   21.4700 C   0  0  0  0  0  0  0  0  0  0  0  0
    5.8637   38.0234   23.0746 C   0  0  0  0  0  0  0  0  0  0  0  0
    5.5467   37.1242   23.6997 N   0  0  0  0  0  0  0  0  0  0  0  0
    9.2009   39.0505   19.0517 C   0  0  0  0  0  0  0  0  0  0  0  0
  1  8  1  0
  2  3  1  0
  3  5  2  0
  3  6  1  0
  4  5  1  0
  4  8  2  0
  6  7  2  0
  7  8  1  0
 13 15  1  0
  9 10  2  0
 10 11  1  0
 11 12  2  0
 12 13  1  0
 13 14  2  0
 14  9  1  0
  1  9  1  0
 15 16  3  0
  1 17  1  0
M  END
>  <catalogId>  (23) 
Z5024348720

>  <originalId>  (23) 
DLS-ACVR1A-DF023

>  <Price>  (23) 
553.8

>  <original SMILES>  (23) 
Cc1ccc(N(C)c2cncc(C#N)c2)cc1

>  <ref_mols>  (23) 
x1344_0B

>  <ref_pdb>  (23) 
x1344

$$$$
Z5024348723
     RDKit          3D

 20 22  0  0  0  0  0  0  0  0999 V2000
    9.0792   40.3320   19.9782 N   0  0  0  0  0  0  0  0  0  0  0  0
   13.6082   43.8213   19.9259 C   0  0  0  0  0  0  0  0  0  0  0  0
   12.3246   43.0684   19.8801 C   0  0  0  0  0  0  0  0  0  0  0  0
   10.6083   41.7393   18.6752 C   0  0  0  0  0  0  0  0  0  0  0  0
   11.7358   42.6116   18.6700 C   0  0  0  0  0  0  0  0  0  0  0  0
   11.7519   42.7071   21.0559 C   0  0  0  0  0  0  0  0  0  0  0  0
   10.6623   41.8603   21.0733 C   0  0  0  0  0  0  0  0  0  0  0  0
   10.0666   41.3227   19.9222 C   0  0  0  0  0  0  0  0  0  0  0  0
    7.8375   40.3450   20.7646 C   0  0  0  0  0  0  0  0  0  0  0  0
    6.9987   41.4542   20.7730 C   0  0  0  0  0  0  0  0  0  0  0  0
    5.8695   41.4482   21.4973 N   0  0  0  0  0  0  0  0  0  0  0  0
    5.5152   40.3825   22.2304 C   0  0  0  0  0  0  0  0  0  0  0  0
    6.3126   39.2435   22.2617 C   0  0  0  0  0  0  0  0  0  0  0  0
    7.4877   39.2297   21.5180 C   0  0  0  0  0  0  0  0  0  0  0  0
    5.9080   38.0371   23.0931 C   0  0  0  0  0  0  0  0  0  0  0  0
    5.6045   37.1321   23.7165 N   0  0  0  0  0  0  0  0  0  0  0  0
   11.4463   38.5973   17.9880 C   0  0  0  0  0  0  0  0  0  0  0  0
   10.7524   38.6825   19.3150 C   0  0  0  0  0  0  0  0  0  0  0  0
   10.8784   37.3578   18.6177 C   0  0  0  0  0  0  0  0  0  0  0  0
    9.3116   39.1379   19.1529 C   0  0  0  0  0  0  0  0  0  0  0  0
  1  8  1  0
  2  3  1  0
  3  5  2  0
  3  6  1  0
  4  5  1  0
  4  8  2  0
  6  7  2  0
  7  8  1  0
 13 15  1  0
  9 10  2  0
 10 11  1  0
 11 12  2  0
 12 13  1  0
 13 14  2  0
 14  9  1  0
  1  9  1  0
 15 16  3  0
 17 18  1  0
 18 19  1  0
 18 20  1  0
  1 20  1  0
 17 19  1  0
M  END
>  <catalogId>  (24) 
Z5024348723

>  <originalId>  (24) 
DLS-ACVR1A-DF013

>  <Price>  (24) 
553.8

>  <original SMILES>  (24) 
Cc1ccc(N(CC2CC2)c2cncc(C#N)c2)cc1

>  <ref_mols>  (24) 
x1344_0B

>  <ref_pdb>  (24) 
x1344

$$$$
Z5024348725
     RDKit          3D

 18 19  0  0  0  0  0  0  0  0999 V2000
    9.0389   40.2476   19.8780 N   0  0  0  0  0  0  0  0  0  0  0  0
   13.6778   43.5896   19.8956 C   0  0  0  0  0  0  0  0  0  0  0  0
   12.3760   42.8723   19.8108 C   0  0  0  0  0  0  0  0  0  0  0  0
   10.7118   41.4940   18.5881 C   0  0  0  0  0  0  0  0  0  0  0  0
   11.8662   42.3303   18.5999 C   0  0  0  0  0  0  0  0  0  0  0  0
   11.7024   42.6295   20.9634 C   0  0  0  0  0  0  0  0  0  0  0  0
   10.5856   41.8186   20.9645 C   0  0  0  0  0  0  0  0  0  0  0  0
   10.0616   41.2015   19.8184 C   0  0  0  0  0  0  0  0  0  0  0  0
    7.8169   40.2908   20.6938 C   0  0  0  0  0  0  0  0  0  0  0  0
    7.0078   41.4215   20.7244 C   0  0  0  0  0  0  0  0  0  0  0  0
    5.8963   41.4432   21.4753 N   0  0  0  0  0  0  0  0  0  0  0  0
    5.5318   40.3850   22.2145 C   0  0  0  0  0  0  0  0  0  0  0  0
    6.2996   39.2254   22.2245 C   0  0  0  0  0  0  0  0  0  0  0  0
    7.4560   39.1830   21.4530 C   0  0  0  0  0  0  0  0  0  0  0  0
    5.8835   38.0278   23.0628 C   0  0  0  0  0  0  0  0  0  0  0  0
    5.5713   37.1294   23.6913 N   0  0  0  0  0  0  0  0  0  0  0  0
   10.3661   38.2265   19.5397 C   0  0  0  0  0  0  0  0  0  0  0  0
    9.2066   39.0630   19.0239 C   0  0  0  0  0  0  0  0  0  0  0  0
  1  8  1  0
  2  3  1  0
  3  5  2  0
  3  6  1  0
  4  5  1  0
  4  8  2  0
  6  7  2  0
  7  8  1  0
 13 15  1  0
  9 10  2  0
 10 11  1  0
 11 12  2  0
 12 13  1  0
 13 14  2  0
 14  9  1  0
  1  9  1  0
 15 16  3  0
 17 18  1  0
  1 18  1  0
M  END
>  <catalogId>  (25) 
Z5024348725

>  <originalId>  (25) 
DLS-ACVR1A-DF018

>  <Price>  (25) 
553.8

>  <original SMILES>  (25) 
CCN(c1ccc(C)cc1)c1cncc(C#N)c1

>  <ref_mols>  (25) 
x1344_0B

>  <ref_pdb>  (25) 
x1344

$$$$
Z5024348734
     RDKit          3D

 20 21  0  0  0  0  0  0  0  0999 V2000
    9.0824   40.3302   19.9002 N   0  0  0  0  0  0  0  0  0  0  0  0
   13.6684   43.7446   19.9072 C   0  0  0  0  0  0  0  0  0  0  0  0
   12.3720   43.0146   19.8517 C   0  0  0  0  0  0  0  0  0  0  0  0
   10.6226   41.7504   18.6247 C   0  0  0  0  0  0  0  0  0  0  0  0
   11.7645   42.6038   18.6343 C   0  0  0  0  0  0  0  0  0  0  0  0
   11.8043   42.6278   21.0218 C   0  0  0  0  0  0  0  0  0  0  0  0
   10.7009   41.7989   21.0247 C   0  0  0  0  0  0  0  0  0  0  0  0
   10.0856   41.3058   19.8640 C   0  0  0  0  0  0  0  0  0  0  0  0
    7.8463   40.3421   20.6955 C   0  0  0  0  0  0  0  0  0  0  0  0
    6.9995   41.4452   20.6989 C   0  0  0  0  0  0  0  0  0  0  0  0
    5.8756   41.4384   21.4314 N   0  0  0  0  0  0  0  0  0  0  0  0
    5.5345   40.3776   22.1778 C   0  0  0  0  0  0  0  0  0  0  0  0
    6.3405   39.2448   22.2148 C   0  0  0  0  0  0  0  0  0  0  0  0
    7.5102   39.2320   21.4627 C   0  0  0  0  0  0  0  0  0  0  0  0
    5.9508   38.0440   23.0613 C   0  0  0  0  0  0  0  0  0  0  0  0
    5.6585   37.1432   23.6960 N   0  0  0  0  0  0  0  0  0  0  0  0
   11.3203   38.6831   17.6945 C   0  0  0  0  0  0  0  0  0  0  0  0
   10.7486   38.7340   19.1020 C   0  0  0  0  0  0  0  0  0  0  0  0
   10.8528   37.3588   19.7412 C   0  0  0  0  0  0  0  0  0  0  0  0
    9.2894   39.1553   19.0413 C   0  0  0  0  0  0  0  0  0  0  0  0
  1  8  1  0
  2  3  1  0
  3  5  2  0
  3  6  1  0
  4  5  1  0
  4  8  2  0
  6  7  2  0
  7  8  1  0
 13 15  1  0
  9 10  2  0
 10 11  1  0
 11 12  2  0
 12 13  1  0
 13 14  2  0
 14  9  1  0
  1  9  1  0
 15 16  3  0
 17 18  1  0
 18 19  1  0
 18 20  1  0
  1 20  1  0
M  END
>  <catalogId>  (26) 
Z5024348734

>  <originalId>  (26) 
DLS-ACVR1A-DF009

>  <Price>  (26) 
553.8

>  <original SMILES>  (26) 
Cc1ccc(N(CC(C)C)c2cncc(C#N)c2)cc1

>  <ref_mols>  (26) 
x1344_0B

>  <ref_pdb>  (26) 
x1344

$$$$
Z5024348724
     RDKit          3D

 21 23  0  0  0  0  0  0  0  0999 V2000
    9.1643   40.2561   19.9282 N   0  0  0  0  0  0  0  0  0  0  0  0
    7.9129   40.3029   20.6977 C   0  0  0  0  0  0  0  0  0  0  0  0
    7.0965   41.4287   20.6823 C   0  0  0  0  0  0  0  0  0  0  0  0
    5.9579   41.4536   21.3913 N   0  0  0  0  0  0  0  0  0  0  0  0
    5.5726   40.4036   22.1315 C   0  0  0  0  0  0  0  0  0  0  0  0
    6.3464   39.2494   22.1864 C   0  0  0  0  0  0  0  0  0  0  0  0
    7.5308   39.2036   21.4587 C   0  0  0  0  0  0  0  0  0  0  0  0
    5.9066   38.0610   23.0257 C   0  0  0  0  0  0  0  0  0  0  0  0
    5.5767   37.1695   23.6550 N   0  0  0  0  0  0  0  0  0  0  0  0
   11.4709   38.6511   17.8183 C   0  0  0  0  0  0  0  0  0  0  0  0
   10.8560   38.6598   19.1863 C   0  0  0  0  0  0  0  0  0  0  0  0
   11.0049   37.3652   18.4387 C   0  0  0  0  0  0  0  0  0  0  0  0
    9.3871   39.0448   19.1257 C   0  0  0  0  0  0  0  0  0  0  0  0
   13.2977   44.2568   19.6989 C   0  0  0  0  0  0  0  0  0  0  0  0
   12.2051   43.2012   19.7484 C   0  0  0  0  0  0  0  0  0  0  0  0
   11.8053   42.7092   20.9864 C   0  0  0  0  0  0  0  0  0  0  0  0
   10.8069   41.7424   21.0384 C   0  0  0  0  0  0  0  0  0  0  0  0
   10.4077   41.2571   22.2106 F   0  0  0  0  0  0  0  0  0  0  0  0
   10.2195   41.2777   19.8664 C   0  0  0  0  0  0  0  0  0  0  0  0
   10.6273   41.7771   18.6334 C   0  0  0  0  0  0  0  0  0  0  0  0
   11.6254   42.7440   18.5692 C   0  0  0  0  0  0  0  0  0  0  0  0
  6  8  1  0
  2  3  2  0
  3  4  1  0
  4  5  2  0
  5  6  1  0
  6  7  2  0
  7  2  1  0
  1  2  1  0
  8  9  3  0
 10 11  1  0
 11 12  1  0
 11 13  1  0
  1 13  1  0
 10 12  1  0
 14 15  1  0
 15 16  2  0
 16 17  1  0
 17 18  1  0
 17 19  2  0
 19 20  1  0
 20 21  2  0
 21 15  1  0
  1 19  1  0
M  END
>  <catalogId>  (27) 
Z5024348724

>  <originalId>  (27) 
DLS-ACVR1A-DF010

>  <Price>  (27) 
738.4

>  <original SMILES>  (27) 
Cc1ccc(N(CC2CC2)c2cncc(C#N)c2)c(F)c1

>  <ref_mols>  (27) 
x1344_0B

>  <ref_pdb>  (27) 
x1344

$$$$
Z5024348727
     RDKit          3D

 22 24  0  0  0  0  0  0  0  0999 V2000
    9.1090   40.1867   19.7783 N   0  0  0  0  0  0  0  0  0  0  0  0
   13.4056   43.7695   18.9916 O   0  0  0  0  0  0  0  0  0  0  0  0
   12.2126   43.0144   19.1433 C   0  0  0  0  0  0  0  0  0  0  0  0
   10.3870   41.5991   18.2330 C   0  0  0  0  0  0  0  0  0  0  0  0
   11.4721   42.5039   18.0426 C   0  0  0  0  0  0  0  0  0  0  0  0
   11.8269   42.6715   20.3982 C   0  0  0  0  0  0  0  0  0  0  0  0
   10.7803   41.7937   20.5942 C   0  0  0  0  0  0  0  0  0  0  0  0
   10.0443   41.2042   19.5549 C   0  0  0  0  0  0  0  0  0  0  0  0
   14.0322   44.3431   20.1292 C   0  0  0  0  0  0  0  0  0  0  0  0
   10.4018   41.4432   22.0240 C   0  0  0  0  0  0  0  0  0  0  0  0
    7.8815   40.2558   20.5835 C   0  0  0  0  0  0  0  0  0  0  0  0
    7.0831   41.3944   20.5883 C   0  0  0  0  0  0  0  0  0  0  0  0
    5.9661   41.4396   21.3300 N   0  0  0  0  0  0  0  0  0  0  0  0
    5.5860   40.3982   22.0847 C   0  0  0  0  0  0  0  0  0  0  0  0
    6.3428   39.2320   22.1214 C   0  0  0  0  0  0  0  0  0  0  0  0
    7.5044   39.1652   21.3596 C   0  0  0  0  0  0  0  0  0  0  0  0
    5.9090   38.0534   22.9773 C   0  0  0  0  0  0  0  0  0  0  0  0
    5.5837   37.1691   23.6193 N   0  0  0  0  0  0  0  0  0  0  0  0
   10.8726   38.5884   19.2325 C   0  0  0  0  0  0  0  0  0  0  0  0
    9.3877   38.8969   19.1303 C   0  0  0  0  0  0  0  0  0  0  0  0
   11.4611   38.6511   17.8505 C   0  0  0  0  0  0  0  0  0  0  0  0
   11.1372   37.3211   18.4697 C   0  0  0  0  0  0  0  0  0  0  0  0
  1  8  1  0
  7 10  1  0
  2  3  1  0
  3  5  2  0
  3  6  1  0
  4  5  1  0
  4  8  2  0
  6  7  2  0
  7  8  1  0
 15 17  1  0
  2  9  1  0
 11 12  2  0
 12 13  1  0
 13 14  2  0
 14 15  1  0
 15 16  2  0
 16 11  1  0
  1 11  1  0
 17 18  3  0
 19 20  1  0
  1 20  1  0
 19 21  1  0
 22 19  1  0
 22 21  1  0
M  END
>  <catalogId>  (28) 
Z5024348727

>  <originalId>  (28) 
DLS-ACVR1A-DF003

>  <Price>  (28) 
738.4

>  <original SMILES>  (28) 
COc1ccc(N(CC2CC2)c2cncc(C#N)c2)c(C)c1

>  <ref_mols>  (28) 
x1344_0B

>  <ref_pdb>  (28) 
x1344

$$$$
Z5024348731
     RDKit          3D

 21 22  0  0  0  0  0  0  0  0999 V2000
    9.1059   40.3119   19.8738 N   0  0  0  0  0  0  0  0  0  0  0  0
   13.6896   43.7279   19.7701 C   0  0  0  0  0  0  0  0  0  0  0  0
   12.3917   42.9987   19.7516 C   0  0  0  0  0  0  0  0  0  0  0  0
   10.5920   41.7629   18.5691 C   0  0  0  0  0  0  0  0  0  0  0  0
   11.7337   42.6165   18.5512 C   0  0  0  0  0  0  0  0  0  0  0  0
   11.8733   42.5838   20.9349 C   0  0  0  0  0  0  0  0  0  0  0  0
   10.7706   41.7544   20.9642 C   0  0  0  0  0  0  0  0  0  0  0  0
   10.1071   41.2887   19.8189 C   0  0  0  0  0  0  0  0  0  0  0  0
   10.3083   41.3729   22.1515 F   0  0  0  0  0  0  0  0  0  0  0  0
    7.8710   40.3354   20.6707 C   0  0  0  0  0  0  0  0  0  0  0  0
    7.0339   41.4459   20.6741 C   0  0  0  0  0  0  0  0  0  0  0  0
    5.9110   41.4496   21.4081 N   0  0  0  0  0  0  0  0  0  0  0  0
    5.5615   40.3925   22.1559 C   0  0  0  0  0  0  0  0  0  0  0  0
    6.3576   39.2528   22.1930 C   0  0  0  0  0  0  0  0  0  0  0  0
    7.5262   39.2290   21.4394 C   0  0  0  0  0  0  0  0  0  0  0  0
    5.9585   38.0562   23.0411 C   0  0  0  0  0  0  0  0  0  0  0  0
    5.6591   37.1586   23.6770 N   0  0  0  0  0  0  0  0  0  0  0  0
   11.3401   38.6557   17.6796 C   0  0  0  0  0  0  0  0  0  0  0  0
   10.7769   38.7135   19.0902 C   0  0  0  0  0  0  0  0  0  0  0  0
   10.8963   37.3444   19.7399 C   0  0  0  0  0  0  0  0  0  0  0  0
    9.3140   39.1225   19.0354 C   0  0  0  0  0  0  0  0  0  0  0  0
  1  8  1  0
  7  9  1  0
  2  3  1  0
  3  5  2  0
  3  6  1  0
  4  5  1  0
  4  8  2  0
  6  7  2  0
  7  8  1  0
 14 16  1  0
 10 11  2  0
 11 12  1  0
 12 13  2  0
 13 14  1  0
 14 15  2  0
 15 10  1  0
  1 10  1  0
 16 17  3  0
 18 19  1  0
 19 20  1  0
 19 21  1  0
  1 21  1  0
M  END
>  <catalogId>  (29) 
Z5024348731

>  <originalId>  (29) 
DLS-ACVR1A-DF007

>  <Price>  (29) 
738.4

>  <original SMILES>  (29) 
Cc1ccc(N(CC(C)C)c2cncc(C#N)c2)c(F)c1

>  <ref_mols>  (29) 
x1344_0B

>  <ref_pdb>  (29) 
x1344

$$$$
Z5024348735
     RDKit          3D

 22 23  0  0  0  0  0  0  0  0999 V2000
    9.0867   40.1834   19.7228 N   0  0  0  0  0  0  0  0  0  0  0  0
   13.4379   43.7123   18.9950 O   0  0  0  0  0  0  0  0  0  0  0  0
   12.2336   42.9724   19.1310 C   0  0  0  0  0  0  0  0  0  0  0  0
   10.4008   41.5828   18.1960 C   0  0  0  0  0  0  0  0  0  0  0  0
   11.4996   42.4739   18.0204 C   0  0  0  0  0  0  0  0  0  0  0  0
   11.8288   42.6316   20.3804 C   0  0  0  0  0  0  0  0  0  0  0  0
   10.7688   41.7669   20.5621 C   0  0  0  0  0  0  0  0  0  0  0  0
   10.0375   41.1894   19.5129 C   0  0  0  0  0  0  0  0  0  0  0  0
   14.0456   44.2956   20.1379 C   0  0  0  0  0  0  0  0  0  0  0  0
   10.3691   41.4181   21.9865 C   0  0  0  0  0  0  0  0  0  0  0  0
    7.8701   40.2547   20.5442 C   0  0  0  0  0  0  0  0  0  0  0  0
    7.0748   41.3954   20.5609 C   0  0  0  0  0  0  0  0  0  0  0  0
    5.9678   41.4425   21.3173 N   0  0  0  0  0  0  0  0  0  0  0  0
    5.5949   40.4012   22.0756 C   0  0  0  0  0  0  0  0  0  0  0  0
    6.3490   39.2329   22.1008 C   0  0  0  0  0  0  0  0  0  0  0  0
    7.5003   39.1641   21.3237 C   0  0  0  0  0  0  0  0  0  0  0  0
    5.9234   38.0543   22.9608 C   0  0  0  0  0  0  0  0  0  0  0  0
    5.6042   37.1701   23.6059 N   0  0  0  0  0  0  0  0  0  0  0  0
   10.8162   38.5735   19.1077 C   0  0  0  0  0  0  0  0  0  0  0  0
    9.3345   38.9051   19.0406 C   0  0  0  0  0  0  0  0  0  0  0  0
   11.3741   38.4585   17.6985 C   0  0  0  0  0  0  0  0  0  0  0  0
   11.0078   37.2543   19.8377 C   0  0  0  0  0  0  0  0  0  0  0  0
  1  8  1  0
  7 10  1  0
  2  3  1  0
  3  5  2  0
  3  6  1  0
  4  5  1  0
  4  8  2  0
  6  7  2  0
  7  8  1  0
 15 17  1  0
  2  9  1  0
 11 12  2  0
 12 13  1  0
 13 14  2  0
 14 15  1  0
 15 16  2  0
 16 11  1  0
  1 11  1  0
 17 18  3  0
 19 20  1  0
  1 20  1  0
 19 21  1  0
 22 19  1  0
M  END
>  <catalogId>  (30) 
Z5024348735

>  <originalId>  (30) 
DLS-ACVR1A-DF001

>  <Price>  (30) 
738.4

>  <original SMILES>  (30) 
COc1ccc(N(CC(C)C)c2cncc(C#N)c2)c(C)c1

>  <ref_mols>  (30) 
x1344_0B

>  <ref_pdb>  (30) 
x1344

$$$$
Z5024348736
     RDKit          3D

 22 24  0  0  0  0  0  0  0  0999 V2000
    9.1374   40.2094   19.8810 N   0  0  0  0  0  0  0  0  0  0  0  0
    7.8955   40.2721   20.6648 C   0  0  0  0  0  0  0  0  0  0  0  0
    7.0940   41.4087   20.6595 C   0  0  0  0  0  0  0  0  0  0  0  0
    5.9640   41.4480   21.3815 N   0  0  0  0  0  0  0  0  0  0  0  0
    5.5734   40.4027   22.1254 C   0  0  0  0  0  0  0  0  0  0  0  0
    6.3323   39.2383   22.1707 C   0  0  0  0  0  0  0  0  0  0  0  0
    7.5076   39.1774   21.4294 C   0  0  0  0  0  0  0  0  0  0  0  0
    5.8865   38.0551   23.0142 C   0  0  0  0  0  0  0  0  0  0  0  0
    5.5521   37.1675   23.6466 N   0  0  0  0  0  0  0  0  0  0  0  0
   11.4782   38.6487   17.8437 C   0  0  0  0  0  0  0  0  0  0  0  0
   10.8486   38.6050   19.2043 C   0  0  0  0  0  0  0  0  0  0  0  0
   11.0313   37.3363   18.4208 C   0  0  0  0  0  0  0  0  0  0  0  0
    9.3732   38.9629   19.1384 C   0  0  0  0  0  0  0  0  0  0  0  0
   13.1181   44.1995   19.3965 O   0  0  0  0  0  0  0  0  0  0  0  0
   12.1174   43.1981   19.5076 C   0  0  0  0  0  0  0  0  0  0  0  0
   11.7538   42.7529   20.7742 C   0  0  0  0  0  0  0  0  0  0  0  0
   10.7751   41.7715   20.8898 C   0  0  0  0  0  0  0  0  0  0  0  0
   10.4105   41.3301   22.0902 F   0  0  0  0  0  0  0  0  0  0  0  0
   10.1715   41.2461   19.7521 C   0  0  0  0  0  0  0  0  0  0  0  0
   10.5432   41.6991   18.4900 C   0  0  0  0  0  0  0  0  0  0  0  0
   11.5213   42.6801   18.3623 C   0  0  0  0  0  0  0  0  0  0  0  0
   13.8344   44.6183   20.5489 C   0  0  0  0  0  0  0  0  0  0  0  0
  6  8  1  0
  2  3  2  0
  3  4  1  0
  4  5  2  0
  5  6  1  0
  6  7  2  0
  7  2  1  0
  1  2  1  0
  8  9  3  0
 10 11  1  0
 11 12  1  0
 11 13  1  0
  1 13  1  0
 10 12  1  0
 14 15  1  0
 15 16  2  0
 16 17  1  0
 17 18  1  0
 17 19  2  0
 19 20  1  0
 20 21  2  0
 21 15  1  0
  1 19  1  0
 14 22  1  0
M  END
>  <catalogId>  (31) 
Z5024348736

>  <originalId>  (31) 
DLS-ACVR1A-DF012

>  <Price>  (31) 
738.4

>  <original SMILES>  (31) 
COc1ccc(N(CC2CC2)c2cncc(C#N)c2)c(F)c1

>  <ref_mols>  (31) 
x1344_0B

>  <ref_pdb>  (31) 
x1344

$$$$
Z5024348738
     RDKit          3D

 22 24  0  0  0  0  0  0  0  0999 V2000
    9.0691   40.3477   19.8958 N   0  0  0  0  0  0  0  0  0  0  0  0
   13.7075   43.6900   19.8347 C   0  0  0  0  0  0  0  0  0  0  0  0
   12.3977   42.9828   19.8100 C   0  0  0  0  0  0  0  0  0  0  0  0
   10.5673   41.8066   18.6139 C   0  0  0  0  0  0  0  0  0  0  0  0
   11.7227   42.6417   18.6067 C   0  0  0  0  0  0  0  0  0  0  0  0
   11.8830   42.5468   20.9874 C   0  0  0  0  0  0  0  0  0  0  0  0
   10.7671   41.7351   21.0063 C   0  0  0  0  0  0  0  0  0  0  0  0
   10.0858   41.3091   19.8559 C   0  0  0  0  0  0  0  0  0  0  0  0
   10.3092   41.3314   22.1879 F   0  0  0  0  0  0  0  0  0  0  0  0
    7.8477   40.3656   20.7134 C   0  0  0  0  0  0  0  0  0  0  0  0
    7.0147   41.4787   20.7444 C   0  0  0  0  0  0  0  0  0  0  0  0
    5.9042   41.4772   21.4970 N   0  0  0  0  0  0  0  0  0  0  0  0
    5.5635   40.4122   22.2376 C   0  0  0  0  0  0  0  0  0  0  0  0
    6.3561   39.2694   22.2475 C   0  0  0  0  0  0  0  0  0  0  0  0
    7.5119   39.2510   21.4743 C   0  0  0  0  0  0  0  0  0  0  0  0
    5.9670   38.0639   23.0876 C   0  0  0  0  0  0  0  0  0  0  0  0
    5.6751   37.1596   23.7174 N   0  0  0  0  0  0  0  0  0  0  0  0
   10.7147   38.8053   18.9607 C   0  0  0  0  0  0  0  0  0  0  0  0
    9.2434   39.1831   19.0160 C   0  0  0  0  0  0  0  0  0  0  0  0
   11.3060   38.7190   17.5603 C   0  0  0  0  0  0  0  0  0  0  0  0
   12.1149   37.5577   18.0713 C   0  0  0  0  0  0  0  0  0  0  0  0
   10.9951   37.3227   19.0565 C   0  0  0  0  0  0  0  0  0  0  0  0
  1  8  1  0
  7  9  1  0
  2  3  1  0
  3  5  2  0
  3  6  1  0
  4  5  1  0
  4  8  2  0
  6  7  2  0
  7  8  1  0
 14 16  1  0
 10 11  2  0
 11 12  1  0
 12 13  2  0
 13 14  1  0
 14 15  2  0
 15 10  1  0
  1 10  1  0
 16 17  3  0
 18 19  1  0
  1 19  1  0
 18 20  1  0
 20 21  1  0
 21 22  1  0
 22 18  1  0
M  END
>  <catalogId>  (32) 
Z5024348738

>  <originalId>  (32) 
DLS-ACVR1A-DF017

>  <Price>  (32) 
738.4

>  <original SMILES>  (32) 
Cc1ccc(N(CC2CCC2)c2cncc(C#N)c2)c(F)c1

>  <ref_mols>  (32) 
x1344_0B

>  <ref_pdb>  (32) 
x1344

$$$$
Z5024348740
     RDKit          3D

 22 23  0  0  0  0  0  0  0  0999 V2000
    9.0642   40.2387   19.8027 N   0  0  0  0  0  0  0  0  0  0  0  0
   13.4664   43.7499   19.3463 O   0  0  0  0  0  0  0  0  0  0  0  0
   12.2533   43.0141   19.4048 C   0  0  0  0  0  0  0  0  0  0  0  0
   10.4869   41.6185   18.3576 C   0  0  0  0  0  0  0  0  0  0  0  0
   11.5980   42.5053   18.2506 C   0  0  0  0  0  0  0  0  0  0  0  0
   11.7604   42.6878   20.6261 C   0  0  0  0  0  0  0  0  0  0  0  0
   10.6876   41.8275   20.7417 C   0  0  0  0  0  0  0  0  0  0  0  0
   10.0305   41.2402   19.6497 C   0  0  0  0  0  0  0  0  0  0  0  0
   13.9044   44.4877   20.4775 C   0  0  0  0  0  0  0  0  0  0  0  0
   10.2499   41.5366   21.9634 F   0  0  0  0  0  0  0  0  0  0  0  0
    7.8428   40.2861   20.6187 C   0  0  0  0  0  0  0  0  0  0  0  0
    7.0301   41.4144   20.6388 C   0  0  0  0  0  0  0  0  0  0  0  0
    5.9190   41.4398   21.3902 N   0  0  0  0  0  0  0  0  0  0  0  0
    5.5585   40.3880   22.1401 C   0  0  0  0  0  0  0  0  0  0  0  0
    6.3303   39.2313   22.1615 C   0  0  0  0  0  0  0  0  0  0  0  0
    7.4861   39.1850   21.3895 C   0  0  0  0  0  0  0  0  0  0  0  0
    5.9187   38.0408   23.0120 C   0  0  0  0  0  0  0  0  0  0  0  0
    5.6101   37.1477   23.6499 N   0  0  0  0  0  0  0  0  0  0  0  0
   10.7746   38.6341   19.1235 C   0  0  0  0  0  0  0  0  0  0  0  0
    9.2991   38.9927   19.0588 C   0  0  0  0  0  0  0  0  0  0  0  0
   11.3367   38.5451   17.7141 C   0  0  0  0  0  0  0  0  0  0  0  0
   10.9404   37.2938   19.8207 C   0  0  0  0  0  0  0  0  0  0  0  0
  1  8  1  0
  7 10  1  0
  2  3  1  0
  3  5  2  0
  3  6  1  0
  4  5  1  0
  4  8  2  0
  6  7  2  0
  7  8  1  0
 15 17  1  0
  2  9  1  0
 11 12  2  0
 12 13  1  0
 13 14  2  0
 14 15  1  0
 15 16  2  0
 16 11  1  0
  1 11  1  0
 17 18  3  0
 19 20  1  0
  1 20  1  0
 19 21  1  0
 22 19  1  0
M  END
>  <catalogId>  (33) 
Z5024348740

>  <originalId>  (33) 
DLS-ACVR1A-DF006

>  <Price>  (33) 
738.4

>  <original SMILES>  (33) 
COc1ccc(N(CC(C)C)c2cncc(C#N)c2)c(F)c1

>  <ref_mols>  (33) 
x1344_0B

>  <ref_pdb>  (33) 
x1344

$$$$
