ver_1.2
     RDKit          2D

 11 11  0  0  0  0  0  0  0  0999 V2000
    3.0000    0.0000    0.0000 C   0  0  0  0  0  0  0  0  0  0  0  0
    1.5000    0.0000    0.0000 C   0  0  0  0  0  0  0  0  0  0  0  0
    0.7500   -1.2990    0.0000 C   0  0  0  0  0  0  0  0  0  0  0  0
   -0.7500   -1.2990    0.0000 C   0  0  0  0  0  0  0  0  0  0  0  0
   -1.5000   -2.5981    0.0000 O   0  0  0  0  0  0  0  0  0  0  0  0
   -1.5000    0.0000    0.0000 C   0  0  0  0  0  0  0  0  0  0  0  0
   -0.7500    1.2990    0.0000 C   0  0  0  0  0  0  0  0  0  0  0  0
    0.7500    1.2990    0.0000 C   0  0  0  0  0  0  0  0  0  0  0  0
    0.4895    2.7762    0.0000 C   0  0  0  0  0  0  0  0  0  0  0  0
    2.1595    1.8121    0.0000 C   0  0  0  0  0  0  0  0  0  0  0  0
   -1.5000    2.5981    0.0000 C   0  0  0  0  0  0  0  0  0  0  0  0
  1  2  1  0
  2  3  2  0
  3  4  1  0
  4  5  2  0
  4  6  1  0
  6  7  2  0
  7  8  1  0
  8  9  1  0
  8 10  1  0
  7 11  1  0
  8  2  1  0
M  END
>  <ref_url>  (1) 
https://dlsltd-my.sharepoint.com/:u:/g/personal/daren_fearon_diamond_ac_uk/ERnj1DcE-TpHt7T8UZKdZ30BEe-S0hQkhxr2ZgABz_GB6g?e=bQtKc7

>  <submitter_name>  (1) 
Daren Fearon

>  <submitter_email>  (1) 
daren.fearon@diamond.ac.uk

>  <submitter_institution>  (1) 
Diamond Light Source

>  <generation_date>  (1) 
2021-03-11

>  <method>  (1) 
ACVR1A SeeSAR

>  <default_ref_mols>  (1) 
x1344_0B

>  <ESTIMATED_AFFINITY_LOWER [nM]>  (1) 
Lower limit of estimated affinity (nM) from BiosolveIT HYDE

>  <ESTIMATED_AFFINITY_UPPER [nM]>  (1) 
Upper limit of estimated affinity (nM) from BiosolveIT HYDE

>  <TPSA>  (1) 
Total Polar Surface Area (calculated with BiosolveIT Optibrium)

>  <logP>  (1) 
logP (calculated with BiosolveIT Optibrium)

$$$$
DLS-ACVR1A-DF001
     RDKit          3D

 22 23  0  0  0  0  0  0  0  0999 V2000
    9.0867   40.1834   19.7228 N   0  0  0  0  0  0  0  0  0  0  0  0
   13.4379   43.7123   18.9950 O   0  0  0  0  0  0  0  0  0  0  0  0
   12.2336   42.9724   19.1310 C   0  0  0  0  0  0  0  0  0  0  0  0
   10.4008   41.5828   18.1960 C   0  0  0  0  0  0  0  0  0  0  0  0
   11.4996   42.4739   18.0204 C   0  0  0  0  0  0  0  0  0  0  0  0
   11.8288   42.6316   20.3804 C   0  0  0  0  0  0  0  0  0  0  0  0
   10.7688   41.7669   20.5621 C   0  0  0  0  0  0  0  0  0  0  0  0
   10.0375   41.1894   19.5129 C   0  0  0  0  0  0  0  0  0  0  0  0
   14.0456   44.2956   20.1379 C   0  0  0  0  0  0  0  0  0  0  0  0
   10.3691   41.4181   21.9865 C   0  0  0  0  0  0  0  0  0  0  0  0
    7.8701   40.2547   20.5442 C   0  0  0  0  0  0  0  0  0  0  0  0
    7.0748   41.3954   20.5609 C   0  0  0  0  0  0  0  0  0  0  0  0
    5.9678   41.4425   21.3173 N   0  0  0  0  0  0  0  0  0  0  0  0
    5.5949   40.4012   22.0756 C   0  0  0  0  0  0  0  0  0  0  0  0
    6.3490   39.2329   22.1008 C   0  0  0  0  0  0  0  0  0  0  0  0
    7.5003   39.1641   21.3237 C   0  0  0  0  0  0  0  0  0  0  0  0
    5.9234   38.0543   22.9608 C   0  0  0  0  0  0  0  0  0  0  0  0
    5.6042   37.1701   23.6059 N   0  0  0  0  0  0  0  0  0  0  0  0
   10.8162   38.5735   19.1077 C   0  0  0  0  0  0  0  0  0  0  0  0
    9.3345   38.9051   19.0406 C   0  0  0  0  0  0  0  0  0  0  0  0
   11.3741   38.4585   17.6985 C   0  0  0  0  0  0  0  0  0  0  0  0
   11.0078   37.2543   19.8377 C   0  0  0  0  0  0  0  0  0  0  0  0
  1  8  1  0
  7 10  1  0
  2  3  1  0
  3  5  2  0
  3  6  1  0
  4  5  1  0
  4  8  2  0
  6  7  2  0
  7  8  1  0
 15 17  1  0
  2  9  1  0
 11 12  2  0
 12 13  1  0
 13 14  2  0
 14 15  1  0
 15 16  2  0
 16 11  1  0
  1 11  1  0
 17 18  3  0
 19 20  1  0
  1 20  1  0
 19 21  1  0
 22 19  1  0
M  END
>  <ESTIMATED_AFFINITY_LOWER [nM]>  (1) 
23.680996

>  <ESTIMATED_AFFINITY_UPPER [nM]>  (1) 
2352.847015

>  <TPSA>  (1) 
49.15

>  <logP>  (1) 
3.92569

>  <ID>  (1) 
DLS-ACVR1A-DF001

>  <original SMILES>  (1) 
COc1ccc(N(CC(C)C)c2cncc(C#N)c2)c(C)c1

>  <ref_mols>  (1) 
x1344_0B

>  <ref_pdb>  (1) 
x1344_0B

$$$$
DLS-ACVR1A-DF002
     RDKit          3D

 22 23  0  0  0  0  0  0  0  0999 V2000
    9.1020   40.1644   19.6804 N   0  0  0  0  0  0  0  0  0  0  0  0
   13.4306   43.6934   18.8290 O   0  0  0  0  0  0  0  0  0  0  0  0
   12.2307   42.9532   18.9985 C   0  0  0  0  0  0  0  0  0  0  0  0
   10.3749   41.5599   18.1157 C   0  0  0  0  0  0  0  0  0  0  0  0
   11.4683   42.4512   17.9090 C   0  0  0  0  0  0  0  0  0  0  0  0
   11.8590   42.6159   20.2591 C   0  0  0  0  0  0  0  0  0  0  0  0
   10.8045   41.7512   20.4709 C   0  0  0  0  0  0  0  0  0  0  0  0
   10.0465   41.1702   19.4428 C   0  0  0  0  0  0  0  0  0  0  0  0
   14.1014   44.2272   19.9608 C   0  0  0  0  0  0  0  0  0  0  0  0
   10.3804   41.3474   22.1518 Cl  0  0  0  0  0  0  0  0  0  0  0  0
    7.8911   40.2469   20.5091 C   0  0  0  0  0  0  0  0  0  0  0  0
    7.1062   41.3947   20.5300 C   0  0  0  0  0  0  0  0  0  0  0  0
    6.0042   41.4521   21.2931 N   0  0  0  0  0  0  0  0  0  0  0  0
    5.6266   40.4144   22.0542 C   0  0  0  0  0  0  0  0  0  0  0  0
    6.3704   39.2395   22.0754 C   0  0  0  0  0  0  0  0  0  0  0  0
    7.5163   39.1600   21.2914 C   0  0  0  0  0  0  0  0  0  0  0  0
    5.9394   38.0651   22.9386 C   0  0  0  0  0  0  0  0  0  0  0  0
    5.6163   37.1841   23.5861 N   0  0  0  0  0  0  0  0  0  0  0  0
   10.8331   38.5446   19.0962 C   0  0  0  0  0  0  0  0  0  0  0  0
    9.3510   38.8734   19.0229 C   0  0  0  0  0  0  0  0  0  0  0  0
   11.3921   38.4087   17.6894 C   0  0  0  0  0  0  0  0  0  0  0  0
   11.0256   37.2369   19.8465 C   0  0  0  0  0  0  0  0  0  0  0  0
  1  8  1  0
  7 10  1  0
  2  3  1  0
  3  5  2  0
  3  6  1  0
  4  5  1  0
  4  8  2  0
  6  7  2  0
  7  8  1  0
 15 17  1  0
  2  9  1  0
 11 12  2  0
 12 13  1  0
 13 14  2  0
 14 15  1  0
 15 16  2  0
 16 11  1  0
  1 11  1  0
 17 18  3  0
 19 20  1  0
  1 20  1  0
 19 21  1  0
 22 19  1  0
M  END
>  <ESTIMATED_AFFINITY_LOWER [nM]>  (2) 
29.520311

>  <ESTIMATED_AFFINITY_UPPER [nM]>  (2) 
2933.017417

>  <TPSA>  (2) 
49.15

>  <logP>  (2) 
4.19084

>  <ID>  (2) 
DLS-ACVR1A-DF002

>  <original SMILES>  (2) 
COc1ccc(N(CC(C)C)c2cncc(C#N)c2)c(Cl)c1

>  <ref_mols>  (2) 
x1344_0B

>  <ref_pdb>  (2) 
x1344_0B

$$$$
DLS-ACVR1A-DF003
     RDKit          3D

 22 24  0  0  0  0  0  0  0  0999 V2000
    9.1090   40.1867   19.7783 N   0  0  0  0  0  0  0  0  0  0  0  0
   13.4056   43.7695   18.9916 O   0  0  0  0  0  0  0  0  0  0  0  0
   12.2126   43.0144   19.1433 C   0  0  0  0  0  0  0  0  0  0  0  0
   10.3870   41.5991   18.2330 C   0  0  0  0  0  0  0  0  0  0  0  0
   11.4721   42.5039   18.0426 C   0  0  0  0  0  0  0  0  0  0  0  0
   11.8269   42.6715   20.3982 C   0  0  0  0  0  0  0  0  0  0  0  0
   10.7803   41.7937   20.5942 C   0  0  0  0  0  0  0  0  0  0  0  0
   10.0443   41.2042   19.5549 C   0  0  0  0  0  0  0  0  0  0  0  0
   14.0322   44.3431   20.1292 C   0  0  0  0  0  0  0  0  0  0  0  0
   10.4018   41.4432   22.0240 C   0  0  0  0  0  0  0  0  0  0  0  0
    7.8815   40.2558   20.5835 C   0  0  0  0  0  0  0  0  0  0  0  0
    7.0831   41.3944   20.5883 C   0  0  0  0  0  0  0  0  0  0  0  0
    5.9661   41.4396   21.3300 N   0  0  0  0  0  0  0  0  0  0  0  0
    5.5860   40.3982   22.0847 C   0  0  0  0  0  0  0  0  0  0  0  0
    6.3428   39.2320   22.1214 C   0  0  0  0  0  0  0  0  0  0  0  0
    7.5044   39.1652   21.3596 C   0  0  0  0  0  0  0  0  0  0  0  0
    5.9090   38.0534   22.9773 C   0  0  0  0  0  0  0  0  0  0  0  0
    5.5837   37.1691   23.6193 N   0  0  0  0  0  0  0  0  0  0  0  0
   10.8726   38.5884   19.2325 C   0  0  0  0  0  0  0  0  0  0  0  0
    9.3877   38.8969   19.1303 C   0  0  0  0  0  0  0  0  0  0  0  0
   11.4611   38.6511   17.8505 C   0  0  0  0  0  0  0  0  0  0  0  0
   11.1372   37.3211   18.4697 C   0  0  0  0  0  0  0  0  0  0  0  0
  1  8  1  0
  7 10  1  0
  2  3  1  0
  3  5  2  0
  3  6  1  0
  4  5  1  0
  4  8  2  0
  6  7  2  0
  7  8  1  0
 15 17  1  0
  2  9  1  0
 11 12  2  0
 12 13  1  0
 13 14  2  0
 14 15  1  0
 15 16  2  0
 16 11  1  0
  1 11  1  0
 17 18  3  0
 19 20  1  0
  1 20  1  0
 19 21  1  0
 22 19  1  0
 22 21  1  0
M  END
>  <ESTIMATED_AFFINITY_LOWER [nM]>  (3) 
43.751855

>  <ESTIMATED_AFFINITY_UPPER [nM]>  (3) 
4347.005474

>  <TPSA>  (3) 
49.15

>  <logP>  (3) 
3.95424

>  <ID>  (3) 
DLS-ACVR1A-DF003

>  <original SMILES>  (3) 
COc1ccc(N(CC2CC2)c2cncc(C#N)c2)c(C)c1

>  <ref_mols>  (3) 
x1344_0B

>  <ref_pdb>  (3) 
x1344_0B

$$$$
DLS-ACVR1A-DF004
     RDKit          3D

 21 22  0  0  0  0  0  0  0  0999 V2000
    9.0204   40.1105   19.6228 N   0  0  0  0  0  0  0  0  0  0  0  0
   13.4827   43.4730   18.7878 O   0  0  0  0  0  0  0  0  0  0  0  0
   12.2549   42.7798   18.9566 C   0  0  0  0  0  0  0  0  0  0  0  0
   10.3360   41.4782   18.0689 C   0  0  0  0  0  0  0  0  0  0  0  0
   11.4632   42.3273   17.8663 C   0  0  0  0  0  0  0  0  0  0  0  0
   11.8805   42.4374   20.2150 C   0  0  0  0  0  0  0  0  0  0  0  0
   10.7933   41.6133   20.4227 C   0  0  0  0  0  0  0  0  0  0  0  0
   10.0032   41.0806   19.3925 C   0  0  0  0  0  0  0  0  0  0  0  0
   14.1945   43.9428   19.9229 C   0  0  0  0  0  0  0  0  0  0  0  0
   10.3675   41.1997   22.1008 Cl  0  0  0  0  0  0  0  0  0  0  0  0
    7.8388   40.2172   20.4902 C   0  0  0  0  0  0  0  0  0  0  0  0
    7.0865   41.3855   20.5468 C   0  0  0  0  0  0  0  0  0  0  0  0
    6.0111   41.4648   21.3450 N   0  0  0  0  0  0  0  0  0  0  0  0
    5.6295   40.4299   22.1079 C   0  0  0  0  0  0  0  0  0  0  0  0
    6.3412   39.2352   22.0944 C   0  0  0  0  0  0  0  0  0  0  0  0
    7.4592   39.1328   21.2738 C   0  0  0  0  0  0  0  0  0  0  0  0
    5.9057   38.0641   22.9598 C   0  0  0  0  0  0  0  0  0  0  0  0
    5.5792   37.1855   23.6088 N   0  0  0  0  0  0  0  0  0  0  0  0
   10.6705   38.5048   18.8101 C   0  0  0  0  0  0  0  0  0  0  0  0
    9.1903   38.8347   18.9126 C   0  0  0  0  0  0  0  0  0  0  0  0
   11.0021   37.3638   19.7581 C   0  0  0  0  0  0  0  0  0  0  0  0
  1  8  1  0
  7 10  1  0
  2  3  1  0
  3  5  2  0
  3  6  1  0
  4  5  1  0
  4  8  2  0
  6  7  2  0
  7  8  1  0
 15 17  1  0
  2  9  1  0
 11 12  2  0
 12 13  1  0
 13 14  2  0
 14 15  1  0
 15 16  2  0
 16 11  1  0
  1 11  1  0
 17 18  3  0
 19 20  1  0
  1 20  1  0
 21 19  1  0
M  END
>  <ESTIMATED_AFFINITY_LOWER [nM]>  (4) 
45.996416

>  <ESTIMATED_AFFINITY_UPPER [nM]>  (4) 
4570.015848

>  <TPSA>  (4) 
49.15

>  <logP>  (4) 
4.07052

>  <ID>  (4) 
DLS-ACVR1A-DF004

>  <original SMILES>  (4) 
CCCN(c1cncc(C#N)c1)c1ccc(OC)cc1Cl

>  <ref_mols>  (4) 
x1344_0B

>  <ref_pdb>  (4) 
x1344_0B

$$$$
DLS-ACVR1A-DF005
     RDKit          3D

 22 23  0  0  0  0  0  0  0  0999 V2000
    9.0992   40.2410   19.8177 N   0  0  0  0  0  0  0  0  0  0  0  0
   13.6319   43.7038   19.4255 C   0  0  0  0  0  0  0  0  0  0  0  0
   12.3437   42.9594   19.4797 C   0  0  0  0  0  0  0  0  0  0  0  0
   10.5211   41.6577   18.4081 C   0  0  0  0  0  0  0  0  0  0  0  0
   11.6502   42.5233   18.3181 C   0  0  0  0  0  0  0  0  0  0  0  0
   11.8712   42.5846   20.6951 C   0  0  0  0  0  0  0  0  0  0  0  0
   10.7812   41.7441   20.7942 C   0  0  0  0  0  0  0  0  0  0  0  0
   10.0853   41.2266   19.6909 C   0  0  0  0  0  0  0  0  0  0  0  0
   13.7609   44.5836   20.6583 C   0  0  0  0  0  0  0  0  0  0  0  0
   10.3644   41.4033   22.0103 F   0  0  0  0  0  0  0  0  0  0  0  0
    7.8744   40.2948   20.6286 C   0  0  0  0  0  0  0  0  0  0  0  0
    7.0679   41.4276   20.6454 C   0  0  0  0  0  0  0  0  0  0  0  0
    5.9536   41.4589   21.3921 N   0  0  0  0  0  0  0  0  0  0  0  0
    5.5842   40.4089   22.1402 C   0  0  0  0  0  0  0  0  0  0  0  0
    6.3494   39.2480   22.1642 C   0  0  0  0  0  0  0  0  0  0  0  0
    7.5083   39.1954   21.3973 C   0  0  0  0  0  0  0  0  0  0  0  0
    5.9276   38.0595   23.0127 C   0  0  0  0  0  0  0  0  0  0  0  0
    5.6111   37.1678   23.6489 N   0  0  0  0  0  0  0  0  0  0  0  0
   10.7854   38.6286   19.0980 C   0  0  0  0  0  0  0  0  0  0  0  0
    9.3139   39.0066   19.0490 C   0  0  0  0  0  0  0  0  0  0  0  0
   11.3323   38.5369   17.6828 C   0  0  0  0  0  0  0  0  0  0  0  0
   10.9402   37.2837   19.7891 C   0  0  0  0  0  0  0  0  0  0  0  0
  1  8  1  0
  7 10  1  0
  2  3  1  0
  3  5  2  0
  3  6  1  0
  4  5  1  0
  4  8  2  0
  6  7  2  0
  7  8  1  0
 15 17  1  0
  2  9  1  0
 11 12  2  0
 12 13  1  0
 13 14  2  0
 14 15  1  0
 15 16  2  0
 16 11  1  0
  1 11  1  0
 17 18  3  0
 19 20  1  0
  1 20  1  0
 19 21  1  0
 22 19  1  0
M  END
>  <ESTIMATED_AFFINITY_LOWER [nM]>  (5) 
47.289156

>  <ESTIMATED_AFFINITY_UPPER [nM]>  (5) 
4698.457235

>  <TPSA>  (5) 
39.92

>  <logP>  (5) 
4.05695

>  <ID>  (5) 
DLS-ACVR1A-DF005

>  <original SMILES>  (5) 
CCc1ccc(N(CC(C)C)c2cncc(C#N)c2)c(F)c1

>  <ref_mols>  (5) 
x1344_0B

>  <ref_pdb>  (5) 
x1344_0B

$$$$
DLS-ACVR1A-DF006
     RDKit          3D

 22 23  0  0  0  0  0  0  0  0999 V2000
    9.0642   40.2387   19.8027 N   0  0  0  0  0  0  0  0  0  0  0  0
   13.4664   43.7499   19.3463 O   0  0  0  0  0  0  0  0  0  0  0  0
   12.2533   43.0141   19.4048 C   0  0  0  0  0  0  0  0  0  0  0  0
   10.4869   41.6185   18.3576 C   0  0  0  0  0  0  0  0  0  0  0  0
   11.5980   42.5053   18.2506 C   0  0  0  0  0  0  0  0  0  0  0  0
   11.7604   42.6878   20.6261 C   0  0  0  0  0  0  0  0  0  0  0  0
   10.6876   41.8275   20.7417 C   0  0  0  0  0  0  0  0  0  0  0  0
   10.0305   41.2402   19.6497 C   0  0  0  0  0  0  0  0  0  0  0  0
   13.9044   44.4877   20.4775 C   0  0  0  0  0  0  0  0  0  0  0  0
   10.2499   41.5366   21.9634 F   0  0  0  0  0  0  0  0  0  0  0  0
    7.8428   40.2861   20.6187 C   0  0  0  0  0  0  0  0  0  0  0  0
    7.0301   41.4144   20.6388 C   0  0  0  0  0  0  0  0  0  0  0  0
    5.9190   41.4398   21.3902 N   0  0  0  0  0  0  0  0  0  0  0  0
    5.5585   40.3880   22.1401 C   0  0  0  0  0  0  0  0  0  0  0  0
    6.3303   39.2313   22.1615 C   0  0  0  0  0  0  0  0  0  0  0  0
    7.4861   39.1850   21.3895 C   0  0  0  0  0  0  0  0  0  0  0  0
    5.9187   38.0408   23.0120 C   0  0  0  0  0  0  0  0  0  0  0  0
    5.6101   37.1477   23.6499 N   0  0  0  0  0  0  0  0  0  0  0  0
   10.7746   38.6341   19.1235 C   0  0  0  0  0  0  0  0  0  0  0  0
    9.2991   38.9927   19.0588 C   0  0  0  0  0  0  0  0  0  0  0  0
   11.3367   38.5451   17.7141 C   0  0  0  0  0  0  0  0  0  0  0  0
   10.9404   37.2938   19.8207 C   0  0  0  0  0  0  0  0  0  0  0  0
  1  8  1  0
  7 10  1  0
  2  3  1  0
  3  5  2  0
  3  6  1  0
  4  5  1  0
  4  8  2  0
  6  7  2  0
  7  8  1  0
 15 17  1  0
  2  9  1  0
 11 12  2  0
 12 13  1  0
 13 14  2  0
 14 15  1  0
 15 16  2  0
 16 11  1  0
  1 11  1  0
 17 18  3  0
 19 20  1  0
  1 20  1  0
 19 21  1  0
 22 19  1  0
M  END
>  <ESTIMATED_AFFINITY_LOWER [nM]>  (6) 
47.814060

>  <ESTIMATED_AFFINITY_UPPER [nM]>  (6) 
4750.609598

>  <TPSA>  (6) 
49.15

>  <logP>  (6) 
3.66003

>  <ID>  (6) 
DLS-ACVR1A-DF006

>  <original SMILES>  (6) 
COc1ccc(N(CC(C)C)c2cncc(C#N)c2)c(F)c1

>  <ref_mols>  (6) 
x1344_0B

>  <ref_pdb>  (6) 
x1344_0B

$$$$
DLS-ACVR1A-DF007
     RDKit          3D

 21 22  0  0  0  0  0  0  0  0999 V2000
    9.1059   40.3119   19.8738 N   0  0  0  0  0  0  0  0  0  0  0  0
   13.6896   43.7279   19.7701 C   0  0  0  0  0  0  0  0  0  0  0  0
   12.3917   42.9987   19.7516 C   0  0  0  0  0  0  0  0  0  0  0  0
   10.5920   41.7629   18.5691 C   0  0  0  0  0  0  0  0  0  0  0  0
   11.7337   42.6165   18.5512 C   0  0  0  0  0  0  0  0  0  0  0  0
   11.8733   42.5838   20.9349 C   0  0  0  0  0  0  0  0  0  0  0  0
   10.7706   41.7544   20.9642 C   0  0  0  0  0  0  0  0  0  0  0  0
   10.1071   41.2887   19.8189 C   0  0  0  0  0  0  0  0  0  0  0  0
   10.3083   41.3729   22.1515 F   0  0  0  0  0  0  0  0  0  0  0  0
    7.8710   40.3354   20.6707 C   0  0  0  0  0  0  0  0  0  0  0  0
    7.0339   41.4459   20.6741 C   0  0  0  0  0  0  0  0  0  0  0  0
    5.9110   41.4496   21.4081 N   0  0  0  0  0  0  0  0  0  0  0  0
    5.5615   40.3925   22.1559 C   0  0  0  0  0  0  0  0  0  0  0  0
    6.3576   39.2528   22.1930 C   0  0  0  0  0  0  0  0  0  0  0  0
    7.5262   39.2290   21.4394 C   0  0  0  0  0  0  0  0  0  0  0  0
    5.9585   38.0562   23.0411 C   0  0  0  0  0  0  0  0  0  0  0  0
    5.6591   37.1586   23.6770 N   0  0  0  0  0  0  0  0  0  0  0  0
   11.3401   38.6557   17.6796 C   0  0  0  0  0  0  0  0  0  0  0  0
   10.7769   38.7135   19.0902 C   0  0  0  0  0  0  0  0  0  0  0  0
   10.8963   37.3444   19.7399 C   0  0  0  0  0  0  0  0  0  0  0  0
    9.3140   39.1225   19.0354 C   0  0  0  0  0  0  0  0  0  0  0  0
  1  8  1  0
  7  9  1  0
  2  3  1  0
  3  5  2  0
  3  6  1  0
  4  5  1  0
  4  8  2  0
  6  7  2  0
  7  8  1  0
 14 16  1  0
 10 11  2  0
 11 12  1  0
 12 13  2  0
 13 14  1  0
 14 15  2  0
 15 10  1  0
  1 10  1  0
 16 17  3  0
 18 19  1  0
 19 20  1  0
 19 21  1  0
  1 21  1  0
M  END
>  <ESTIMATED_AFFINITY_LOWER [nM]>  (7) 
59.707239

>  <ESTIMATED_AFFINITY_UPPER [nM]>  (7) 
5932.267219

>  <TPSA>  (7) 
39.92

>  <logP>  (7) 
3.69899

>  <ID>  (7) 
DLS-ACVR1A-DF007

>  <original SMILES>  (7) 
Cc1ccc(N(CC(C)C)c2cncc(C#N)c2)c(F)c1

>  <ref_mols>  (7) 
x1344_0B

>  <ref_pdb>  (7) 
x1344_0B

$$$$
DLS-ACVR1A-DF008
     RDKit          3D

 21 23  0  0  0  0  0  0  0  0999 V2000
    9.1174   40.2543   19.7203 N   0  0  0  0  0  0  0  0  0  0  0  0
   13.6868   43.5728   19.5742 O   0  0  0  0  0  0  0  0  0  0  0  0
   12.4386   42.8959   19.5749 C   0  0  0  0  0  0  0  0  0  0  0  0
   10.5842   41.7227   18.4134 C   0  0  0  0  0  0  0  0  0  0  0  0
   11.7376   42.5600   18.3849 C   0  0  0  0  0  0  0  0  0  0  0  0
   11.9508   42.4530   20.7610 C   0  0  0  0  0  0  0  0  0  0  0  0
   10.8370   41.6389   20.8003 C   0  0  0  0  0  0  0  0  0  0  0  0
   10.1313   41.2177   19.6629 C   0  0  0  0  0  0  0  0  0  0  0  0
   13.8997   44.6704   20.4497 C   0  0  0  0  0  0  0  0  0  0  0  0
   10.4061   41.2282   21.9897 F   0  0  0  0  0  0  0  0  0  0  0  0
    7.8887   40.2902   20.5261 C   0  0  0  0  0  0  0  0  0  0  0  0
    7.0526   41.4016   20.5201 C   0  0  0  0  0  0  0  0  0  0  0  0
    5.9352   41.4169   21.2624 N   0  0  0  0  0  0  0  0  0  0  0  0
    5.5904   40.3709   22.0278 C   0  0  0  0  0  0  0  0  0  0  0  0
    6.3857   39.2309   22.0750 C   0  0  0  0  0  0  0  0  0  0  0  0
    7.5485   39.1951   21.3131 C   0  0  0  0  0  0  0  0  0  0  0  0
    5.9920   38.0469   22.9430 C   0  0  0  0  0  0  0  0  0  0  0  0
    5.6965   37.1588   23.5938 N   0  0  0  0  0  0  0  0  0  0  0  0
    9.3036   39.0662   18.8748 C   0  0  0  0  0  0  0  0  0  0  0  0
   10.0004   37.9631   19.6176 C   0  0  0  0  0  0  0  0  0  0  0  0
   10.7551   38.7850   18.6119 C   0  0  0  0  0  0  0  0  0  0  0  0
  1  8  1  0
  7 10  1  0
  2  3  1  0
  3  5  2  0
  3  6  1  0
  4  5  1  0
  4  8  2  0
  6  7  2  0
  7  8  1  0
 15 17  1  0
  2  9  1  0
 11 12  2  0
 12 13  1  0
 13 14  2  0
 14 15  1  0
 15 16  2  0
 16 11  1  0
  1 11  1  0
 17 18  3  0
 19 20  1  0
 20 21  1  0
 21 19  1  0
  1 19  1  0
M  END
>  <ESTIMATED_AFFINITY_LOWER [nM]>  (8) 
74.009618

>  <ESTIMATED_AFFINITY_UPPER [nM]>  (8) 
7353.293138

>  <TPSA>  (8) 
49.15

>  <logP>  (8) 
3.35918

>  <ID>  (8) 
DLS-ACVR1A-DF008

>  <original SMILES>  (8) 
COc1ccc(N(c2cncc(C#N)c2)C2CC2)c(F)c1

>  <ref_mols>  (8) 
x1344_0B

>  <ref_pdb>  (8) 
x1344_0B

$$$$
DLS-ACVR1A-DF009
     RDKit          3D

 20 21  0  0  0  0  0  0  0  0999 V2000
    9.0824   40.3302   19.9002 N   0  0  0  0  0  0  0  0  0  0  0  0
   13.6684   43.7446   19.9072 C   0  0  0  0  0  0  0  0  0  0  0  0
   12.3720   43.0146   19.8517 C   0  0  0  0  0  0  0  0  0  0  0  0
   10.6226   41.7504   18.6247 C   0  0  0  0  0  0  0  0  0  0  0  0
   11.7645   42.6038   18.6343 C   0  0  0  0  0  0  0  0  0  0  0  0
   11.8043   42.6278   21.0218 C   0  0  0  0  0  0  0  0  0  0  0  0
   10.7009   41.7989   21.0247 C   0  0  0  0  0  0  0  0  0  0  0  0
   10.0856   41.3058   19.8640 C   0  0  0  0  0  0  0  0  0  0  0  0
    7.8463   40.3421   20.6955 C   0  0  0  0  0  0  0  0  0  0  0  0
    6.9995   41.4452   20.6989 C   0  0  0  0  0  0  0  0  0  0  0  0
    5.8756   41.4384   21.4314 N   0  0  0  0  0  0  0  0  0  0  0  0
    5.5345   40.3776   22.1778 C   0  0  0  0  0  0  0  0  0  0  0  0
    6.3405   39.2448   22.2148 C   0  0  0  0  0  0  0  0  0  0  0  0
    7.5102   39.2320   21.4627 C   0  0  0  0  0  0  0  0  0  0  0  0
    5.9508   38.0440   23.0613 C   0  0  0  0  0  0  0  0  0  0  0  0
    5.6585   37.1432   23.6960 N   0  0  0  0  0  0  0  0  0  0  0  0
   11.3203   38.6831   17.6945 C   0  0  0  0  0  0  0  0  0  0  0  0
   10.7486   38.7340   19.1020 C   0  0  0  0  0  0  0  0  0  0  0  0
   10.8528   37.3588   19.7412 C   0  0  0  0  0  0  0  0  0  0  0  0
    9.2894   39.1553   19.0413 C   0  0  0  0  0  0  0  0  0  0  0  0
  1  8  1  0
  2  3  1  0
  3  5  2  0
  3  6  1  0
  4  5  1  0
  4  8  2  0
  6  7  2  0
  7  8  1  0
 13 15  1  0
  9 10  2  0
 10 11  1  0
 11 12  2  0
 12 13  1  0
 13 14  2  0
 14  9  1  0
  1  9  1  0
 15 16  3  0
 17 18  1  0
 18 19  1  0
 18 20  1  0
  1 20  1  0
M  END
>  <ESTIMATED_AFFINITY_LOWER [nM]>  (9) 
94.746984

>  <ESTIMATED_AFFINITY_UPPER [nM]>  (9) 
9413.673007

>  <TPSA>  (9) 
39.92

>  <logP>  (9) 
3.54383

>  <ID>  (9) 
DLS-ACVR1A-DF009

>  <original SMILES>  (9) 
Cc1ccc(N(CC(C)C)c2cncc(C#N)c2)cc1

>  <ref_mols>  (9) 
x1344_0B

>  <ref_pdb>  (9) 
x1344_0B

$$$$
DLS-ACVR1A-DF010
     RDKit          3D

 21 23  0  0  0  0  0  0  0  0999 V2000
    9.1643   40.2561   19.9282 N   0  0  0  0  0  0  0  0  0  0  0  0
    7.9129   40.3029   20.6977 C   0  0  0  0  0  0  0  0  0  0  0  0
    7.0965   41.4287   20.6823 C   0  0  0  0  0  0  0  0  0  0  0  0
    5.9579   41.4536   21.3913 N   0  0  0  0  0  0  0  0  0  0  0  0
    5.5726   40.4036   22.1315 C   0  0  0  0  0  0  0  0  0  0  0  0
    6.3464   39.2494   22.1864 C   0  0  0  0  0  0  0  0  0  0  0  0
    7.5308   39.2036   21.4587 C   0  0  0  0  0  0  0  0  0  0  0  0
    5.9066   38.0610   23.0257 C   0  0  0  0  0  0  0  0  0  0  0  0
    5.5767   37.1695   23.6550 N   0  0  0  0  0  0  0  0  0  0  0  0
   11.4709   38.6511   17.8183 C   0  0  0  0  0  0  0  0  0  0  0  0
   10.8560   38.6598   19.1863 C   0  0  0  0  0  0  0  0  0  0  0  0
   11.0049   37.3652   18.4387 C   0  0  0  0  0  0  0  0  0  0  0  0
    9.3871   39.0448   19.1257 C   0  0  0  0  0  0  0  0  0  0  0  0
   13.2977   44.2568   19.6989 C   0  0  0  0  0  0  0  0  0  0  0  0
   12.2051   43.2012   19.7484 C   0  0  0  0  0  0  0  0  0  0  0  0
   11.8053   42.7092   20.9864 C   0  0  0  0  0  0  0  0  0  0  0  0
   10.8069   41.7424   21.0384 C   0  0  0  0  0  0  0  0  0  0  0  0
   10.4077   41.2571   22.2106 F   0  0  0  0  0  0  0  0  0  0  0  0
   10.2195   41.2777   19.8664 C   0  0  0  0  0  0  0  0  0  0  0  0
   10.6273   41.7771   18.6334 C   0  0  0  0  0  0  0  0  0  0  0  0
   11.6254   42.7440   18.5692 C   0  0  0  0  0  0  0  0  0  0  0  0
  6  8  1  0
  2  3  2  0
  3  4  1  0
  4  5  2  0
  5  6  1  0
  6  7  2  0
  7  2  1  0
  1  2  1  0
  8  9  3  0
 10 11  1  0
 11 12  1  0
 11 13  1  0
  1 13  1  0
 10 12  1  0
 14 15  1  0
 15 16  2  0
 16 17  1  0
 17 18  1  0
 17 19  2  0
 19 20  1  0
 20 21  2  0
 21 15  1  0
  1 19  1  0
M  END
>  <ESTIMATED_AFFINITY_LOWER [nM]>  (10) 
95.896926

>  <ESTIMATED_AFFINITY_UPPER [nM]>  (10) 
9527.926541

>  <TPSA>  (10) 
39.92

>  <logP>  (10) 
3.62773

>  <ID>  (10) 
DLS-ACVR1A-DF010

>  <original SMILES>  (10) 
Cc1ccc(N(CC2CC2)c2cncc(C#N)c2)c(F)c1

>  <ref_mols>  (10) 
x1344_0B

>  <ref_pdb>  (10) 
x1344_0B

$$$$
DLS-ACVR1A-DF011
     RDKit          3D

 19 20  0  0  0  0  0  0  0  0999 V2000
    9.0414   40.2966   19.8707 N   0  0  0  0  0  0  0  0  0  0  0  0
   13.6802   43.6388   19.8366 C   0  0  0  0  0  0  0  0  0  0  0  0
   12.3725   42.9287   19.7904 C   0  0  0  0  0  0  0  0  0  0  0  0
   10.6014   41.6799   18.5787 C   0  0  0  0  0  0  0  0  0  0  0  0
   11.7565   42.5154   18.5781 C   0  0  0  0  0  0  0  0  0  0  0  0
   11.8008   42.5624   20.9651 C   0  0  0  0  0  0  0  0  0  0  0  0
   10.6846   41.7509   20.9780 C   0  0  0  0  0  0  0  0  0  0  0  0
   10.0597   41.2560   19.8232 C   0  0  0  0  0  0  0  0  0  0  0  0
    7.8196   40.3234   20.6874 C   0  0  0  0  0  0  0  0  0  0  0  0
    6.9929   41.4413   20.7151 C   0  0  0  0  0  0  0  0  0  0  0  0
    5.8818   41.4479   21.4669 N   0  0  0  0  0  0  0  0  0  0  0  0
    5.5346   40.3866   22.2098 C   0  0  0  0  0  0  0  0  0  0  0  0
    6.3207   39.2394   22.2230 C   0  0  0  0  0  0  0  0  0  0  0  0
    7.4769   39.2125   21.4506 C   0  0  0  0  0  0  0  0  0  0  0  0
    5.9241   38.0381   23.0657 C   0  0  0  0  0  0  0  0  0  0  0  0
    5.6267   37.1370   23.6975 N   0  0  0  0  0  0  0  0  0  0  0  0
   10.6798   38.7213   18.9790 C   0  0  0  0  0  0  0  0  0  0  0  0
   10.8510   37.3931   19.6979 C   0  0  0  0  0  0  0  0  0  0  0  0
    9.2144   39.1242   19.0009 C   0  0  0  0  0  0  0  0  0  0  0  0
  1  8  1  0
  2  3  1  0
  3  5  2  0
  3  6  1  0
  4  5  1  0
  4  8  2  0
  6  7  2  0
  7  8  1  0
 13 15  1  0
  9 10  2  0
 10 11  1  0
 11 12  2  0
 12 13  1  0
 13 14  2  0
 14  9  1  0
  1  9  1  0
 15 16  3  0
 17 18  1  0
 17 19  1  0
  1 19  1  0
M  END
>  <ESTIMATED_AFFINITY_LOWER [nM]>  (11) 
96.366082

>  <ESTIMATED_AFFINITY_UPPER [nM]>  (11) 
9574.540027

>  <TPSA>  (11) 
39.92

>  <logP>  (11) 
3.43337

>  <ID>  (11) 
DLS-ACVR1A-DF011

>  <original SMILES>  (11) 
CCCN(c1ccc(C)cc1)c1cncc(C#N)c1

>  <ref_mols>  (11) 
x1344_0B

>  <ref_pdb>  (11) 
x1344_0B

$$$$
DLS-ACVR1A-DF012
     RDKit          3D

 22 24  0  0  0  0  0  0  0  0999 V2000
    9.1374   40.2094   19.8810 N   0  0  0  0  0  0  0  0  0  0  0  0
    7.8955   40.2721   20.6648 C   0  0  0  0  0  0  0  0  0  0  0  0
    7.0940   41.4087   20.6595 C   0  0  0  0  0  0  0  0  0  0  0  0
    5.9640   41.4480   21.3815 N   0  0  0  0  0  0  0  0  0  0  0  0
    5.5734   40.4027   22.1254 C   0  0  0  0  0  0  0  0  0  0  0  0
    6.3323   39.2383   22.1707 C   0  0  0  0  0  0  0  0  0  0  0  0
    7.5076   39.1774   21.4294 C   0  0  0  0  0  0  0  0  0  0  0  0
    5.8865   38.0551   23.0142 C   0  0  0  0  0  0  0  0  0  0  0  0
    5.5521   37.1675   23.6466 N   0  0  0  0  0  0  0  0  0  0  0  0
   11.4782   38.6487   17.8437 C   0  0  0  0  0  0  0  0  0  0  0  0
   10.8486   38.6050   19.2043 C   0  0  0  0  0  0  0  0  0  0  0  0
   11.0313   37.3363   18.4208 C   0  0  0  0  0  0  0  0  0  0  0  0
    9.3732   38.9629   19.1384 C   0  0  0  0  0  0  0  0  0  0  0  0
   13.1181   44.1995   19.3965 O   0  0  0  0  0  0  0  0  0  0  0  0
   12.1174   43.1981   19.5076 C   0  0  0  0  0  0  0  0  0  0  0  0
   11.7538   42.7529   20.7742 C   0  0  0  0  0  0  0  0  0  0  0  0
   10.7751   41.7715   20.8898 C   0  0  0  0  0  0  0  0  0  0  0  0
   10.4105   41.3301   22.0902 F   0  0  0  0  0  0  0  0  0  0  0  0
   10.1715   41.2461   19.7521 C   0  0  0  0  0  0  0  0  0  0  0  0
   10.5432   41.6991   18.4900 C   0  0  0  0  0  0  0  0  0  0  0  0
   11.5213   42.6801   18.3623 C   0  0  0  0  0  0  0  0  0  0  0  0
   13.8344   44.6183   20.5489 C   0  0  0  0  0  0  0  0  0  0  0  0
  6  8  1  0
  2  3  2  0
  3  4  1  0
  4  5  2  0
  5  6  1  0
  6  7  2  0
  7  2  1  0
  1  2  1  0
  8  9  3  0
 10 11  1  0
 11 12  1  0
 11 13  1  0
  1 13  1  0
 10 12  1  0
 14 15  1  0
 15 16  2  0
 16 17  1  0
 17 18  1  0
 17 19  2  0
 19 20  1  0
 20 21  2  0
 21 15  1  0
  1 19  1  0
 14 22  1  0
M  END
>  <ESTIMATED_AFFINITY_LOWER [nM]>  (12) 
112.367320

>  <ESTIMATED_AFFINITY_UPPER [nM]>  (12) 
11164.357584

>  <TPSA>  (12) 
49.15

>  <logP>  (12) 
3.57112

>  <ID>  (12) 
DLS-ACVR1A-DF012

>  <original SMILES>  (12) 
COc1ccc(N(CC2CC2)c2cncc(C#N)c2)c(F)c1

>  <ref_mols>  (12) 
x1344_0B

>  <ref_pdb>  (12) 
x1344_0B

$$$$
DLS-ACVR1A-DF013
     RDKit          3D

 20 22  0  0  0  0  0  0  0  0999 V2000
    9.0792   40.3320   19.9782 N   0  0  0  0  0  0  0  0  0  0  0  0
   13.6082   43.8213   19.9259 C   0  0  0  0  0  0  0  0  0  0  0  0
   12.3246   43.0684   19.8801 C   0  0  0  0  0  0  0  0  0  0  0  0
   10.6083   41.7393   18.6752 C   0  0  0  0  0  0  0  0  0  0  0  0
   11.7358   42.6116   18.6700 C   0  0  0  0  0  0  0  0  0  0  0  0
   11.7519   42.7071   21.0559 C   0  0  0  0  0  0  0  0  0  0  0  0
   10.6623   41.8603   21.0733 C   0  0  0  0  0  0  0  0  0  0  0  0
   10.0666   41.3227   19.9222 C   0  0  0  0  0  0  0  0  0  0  0  0
    7.8375   40.3450   20.7646 C   0  0  0  0  0  0  0  0  0  0  0  0
    6.9987   41.4542   20.7730 C   0  0  0  0  0  0  0  0  0  0  0  0
    5.8695   41.4482   21.4973 N   0  0  0  0  0  0  0  0  0  0  0  0
    5.5152   40.3825   22.2304 C   0  0  0  0  0  0  0  0  0  0  0  0
    6.3126   39.2435   22.2617 C   0  0  0  0  0  0  0  0  0  0  0  0
    7.4877   39.2297   21.5180 C   0  0  0  0  0  0  0  0  0  0  0  0
    5.9080   38.0371   23.0931 C   0  0  0  0  0  0  0  0  0  0  0  0
    5.6045   37.1321   23.7165 N   0  0  0  0  0  0  0  0  0  0  0  0
   11.4463   38.5973   17.9880 C   0  0  0  0  0  0  0  0  0  0  0  0
   10.7524   38.6825   19.3150 C   0  0  0  0  0  0  0  0  0  0  0  0
   10.8784   37.3578   18.6177 C   0  0  0  0  0  0  0  0  0  0  0  0
    9.3116   39.1379   19.1529 C   0  0  0  0  0  0  0  0  0  0  0  0
  1  8  1  0
  2  3  1  0
  3  5  2  0
  3  6  1  0
  4  5  1  0
  4  8  2  0
  6  7  2  0
  7  8  1  0
 13 15  1  0
  9 10  2  0
 10 11  1  0
 11 12  2  0
 12 13  1  0
 13 14  2  0
 14  9  1  0
  1  9  1  0
 15 16  3  0
 17 18  1  0
 18 19  1  0
 18 20  1  0
  1 20  1  0
 17 19  1  0
M  END
>  <ESTIMATED_AFFINITY_LOWER [nM]>  (13) 
122.192674

>  <ESTIMATED_AFFINITY_UPPER [nM]>  (13) 
12140.564578

>  <TPSA>  (13) 
39.92

>  <logP>  (13) 
3.52136

>  <ID>  (13) 
DLS-ACVR1A-DF013

>  <original SMILES>  (13) 
Cc1ccc(N(CC2CC2)c2cncc(C#N)c2)cc1

>  <ref_mols>  (13) 
x1344_0B

>  <ref_pdb>  (13) 
x1344_0B

$$$$
DLS-ACVR1A-DF014
     RDKit          3D

 19 21  0  0  0  0  0  0  0  0999 V2000
    9.1389   40.3659   19.7710 N   0  0  0  0  0  0  0  0  0  0  0  0
   13.7655   43.7222   19.9112 C   0  0  0  0  0  0  0  0  0  0  0  0
   12.4604   43.0106   19.8280 C   0  0  0  0  0  0  0  0  0  0  0  0
   10.6940   41.8198   18.5528 C   0  0  0  0  0  0  0  0  0  0  0  0
   11.8460   42.6584   18.5957 C   0  0  0  0  0  0  0  0  0  0  0  0
   11.8899   42.5820   20.9821 C   0  0  0  0  0  0  0  0  0  0  0  0
   10.7766   41.7669   20.9526 C   0  0  0  0  0  0  0  0  0  0  0  0
   10.1537   41.3301   19.7735 C   0  0  0  0  0  0  0  0  0  0  0  0
    7.9031   40.3605   20.5669 C   0  0  0  0  0  0  0  0  0  0  0  0
    7.0236   41.4375   20.5435 C   0  0  0  0  0  0  0  0  0  0  0  0
    5.9005   41.4153   21.2769 N   0  0  0  0  0  0  0  0  0  0  0  0
    5.5913   40.3636   22.0497 C   0  0  0  0  0  0  0  0  0  0  0  0
    6.4309   39.2567   22.1142 C   0  0  0  0  0  0  0  0  0  0  0  0
    7.6004   39.2602   21.3617 C   0  0  0  0  0  0  0  0  0  0  0  0
    6.0775   38.0662   22.9906 C   0  0  0  0  0  0  0  0  0  0  0  0
    5.8123   37.1732   23.6477 N   0  0  0  0  0  0  0  0  0  0  0  0
    9.3319   39.2240   18.8656 C   0  0  0  0  0  0  0  0  0  0  0  0
    9.8833   38.0307   19.5911 C   0  0  0  0  0  0  0  0  0  0  0  0
   10.7817   38.8612   18.7194 C   0  0  0  0  0  0  0  0  0  0  0  0
  1  8  1  0
  2  3  1  0
  3  5  2  0
  3  6  1  0
  4  5  1  0
  4  8  2  0
  6  7  2  0
  7  8  1  0
 13 15  1  0
  9 10  2  0
 10 11  1  0
 11 12  2  0
 12 13  1  0
 13 14  2  0
 14  9  1  0
  1  9  1  0
 15 16  3  0
 17 18  1  0
 18 19  1  0
 19 17  1  0
  1 17  1  0
M  END
>  <ESTIMATED_AFFINITY_LOWER [nM]>  (14) 
126.627201

>  <ESTIMATED_AFFINITY_UPPER [nM]>  (14) 
12581.161053

>  <TPSA>  (14) 
39.92

>  <logP>  (14) 
3.26961

>  <ID>  (14) 
DLS-ACVR1A-DF014

>  <original SMILES>  (14) 
Cc1ccc(N(c2cncc(C#N)c2)C2CC2)cc1

>  <ref_mols>  (14) 
x1344_0B

>  <ref_pdb>  (14) 
x1344_0B

$$$$
DLS-ACVR1A-DF015
     RDKit          3D

 21 23  0  0  0  0  0  0  0  0999 V2000
    9.1576   40.2732   19.9355 N   0  0  0  0  0  0  0  0  0  0  0  0
    7.9056   40.3114   20.7044 C   0  0  0  0  0  0  0  0  0  0  0  0
    7.0813   41.4314   20.6885 C   0  0  0  0  0  0  0  0  0  0  0  0
    5.9422   41.4484   21.3970 N   0  0  0  0  0  0  0  0  0  0  0  0
    5.5640   40.3959   22.1372 C   0  0  0  0  0  0  0  0  0  0  0  0
    6.3458   39.2471   22.1926 C   0  0  0  0  0  0  0  0  0  0  0  0
    7.5308   39.2095   21.4654 C   0  0  0  0  0  0  0  0  0  0  0  0
    5.9140   38.0558   23.0319 C   0  0  0  0  0  0  0  0  0  0  0  0
    5.5901   37.1621   23.6612 N   0  0  0  0  0  0  0  0  0  0  0  0
   11.4635   38.6615   17.8133 C   0  0  0  0  0  0  0  0  0  0  0  0
   10.8621   38.6937   19.1870 C   0  0  0  0  0  0  0  0  0  0  0  0
   11.0160   37.3849   18.4656 C   0  0  0  0  0  0  0  0  0  0  0  0
    9.3890   39.0636   19.1329 C   0  0  0  0  0  0  0  0  0  0  0  0
   13.1269   44.1682   19.7147 F   0  0  0  0  0  0  0  0  0  0  0  0
   12.1783   43.2391   19.7574 C   0  0  0  0  0  0  0  0  0  0  0  0
   11.7800   42.7455   20.9953 C   0  0  0  0  0  0  0  0  0  0  0  0
   10.7882   41.7719   21.0467 C   0  0  0  0  0  0  0  0  0  0  0  0
   10.3907   41.2849   22.2188 F   0  0  0  0  0  0  0  0  0  0  0  0
   10.2058   41.3020   19.8743 C   0  0  0  0  0  0  0  0  0  0  0  0
   10.6120   41.8031   18.6414 C   0  0  0  0  0  0  0  0  0  0  0  0
   11.6035   42.7768   18.5778 C   0  0  0  0  0  0  0  0  0  0  0  0
  6  8  1  0
  2  3  2  0
  3  4  1  0
  4  5  2  0
  5  6  1  0
  6  7  2  0
  7  2  1  0
  1  2  1  0
  8  9  3  0
 10 11  1  0
 11 12  1  0
 11 13  1  0
  1 13  1  0
 10 12  1  0
 14 15  1  0
 15 16  2  0
 16 17  1  0
 17 18  1  0
 17 19  2  0
 19 20  1  0
 20 21  2  0
 21 15  1  0
  1 19  1  0
M  END
>  <ESTIMATED_AFFINITY_LOWER [nM]>  (15) 
133.773289

>  <ESTIMATED_AFFINITY_UPPER [nM]>  (15) 
13291.167162

>  <TPSA>  (15) 
39.92

>  <logP>  (15) 
3.49032

>  <ID>  (15) 
DLS-ACVR1A-DF015

>  <original SMILES>  (15) 
N#Cc1cncc(N(CC2CC2)c2ccc(F)cc2F)c1

>  <ref_mols>  (15) 
x1344_0B

>  <ref_pdb>  (15) 
x1344_0B

$$$$
DLS-ACVR1A-DF016
     RDKit          3D

 21 23  0  0  0  0  0  0  0  0999 V2000
    9.4229   40.2591   19.9574 N   0  0  0  0  0  0  0  0  0  0  0  0
   13.5771   44.1064   20.4646 C   0  0  0  0  0  0  0  0  0  0  0  0
   12.4678   43.0770   20.3261 C   0  0  0  0  0  0  0  0  0  0  0  0
   11.2526   41.4865   18.9858 C   0  0  0  0  0  0  0  0  0  0  0  0
   12.2686   42.4282   19.1121 C   0  0  0  0  0  0  0  0  0  0  0  0
   11.6618   42.7968   21.4245 C   0  0  0  0  0  0  0  0  0  0  0  0
   10.6456   41.8551   21.2980 C   0  0  0  0  0  0  0  0  0  0  0  0
   10.4457   41.2063   20.0836 C   0  0  0  0  0  0  0  0  0  0  0  0
    8.1548   40.2856   20.5492 C   0  0  0  0  0  0  0  0  0  0  0  0
    7.2909   41.3618   20.3734 C   0  0  0  0  0  0  0  0  0  0  0  0
    6.0790   41.3659   20.9485 N   0  0  0  0  0  0  0  0  0  0  0  0
    5.6554   40.3452   21.7084 C   0  0  0  0  0  0  0  0  0  0  0  0
    6.4799   39.2435   21.9171 C   0  0  0  0  0  0  0  0  0  0  0  0
    7.7415   39.2133   21.3323 C   0  0  0  0  0  0  0  0  0  0  0  0
    6.0265   38.0715   22.7723 C   0  0  0  0  0  0  0  0  0  0  0  0
    5.6865   37.1924   23.4135 N   0  0  0  0  0  0  0  0  0  0  0  0
    9.7661   39.5280   17.6967 N   0  0  0  0  0  0  0  0  0  0  0  0
    9.7149   39.0998   19.1021 C   0  0  0  0  0  0  0  0  0  0  0  0
   11.0556   38.5020   19.4988 C   0  0  0  0  0  0  0  0  0  0  0  0
   11.4198   37.3558   18.6012 C   0  0  0  0  0  0  0  0  0  0  0  0
   10.9298   37.0906   19.9958 C   0  0  0  0  0  0  0  0  0  0  0  0
  1  8  1  0
  2  3  1  0
  3  5  2  0
  3  6  1  0
  4  5  1  0
  4  8  2  0
  6  7  2  0
  7  8  1  0
 13 15  1  0
  9 10  2  0
 10 11  1  0
 11 12  2  0
 12 13  1  0
 13 14  2  0
 14  9  1  0
  1  9  1  0
 15 16  3  0
 17 18  1  0
 18 19  1  0
 19 20  1  0
 20 21  1  0
 21 19  1  0
  1 18  1  0
M  END
>  <ESTIMATED_AFFINITY_LOWER [nM]>  (16) 
252.631926

>  <ESTIMATED_AFFINITY_UPPER [nM]>  (16) 
25100.475568

>  <TPSA>  (16) 
65.94

>  <logP>  (16) 
2.34558

>  <ID>  (16) 
DLS-ACVR1A-DF016

>  <original SMILES>  (16) 
Cc1ccc(N(c2cncc(C#N)c2)C(N)C2CC2)cc1

>  <ref_mols>  (16) 
x1344_0B

>  <ref_pdb>  (16) 
x1344_0B

$$$$
DLS-ACVR1A-DF017
     RDKit          3D

 22 24  0  0  0  0  0  0  0  0999 V2000
    9.0691   40.3477   19.8958 N   0  0  0  0  0  0  0  0  0  0  0  0
   13.7075   43.6900   19.8347 C   0  0  0  0  0  0  0  0  0  0  0  0
   12.3977   42.9828   19.8100 C   0  0  0  0  0  0  0  0  0  0  0  0
   10.5673   41.8066   18.6139 C   0  0  0  0  0  0  0  0  0  0  0  0
   11.7227   42.6417   18.6067 C   0  0  0  0  0  0  0  0  0  0  0  0
   11.8830   42.5468   20.9874 C   0  0  0  0  0  0  0  0  0  0  0  0
   10.7671   41.7351   21.0063 C   0  0  0  0  0  0  0  0  0  0  0  0
   10.0858   41.3091   19.8559 C   0  0  0  0  0  0  0  0  0  0  0  0
   10.3092   41.3314   22.1879 F   0  0  0  0  0  0  0  0  0  0  0  0
    7.8477   40.3656   20.7134 C   0  0  0  0  0  0  0  0  0  0  0  0
    7.0147   41.4787   20.7444 C   0  0  0  0  0  0  0  0  0  0  0  0
    5.9042   41.4772   21.4970 N   0  0  0  0  0  0  0  0  0  0  0  0
    5.5635   40.4122   22.2376 C   0  0  0  0  0  0  0  0  0  0  0  0
    6.3561   39.2694   22.2475 C   0  0  0  0  0  0  0  0  0  0  0  0
    7.5119   39.2510   21.4743 C   0  0  0  0  0  0  0  0  0  0  0  0
    5.9670   38.0639   23.0876 C   0  0  0  0  0  0  0  0  0  0  0  0
    5.6751   37.1596   23.7174 N   0  0  0  0  0  0  0  0  0  0  0  0
   10.7147   38.8053   18.9607 C   0  0  0  0  0  0  0  0  0  0  0  0
    9.2434   39.1831   19.0160 C   0  0  0  0  0  0  0  0  0  0  0  0
   11.3060   38.7190   17.5603 C   0  0  0  0  0  0  0  0  0  0  0  0
   12.1149   37.5577   18.0713 C   0  0  0  0  0  0  0  0  0  0  0  0
   10.9951   37.3227   19.0565 C   0  0  0  0  0  0  0  0  0  0  0  0
  1  8  1  0
  7  9  1  0
  2  3  1  0
  3  5  2  0
  3  6  1  0
  4  5  1  0
  4  8  2  0
  6  7  2  0
  7  8  1  0
 14 16  1  0
 10 11  2  0
 11 12  1  0
 12 13  2  0
 13 14  1  0
 14 15  2  0
 15 10  1  0
  1 10  1  0
 16 17  3  0
 18 19  1  0
  1 19  1  0
 18 20  1  0
 20 21  1  0
 21 22  1  0
 22 18  1  0
M  END
>  <ESTIMATED_AFFINITY_LOWER [nM]>  (17) 
314.568854

>  <ESTIMATED_AFFINITY_UPPER [nM]>  (17) 
31254.275494

>  <TPSA>  (17) 
39.92

>  <logP>  (17) 
3.92339

>  <ID>  (17) 
DLS-ACVR1A-DF017

>  <original SMILES>  (17) 
Cc1ccc(N(CC2CCC2)c2cncc(C#N)c2)c(F)c1

>  <ref_mols>  (17) 
x1344_0B

>  <ref_pdb>  (17) 
x1344_0B

$$$$
DLS-ACVR1A-DF018
     RDKit          3D

 18 19  0  0  0  0  0  0  0  0999 V2000
    9.0389   40.2476   19.8780 N   0  0  0  0  0  0  0  0  0  0  0  0
   13.6778   43.5896   19.8956 C   0  0  0  0  0  0  0  0  0  0  0  0
   12.3760   42.8723   19.8108 C   0  0  0  0  0  0  0  0  0  0  0  0
   10.7118   41.4940   18.5881 C   0  0  0  0  0  0  0  0  0  0  0  0
   11.8662   42.3303   18.5999 C   0  0  0  0  0  0  0  0  0  0  0  0
   11.7024   42.6295   20.9634 C   0  0  0  0  0  0  0  0  0  0  0  0
   10.5856   41.8186   20.9645 C   0  0  0  0  0  0  0  0  0  0  0  0
   10.0616   41.2015   19.8184 C   0  0  0  0  0  0  0  0  0  0  0  0
    7.8169   40.2908   20.6938 C   0  0  0  0  0  0  0  0  0  0  0  0
    7.0078   41.4215   20.7244 C   0  0  0  0  0  0  0  0  0  0  0  0
    5.8963   41.4432   21.4753 N   0  0  0  0  0  0  0  0  0  0  0  0
    5.5318   40.3850   22.2145 C   0  0  0  0  0  0  0  0  0  0  0  0
    6.2996   39.2254   22.2245 C   0  0  0  0  0  0  0  0  0  0  0  0
    7.4560   39.1830   21.4530 C   0  0  0  0  0  0  0  0  0  0  0  0
    5.8835   38.0278   23.0628 C   0  0  0  0  0  0  0  0  0  0  0  0
    5.5713   37.1294   23.6913 N   0  0  0  0  0  0  0  0  0  0  0  0
   10.3661   38.2265   19.5397 C   0  0  0  0  0  0  0  0  0  0  0  0
    9.2066   39.0630   19.0239 C   0  0  0  0  0  0  0  0  0  0  0  0
  1  8  1  0
  2  3  1  0
  3  5  2  0
  3  6  1  0
  4  5  1  0
  4  8  2  0
  6  7  2  0
  7  8  1  0
 13 15  1  0
  9 10  2  0
 10 11  1  0
 11 12  2  0
 12 13  1  0
 13 14  2  0
 14  9  1  0
  1  9  1  0
 15 16  3  0
 17 18  1  0
  1 18  1  0
M  END
>  <ESTIMATED_AFFINITY_LOWER [nM]>  (18) 
607.250379

>  <ESTIMATED_AFFINITY_UPPER [nM]>  (18) 
60333.915461

>  <TPSA>  (18) 
39.92

>  <logP>  (18) 
3.08664

>  <ID>  (18) 
DLS-ACVR1A-DF018

>  <original SMILES>  (18) 
CCN(c1ccc(C)cc1)c1cncc(C#N)c1

>  <ref_mols>  (18) 
x1344_0B

>  <ref_pdb>  (18) 
x1344_0B

$$$$
DLS-ACVR1A-DF019
     RDKit          3D

 19 20  0  0  0  0  0  0  0  0999 V2000
    9.0675   40.2678   19.7959 N   0  0  0  0  0  0  0  0  0  0  0  0
   13.7245   43.5843   19.7462 C   0  0  0  0  0  0  0  0  0  0  0  0
   12.4129   42.8812   19.7038 C   0  0  0  0  0  0  0  0  0  0  0  0
   10.6328   41.6395   18.4981 C   0  0  0  0  0  0  0  0  0  0  0  0
   11.7924   42.4687   18.4935 C   0  0  0  0  0  0  0  0  0  0  0  0
   11.8412   42.5207   20.8804 C   0  0  0  0  0  0  0  0  0  0  0  0
   10.7207   41.7154   20.8970 C   0  0  0  0  0  0  0  0  0  0  0  0
   10.0910   41.2215   19.7445 C   0  0  0  0  0  0  0  0  0  0  0  0
    7.8354   40.3148   20.5962 C   0  0  0  0  0  0  0  0  0  0  0  0
    7.0472   41.4595   20.6431 C   0  0  0  0  0  0  0  0  0  0  0  0
    5.9261   41.4843   21.3794 N   0  0  0  0  0  0  0  0  0  0  0  0
    5.5319   40.4161   22.0884 C   0  0  0  0  0  0  0  0  0  0  0  0
    6.2781   39.2425   22.0809 C   0  0  0  0  0  0  0  0  0  0  0  0
    7.4439   39.1965   21.3241 C   0  0  0  0  0  0  0  0  0  0  0  0
    5.8432   38.0732   22.8585 N   0  0  0  0  0  0  0  0  0  0  0  0
    6.0233   38.0523   24.3173 C   0  0  0  0  0  0  0  0  0  0  0  0
   10.7116   38.6768   18.9432 C   0  0  0  0  0  0  0  0  0  0  0  0
   10.8852   37.3833   19.7223 C   0  0  0  0  0  0  0  0  0  0  0  0
    9.2458   39.0792   18.9495 C   0  0  0  0  0  0  0  0  0  0  0  0
  1  8  1  0
  2  3  1  0
  3  5  2  0
  3  6  1  0
  4  5  1  0
  4  8  2  0
  6  7  2  0
  7  8  1  0
 13 15  1  0
  9 10  2  0
 10 11  1  0
 11 12  2  0
 12 13  1  0
 13 14  2  0
 14  9  1  0
  1  9  1  0
 15 16  1  0
 17 18  1  0
 17 19  1  0
  1 19  1  0
M  END
>  <ESTIMATED_AFFINITY_LOWER [nM]>  (19) 
1080.248848

>  <ESTIMATED_AFFINITY_UPPER [nM]>  (19) 
107329.109977

>  <TPSA>  (19) 
28.16

>  <logP>  (19) 
3.09803

>  <ID>  (19) 
DLS-ACVR1A-DF019

>  <original SMILES>  (19) 
CCCN(c1ccc(C)cc1)c1cncc(NC)c1

>  <ref_mols>  (19) 
x1344_0B

>  <ref_pdb>  (19) 
x1344_0B

$$$$
DLS-ACVR1A-DF020
     RDKit          3D

 23 25  0  0  0  0  0  0  0  0999 V2000
    8.9814   40.4478   19.8872 N   0  0  0  0  0  0  0  0  0  0  0  0
   13.7361   43.6223   19.9570 C   0  0  0  0  0  0  0  0  0  0  0  0
   12.4013   42.9644   19.9103 C   0  0  0  0  0  0  0  0  0  0  0  0
   10.5124   41.9311   18.6741 C   0  0  0  0  0  0  0  0  0  0  0  0
   11.6970   42.7239   18.6996 C   0  0  0  0  0  0  0  0  0  0  0  0
   11.8885   42.4735   21.0666 C   0  0  0  0  0  0  0  0  0  0  0  0
   10.7445   41.7018   21.0535 C   0  0  0  0  0  0  0  0  0  0  0  0
   10.0315   41.3734   19.8905 C   0  0  0  0  0  0  0  0  0  0  0  0
    7.7963   40.4310   20.7566 C   0  0  0  0  0  0  0  0  0  0  0  0
    6.9454   41.5276   20.8400 C   0  0  0  0  0  0  0  0  0  0  0  0
    5.8684   41.4945   21.6394 N   0  0  0  0  0  0  0  0  0  0  0  0
    5.5794   40.4129   22.3778 C   0  0  0  0  0  0  0  0  0  0  0  0
    6.3924   39.2852   22.3365 C   0  0  0  0  0  0  0  0  0  0  0  0
    7.5139   39.2995   21.5142 C   0  0  0  0  0  0  0  0  0  0  0  0
    6.0618   38.0607   23.1742 C   0  0  0  0  0  0  0  0  0  0  0  0
    5.8138   37.1421   23.8022 N   0  0  0  0  0  0  0  0  0  0  0  0
   10.4821   38.9427   18.7618 N   0  0  0  0  0  0  0  0  0  0  0  0
    9.0748   39.3649   18.8975 C   0  0  0  0  0  0  0  0  0  0  0  0
   10.6070   37.4812   18.8690 C   0  0  0  0  0  0  0  0  0  0  0  0
   11.0417   39.3719   17.4713 C   0  0  0  0  0  0  0  0  0  0  0  0
   12.4888   38.9228   17.3420 C   0  0  0  0  0  0  0  0  0  0  0  0
   12.5771   37.5113   17.4760 O   0  0  0  0  0  0  0  0  0  0  0  0
   12.0590   37.0565   18.7179 C   0  0  0  0  0  0  0  0  0  0  0  0
  1  8  1  0
  2  3  1  0
  3  5  2  0
  3  6  1  0
  4  5  1  0
  4  8  2  0
  6  7  2  0
  7  8  1  0
 13 15  1  0
  9 10  2  0
 10 11  1  0
 11 12  2  0
 12 13  1  0
 13 14  2  0
 14  9  1  0
  1  9  1  0
 15 16  3  0
 17 18  1  0
  1 18  1  0
 19 17  1  0
 17 20  1  0
 20 21  1  0
 21 22  1  0
 22 23  1  0
 23 19  1  0
M  CHG  1  17   1
M  END
>  <ESTIMATED_AFFINITY_LOWER [nM]>  (20) 
1896.197846

>  <ESTIMATED_AFFINITY_UPPER [nM]>  (20) 
188398.467224

>  <TPSA>  (20) 
53.59

>  <logP>  (20) 
1.97349

>  <ID>  (20) 
DLS-ACVR1A-DF020

>  <original SMILES>  (20) 
Cc1ccc(N(C[NH+]2CCOCC2)c2cncc(C#N)c2)cc1

>  <ref_mols>  (20) 
x1344_0B

>  <ref_pdb>  (20) 
x1344_0B

$$$$
DLS-ACVR1A-DF021
     RDKit          3D

 16 17  0  0  0  0  0  0  0  0999 V2000
    8.8864   40.2463   19.7621 N   0  0  0  0  0  0  0  0  0  0  0  0
   13.7381   43.2647   19.9603 C   0  0  0  0  0  0  0  0  0  0  0  0
   12.3963   42.6352   19.8195 C   0  0  0  0  0  0  0  0  0  0  0  0
   10.7107   41.3379   18.5388 C   0  0  0  0  0  0  0  0  0  0  0  0
   11.9180   42.0938   18.5955 C   0  0  0  0  0  0  0  0  0  0  0  0
   11.6447   42.4727   20.9373 C   0  0  0  0  0  0  0  0  0  0  0  0
   10.4760   41.7398   20.8951 C   0  0  0  0  0  0  0  0  0  0  0  0
    9.9747   41.1263   19.7369 C   0  0  0  0  0  0  0  0  0  0  0  0
    7.7131   40.2940   20.6462 C   0  0  0  0  0  0  0  0  0  0  0  0
    6.9256   41.4363   20.7413 C   0  0  0  0  0  0  0  0  0  0  0  0
    5.8586   41.4618   21.5541 N   0  0  0  0  0  0  0  0  0  0  0  0
    5.5189   40.3966   22.2948 C   0  0  0  0  0  0  0  0  0  0  0  0
    6.2671   39.2253   22.2422 C   0  0  0  0  0  0  0  0  0  0  0  0
    7.3774   39.1787   21.4061 C   0  0  0  0  0  0  0  0  0  0  0  0
    5.8792   38.0197   23.0825 C   0  0  0  0  0  0  0  0  0  0  0  0
    5.5881   37.1153   23.7127 N   0  0  0  0  0  0  0  0  0  0  0  0
  1  8  1  0
  2  3  1  0
  3  5  2  0
  3  6  1  0
  4  5  1  0
  4  8  2  0
  6  7  2  0
  7  8  1  0
  9 10  2  0
 10 11  1  0
 11 12  2  0
 12 13  1  0
 13 14  2  0
 14  9  1  0
  1  9  1  0
 15 16  3  0
 13 15  1  0
M  END
>  <ESTIMATED_AFFINITY_LOWER [nM]>  (21) 
3249.874520

>  <ESTIMATED_AFFINITY_UPPER [nM]>  (21) 
322894.248347

>  <TPSA>  (21) 
48.71

>  <logP>  (21) 
2.68542

>  <ID>  (21) 
DLS-ACVR1A-DF021

>  <original SMILES>  (21) 
Cc1ccc(Nc2cncc(C#N)c2)cc1

>  <ref_mols>  (21) 
x1344_0B

>  <ref_pdb>  (21) 
x1344_0B

$$$$
DLS-ACVR1A-DF022
     RDKit          3D

 17 18  0  0  0  0  0  0  0  0999 V2000
    9.0321   40.2392   19.8995 N   0  0  0  0  0  0  0  0  0  0  0  0
   13.6657   43.5887   19.9119 C   0  0  0  0  0  0  0  0  0  0  0  0
   12.3658   42.8680   19.8252 C   0  0  0  0  0  0  0  0  0  0  0  0
   10.7161   41.4682   18.6073 C   0  0  0  0  0  0  0  0  0  0  0  0
   11.8691   42.3064   18.6178 C   0  0  0  0  0  0  0  0  0  0  0  0
   11.6810   42.6421   20.9745 C   0  0  0  0  0  0  0  0  0  0  0  0
   10.5655   41.8294   20.9770 C   0  0  0  0  0  0  0  0  0  0  0  0
   10.0540   41.1937   19.8354 C   0  0  0  0  0  0  0  0  0  0  0  0
    9.2011   39.0505   19.0515 C   0  0  0  0  0  0  0  0  0  0  0  0
    7.8098   40.2855   20.7147 C   0  0  0  0  0  0  0  0  0  0  0  0
    7.0062   41.4200   20.7489 C   0  0  0  0  0  0  0  0  0  0  0  0
    5.8944   41.4443   21.4992 N   0  0  0  0  0  0  0  0  0  0  0  0
    5.5242   40.3853   22.2343 C   0  0  0  0  0  0  0  0  0  0  0  0
    6.2865   39.2220   22.2407 C   0  0  0  0  0  0  0  0  0  0  0  0
    7.4431   39.1767   21.4698 C   0  0  0  0  0  0  0  0  0  0  0  0
    5.8640   38.0234   23.0744 C   0  0  0  0  0  0  0  0  0  0  0  0
    5.5470   37.1243   23.6996 N   0  0  0  0  0  0  0  0  0  0  0  0
  1  8  1  0
  2  3  1  0
  3  5  2  0
  3  6  1  0
  4  5  1  0
  4  8  2  0
  6  7  2  0
  7  8  1  0
  1  9  1  0
 10 11  2  0
 11 12  1  0
 12 13  2  0
 13 14  1  0
 14 15  2  0
 15 10  1  0
  1 10  1  0
 16 17  3  0
 14 16  1  0
M  END
>  <ESTIMATED_AFFINITY_LOWER [nM]>  (22) 
3332.432618

>  <ESTIMATED_AFFINITY_UPPER [nM]>  (22) 
331096.883514

>  <TPSA>  (22) 
39.92

>  <logP>  (22) 
2.91574

>  <ID>  (22) 
DLS-ACVR1A-DF022

>  <original SMILES>  (22) 
Cc1ccc(N(C)c2cncc(C#N)c2)cc1

>  <ref_mols>  (22) 
x1344_0B

>  <ref_pdb>  (22) 
x1344_0B

$$$$
DLS-ACVR1A-DF023
     RDKit          3D

 17 18  0  0  0  0  0  0  0  0999 V2000
    9.0319   40.2392   19.8999 N   0  0  0  0  0  0  0  0  0  0  0  0
   13.6656   43.5886   19.9120 C   0  0  0  0  0  0  0  0  0  0  0  0
   12.3657   42.8679   19.8253 C   0  0  0  0  0  0  0  0  0  0  0  0
   10.7160   41.4680   18.6076 C   0  0  0  0  0  0  0  0  0  0  0  0
   11.8691   42.3062   18.6179 C   0  0  0  0  0  0  0  0  0  0  0  0
   11.6808   42.6421   20.9746 C   0  0  0  0  0  0  0  0  0  0  0  0
   10.5654   41.8295   20.9772 C   0  0  0  0  0  0  0  0  0  0  0  0
   10.0539   41.1937   19.8357 C   0  0  0  0  0  0  0  0  0  0  0  0
    7.8097   40.2855   20.7150 C   0  0  0  0  0  0  0  0  0  0  0  0
    7.0062   41.4200   20.7494 C   0  0  0  0  0  0  0  0  0  0  0  0
    5.8944   41.4444   21.4997 N   0  0  0  0  0  0  0  0  0  0  0  0
    5.5242   40.3854   22.2347 C   0  0  0  0  0  0  0  0  0  0  0  0
    6.2863   39.2220   22.2409 C   0  0  0  0  0  0  0  0  0  0  0  0
    7.4429   39.1767   21.4700 C   0  0  0  0  0  0  0  0  0  0  0  0
    5.8637   38.0234   23.0746 C   0  0  0  0  0  0  0  0  0  0  0  0
    5.5467   37.1242   23.6997 N   0  0  0  0  0  0  0  0  0  0  0  0
    9.2009   39.0505   19.0517 C   0  0  0  0  0  0  0  0  0  0  0  0
  1  8  1  0
  2  3  1  0
  3  5  2  0
  3  6  1  0
  4  5  1  0
  4  8  2  0
  6  7  2  0
  7  8  1  0
 13 15  1  0
  9 10  2  0
 10 11  1  0
 11 12  2  0
 12 13  1  0
 13 14  2  0
 14  9  1  0
  1  9  1  0
 15 16  3  0
  1 17  1  0
M  END
>  <ESTIMATED_AFFINITY_LOWER [nM]>  (23) 
3338.207601

>  <ESTIMATED_AFFINITY_UPPER [nM]>  (23) 
331670.662246

>  <TPSA>  (23) 
39.92

>  <logP>  (23) 
2.91574

>  <ID>  (23) 
DLS-ACVR1A-DF023

>  <original SMILES>  (23) 
Cc1ccc(N(C)c2cncc(C#N)c2)cc1

>  <ref_mols>  (23) 
x1344_0B

>  <ref_pdb>  (23) 
x1344_0B

$$$$
DLS-ACVR1A-DF024
     RDKit          3D

 16 17  0  0  0  0  0  0  0  0999 V2000
    8.6679   39.8659   20.1120 N   0  0  0  0  0  0  0  0  0  0  0  0
   13.3873   43.0888   19.9382 C   0  0  0  0  0  0  0  0  0  0  0  0
   12.0698   42.3973   19.8890 C   0  0  0  0  0  0  0  0  0  0  0  0
   10.3935   40.9594   18.7545 C   0  0  0  0  0  0  0  0  0  0  0  0
   11.5680   41.7665   18.7183 C   0  0  0  0  0  0  0  0  0  0  0  0
   11.3704   42.2689   21.0444 C   0  0  0  0  0  0  0  0  0  0  0  0
   10.2340   41.4872   21.0923 C   0  0  0  0  0  0  0  0  0  0  0  0
    9.7150   40.7873   19.9921 C   0  0  0  0  0  0  0  0  0  0  0  0
    7.4301   40.0096   20.8916 C   0  0  0  0  0  0  0  0  0  0  0  0
    6.7980   41.2412   21.0239 C   0  0  0  0  0  0  0  0  0  0  0  0
    5.6690   41.3534   21.7400 N   0  0  0  0  0  0  0  0  0  0  0  0
    5.1176   40.2916   22.3460 C   0  0  0  0  0  0  0  0  0  0  0  0
    5.7030   39.0338   22.2498 C   0  0  0  0  0  0  0  0  0  0  0  0
    6.8740   38.8962   21.5124 C   0  0  0  0  0  0  0  0  0  0  0  0
    3.9802   37.3634   22.1645 O   0  0  0  0  0  0  0  0  0  0  0  0
    5.0752   37.8323   22.9373 C   0  0  0  0  0  0  0  0  0  0  0  0
  1  8  1  0
  2  3  1  0
  3  5  2  0
  3  6  1  0
  4  5  1  0
  4  8  2  0
  6  7  2  0
  7  8  1  0
  9 10  2  0
 10 11  1  0
 11 12  2  0
 12 13  1  0
 13 14  2  0
 14  9  1  0
  1  9  1  0
 15 16  1  0
 13 16  1  0
M  END
>  <ESTIMATED_AFFINITY_LOWER [nM]>  (24) 
3472.537599

>  <ESTIMATED_AFFINITY_UPPER [nM]>  (24) 
345017.141713

>  <TPSA>  (24) 
45.15

>  <logP>  (24) 
1.72331

>  <ID>  (24) 
DLS-ACVR1A-DF024

>  <original SMILES>  (24) 
Cc1ccc(Nc2cncc(CO)c2)cc1

>  <ref_mols>  (24) 
x1344_0B

>  <ref_pdb>  (24) 
x1344_0B

$$$$
DLS-ACVR1A-DF025
     RDKit          3D

 14 15  0  0  0  0  0  0  0  0999 V2000
    8.5948   39.4013   21.0965 N   0  0  0  0  0  0  0  0  0  0  0  0
   12.9904   42.5968   19.3198 C   0  0  0  0  0  0  0  0  0  0  0  0
   11.7341   41.8772   19.6664 C   0  0  0  0  0  0  0  0  0  0  0  0
   10.0262   40.1259   19.2412 C   0  0  0  0  0  0  0  0  0  0  0  0
   11.1207   40.9281   18.8044 C   0  0  0  0  0  0  0  0  0  0  0  0
   11.2157   42.0550   20.9075 C   0  0  0  0  0  0  0  0  0  0  0  0
   10.1586   41.2817   21.3426 C   0  0  0  0  0  0  0  0  0  0  0  0
    9.5432   40.2855   20.5689 C   0  0  0  0  0  0  0  0  0  0  0  0
    7.2591   39.7238   21.6186 C   0  0  0  0  0  0  0  0  0  0  0  0
    6.6505   40.9437   21.3435 C   0  0  0  0  0  0  0  0  0  0  0  0
    5.4310   41.2208   21.8291 N   0  0  0  0  0  0  0  0  0  0  0  0
    4.7643   40.3390   22.5886 C   0  0  0  0  0  0  0  0  0  0  0  0
    5.3206   39.1022   22.8976 C   0  0  0  0  0  0  0  0  0  0  0  0
    6.5842   38.7957   22.4042 C   0  0  0  0  0  0  0  0  0  0  0  0
  1  8  1  0
  2  3  1  0
  3  5  2  0
  3  6  1  0
  4  5  1  0
  4  8  2  0
  6  7  2  0
  7  8  1  0
  9 10  2  0
 10 11  1  0
 11 12  2  0
 12 13  1  0
 13 14  2  0
 14  9  1  0
  1  9  1  0
M  END
>  <ESTIMATED_AFFINITY_LOWER [nM]>  (25) 
8072.883680

>  <ESTIMATED_AFFINITY_UPPER [nM]>  (25) 
802088.724309

>  <TPSA>  (25) 
24.92

>  <logP>  (25) 
2.88153

>  <ID>  (25) 
DLS-ACVR1A-DF025

>  <original SMILES>  (25) 
Cc1ccc(Nc2cccnc2)cc1

>  <ref_mols>  (25) 
x1344_0B

>  <ref_pdb>  (25) 
x1344_0B

$$$$
