ver_1.2
     RDKit          3D

 14 15  0  0  0  0  0  0  0  0999 V2000
   -3.1266    1.1470    0.2102 C   0  0  0  0  0  0  0  0  0  0  0  0
   -2.1953    0.0747    0.0603 N   0  0  0  0  0  0  0  0  0  0  0  0
   -2.4850   -1.2340   -0.0120 C   0  0  0  0  0  0  0  0  0  0  0  0
   -1.3643   -1.9577   -0.1514 N   0  0  0  0  0  0  0  0  0  0  0  0
   -0.3460   -1.0837   -0.1671 C   0  0  0  0  0  0  0  0  0  0  0  0
   -0.8699    0.1803   -0.0349 C   0  0  0  0  0  0  0  0  0  0  0  0
   -0.0108    1.2709   -0.0226 C   0  0  0  0  0  0  0  0  0  0  0  0
   -0.4723    2.4212    0.0966 O   0  0  0  0  0  0  0  0  0  0  0  0
    1.3169    1.1112   -0.1371 N   0  0  0  0  0  0  0  0  0  0  0  0
    1.7899   -0.1332   -0.2640 C   0  0  0  0  0  0  0  0  0  0  0  0
    3.0351   -0.2777   -0.3710 O   0  0  0  0  0  0  0  0  0  0  0  0
    1.0068   -1.2255   -0.2823 N   0  0  0  0  0  0  0  0  0  0  0  0
    1.5199   -2.5714   -0.4196 C   0  0  0  0  0  0  0  0  0  0  0  0
    2.2016    2.2777   -0.1213 C   0  0  0  0  0  0  0  0  0  0  0  0
  1  2  1  0
  2  3  1  0
  3  4  2  0
  4  5  1  0
  5  6  2  0
  6  7  1  0
  7  8  2  0
  7  9  1  0
  9 10  1  0
 10 11  2  0
 10 12  1  0
 12 13  1  0
  9 14  1  0
  6  2  1  0
 12  5  1  0
M  END
>  <ref_url>  (1) 
https://github.com/matteoferla/EV-D68-3C-protease

>  <submitter_name>  (1) 
Matteo Ferla

>  <submitter_email>  (1) 
matteo.ferla@stats.ox.ac.uk

>  <submitter_institution>  (1) 
University of Oxford

>  <generation_date>  (1) 
2023-01-01

>  <method>  (1) 
Arthorian Quest - sulfonamide

$$$$
CSMB06367741073
     RDKit          3D

 17 18  0  0  0  0  0  0  0  0999 V2000
   -5.5484   -5.9453   -3.9994 C   0  0  0  0  0  0  0  0  0  0  0  0
   -7.0182   -5.9159   -3.9992 N   0  0  0  0  0  0  0  0  0  0  0  0
   -7.4999   -4.8560   -4.9087 C   0  0  0  0  0  0  0  0  0  0  0  0
   -8.9936   -5.0569   -5.1519 C   0  0  1  0  0  0  0  0  0  0  0  0
   -9.7642   -4.8285   -3.8657 C   0  0  0  0  0  0  0  0  0  0  0  0
   -9.3980   -5.8564   -2.8121 C   0  0  0  0  0  0  0  0  0  0  0  0
   -7.6578   -5.7669   -2.4281 S   0  0  0  0  0  0  0  0  0  0  0  0
   -7.3493   -4.4351   -1.9570 O   0  0  0  0  0  0  0  0  0  0  0  0
   -7.2805   -6.9470   -1.6852 O   0  0  0  0  0  0  0  0  0  0  0  0
   -9.4624   -4.1025   -6.1426 N   0  0  0  0  0  0  0  0  0  0  0  0
   -9.7356   -4.8295   -7.3745 C   0  0  0  0  0  0  0  0  0  0  0  0
   -8.6130   -4.6470   -8.3184 C   0  0  0  0  0  0  0  0  0  0  0  0
   -8.3842   -3.4702   -9.0880 C   0  0  0  0  0  0  0  0  0  0  0  0
   -7.3431   -3.4500   -9.9141 N   0  0  0  0  0  0  0  0  0  0  0  0
   -6.5747   -4.9190   -9.7908 S   0  0  0  0  0  0  0  0  0  0  0  0
   -7.6421   -5.5684   -8.6406 C   0  0  0  0  0  0  0  0  0  0  0  0
   -7.4902   -7.3255   -7.9207 Br  0  0  0  0  0  0  0  0  0  0  0  0
  1  2  1  0
  2  3  1  0
  3  4  1  0
  4  5  1  0
  5  6  1  0
  6  7  1  0
  7  8  2  0
  7  9  2  0
  4 10  1  6
 10 11  1  0
 11 12  1  0
 12 13  1  0
 13 14  2  0
 14 15  1  0
 15 16  1  0
 16 17  1  0
  7  2  1  0
 16 12  2  0
M  END
>  <ref_pdb>  (1) 
X0147_0A

>  <ref_mols>  (1) 
x1594,x1604,x1140

>  <original SMILES>  (1) 
CN1C[C@H](NCc2cnsc2Br)CCS1(=O)=O

$$$$
CSMB06614793076
     RDKit          3D

 17 18  0  0  0  0  0  0  0  0999 V2000
   -5.8005   -6.4908   -4.0452 C   0  0  0  0  0  0  0  0  0  0  0  0
   -7.2292   -6.1621   -3.9322 N   0  0  0  0  0  0  0  0  0  0  0  0
   -7.6032   -5.1834   -4.9725 C   0  0  0  0  0  0  0  0  0  0  0  0
   -9.1280   -5.1114   -5.0568 C   0  0  1  0  0  0  0  0  0  0  0  0
   -9.6811   -4.5173   -3.7752 C   0  0  0  0  0  0  0  0  0  0  0  0
   -9.4004   -5.4158   -2.5858 C   0  0  0  0  0  0  0  0  0  0  0  0
   -7.6431   -5.6344   -2.3660 S   0  0  0  0  0  0  0  0  0  0  0  0
   -7.0298   -4.3401   -2.1680 O   0  0  0  0  0  0  0  0  0  0  0  0
   -7.4166   -6.7346   -1.4576 O   0  0  0  0  0  0  0  0  0  0  0  0
   -9.5145   -4.2692   -6.1338 O   0  0  0  0  0  0  0  0  0  0  0  0
   -9.6181   -5.0674   -7.3071 C   0  0  0  0  0  0  0  0  0  0  0  0
   -8.5848   -4.7227   -8.3024 C   0  0  0  0  0  0  0  0  0  0  0  0
   -8.5257   -3.4923   -9.0151 C   0  0  0  0  0  0  0  0  0  0  0  0
   -7.5437   -3.3216   -9.8947 N   0  0  0  0  0  0  0  0  0  0  0  0
   -6.6167   -4.7016   -9.8882 S   0  0  0  0  0  0  0  0  0  0  0  0
   -7.5402   -5.5156   -8.7186 C   0  0  0  0  0  0  0  0  0  0  0  0
   -7.1591   -7.2742   -8.0943 Br  0  0  0  0  0  0  0  0  0  0  0  0
  1  2  1  0
  2  3  1  0
  3  4  1  0
  4  5  1  0
  5  6  1  0
  6  7  1  0
  7  8  2  0
  7  9  2  0
  4 10  1  6
 10 11  1  0
 11 12  1  0
 12 13  1  0
 13 14  2  0
 14 15  1  0
 15 16  1  0
 16 17  1  0
  7  2  1  0
 16 12  2  0
M  END
>  <ref_pdb>  (2) 
X0147_0A

>  <ref_mols>  (2) 
x1594,x1604,x1140

>  <original SMILES>  (2) 
CN1C[C@H](OCc2cnsc2Br)CCS1(=O)=O

$$$$
PV-007100776493
     RDKit          3D

 15 15  0  0  0  0  0  0  0  0999 V2000
   -9.3798   -7.0024   -4.0054 C   0  0  0  0  0  0  0  0  0  0  0  0
   -8.9853   -5.5555   -3.8445 C   0  0  2  0  0  0  0  0  0  0  0  0
   -9.0134   -4.8125   -5.1395 C   0  0  0  0  0  0  0  0  0  0  0  0
   -9.7837   -3.8677   -5.2974 O   0  0  0  0  0  0  0  0  0  0  0  0
   -8.1670   -5.3381   -6.0953 N   0  0  0  0  0  0  0  0  0  0  0  0
   -7.9935   -4.8341   -7.3757 C   0  0  0  0  0  0  0  0  0  0  0  0
   -8.6139   -3.7267   -7.9058 C   0  0  0  0  0  0  0  0  0  0  0  0
   -8.1020   -3.4766   -9.5056 S   0  0  0  0  0  0  0  0  0  0  0  0
   -7.0750   -4.7834   -9.5558 N   0  0  0  0  0  0  0  0  0  0  0  0
   -7.1261   -5.3844   -8.3697 C   0  0  0  0  0  0  0  0  0  0  0  0
   -6.0743   -6.9288   -8.0354 Br  0  0  0  0  0  0  0  0  0  0  0  0
   -7.4353   -5.3447   -3.0306 S   0  0  0  0  0  0  0  0  0  0  0  0
   -6.4814   -6.5122   -3.8313 N   0  0  0  0  0  0  0  0  0  0  0  0
   -6.9112   -4.0308   -3.3434 O   0  0  0  0  0  0  0  0  0  0  0  0
   -7.6105   -5.7668   -1.6543 O   0  0  0  0  0  0  0  0  0  0  0  0
  2  1  1  6
  2  3  1  0
  3  4  2  0
  3  5  1  0
  5  6  1  0
  6  7  2  0
  7  8  1  0
  8  9  1  0
  9 10  2  0
 10 11  1  0
  2 12  1  0
 12 13  1  0
 12 14  2  0
 12 15  2  0
 10  6  1  0
M  END
>  <ref_pdb>  (3) 
X0147_0A

>  <ref_mols>  (3) 
x1594,x1604,x1140

>  <original SMILES>  (3) 
C[C@H](C(=O)Nc1csnc1Br)S(N)(=O)=O

$$$$
PV-006843820453
     RDKit          3D

 15 15  0  0  0  0  0  0  0  0999 V2000
   -9.4208   -6.9416   -4.0488 C   0  0  0  0  0  0  0  0  0  0  0  0
   -8.9723   -5.5089   -3.9012 C   0  0  2  0  0  0  0  0  0  0  0  0
   -8.9556   -4.7857   -5.2073 C   0  0  0  0  0  0  0  0  0  0  0  0
   -9.6978   -3.8249   -5.3982 O   0  0  0  0  0  0  0  0  0  0  0  0
   -8.1051   -5.3441   -6.1399 N   0  0  0  0  0  0  0  0  0  0  0  0
   -7.9220   -4.8555   -7.4238 C   0  0  0  0  0  0  0  0  0  0  0  0
   -7.0613   -5.4229   -8.3356 C   0  0  0  0  0  0  0  0  0  0  0  0
   -5.9645   -6.9559   -8.0466 Br  0  0  0  0  0  0  0  0  0  0  0  0
   -7.1040   -4.5549   -9.7957 S   0  0  0  0  0  0  0  0  0  0  0  0
   -8.2275   -3.4381   -9.2925 N   0  0  0  0  0  0  0  0  0  0  0  0
   -8.5467   -3.7275   -8.0338 C   0  0  0  0  0  0  0  0  0  0  0  0
   -7.4250   -5.3490   -3.0703 S   0  0  0  0  0  0  0  0  0  0  0  0
   -6.5104   -6.5683   -3.8393 N   0  0  0  0  0  0  0  0  0  0  0  0
   -6.8426   -4.0635   -3.3979 O   0  0  0  0  0  0  0  0  0  0  0  0
   -7.6344   -5.7406   -1.6899 O   0  0  0  0  0  0  0  0  0  0  0  0
  2  1  1  6
  2  3  1  0
  3  4  2  0
  3  5  1  0
  5  6  1  0
  6  7  2  0
  7  8  1  0
  7  9  1  0
  9 10  1  0
 10 11  2  0
  2 12  1  0
 12 13  1  0
 12 14  2  0
 12 15  2  0
 11  6  1  0
M  END
>  <ref_pdb>  (4) 
X0147_0A

>  <ref_mols>  (4) 
x1594,x1604,x1140

>  <original SMILES>  (4) 
C[C@H](C(=O)Nc1cnsc1Br)S(N)(=O)=O

$$$$
CSMB00115022327
     RDKit          3D

 17 18  0  0  0  0  0  0  0  0999 V2000
   -5.2213   -6.5049   -2.1536 C   0  0  0  0  0  0  0  0  0  0  0  0
   -6.2603   -6.9164   -3.1085 N   0  0  0  0  0  0  0  0  0  0  0  0
   -7.1997   -7.8450   -2.4605 C   0  0  0  0  0  0  0  0  0  0  0  0
   -8.0404   -8.4979   -3.5399 C   0  0  0  0  0  0  0  0  0  0  0  0
   -8.9107   -7.4686   -4.2317 C   0  0  0  0  0  0  0  0  0  0  0  0
   -8.0759   -6.4573   -5.0097 C   0  0  1  0  0  0  0  0  0  0  0  0
   -8.9254   -5.4123   -5.7045 C   0  0  2  0  0  0  0  0  0  0  0  0
  -10.1793   -5.9432   -6.2235 N   0  0  0  0  0  0  0  0  0  0  0  0
   -8.2431   -4.6882   -6.8102 C   0  0  0  0  0  0  0  0  0  0  0  0
   -8.1238   -3.3147   -6.8461 C   0  0  0  0  0  0  0  0  0  0  0  0
   -7.2797   -2.8257   -8.2337 S   0  0  0  0  0  0  0  0  0  0  0  0
   -7.0562   -4.3566   -8.8333 N   0  0  0  0  0  0  0  0  0  0  0  0
   -7.6029   -5.2170   -7.9789 C   0  0  0  0  0  0  0  0  0  0  0  0
   -7.5132   -7.0777   -8.3451 Br  0  0  0  0  0  0  0  0  0  0  0  0
   -7.0168   -5.5925   -3.8560 S   0  0  0  0  0  0  0  0  0  0  0  0
   -6.0033   -4.8665   -4.5854 O   0  0  0  0  0  0  0  0  0  0  0  0
   -7.8450   -4.9415   -2.8642 O   0  0  0  0  0  0  0  0  0  0  0  0
  1  2  1  0
  2  3  1  0
  3  4  1  0
  4  5  1  0
  6  5  1  1
  6  7  1  0
  7  8  1  6
  7  9  1  0
  9 10  2  0
 10 11  1  0
 11 12  1  0
 12 13  2  0
 13 14  1  0
  6 15  1  0
 15 16  2  0
 15 17  2  0
 15  2  1  0
 13  9  1  0
M  END
>  <ref_pdb>  (5) 
X0147_0A

>  <ref_mols>  (5) 
x1594,x1604,x1140

>  <original SMILES>  (5) 
CN1CCC[C@@H]([C@H](N)c2csnc2Br)S1(=O)=O

$$$$
Z5206887023
     RDKit          3D

 15 16  0  0  0  0  0  0  0  0999 V2000
   -8.3165   -4.3094   -2.0786 O   0  0  0  0  0  0  0  0  0  0  0  0
   -7.5190   -5.4253   -2.5478 S   0  0  0  0  0  0  0  0  0  0  0  0
   -6.6383   -6.1503   -1.6580 O   0  0  0  0  0  0  0  0  0  0  0  0
   -8.6126   -6.5878   -3.3286 C   0  0  0  0  0  0  0  0  0  0  0  0
   -9.3240   -5.8630   -4.4522 C   0  0  0  0  0  0  0  0  0  0  0  0
   -8.3817   -5.4622   -5.4888 N   0  0  0  0  0  0  0  0  0  0  0  0
   -9.1556   -4.8873   -6.5820 C   0  0  0  0  0  0  0  0  0  0  0  0
   -8.3099   -4.7159   -7.7867 C   0  0  0  0  0  0  0  0  0  0  0  0
   -7.8277   -5.6915   -8.6308 C   0  0  0  0  0  0  0  0  0  0  0  0
   -8.0280   -7.3855   -8.5710 Cl  0  0  0  0  0  0  0  0  0  0  0  0
   -6.9057   -4.9471   -9.8469 S   0  0  0  0  0  0  0  0  0  0  0  0
   -7.1795   -3.4106   -9.2306 N   0  0  0  0  0  0  0  0  0  0  0  0
   -7.9334   -3.4227   -8.1416 N   0  0  0  0  0  0  0  0  0  0  0  0
   -7.5413   -4.4013   -4.9386 C   0  0  0  0  0  0  0  0  0  0  0  0
   -6.6446   -4.9221   -3.9104 N   0  0  0  0  0  0  0  0  0  0  0  0
  1  2  2  0
  2  3  2  0
  2  4  1  0
  4  5  1  0
  5  6  1  0
  6  7  1  0
  7  8  1  0
  8  9  2  0
  9 10  1  0
  9 11  1  0
 11 12  1  0
 12 13  2  0
  6 14  1  0
 14 15  1  0
 15  2  1  0
 13  8  1  0
M  END
>  <ref_pdb>  (6) 
X0147_0A

>  <ref_mols>  (6) 
x1594,x1604,x1140

>  <original SMILES>  (6) 
O=S1(=O)CCN(Cc2nnsc2Cl)CN1

$$$$
Z5206889643
     RDKit          3D

 16 17  0  0  0  0  0  0  0  0999 V2000
   -8.8352   -2.1875   -8.0566 C   0  0  0  0  0  0  0  0  0  0  0  0
   -8.3181   -3.4827   -8.4297 N   0  0  0  0  0  0  0  0  0  0  0  0
   -7.6402   -3.6104   -9.5754 N   0  0  0  0  0  0  0  0  0  0  0  0
   -7.2940   -4.8868   -9.6832 N   0  0  0  0  0  0  0  0  0  0  0  0
   -7.7695   -5.5460   -8.5838 C   0  0  0  0  0  0  0  0  0  0  0  0
   -7.5311   -7.3907   -8.3114 Br  0  0  0  0  0  0  0  0  0  0  0  0
   -8.4287   -4.6629   -7.7574 C   0  0  0  0  0  0  0  0  0  0  0  0
   -9.1481   -4.8045   -6.4850 C   0  0  0  0  0  0  0  0  0  0  0  0
   -8.3197   -5.3891   -5.4487 N   0  0  0  0  0  0  0  0  0  0  0  0
   -9.2109   -6.0256   -4.4880 C   0  0  0  0  0  0  0  0  0  0  0  0
   -8.4286   -6.7657   -3.4237 C   0  0  0  0  0  0  0  0  0  0  0  0
   -7.5287   -5.5512   -2.4910 S   0  0  0  0  0  0  0  0  0  0  0  0
   -8.4833   -4.5961   -1.9621 O   0  0  0  0  0  0  0  0  0  0  0  0
   -6.5878   -6.2331   -1.6298 O   0  0  0  0  0  0  0  0  0  0  0  0
   -6.6877   -4.8117   -3.7640 N   0  0  0  0  0  0  0  0  0  0  0  0
   -7.6119   -4.3095   -4.7751 C   0  0  0  0  0  0  0  0  0  0  0  0
  1  2  1  0
  2  3  1  0
  3  4  2  0
  4  5  1  0
  5  6  1  0
  5  7  2  0
  7  8  1  0
  8  9  1  0
  9 10  1  0
 10 11  1  0
 11 12  1  0
 12 13  2  0
 12 14  2  0
 12 15  1  0
 15 16  1  0
  7  2  1  0
 16  9  1  0
M  END
>  <ref_pdb>  (7) 
X0147_0A

>  <ref_mols>  (7) 
x1594,x1604,x1140

>  <original SMILES>  (7) 
Cn1nnc(Br)c1CN1CCS(=O)(=O)NC1

$$$$
CSMB03560194047
     RDKit          3D

 16 17  0  0  0  0  0  0  0  0999 V2000
   -8.8380   -2.1918   -8.0527 C   0  0  0  0  0  0  0  0  0  0  0  0
   -8.3194   -3.4860   -8.4270 N   0  0  0  0  0  0  0  0  0  0  0  0
   -7.6416   -3.6117   -9.5729 N   0  0  0  0  0  0  0  0  0  0  0  0
   -7.2939   -4.8877   -9.6819 N   0  0  0  0  0  0  0  0  0  0  0  0
   -7.7685   -5.5484   -8.5831 C   0  0  0  0  0  0  0  0  0  0  0  0
   -7.5280   -7.3930   -8.3124 Br  0  0  0  0  0  0  0  0  0  0  0  0
   -8.4286   -4.6669   -7.7558 C   0  0  0  0  0  0  0  0  0  0  0  0
   -9.1477   -4.8104   -6.4835 C   0  0  0  0  0  0  0  0  0  0  0  0
   -8.3186   -5.3950   -5.4478 N   0  0  0  0  0  0  0  0  0  0  0  0
   -9.2090   -6.0334   -4.4875 C   0  0  0  0  0  0  0  0  0  0  0  0
   -8.4257   -6.7737   -3.4241 C   0  0  0  0  0  0  0  0  0  0  0  0
   -7.5272   -5.5590   -2.4903 S   0  0  0  0  0  0  0  0  0  0  0  0
   -8.4828   -4.6055   -1.9604 O   0  0  0  0  0  0  0  0  0  0  0  0
   -6.5854   -6.2406   -1.6298 O   0  0  0  0  0  0  0  0  0  0  0  0
   -6.6872   -4.8173   -3.7626 N   0  0  0  0  0  0  0  0  0  0  0  0
   -7.6119   -4.3153   -4.7734 C   0  0  0  0  0  0  0  0  0  0  0  0
  1  2  1  0
  2  3  1  0
  3  4  2  0
  4  5  1  0
  5  6  1  0
  5  7  2  0
  7  8  1  0
  8  9  1  0
  9 10  1  0
 10 11  1  0
 11 12  1  0
 12 13  2  0
 12 14  2  0
 12 15  1  0
 15 16  1  0
  7  2  1  0
 16  9  1  0
M  END
>  <ref_pdb>  (8) 
X0147_0A

>  <ref_mols>  (8) 
x1594,x1604,x1140

>  <original SMILES>  (8) 
Cn1nnc(Br)c1CN1CCS(=O)(=O)NC1

$$$$
CSMB06661029375
     RDKit          3D

 16 17  0  0  0  0  0  0  0  0999 V2000
   -7.0211   -7.1063   -7.7898 Br  0  0  0  0  0  0  0  0  0  0  0  0
   -7.7104   -5.5336   -8.5950 C   0  0  0  0  0  0  0  0  0  0  0  0
   -7.0459   -4.9382   -9.5800 N   0  0  0  0  0  0  0  0  0  0  0  0
   -7.9147   -3.6010  -10.0451 S   0  0  0  0  0  0  0  0  0  0  0  0
   -9.1742   -3.8243   -8.9280 C   0  0  0  0  0  0  0  0  0  0  0  0
   -8.9299   -4.9368   -8.1536 C   0  0  0  0  0  0  0  0  0  0  0  0
   -9.7940   -5.4274   -7.0555 C   0  0  0  0  0  0  0  0  0  0  0  0
   -9.7287   -4.5119   -5.9198 N   0  0  0  0  0  0  0  0  0  0  0  0
   -8.5279   -4.8022   -5.1499 C   0  0  1  0  0  0  0  0  0  0  0  0
   -7.5190   -3.6980   -5.4081 C   0  0  0  0  0  0  0  0  0  0  0  0
   -6.1887   -3.9517   -4.7213 C   0  0  0  0  0  0  0  0  0  0  0  0
   -6.2326   -5.2182   -3.9723 N   0  0  0  0  0  0  0  0  0  0  0  0
   -7.4045   -5.2276   -2.7351 S   0  0  0  0  0  0  0  0  0  0  0  0
   -7.1659   -4.0829   -1.8815 O   0  0  0  0  0  0  0  0  0  0  0  0
   -7.5064   -6.5692   -2.2051 O   0  0  0  0  0  0  0  0  0  0  0  0
   -8.8736   -4.8928   -3.6832 C   0  0  0  0  0  0  0  0  0  0  0  0
  1  2  1  0
  2  3  2  0
  3  4  1  0
  4  5  1  0
  5  6  2  0
  6  7  1  0
  7  8  1  0
  9  8  1  6
  9 10  1  0
 10 11  1  0
 11 12  1  0
 12 13  1  0
 13 14  2  0
 13 15  2  0
 13 16  1  0
  6  2  1  0
 16  9  1  0
M  END
>  <ref_pdb>  (9) 
X0147_0A

>  <ref_mols>  (9) 
x1594,x1604,x1140

>  <original SMILES>  (9) 
O=S1(=O)C[C@@H](NCc2csnc2Br)CCN1

$$$$
CSMB00115030801
     RDKit          3D

 18 19  0  0  0  0  0  0  0  0999 V2000
   -4.1325   -7.3666   -2.5224 C   0  0  0  0  0  0  0  0  0  0  0  0
   -5.3653   -6.6526   -2.0248 C   0  0  0  0  0  0  0  0  0  0  0  0
   -6.4761   -6.9573   -2.9395 N   0  0  0  0  0  0  0  0  0  0  0  0
   -7.5180   -7.7198   -2.2314 C   0  0  0  0  0  0  0  0  0  0  0  0
   -8.4647   -8.2978   -3.2648 C   0  0  0  0  0  0  0  0  0  0  0  0
   -9.2040   -7.1899   -3.9868 C   0  0  0  0  0  0  0  0  0  0  0  0
   -8.2601   -6.3355   -4.8233 C   0  0  1  0  0  0  0  0  0  0  0  0
   -8.9542   -5.2106   -5.5631 C   0  0  2  0  0  0  0  0  0  0  0  0
  -10.6004   -5.6236   -6.1122 Cl  0  0  0  0  0  0  0  0  0  0  0  0
   -8.2049   -4.6658   -6.7254 C   0  0  0  0  0  0  0  0  0  0  0  0
   -7.9140   -3.3252   -6.8659 C   0  0  0  0  0  0  0  0  0  0  0  0
   -7.0392   -3.0512   -8.2929 S   0  0  0  0  0  0  0  0  0  0  0  0
   -7.0186   -4.6387   -8.7749 N   0  0  0  0  0  0  0  0  0  0  0  0
   -7.6558   -5.3571   -7.8546 C   0  0  0  0  0  0  0  0  0  0  0  0
   -7.8061   -7.2358   -8.0807 Br  0  0  0  0  0  0  0  0  0  0  0  0
   -7.0662   -5.5753   -3.7310 S   0  0  0  0  0  0  0  0  0  0  0  0
   -5.9854   -5.0238   -4.5141 O   0  0  0  0  0  0  0  0  0  0  0  0
   -7.7758   -4.7764   -2.7559 O   0  0  0  0  0  0  0  0  0  0  0  0
  1  2  1  0
  2  3  1  0
  3  4  1  0
  4  5  1  0
  5  6  1  0
  7  6  1  1
  7  8  1  0
  8  9  1  6
  8 10  1  0
 10 11  2  0
 11 12  1  0
 12 13  1  0
 13 14  2  0
 14 15  1  0
  7 16  1  0
 16 17  2  0
 16 18  2  0
 16  3  1  0
 14 10  1  0
M  END
>  <ref_pdb>  (10) 
X0147_0A

>  <ref_mols>  (10) 
x1594,x1604,x1140

>  <original SMILES>  (10) 
CCN1CCC[C@@H]([C@H](Cl)c2csnc2Br)S1(=O)=O

$$$$
Z3876286611
     RDKit          3D

 16 17  0  0  0  0  0  0  0  0999 V2000
   -6.4649   -4.3886   -4.5304 N   0  0  0  0  0  0  0  0  0  0  0  0
   -7.2737   -5.1259   -3.2217 S   0  0  0  0  0  0  0  0  0  0  0  0
   -7.1052   -4.3009   -2.0416 O   0  0  0  0  0  0  0  0  0  0  0  0
   -6.9374   -6.5362   -3.2002 O   0  0  0  0  0  0  0  0  0  0  0  0
   -8.9616   -4.9808   -3.7469 C   0  0  1  0  0  0  0  0  0  0  0  0
   -9.3414   -3.5450   -4.0375 C   0  0  0  0  0  0  0  0  0  0  0  0
   -9.8054   -3.5240   -5.4785 C   0  0  0  0  0  0  0  0  0  0  0  0
  -10.0682   -4.9144   -5.8192 N   0  0  0  0  0  0  0  0  0  0  0  0
   -9.9344   -5.1584   -7.2496 C   0  0  0  0  0  0  0  0  0  0  0  0
   -8.5757   -4.9099   -7.7889 C   0  0  0  0  0  0  0  0  0  0  0  0
   -7.5900   -5.8412   -8.0325 C   0  0  0  0  0  0  0  0  0  0  0  0
   -7.7152   -7.7147   -7.7110 Br  0  0  0  0  0  0  0  0  0  0  0  0
   -6.2107   -5.0844   -8.6738 S   0  0  0  0  0  0  0  0  0  0  0  0
   -6.8561   -3.5521   -8.6838 N   0  0  0  0  0  0  0  0  0  0  0  0
   -8.0970   -3.6387   -8.2187 C   0  0  0  0  0  0  0  0  0  0  0  0
   -9.1511   -5.7336   -5.0387 C   0  0  0  0  0  0  0  0  0  0  0  0
  1  2  1  0
  2  3  2  0
  2  4  2  0
  5  2  1  6
  5  6  1  0
  6  7  1  0
  7  8  1  0
  8  9  1  0
  9 10  1  0
 10 11  2  0
 11 12  1  0
 11 13  1  0
 13 14  1  0
 14 15  2  0
  8 16  1  0
 16  5  1  0
 15 10  1  0
M  END
>  <ref_pdb>  (11) 
X0147_0A

>  <ref_mols>  (11) 
x1594,x1604,x1140

>  <original SMILES>  (11) 
NS(=O)(=O)[C@H]1CCN(Cc2cnsc2Br)C1

$$$$
CSMB03460924821
     RDKit          3D

 18 19  0  0  0  0  0  0  0  0999 V2000
  -11.1359   -4.3559   -5.9495 C   0  0  0  0  0  0  0  0  0  0  0  0
  -10.2465   -5.4981   -6.0915 N   0  0  0  0  0  0  0  0  0  0  0  0
   -8.9048   -5.0757   -5.6915 C   0  0  1  0  0  0  0  0  0  0  0  0
   -8.1734   -6.1529   -4.9078 C   0  0  2  0  0  0  0  0  0  0  0  0
   -9.0930   -6.8690   -3.9239 C   0  0  0  0  0  0  0  0  0  0  0  0
   -8.3550   -7.9318   -3.1366 C   0  0  0  0  0  0  0  0  0  0  0  0
   -7.3224   -7.2945   -2.2288 C   0  0  0  0  0  0  0  0  0  0  0  0
   -6.2954   -6.6660   -3.0733 N   0  0  0  0  0  0  0  0  0  0  0  0
   -5.1197   -6.3193   -2.2625 C   0  0  0  0  0  0  0  0  0  0  0  0
   -6.8690   -5.3499   -3.9808 S   0  0  0  0  0  0  0  0  0  0  0  0
   -5.8109   -4.9526   -4.8806 O   0  0  0  0  0  0  0  0  0  0  0  0
   -7.4684   -4.4085   -3.0590 O   0  0  0  0  0  0  0  0  0  0  0  0
   -8.1872   -4.6121   -6.9134 C   0  0  0  0  0  0  0  0  0  0  0  0
   -7.6728   -5.3467   -7.9624 C   0  0  0  0  0  0  0  0  0  0  0  0
   -7.7329   -7.2422   -8.1615 Br  0  0  0  0  0  0  0  0  0  0  0  0
   -6.9506   -4.3151   -9.1050 S   0  0  0  0  0  0  0  0  0  0  0  0
   -7.2890   -2.9055   -8.2939 N   0  0  0  0  0  0  0  0  0  0  0  0
   -7.9124   -3.2347   -7.1688 C   0  0  0  0  0  0  0  0  0  0  0  0
  1  2  1  0
  3  2  1  6
  3  4  1  0
  4  5  1  1
  5  6  1  0
  6  7  1  0
  7  8  1  0
  8  9  1  0
  8 10  1  0
 10 11  2  0
 10 12  2  0
  3 13  1  0
 13 14  2  0
 14 15  1  0
 14 16  1  0
 16 17  1  0
 17 18  2  0
 10  4  1  0
 18 13  1  0
M  END
>  <ref_pdb>  (12) 
X0147_0A

>  <ref_mols>  (12) 
x1594,x1604,x1140

>  <original SMILES>  (12) 
CN[C@H](c1cnsc1Br)[C@@H]1CCCN(C)S1(=O)=O

$$$$
CSMB03555288767
     RDKit          3D

 15 16  0  0  0  0  0  0  0  0999 V2000
   -5.9997   -6.7725   -8.0020 Br  0  0  0  0  0  0  0  0  0  0  0  0
   -7.3564   -5.5243   -8.4813 C   0  0  0  0  0  0  0  0  0  0  0  0
   -7.4801   -4.7996  -10.0124 S   0  0  0  0  0  0  0  0  0  0  0  0
   -8.8470   -3.9183   -9.6656 N   0  0  0  0  0  0  0  0  0  0  0  0
   -9.1791   -4.1752   -8.4048 C   0  0  0  0  0  0  0  0  0  0  0  0
   -8.3695   -5.0811   -7.6612 C   0  0  0  0  0  0  0  0  0  0  0  0
   -8.6287   -5.4859   -6.2646 C   0  0  0  0  0  0  0  0  0  0  0  0
   -8.1398   -4.4566   -5.3636 N   0  0  0  0  0  0  0  0  0  0  0  0
   -9.0910   -4.1940   -4.2963 C   0  0  0  0  0  0  0  0  0  0  0  0
   -9.3388   -5.3275   -3.3244 C   0  0  0  0  0  0  0  0  0  0  0  0
   -7.7994   -5.7718   -2.5686 S   0  0  0  0  0  0  0  0  0  0  0  0
   -7.2694   -4.6101   -1.8865 O   0  0  0  0  0  0  0  0  0  0  0  0
   -7.9842   -7.0351   -1.8879 O   0  0  0  0  0  0  0  0  0  0  0  0
   -6.9009   -6.0412   -3.9811 N   0  0  0  0  0  0  0  0  0  0  0  0
   -6.8503   -4.8431   -4.8134 C   0  0  0  0  0  0  0  0  0  0  0  0
  1  2  1  0
  2  3  1  0
  3  4  1  0
  4  5  2  0
  5  6  1  0
  6  7  1  0
  7  8  1  0
  8  9  1  0
  9 10  1  0
 10 11  1  0
 11 12  2  0
 11 13  2  0
 11 14  1  0
 14 15  1  0
  6  2  2  0
 15  8  1  0
M  END
>  <ref_pdb>  (13) 
X0147_0A

>  <ref_mols>  (13) 
x1594,x1604,x1140

>  <original SMILES>  (13) 
O=S1(=O)CCN(Cc2cnsc2Br)CN1

$$$$
CSMB06366140232
     RDKit          3D

 17 18  0  0  0  0  0  0  0  0999 V2000
   -5.3026   -5.9242   -3.9420 C   0  0  0  0  0  0  0  0  0  0  0  0
   -6.7703   -5.8674   -3.9251 N   0  0  0  0  0  0  0  0  0  0  0  0
   -7.2720   -5.2532   -5.1647 C   0  0  0  0  0  0  0  0  0  0  0  0
   -8.7495   -5.5963   -5.3573 C   0  0  1  0  0  0  0  0  0  0  0  0
   -9.4607   -5.9814   -4.0720 C   0  0  0  0  0  0  0  0  0  0  0  0
   -9.1226   -5.0954   -2.8919 C   0  0  0  0  0  0  0  0  0  0  0  0
   -7.3736   -5.0835   -2.5443 S   0  0  0  0  0  0  0  0  0  0  0  0
   -6.9141   -3.7127   -2.5948 O   0  0  0  0  0  0  0  0  0  0  0  0
   -7.1079   -5.9326   -1.4060 O   0  0  0  0  0  0  0  0  0  0  0  0
   -9.4385   -4.4919   -6.0013 N   0  0  0  0  0  0  0  0  0  0  0  0
   -9.7005   -4.8826   -7.3814 C   0  0  0  0  0  0  0  0  0  0  0  0
   -8.6033   -4.4065   -8.2534 C   0  0  0  0  0  0  0  0  0  0  0  0
   -8.4443   -3.1091   -8.6886 C   0  0  0  0  0  0  0  0  0  0  0  0
   -7.0646   -2.9843   -9.6713 S   0  0  0  0  0  0  0  0  0  0  0  0
   -6.6551   -4.5922   -9.5790 N   0  0  0  0  0  0  0  0  0  0  0  0
   -7.5566   -5.1999   -8.8143 C   0  0  0  0  0  0  0  0  0  0  0  0
   -7.4204   -7.0629   -8.4804 Br  0  0  0  0  0  0  0  0  0  0  0  0
  1  2  1  0
  2  3  1  0
  3  4  1  0
  4  5  1  0
  5  6  1  0
  6  7  1  0
  7  8  2  0
  7  9  2  0
  4 10  1  1
 10 11  1  0
 11 12  1  0
 12 13  2  0
 13 14  1  0
 14 15  1  0
 15 16  2  0
 16 17  1  0
  7  2  1  0
 16 12  1  0
M  END
>  <ref_pdb>  (14) 
X0147_0A

>  <ref_mols>  (14) 
x1594,x1604,x1140

>  <original SMILES>  (14) 
CN1C[C@H](NCc2csnc2Br)CCS1(=O)=O

$$$$
Z5206889895
     RDKit          3D

 15 16  0  0  0  0  0  0  0  0999 V2000
   -6.3098   -4.8189   -2.1485 O   0  0  0  0  0  0  0  0  0  0  0  0
   -7.5522   -5.5085   -2.4283 S   0  0  0  0  0  0  0  0  0  0  0  0
   -8.2518   -6.2541   -1.4042 O   0  0  0  0  0  0  0  0  0  0  0  0
   -8.6814   -4.3282   -3.1314 C   0  0  0  0  0  0  0  0  0  0  0  0
   -9.1868   -4.8629   -4.4511 C   0  0  0  0  0  0  0  0  0  0  0  0
   -8.1364   -4.9799   -5.4565 N   0  0  0  0  0  0  0  0  0  0  0  0
   -8.6872   -5.7513   -6.5610 C   0  0  0  0  0  0  0  0  0  0  0  0
   -8.3731   -5.0719   -7.8348 C   0  0  0  0  0  0  0  0  0  0  0  0
   -7.3508   -5.3682   -8.7079 C   0  0  0  0  0  0  0  0  0  0  0  0
   -6.0480   -6.7385   -8.4756 Br  0  0  0  0  0  0  0  0  0  0  0  0
   -7.4069   -4.3315  -10.0523 S   0  0  0  0  0  0  0  0  0  0  0  0
   -8.7560   -3.4952   -9.5569 N   0  0  0  0  0  0  0  0  0  0  0  0
   -9.1323   -4.0004   -8.3867 C   0  0  0  0  0  0  0  0  0  0  0  0
   -6.9933   -5.7310   -4.9463 C   0  0  0  0  0  0  0  0  0  0  0  0
   -7.3068   -6.5262   -3.7649 N   0  0  0  0  0  0  0  0  0  0  0  0
  1  2  2  0
  2  3  2  0
  2  4  1  0
  4  5  1  0
  5  6  1  0
  6  7  1  0
  7  8  1  0
  8  9  2  0
  9 10  1  0
  9 11  1  0
 11 12  1  0
 12 13  2  0
  6 14  1  0
 14 15  1  0
 15  2  1  0
 13  8  1  0
M  END
>  <ref_pdb>  (15) 
X0147_0A

>  <ref_mols>  (15) 
x1594,x1604,x1140

>  <original SMILES>  (15) 
O=S1(=O)CCN(Cc2cnsc2Br)CN1

$$$$
CSMB00108472029
     RDKit          3D

 19 20  0  0  0  0  0  0  0  0999 V2000
  -11.1717   -4.7280   -6.1095 C   0  0  0  0  0  0  0  0  0  0  0  0
  -10.1973   -5.8031   -6.2017 N   0  0  0  0  0  0  0  0  0  0  0  0
   -8.8933   -5.2682   -5.8152 C   0  0  1  0  0  0  0  0  0  0  0  0
   -8.0418   -6.2667   -5.0493 C   0  0  2  0  0  0  0  0  0  0  0  0
   -8.8784   -7.1651   -4.1441 C   0  0  0  0  0  0  0  0  0  0  0  0
   -8.0175   -8.1304   -3.3565 C   0  0  0  0  0  0  0  0  0  0  0  0
   -7.1520   -7.3764   -2.3674 C   0  0  0  0  0  0  0  0  0  0  0  0
   -6.1976   -6.5562   -3.1277 N   0  0  0  0  0  0  0  0  0  0  0  0
   -5.1351   -6.0645   -2.2398 C   0  0  0  0  0  0  0  0  0  0  0  0
   -6.9258   -5.3109   -4.0231 S   0  0  0  0  0  0  0  0  0  0  0  0
   -5.8994   -4.7137   -4.8454 O   0  0  0  0  0  0  0  0  0  0  0  0
   -7.7111   -4.5107   -3.1070 O   0  0  0  0  0  0  0  0  0  0  0  0
   -8.2263   -4.7217   -7.0378 C   0  0  0  0  0  0  0  0  0  0  0  0
   -7.7340   -5.4118   -8.1285 C   0  0  0  0  0  0  0  0  0  0  0  0
   -7.7526   -7.3018   -8.3838 Br  0  0  0  0  0  0  0  0  0  0  0  0
   -7.0832   -4.3309   -9.2622 S   0  0  0  0  0  0  0  0  0  0  0  0
   -7.4078   -2.9599   -8.3902 N   0  0  0  0  0  0  0  0  0  0  0  0
   -7.9838   -3.3145   -7.2428 C   0  0  0  0  0  0  0  0  0  0  0  0
   -8.3233   -2.2343   -6.2875 C   0  0  0  0  0  0  0  0  0  0  0  0
  1  2  1  0
  3  2  1  6
  3  4  1  0
  4  5  1  1
  5  6  1  0
  6  7  1  0
  7  8  1  0
  8  9  1  0
  8 10  1  0
 10 11  2  0
 10 12  2  0
  3 13  1  0
 13 14  2  0
 14 15  1  0
 14 16  1  0
 16 17  1  0
 17 18  2  0
 18 19  1  0
 10  4  1  0
 18 13  1  0
M  END
>  <ref_pdb>  (16) 
X0147_0A

>  <ref_mols>  (16) 
x1594,x1604,x1140

>  <original SMILES>  (16) 
CN[C@H](c1c(C)nsc1Br)[C@@H]1CCCN(C)S1(=O)=O

$$$$
Z5520086939
     RDKit          3D

 16 17  0  0  0  0  0  0  0  0999 V2000
   -7.0005   -6.9696   -2.9783 N   0  0  0  0  0  0  0  0  0  0  0  0
   -7.1711   -5.3025   -3.3093 S   0  0  0  0  0  0  0  0  0  0  0  0
   -6.3113   -4.9529   -4.4228 O   0  0  0  0  0  0  0  0  0  0  0  0
   -7.1165   -4.5733   -2.0578 O   0  0  0  0  0  0  0  0  0  0  0  0
   -8.8541   -5.3012   -3.8690 C   0  0  1  0  0  0  0  0  0  0  0  0
   -9.3403   -3.8854   -4.0944 C   0  0  0  0  0  0  0  0  0  0  0  0
   -9.8808   -3.8499   -5.5086 C   0  0  0  0  0  0  0  0  0  0  0  0
   -9.9680   -5.2414   -5.9335 N   0  0  0  0  0  0  0  0  0  0  0  0
   -9.8162   -5.3773   -7.3776 C   0  0  0  0  0  0  0  0  0  0  0  0
   -8.5683   -4.7979   -7.9298 C   0  0  0  0  0  0  0  0  0  0  0  0
   -7.3774   -5.4431   -8.1823 C   0  0  0  0  0  0  0  0  0  0  0  0
   -7.0083   -7.2864   -7.8689 Br  0  0  0  0  0  0  0  0  0  0  0  0
   -6.2469   -4.3565   -8.8377 S   0  0  0  0  0  0  0  0  0  0  0  0
   -7.2748   -3.0498   -8.8689 N   0  0  0  0  0  0  0  0  0  0  0  0
   -8.4396   -3.4488   -8.3715 C   0  0  0  0  0  0  0  0  0  0  0  0
   -8.9218   -5.9617   -5.2227 C   0  0  0  0  0  0  0  0  0  0  0  0
  1  2  1  0
  2  3  2  0
  2  4  2  0
  5  2  1  6
  5  6  1  0
  6  7  1  0
  7  8  1  0
  8  9  1  0
  9 10  1  0
 10 11  2  0
 11 12  1  0
 11 13  1  0
 13 14  1  0
 14 15  2  0
  8 16  1  0
 16  5  1  0
 15 10  1  0
M  END
>  <ref_pdb>  (17) 
X0147_0A

>  <ref_mols>  (17) 
x1594,x1604,x1140

>  <original SMILES>  (17) 
NS(=O)(=O)[C@H]1CCN(Cc2cnsc2Br)C1

$$$$
CSMB06365602085
     RDKit          3D

 18 19  0  0  0  0  0  0  0  0999 V2000
   -5.6349   -6.0932   -3.9293 C   0  0  0  0  0  0  0  0  0  0  0  0
   -7.1026   -6.0091   -3.8476 N   0  0  0  0  0  0  0  0  0  0  0  0
   -7.6144   -5.0502   -4.8498 C   0  0  0  0  0  0  0  0  0  0  0  0
   -9.1308   -5.2146   -4.9692 C   0  0  1  0  0  0  0  0  0  0  0  0
   -9.8044   -4.8189   -3.6692 C   0  0  0  0  0  0  0  0  0  0  0  0
   -9.3928   -5.7344   -2.5323 C   0  0  0  0  0  0  0  0  0  0  0  0
   -7.6317   -5.6471   -2.2699 S   0  0  0  0  0  0  0  0  0  0  0  0
   -7.2665   -4.2758   -1.9923 O   0  0  0  0  0  0  0  0  0  0  0  0
   -7.2319   -6.7351   -1.4080 O   0  0  0  0  0  0  0  0  0  0  0  0
   -9.6612   -4.3700   -6.0269 N   0  0  0  0  0  0  0  0  0  0  0  0
   -9.6849   -5.1540   -7.2524 C   0  0  0  0  0  0  0  0  0  0  0  0
   -8.5876   -4.7725   -8.1491 C   0  0  0  0  0  0  0  0  0  0  0  0
   -7.4726   -5.4422   -8.5934 C   0  0  0  0  0  0  0  0  0  0  0  0
   -6.9591   -7.1880   -8.1272 Br  0  0  0  0  0  0  0  0  0  0  0  0
   -6.7575   -4.6439   -9.4395 N   0  0  0  0  0  0  0  0  0  0  0  0
   -7.3976   -3.4849   -9.5442 N   0  0  0  0  0  0  0  0  0  0  0  0
   -8.4897   -3.5660   -8.7732 N   0  0  0  0  0  0  0  0  0  0  0  0
   -9.3803   -2.4344   -8.6693 C   0  0  0  0  0  0  0  0  0  0  0  0
  1  2  1  0
  2  3  1  0
  3  4  1  0
  4  5  1  0
  5  6  1  0
  6  7  1  0
  7  8  2  0
  7  9  2  0
  4 10  1  6
 10 11  1  0
 11 12  1  0
 12 13  2  0
 13 14  1  0
 13 15  1  0
 15 16  2  0
 16 17  1  0
 17 18  1  0
  7  2  1  0
 17 12  1  0
M  END
>  <ref_pdb>  (18) 
X0147_0A

>  <ref_mols>  (18) 
x1594,x1604,x1140

>  <original SMILES>  (18) 
CN1C[C@H](NCc2c(Br)nnn2C)CCS1(=O)=O

$$$$
CSMB06266772012
     RDKit          3D

 16 17  0  0  0  0  0  0  0  0999 V2000
   -6.0233   -6.5664   -8.0854 Br  0  0  0  0  0  0  0  0  0  0  0  0
   -7.3659   -5.3463   -8.6665 C   0  0  0  0  0  0  0  0  0  0  0  0
   -7.1981   -4.3148  -10.0038 S   0  0  0  0  0  0  0  0  0  0  0  0
   -8.7048   -3.6278   -9.8662 N   0  0  0  0  0  0  0  0  0  0  0  0
   -9.3152   -4.1958   -8.8313 C   0  0  0  0  0  0  0  0  0  0  0  0
   -8.5982   -5.1700   -8.0782 C   0  0  0  0  0  0  0  0  0  0  0  0
   -9.1088   -5.8959   -6.8953 C   0  0  0  0  0  0  0  0  0  0  0  0
   -9.5893   -4.9780   -5.8710 N   0  0  0  0  0  0  0  0  0  0  0  0
   -8.5158   -4.2565   -5.1983 C   0  0  1  0  0  0  0  0  0  0  0  0
   -9.0700   -3.6310   -3.9299 C   0  0  0  0  0  0  0  0  0  0  0  0
   -9.4181   -4.6683   -2.8747 C   0  0  0  0  0  0  0  0  0  0  0  0
   -7.9627   -5.5857   -2.4145 S   0  0  0  0  0  0  0  0  0  0  0  0
   -6.9622   -4.6406   -1.9633 O   0  0  0  0  0  0  0  0  0  0  0  0
   -8.3658   -6.7183   -1.6122 O   0  0  0  0  0  0  0  0  0  0  0  0
   -7.5061   -6.1408   -3.9627 N   0  0  0  0  0  0  0  0  0  0  0  0
   -7.2344   -5.0371   -4.9022 C   0  0  0  0  0  0  0  0  0  0  0  0
  1  2  1  0
  2  3  1  0
  3  4  1  0
  4  5  2  0
  5  6  1  0
  6  7  1  0
  7  8  1  0
  9  8  1  1
  9 10  1  0
 10 11  1  0
 11 12  1  0
 12 13  2  0
 12 14  2  0
 12 15  1  0
 15 16  1  0
  6  2  2  0
 16  9  1  0
M  END
>  <ref_pdb>  (19) 
X0147_0A

>  <ref_mols>  (19) 
x1594,x1604,x1140

>  <original SMILES>  (19) 
O=S1(=O)CC[C@H](NCc2cnsc2Br)CN1

$$$$
CSMB06616333580
     RDKit          3D

 17 18  0  0  0  0  0  0  0  0999 V2000
   -5.8810   -6.6976   -3.8065 C   0  0  0  0  0  0  0  0  0  0  0  0
   -7.2908   -6.2797   -3.7724 N   0  0  0  0  0  0  0  0  0  0  0  0
   -7.5523   -5.2945   -4.8405 C   0  0  0  0  0  0  0  0  0  0  0  0
   -9.0638   -5.1300   -5.0041 C   0  0  1  0  0  0  0  0  0  0  0  0
   -9.6410   -4.4850   -3.7586 C   0  0  0  0  0  0  0  0  0  0  0  0
   -9.4752   -5.3843   -2.5480 C   0  0  0  0  0  0  0  0  0  0  0  0
   -7.7488   -5.7054   -2.2350 S   0  0  0  0  0  0  0  0  0  0  0  0
   -7.0674   -4.4483   -2.0210 O   0  0  0  0  0  0  0  0  0  0  0  0
   -7.6364   -6.8044   -1.3042 O   0  0  0  0  0  0  0  0  0  0  0  0
   -9.3366   -4.2834   -6.1097 O   0  0  0  0  0  0  0  0  0  0  0  0
   -9.5191   -5.1047   -7.2601 C   0  0  0  0  0  0  0  0  0  0  0  0
   -8.5648   -4.7821   -8.3414 C   0  0  0  0  0  0  0  0  0  0  0  0
   -8.8376   -3.7104   -9.1863 N   0  0  0  0  0  0  0  0  0  0  0  0
   -7.8953   -3.5543  -10.1047 N   0  0  0  0  0  0  0  0  0  0  0  0
   -6.6701   -4.6922   -9.9763 S   0  0  0  0  0  0  0  0  0  0  0  0
   -7.4013   -5.4513   -8.6460 C   0  0  0  0  0  0  0  0  0  0  0  0
   -6.7023   -6.8199   -7.9015 Cl  0  0  0  0  0  0  0  0  0  0  0  0
  1  2  1  0
  2  3  1  0
  3  4  1  0
  4  5  1  0
  5  6  1  0
  6  7  1  0
  7  8  2  0
  7  9  2  0
  4 10  1  6
 10 11  1  0
 11 12  1  0
 12 13  1  0
 13 14  2  0
 14 15  1  0
 15 16  1  0
 16 17  1  0
  7  2  1  0
 16 12  2  0
M  END
>  <ref_pdb>  (20) 
X0147_0A

>  <ref_mols>  (20) 
x1594,x1604,x1140

>  <original SMILES>  (20) 
CN1C[C@H](OCc2nnsc2Cl)CCS1(=O)=O

$$$$
CSMB03460926296
     RDKit          3D

 18 19  0  0  0  0  0  0  0  0999 V2000
   -3.6638   -6.1326   -2.6507 C   0  0  0  0  0  0  0  0  0  0  0  0
   -5.0543   -5.8632   -2.1301 C   0  0  0  0  0  0  0  0  0  0  0  0
   -6.0222   -6.3609   -3.1196 N   0  0  0  0  0  0  0  0  0  0  0  0
   -6.8168   -7.4587   -2.5394 C   0  0  0  0  0  0  0  0  0  0  0  0
   -7.5518   -8.1628   -3.6645 C   0  0  0  0  0  0  0  0  0  0  0  0
   -8.5658   -7.2398   -4.3119 C   0  0  0  0  0  0  0  0  0  0  0  0
   -7.8886   -6.0536   -4.9766 C   0  0  1  0  0  0  0  0  0  0  0  0
   -8.8273   -5.0874   -5.6565 C   0  0  2  0  0  0  0  0  0  0  0  0
  -10.1759   -5.5255   -5.6297 O   0  0  0  0  0  0  0  0  0  0  0  0
   -8.3986   -4.7208   -7.0265 C   0  0  0  0  0  0  0  0  0  0  0  0
   -8.2763   -5.5244   -8.1402 C   0  0  0  0  0  0  0  0  0  0  0  0
   -8.6239   -7.3964   -8.2283 Br  0  0  0  0  0  0  0  0  0  0  0  0
   -7.7569   -4.6061   -9.4729 S   0  0  0  0  0  0  0  0  0  0  0  0
   -7.6783   -3.1624   -8.6559 N   0  0  0  0  0  0  0  0  0  0  0  0
   -8.0384   -3.3923   -7.3981 C   0  0  0  0  0  0  0  0  0  0  0  0
   -6.9801   -5.1173   -3.7726 S   0  0  0  0  0  0  0  0  0  0  0  0
   -6.1078   -4.1955   -4.4624 O   0  0  0  0  0  0  0  0  0  0  0  0
   -7.8884   -4.6716   -2.7393 O   0  0  0  0  0  0  0  0  0  0  0  0
  1  2  1  0
  2  3  1  0
  3  4  1  0
  4  5  1  0
  5  6  1  0
  7  6  1  1
  7  8  1  0
  8  9  1  6
  8 10  1  0
 10 11  2  0
 11 12  1  0
 11 13  1  0
 13 14  1  0
 14 15  2  0
  7 16  1  0
 16 17  2  0
 16 18  2  0
 16  3  1  0
 15 10  1  0
M  END
>  <ref_pdb>  (21) 
X0147_0A

>  <ref_mols>  (21) 
x1594,x1604,x1140

>  <original SMILES>  (21) 
CCN1CCC[C@@H]([C@H](O)c2cnsc2Br)S1(=O)=O

$$$$
CSMB00108478996
     RDKit          3D

 19 20  0  0  0  0  0  0  0  0999 V2000
   -3.8910   -5.6741   -2.2183 C   0  0  0  0  0  0  0  0  0  0  0  0
   -5.3482   -5.6622   -1.8269 C   0  0  0  0  0  0  0  0  0  0  0  0
   -6.1291   -6.2281   -2.9373 N   0  0  0  0  0  0  0  0  0  0  0  0
   -6.7918   -7.4725   -2.5044 C   0  0  0  0  0  0  0  0  0  0  0  0
   -7.3036   -8.1978   -3.7349 C   0  0  0  0  0  0  0  0  0  0  0  0
   -8.3849   -7.3945   -4.4315 C   0  0  0  0  0  0  0  0  0  0  0  0
   -7.8391   -6.0777   -4.9542 C   0  0  1  0  0  0  0  0  0  0  0  0
   -8.8383   -5.2132   -5.6782 C   0  0  2  0  0  0  0  0  0  0  0  0
  -10.1575   -5.7274   -5.6350 O   0  0  0  0  0  0  0  0  0  0  0  0
   -8.4136   -4.8584   -7.0569 C   0  0  0  0  0  0  0  0  0  0  0  0
   -8.3194   -5.6876   -8.1559 C   0  0  0  0  0  0  0  0  0  0  0  0
   -8.7031   -7.5542   -8.2063 Br  0  0  0  0  0  0  0  0  0  0  0  0
   -7.7931   -4.8103   -9.5087 S   0  0  0  0  0  0  0  0  0  0  0  0
   -7.6648   -3.3581   -8.7219 N   0  0  0  0  0  0  0  0  0  0  0  0
   -8.0187   -3.5299   -7.4489 C   0  0  0  0  0  0  0  0  0  0  0  0
   -7.9700   -2.3452   -6.5594 C   0  0  0  0  0  0  0  0  0  0  0  0
   -7.2081   -5.1016   -3.6135 S   0  0  0  0  0  0  0  0  0  0  0  0
   -6.4360   -4.0075   -4.1568 O   0  0  0  0  0  0  0  0  0  0  0  0
   -8.2653   -4.8738   -2.6536 O   0  0  0  0  0  0  0  0  0  0  0  0
  1  2  1  0
  2  3  1  0
  3  4  1  0
  4  5  1  0
  5  6  1  0
  7  6  1  1
  7  8  1  0
  8  9  1  6
  8 10  1  0
 10 11  2  0
 11 12  1  0
 11 13  1  0
 13 14  1  0
 14 15  2  0
 15 16  1  0
  7 17  1  0
 17 18  2  0
 17 19  2  0
 17  3  1  0
 15 10  1  0
M  END
>  <ref_pdb>  (22) 
X0147_0A

>  <ref_mols>  (22) 
x1594,x1604,x1140

>  <original SMILES>  (22) 
CCN1CCC[C@@H]([C@H](O)c2c(C)nsc2Br)S1(=O)=O

$$$$
CSMB03450669565
     RDKit          3D

 17 18  0  0  0  0  0  0  0  0999 V2000
   -5.2629   -7.0460   -3.6773 C   0  0  0  0  0  0  0  0  0  0  0  0
   -6.0447   -5.9132   -4.1954 N   0  0  0  0  0  0  0  0  0  0  0  0
   -5.2522   -4.6756   -4.0985 C   0  0  0  0  0  0  0  0  0  0  0  0
   -5.9054   -3.6252   -4.9728 C   0  0  0  0  0  0  0  0  0  0  0  0
   -7.3049   -3.2702   -4.5033 C   0  0  0  0  0  0  0  0  0  0  0  0
   -8.2437   -4.4539   -4.3903 C   0  0  1  0  0  0  0  0  0  0  0  0
   -8.9097   -4.9811   -5.6280 C   0  0  1  0  0  0  0  0  0  0  0  0
  -10.6772   -4.1777   -5.7610 Br  0  0  0  0  0  0  0  0  0  0  0  0
   -8.2052   -4.8625   -6.9256 C   0  0  0  0  0  0  0  0  0  0  0  0
   -7.6923   -5.9066   -7.6654 C   0  0  0  0  0  0  0  0  0  0  0  0
   -7.7877   -7.7531   -7.2087 Br  0  0  0  0  0  0  0  0  0  0  0  0
   -6.9424   -5.3257   -9.0743 S   0  0  0  0  0  0  0  0  0  0  0  0
   -7.2573   -3.7217   -8.7769 N   0  0  0  0  0  0  0  0  0  0  0  0
   -7.9377   -3.6540   -7.6392 C   0  0  0  0  0  0  0  0  0  0  0  0
   -7.5616   -5.7789   -3.4454 S   0  0  0  0  0  0  0  0  0  0  0  0
   -7.3377   -5.3112   -2.0952 O   0  0  0  0  0  0  0  0  0  0  0  0
   -8.3032   -6.9897   -3.7123 O   0  0  0  0  0  0  0  0  0  0  0  0
  1  2  1  0
  2  3  1  0
  3  4  1  0
  4  5  1  0
  6  5  1  6
  6  7  1  0
  7  8  1  6
  7  9  1  0
  9 10  2  0
 10 11  1  0
 10 12  1  0
 12 13  1  0
 13 14  2  0
  6 15  1  0
 15 16  2  0
 15 17  2  0
 15  2  1  0
 14  9  1  0
M  END
>  <ref_pdb>  (23) 
X0147_0A

>  <ref_mols>  (23) 
x1594,x1604,x1140

>  <original SMILES>  (23) 
CN1CCC[C@@H]([C@@H](Br)c2cnsc2Br)S1(=O)=O

$$$$
CSMB06788117598
     RDKit          3D

 14 14  0  0  0  0  0  0  0  0999 V2000
   -9.7585   -3.4407   -5.5297 N   0  0  0  0  0  0  0  0  0  0  0  0
   -8.4571   -4.0727   -5.4060 C   0  0  1  0  0  0  0  0  0  0  0  0
   -8.5039   -5.1455   -4.3582 C   0  0  0  0  0  0  0  0  0  0  0  0
   -7.2283   -4.8366   -3.1729 S   0  0  0  0  0  0  0  0  0  0  0  0
   -7.0347   -3.4051   -3.0720 O   0  0  0  0  0  0  0  0  0  0  0  0
   -7.5355   -5.6386   -2.0061 O   0  0  0  0  0  0  0  0  0  0  0  0
   -5.9090   -5.5361   -3.9925 N   0  0  0  0  0  0  0  0  0  0  0  0
   -7.9274   -4.5897   -6.6862 C   0  0  0  0  0  0  0  0  0  0  0  0
   -6.6897   -4.4338   -7.1134 N   0  0  0  0  0  0  0  0  0  0  0  0
   -6.5721   -5.0753   -8.3251 N   0  0  0  0  0  0  0  0  0  0  0  0
   -7.7354   -5.6199   -8.6179 C   0  0  0  0  0  0  0  0  0  0  0  0
   -8.1089   -6.3535   -9.6899 N   0  0  0  0  0  0  0  0  0  0  0  0
   -8.6152   -5.3504   -7.6011 N   0  0  0  0  0  0  0  0  0  0  0  0
   -9.9484   -5.8220   -7.4874 N   0  0  0  0  0  0  0  0  0  0  0  0
  2  1  1  6
  2  3  1  0
  3  4  1  0
  4  5  2  0
  4  6  2  0
  4  7  1  0
  2  8  1  0
  8  9  2  0
  9 10  1  0
 10 11  2  0
 11 12  1  0
 11 13  1  0
 13 14  1  0
 13  8  1  0
M  END
>  <ref_pdb>  (24) 
X0147_0A

>  <ref_mols>  (24) 
x1594,x1604,x1140

>  <original SMILES>  (24) 
Nc1nnc([C@@H](N)CS(N)(=O)=O)n1N

$$$$
CSMB00115030796
     RDKit          3D

 16 17  0  0  0  0  0  0  0  0999 V2000
   -5.8766   -6.9667   -1.8342 C   0  0  0  0  0  0  0  0  0  0  0  0
   -6.8378   -7.0611   -2.9376 N   0  0  0  0  0  0  0  0  0  0  0  0
   -8.2231   -7.1161   -2.4568 C   0  0  0  0  0  0  0  0  0  0  0  0
   -9.0427   -6.9773   -3.7309 C   0  0  0  0  0  0  0  0  0  0  0  0
   -8.4321   -5.8442   -4.5551 C   0  0  2  0  0  0  0  0  0  0  0  0
   -8.5391   -6.0617   -6.0473 C   0  0  1  0  0  0  0  0  0  0  0  0
  -10.4302   -6.3766   -6.5127 Br  0  0  0  0  0  0  0  0  0  0  0  0
   -8.1218   -4.8958   -6.8775 C   0  0  0  0  0  0  0  0  0  0  0  0
   -8.3662   -3.5645   -6.6099 C   0  0  0  0  0  0  0  0  0  0  0  0
   -7.7028   -2.5854   -7.8274 S   0  0  0  0  0  0  0  0  0  0  0  0
   -7.0871   -3.8379   -8.7250 N   0  0  0  0  0  0  0  0  0  0  0  0
   -7.3759   -4.9734   -8.0968 C   0  0  0  0  0  0  0  0  0  0  0  0
   -6.8268   -6.6363   -8.8243 Br  0  0  0  0  0  0  0  0  0  0  0  0
   -6.7167   -5.7919   -4.0670 S   0  0  0  0  0  0  0  0  0  0  0  0
   -5.8446   -6.2227   -5.1312 O   0  0  0  0  0  0  0  0  0  0  0  0
   -6.5153   -4.5611   -3.3361 O   0  0  0  0  0  0  0  0  0  0  0  0
  1  2  1  0
  2  3  1  0
  3  4  1  0
  5  4  1  1
  5  6  1  0
  6  7  1  1
  6  8  1  0
  8  9  2  0
  9 10  1  0
 10 11  1  0
 11 12  2  0
 12 13  1  0
  5 14  1  0
 14 15  2  0
 14 16  2  0
 14  2  1  0
 12  8  1  0
M  END
>  <ref_pdb>  (25) 
X0147_0A

>  <ref_mols>  (25) 
x1594,x1604,x1140

>  <original SMILES>  (25) 
CN1CC[C@H]([C@@H](Br)c2csnc2Br)S1(=O)=O

$$$$
CSMB06661721386
     RDKit          3D

 16 17  0  0  0  0  0  0  0  0999 V2000
   -7.0458   -7.1136   -7.9366 Br  0  0  0  0  0  0  0  0  0  0  0  0
   -7.7991   -5.5473   -8.6543 C   0  0  0  0  0  0  0  0  0  0  0  0
   -7.2587   -4.8840   -9.6748 N   0  0  0  0  0  0  0  0  0  0  0  0
   -8.1021   -3.8029   -9.8835 O   0  0  0  0  0  0  0  0  0  0  0  0
   -9.1233   -3.8423   -8.9825 C   0  0  0  0  0  0  0  0  0  0  0  0
   -8.9667   -4.9371   -8.1631 C   0  0  0  0  0  0  0  0  0  0  0  0
   -9.8261   -5.3632   -7.0467 C   0  0  0  0  0  0  0  0  0  0  0  0
   -9.6977   -4.4307   -5.9319 N   0  0  0  0  0  0  0  0  0  0  0  0
   -8.5257   -4.7936   -5.1485 C   0  0  1  0  0  0  0  0  0  0  0  0
   -7.4403   -3.7670   -5.4173 C   0  0  0  0  0  0  0  0  0  0  0  0
   -6.1436   -4.0832   -4.6927 C   0  0  0  0  0  0  0  0  0  0  0  0
   -6.2743   -5.3422   -3.9411 N   0  0  0  0  0  0  0  0  0  0  0  0
   -7.4589   -5.2715   -2.7177 S   0  0  0  0  0  0  0  0  0  0  0  0
   -7.1524   -4.1473   -1.8588 O   0  0  0  0  0  0  0  0  0  0  0  0
   -7.6600   -6.6039   -2.1926 O   0  0  0  0  0  0  0  0  0  0  0  0
   -8.8888   -4.8341   -3.6834 C   0  0  0  0  0  0  0  0  0  0  0  0
  1  2  1  0
  2  3  2  0
  3  4  1  0
  4  5  1  0
  5  6  2  0
  6  7  1  0
  7  8  1  0
  9  8  1  6
  9 10  1  0
 10 11  1  0
 11 12  1  0
 12 13  1  0
 13 14  2  0
 13 15  2  0
 13 16  1  0
  6  2  1  0
 16  9  1  0
M  END
>  <ref_pdb>  (26) 
X0147_0A

>  <ref_mols>  (26) 
x1594,x1604,x1140

>  <original SMILES>  (26) 
O=S1(=O)C[C@@H](NCc2conc2Br)CCN1

$$$$
Z5211860609
     RDKit          3D

 16 17  0  0  0  0  0  0  0  0999 V2000
   -6.1157   -6.3008   -3.4408 N   0  0  0  0  0  0  0  0  0  0  0  0
   -7.2761   -5.1818   -2.8747 S   0  0  0  0  0  0  0  0  0  0  0  0
   -6.5832   -4.0848   -2.2279 O   0  0  0  0  0  0  0  0  0  0  0  0
   -8.3371   -5.9027   -2.2013 O   0  0  0  0  0  0  0  0  0  0  0  0
   -7.8745   -4.5949   -4.4317 C   0  0  2  0  0  0  0  0  0  0  0  0
   -8.8632   -3.4698   -4.2554 C   0  0  0  0  0  0  0  0  0  0  0  0
   -9.7687   -3.6047   -5.4577 C   0  0  0  0  0  0  0  0  0  0  0  0
   -9.8022   -5.0298   -5.7559 N   0  0  0  0  0  0  0  0  0  0  0  0
   -9.9073   -5.2930   -7.1823 C   0  0  0  0  0  0  0  0  0  0  0  0
   -8.7332   -4.8672   -7.9656 C   0  0  0  0  0  0  0  0  0  0  0  0
   -8.4626   -3.6112   -8.4618 C   0  0  0  0  0  0  0  0  0  0  0  0
   -7.2861   -3.6372   -9.1465 O   0  0  0  0  0  0  0  0  0  0  0  0
   -6.7742   -4.9257   -9.1357 N   0  0  0  0  0  0  0  0  0  0  0  0
   -7.6616   -5.6418   -8.4470 C   0  0  0  0  0  0  0  0  0  0  0  0
   -7.4688   -7.4884   -8.1485 Br  0  0  0  0  0  0  0  0  0  0  0  0
   -8.6483   -5.6773   -5.1417 C   0  0  0  0  0  0  0  0  0  0  0  0
  1  2  1  0
  2  3  2  0
  2  4  2  0
  5  2  1  1
  5  6  1  0
  6  7  1  0
  7  8  1  0
  8  9  1  0
  9 10  1  0
 10 11  2  0
 11 12  1  0
 12 13  1  0
 13 14  2  0
 14 15  1  0
  8 16  1  0
 16  5  1  0
 14 10  1  0
M  END
>  <ref_pdb>  (27) 
X0147_0A

>  <ref_mols>  (27) 
x1594,x1604,x1140

>  <original SMILES>  (27) 
NS(=O)(=O)[C@@H]1CCN(Cc2conc2Br)C1

$$$$
Z5520087688
     RDKit          3D

 16 17  0  0  0  0  0  0  0  0999 V2000
   -6.1211   -6.3020   -3.4359 N   0  0  0  0  0  0  0  0  0  0  0  0
   -7.2807   -5.1822   -2.8699 S   0  0  0  0  0  0  0  0  0  0  0  0
   -6.5870   -4.0857   -2.2229 O   0  0  0  0  0  0  0  0  0  0  0  0
   -8.3422   -5.9023   -2.1965 O   0  0  0  0  0  0  0  0  0  0  0  0
   -7.8785   -4.5946   -4.4268 C   0  0  2  0  0  0  0  0  0  0  0  0
   -8.8663   -3.4688   -4.2504 C   0  0  0  0  0  0  0  0  0  0  0  0
   -9.7719   -3.6029   -5.4528 C   0  0  0  0  0  0  0  0  0  0  0  0
   -9.8066   -5.0279   -5.7512 N   0  0  0  0  0  0  0  0  0  0  0  0
   -9.9118   -5.2909   -7.1775 C   0  0  0  0  0  0  0  0  0  0  0  0
   -8.7373   -4.8659   -7.9607 C   0  0  0  0  0  0  0  0  0  0  0  0
   -8.4657   -3.6102   -8.4568 C   0  0  0  0  0  0  0  0  0  0  0  0
   -7.2892   -3.6371   -9.1415 O   0  0  0  0  0  0  0  0  0  0  0  0
   -6.7783   -4.9259   -9.1307 N   0  0  0  0  0  0  0  0  0  0  0  0
   -7.6664   -5.6414   -8.4420 C   0  0  0  0  0  0  0  0  0  0  0  0
   -7.4750   -7.4883   -8.1437 Br  0  0  0  0  0  0  0  0  0  0  0  0
   -8.6531   -5.6764   -5.1369 C   0  0  0  0  0  0  0  0  0  0  0  0
  1  2  1  0
  2  3  2  0
  2  4  2  0
  5  2  1  1
  5  6  1  0
  6  7  1  0
  7  8  1  0
  8  9  1  0
  9 10  1  0
 10 11  2  0
 11 12  1  0
 12 13  1  0
 13 14  2  0
 14 15  1  0
  8 16  1  0
 16  5  1  0
 14 10  1  0
M  END
>  <ref_pdb>  (28) 
X0147_0A

>  <ref_mols>  (28) 
x1594,x1604,x1140

>  <original SMILES>  (28) 
NS(=O)(=O)[C@@H]1CCN(Cc2conc2Br)C1

$$$$
CSMB03460924822
     RDKit          3D

 18 19  0  0  0  0  0  0  0  0999 V2000
   -4.4660   -7.2676   -5.3857 C   0  0  0  0  0  0  0  0  0  0  0  0
   -4.8147   -6.5092   -4.1283 C   0  0  0  0  0  0  0  0  0  0  0  0
   -5.8285   -5.4990   -4.4675 N   0  0  0  0  0  0  0  0  0  0  0  0
   -5.2805   -4.1468   -4.2543 C   0  0  0  0  0  0  0  0  0  0  0  0
   -6.1732   -3.1503   -4.9654 C   0  0  0  0  0  0  0  0  0  0  0  0
   -7.5914   -3.1345   -4.4223 C   0  0  0  0  0  0  0  0  0  0  0  0
   -8.2623   -4.4914   -4.4003 C   0  0  1  0  0  0  0  0  0  0  0  0
   -8.9622   -4.9873   -5.6335 C   0  0  1  0  0  0  0  0  0  0  0  0
  -10.2575   -4.3322   -5.7467 N   0  0  0  0  0  0  0  0  0  0  0  0
   -8.2471   -4.8789   -6.9314 C   0  0  0  0  0  0  0  0  0  0  0  0
   -7.7992   -5.9236   -7.7118 C   0  0  0  0  0  0  0  0  0  0  0  0
   -8.0146   -7.7791   -7.3421 Br  0  0  0  0  0  0  0  0  0  0  0  0
   -7.0165   -5.3354   -9.1008 S   0  0  0  0  0  0  0  0  0  0  0  0
   -7.2543   -3.7282   -8.7546 N   0  0  0  0  0  0  0  0  0  0  0  0
   -7.9303   -3.6646   -7.6142 C   0  0  0  0  0  0  0  0  0  0  0  0
   -7.2909   -5.7409   -3.6389 S   0  0  0  0  0  0  0  0  0  0  0  0
   -7.0715   -5.3717   -2.2575 O   0  0  0  0  0  0  0  0  0  0  0  0
   -7.8085   -7.0405   -3.9973 O   0  0  0  0  0  0  0  0  0  0  0  0
  1  2  1  0
  2  3  1  0
  3  4  1  0
  4  5  1  0
  5  6  1  0
  7  6  1  6
  7  8  1  0
  8  9  1  6
  8 10  1  0
 10 11  2  0
 11 12  1  0
 11 13  1  0
 13 14  1  0
 14 15  2  0
  7 16  1  0
 16 17  2  0
 16 18  2  0
 16  3  1  0
 15 10  1  0
M  END
>  <ref_pdb>  (29) 
X0147_0A

>  <ref_mols>  (29) 
x1594,x1604,x1140

>  <original SMILES>  (29) 
CCN1CCC[C@@H]([C@@H](N)c2cnsc2Br)S1(=O)=O

$$$$
CSMB03450668364
     RDKit          3D

 17 18  0  0  0  0  0  0  0  0999 V2000
   -4.7939   -5.0646   -3.8772 C   0  0  0  0  0  0  0  0  0  0  0  0
   -5.9584   -5.7499   -4.4548 N   0  0  0  0  0  0  0  0  0  0  0  0
   -5.6971   -7.1929   -4.5536 C   0  0  0  0  0  0  0  0  0  0  0  0
   -6.7144   -7.7836   -5.5081 C   0  0  0  0  0  0  0  0  0  0  0  0
   -8.1277   -7.6554   -4.9727 C   0  0  0  0  0  0  0  0  0  0  0  0
   -8.5541   -6.2337   -4.6681 C   0  0  2  0  0  0  0  0  0  0  0  0
   -9.0506   -5.4576   -5.8445 C   0  0  1  0  0  0  0  0  0  0  0  0
  -10.0112   -4.4848   -5.4998 O   0  0  0  0  0  0  0  0  0  0  0  0
   -8.1473   -5.0689   -6.9408 C   0  0  0  0  0  0  0  0  0  0  0  0
   -7.9829   -5.7277   -8.1390 C   0  0  0  0  0  0  0  0  0  0  0  0
   -8.8822   -7.3225   -8.6645 Br  0  0  0  0  0  0  0  0  0  0  0  0
   -6.8486   -4.9196   -9.1094 S   0  0  0  0  0  0  0  0  0  0  0  0
   -6.5499   -3.6981   -8.0257 N   0  0  0  0  0  0  0  0  0  0  0  0
   -7.3134   -3.9108   -6.9583 C   0  0  0  0  0  0  0  0  0  0  0  0
   -7.4022   -5.3839   -3.6404 S   0  0  0  0  0  0  0  0  0  0  0  0
   -7.6082   -3.9573   -3.7232 O   0  0  0  0  0  0  0  0  0  0  0  0
   -7.3534   -6.0646   -2.3638 O   0  0  0  0  0  0  0  0  0  0  0  0
  1  2  1  0
  2  3  1  0
  3  4  1  0
  4  5  1  0
  6  5  1  6
  6  7  1  0
  7  8  1  1
  7  9  1  0
  9 10  2  0
 10 11  1  0
 10 12  1  0
 12 13  1  0
 13 14  2  0
  6 15  1  0
 15 16  2  0
 15 17  2  0
 15  2  1  0
 14  9  1  0
M  END
>  <ref_pdb>  (30) 
X0147_0A

>  <ref_mols>  (30) 
x1594,x1604,x1140

>  <original SMILES>  (30) 
CN1CCC[C@H]([C@@H](O)c2cnsc2Br)S1(=O)=O

$$$$
CSMB06363394743
     RDKit          3D

 17 18  0  0  0  0  0  0  0  0999 V2000
   -5.5841   -6.1219   -3.8421 C   0  0  0  0  0  0  0  0  0  0  0  0
   -7.0457   -5.9683   -3.8872 N   0  0  0  0  0  0  0  0  0  0  0  0
   -7.4058   -4.8555   -4.7901 C   0  0  0  0  0  0  0  0  0  0  0  0
   -8.9021   -4.9247   -5.0817 C   0  0  1  0  0  0  0  0  0  0  0  0
   -9.6904   -4.6480   -3.8155 C   0  0  0  0  0  0  0  0  0  0  0  0
   -9.4476   -5.7187   -2.7686 C   0  0  0  0  0  0  0  0  0  0  0  0
   -7.7188   -5.7893   -2.3325 S   0  0  0  0  0  0  0  0  0  0  0  0
   -7.3091   -4.4984   -1.8266 O   0  0  0  0  0  0  0  0  0  0  0  0
   -7.4694   -7.0108   -1.6024 O   0  0  0  0  0  0  0  0  0  0  0  0
   -9.2513   -3.9197   -6.0701 N   0  0  0  0  0  0  0  0  0  0  0  0
   -9.7314   -4.6085   -7.2627 C   0  0  0  0  0  0  0  0  0  0  0  0
   -8.6751   -4.6265   -8.3023 C   0  0  0  0  0  0  0  0  0  0  0  0
   -8.5914   -3.5555   -9.1856 N   0  0  0  0  0  0  0  0  0  0  0  0
   -7.6143   -3.7163  -10.0614 N   0  0  0  0  0  0  0  0  0  0  0  0
   -6.7869   -5.1539   -9.8542 S   0  0  0  0  0  0  0  0  0  0  0  0
   -7.7543   -5.6380   -8.5232 C   0  0  0  0  0  0  0  0  0  0  0  0
   -7.5891   -6.8054   -7.8596 N   0  0  0  0  0  0  0  0  0  0  0  0
  1  2  1  0
  2  3  1  0
  3  4  1  0
  4  5  1  0
  5  6  1  0
  6  7  1  0
  7  8  2  0
  7  9  2  0
  4 10  1  6
 10 11  1  0
 11 12  1  0
 12 13  1  0
 13 14  2  0
 14 15  1  0
 15 16  1  0
 16 17  1  0
  7  2  1  0
 16 12  2  0
M  END
>  <ref_pdb>  (31) 
X0147_0A

>  <ref_mols>  (31) 
x1594,x1604,x1140

>  <original SMILES>  (31) 
CN1C[C@H](NCc2nnsc2N)CCS1(=O)=O

$$$$
ZINC000533844773
     RDKit          3D

 16 17  0  0  0  0  0  0  0  0999 V2000
   -6.5059   -4.1800   -4.4869 N   0  0  0  0  0  0  0  0  0  0  0  0
   -7.2820   -5.0225   -3.2243 S   0  0  0  0  0  0  0  0  0  0  0  0
   -7.1805   -4.2427   -2.0065 O   0  0  0  0  0  0  0  0  0  0  0  0
   -6.8552   -6.4083   -3.2587 O   0  0  0  0  0  0  0  0  0  0  0  0
   -8.9699   -4.9648   -3.7644 C   0  0  1  0  0  0  0  0  0  0  0  0
   -9.4270   -3.5507   -4.0479 C   0  0  0  0  0  0  0  0  0  0  0  0
   -9.8795   -3.5485   -5.4928 C   0  0  0  0  0  0  0  0  0  0  0  0
  -10.0779   -4.9516   -5.8372 N   0  0  0  0  0  0  0  0  0  0  0  0
   -9.8997   -5.1476   -7.2747 C   0  0  0  0  0  0  0  0  0  0  0  0
   -8.5049   -4.9678   -7.7570 C   0  0  0  0  0  0  0  0  0  0  0  0
   -7.9384   -3.6941   -7.7639 N   0  0  0  0  0  0  0  0  0  0  0  0
   -6.6922   -3.7104   -8.2123 N   0  0  0  0  0  0  0  0  0  0  0  0
   -6.1816   -5.2466   -8.6525 S   0  0  0  0  0  0  0  0  0  0  0  0
   -7.6672   -5.9521   -8.2323 C   0  0  0  0  0  0  0  0  0  0  0  0
   -7.9452   -7.6273   -8.4048 Cl  0  0  0  0  0  0  0  0  0  0  0  0
   -9.1098   -5.7188   -5.0624 C   0  0  0  0  0  0  0  0  0  0  0  0
  1  2  1  0
  2  3  2  0
  2  4  2  0
  5  2  1  6
  5  6  1  0
  6  7  1  0
  7  8  1  0
  8  9  1  0
  9 10  1  0
 10 11  1  0
 11 12  2  0
 12 13  1  0
 13 14  1  0
 14 15  1  0
  8 16  1  0
 16  5  1  0
 14 10  2  0
M  END
>  <ref_pdb>  (32) 
X0147_0A

>  <ref_mols>  (32) 
x1594,x1604,x1140

>  <original SMILES>  (32) 
NS(=O)(=O)[C@H]1CCN(Cc2nnsc2Cl)C1

$$$$
Z1456230402
     RDKit          3D

 16 17  0  0  0  0  0  0  0  0999 V2000
   -6.4735   -4.1765   -4.5110 N   0  0  0  0  0  0  0  0  0  0  0  0
   -7.2492   -5.0145   -3.2453 S   0  0  0  0  0  0  0  0  0  0  0  0
   -7.1430   -4.2325   -2.0291 O   0  0  0  0  0  0  0  0  0  0  0  0
   -6.8263   -6.4015   -3.2779 O   0  0  0  0  0  0  0  0  0  0  0  0
   -8.9381   -4.9531   -3.7820 C   0  0  1  0  0  0  0  0  0  0  0  0
   -9.3919   -3.5384   -4.0674 C   0  0  0  0  0  0  0  0  0  0  0  0
   -9.8472   -3.5377   -5.5114 C   0  0  0  0  0  0  0  0  0  0  0  0
  -10.0503   -4.9409   -5.8525 N   0  0  0  0  0  0  0  0  0  0  0  0
   -9.8754   -5.1401   -7.2900 C   0  0  0  0  0  0  0  0  0  0  0  0
   -8.4812   -4.9651   -7.7756 C   0  0  0  0  0  0  0  0  0  0  0  0
   -7.6472   -5.9525   -8.2507 C   0  0  0  0  0  0  0  0  0  0  0  0
   -7.9301   -7.6273   -8.4193 Cl  0  0  0  0  0  0  0  0  0  0  0  0
   -6.1605   -5.2520   -8.6752 S   0  0  0  0  0  0  0  0  0  0  0  0
   -6.6660   -3.7135   -8.2370 N   0  0  0  0  0  0  0  0  0  0  0  0
   -7.9113   -3.6929   -7.7862 N   0  0  0  0  0  0  0  0  0  0  0  0
   -9.0827   -5.7092   -5.0783 C   0  0  0  0  0  0  0  0  0  0  0  0
  1  2  1  0
  2  3  2  0
  2  4  2  0
  5  2  1  6
  5  6  1  0
  6  7  1  0
  7  8  1  0
  8  9  1  0
  9 10  1  0
 10 11  2  0
 11 12  1  0
 11 13  1  0
 13 14  1  0
 14 15  2  0
  8 16  1  0
 16  5  1  0
 15 10  1  0
M  END
>  <ref_pdb>  (33) 
X0147_0A

>  <ref_mols>  (33) 
x1594,x1604,x1140

>  <original SMILES>  (33) 
NS(=O)(=O)[C@H]1CCN(Cc2nnsc2Cl)C1

$$$$
CSMB06365492157
     RDKit          3D

 17 18  0  0  0  0  0  0  0  0999 V2000
   -5.6109   -6.4830   -3.6244 C   0  0  0  0  0  0  0  0  0  0  0  0
   -7.0514   -6.2005   -3.7108 N   0  0  0  0  0  0  0  0  0  0  0  0
   -7.3745   -5.5519   -4.9934 C   0  0  0  0  0  0  0  0  0  0  0  0
   -8.8768   -5.6481   -5.2708 C   0  0  1  0  0  0  0  0  0  0  0  0
   -9.7098   -5.9048   -4.0268 C   0  0  0  0  0  0  0  0  0  0  0  0
   -9.3131   -5.0531   -2.8394 C   0  0  0  0  0  0  0  0  0  0  0  0
   -7.6071   -5.2946   -2.3849 S   0  0  0  0  0  0  0  0  0  0  0  0
   -6.9413   -4.0114   -2.4333 O   0  0  0  0  0  0  0  0  0  0  0  0
   -7.5412   -6.1419   -1.2165 O   0  0  0  0  0  0  0  0  0  0  0  0
   -9.3362   -4.4406   -5.9350 N   0  0  0  0  0  0  0  0  0  0  0  0
   -9.6977   -4.8027   -7.2987 C   0  0  0  0  0  0  0  0  0  0  0  0
   -8.5940   -4.4635   -8.2098 C   0  0  0  0  0  0  0  0  0  0  0  0
   -8.2951   -3.2287   -8.7410 C   0  0  0  0  0  0  0  0  0  0  0  0
   -7.2073   -3.3374   -9.5539 O   0  0  0  0  0  0  0  0  0  0  0  0
   -6.7781   -4.6563   -9.5784 N   0  0  0  0  0  0  0  0  0  0  0  0
   -7.6212   -5.3056   -8.7777 C   0  0  0  0  0  0  0  0  0  0  0  0
   -7.4961   -7.1536   -8.4482 Br  0  0  0  0  0  0  0  0  0  0  0  0
  1  2  1  0
  2  3  1  0
  3  4  1  0
  4  5  1  0
  5  6  1  0
  6  7  1  0
  7  8  2  0
  7  9  2  0
  4 10  1  1
 10 11  1  0
 11 12  1  0
 12 13  2  0
 13 14  1  0
 14 15  1  0
 15 16  2  0
 16 17  1  0
  7  2  1  0
 16 12  1  0
M  END
>  <ref_pdb>  (34) 
X0147_0A

>  <ref_mols>  (34) 
x1594,x1604,x1140

>  <original SMILES>  (34) 
CN1C[C@H](NCc2conc2Br)CCS1(=O)=O

$$$$
Z3876322859
     RDKit          3D

 17 18  0  0  0  0  0  0  0  0999 V2000
   -6.1738   -4.8810   -4.2642 N   0  0  0  0  0  0  0  0  0  0  0  0
   -7.2588   -5.0284   -2.9570 S   0  0  0  0  0  0  0  0  0  0  0  0
   -7.1979   -3.8245   -2.1515 O   0  0  0  0  0  0  0  0  0  0  0  0
   -7.0951   -6.3370   -2.3540 O   0  0  0  0  0  0  0  0  0  0  0  0
   -8.8110   -5.0231   -3.8197 C   0  0  0  0  0  0  0  0  0  0  0  0
   -8.9105   -6.2044   -4.7561 C   0  0  0  0  0  0  0  0  0  0  0  0
  -10.2302   -6.1906   -5.4937 C   0  0  0  0  0  0  0  0  0  0  0  0
  -10.5315   -4.9296   -6.1296 N   0  0  0  0  0  0  0  0  0  0  0  0
  -10.1560   -4.8310   -7.5251 C   0  0  0  0  0  0  0  0  0  0  0  0
   -8.6958   -4.7943   -7.7612 C   0  0  0  0  0  0  0  0  0  0  0  0
   -7.8807   -5.8454   -8.1191 C   0  0  0  0  0  0  0  0  0  0  0  0
   -8.4314   -7.6496   -8.3853 Br  0  0  0  0  0  0  0  0  0  0  0  0
   -6.2778   -5.3120   -8.2990 S   0  0  0  0  0  0  0  0  0  0  0  0
   -6.5978   -3.7175   -7.9544 N   0  0  0  0  0  0  0  0  0  0  0  0
   -7.9028   -3.6115   -7.7314 C   0  0  0  0  0  0  0  0  0  0  0  0
  -10.3093   -3.7399   -5.3414 C   0  0  0  0  0  0  0  0  0  0  0  0
   -9.0008   -3.7332   -4.5831 C   0  0  0  0  0  0  0  0  0  0  0  0
  1  2  1  0
  2  3  2  0
  2  4  2  0
  2  5  1  0
  5  6  1  0
  6  7  1  0
  7  8  1  0
  8  9  1  0
  9 10  1  0
 10 11  2  0
 11 12  1  0
 11 13  1  0
 13 14  1  0
 14 15  2  0
  8 16  1  0
 16 17  1  0
 17  5  1  0
 15 10  1  0
M  END
>  <ref_pdb>  (35) 
X0147_0A

>  <ref_mols>  (35) 
x1594,x1604,x1140

>  <original SMILES>  (35) 
NS(=O)(=O)C1CCN(Cc2cnsc2Br)CC1

$$$$
Z3334341945
     RDKit          3D

 18 19  0  0  0  0  0  0  0  0999 V2000
   -6.4425   -6.2741   -3.0907 N   0  0  0  0  0  0  0  0  0  0  0  0
   -7.4883   -5.3184   -2.1412 S   0  0  0  0  0  0  0  0  0  0  0  0
   -6.8134   -4.0848   -1.7887 O   0  0  0  0  0  0  0  0  0  0  0  0
   -8.1046   -6.1494   -1.1266 O   0  0  0  0  0  0  0  0  0  0  0  0
   -8.7357   -4.9200   -3.3409 C   0  0  0  0  0  0  0  0  0  0  0  0
   -9.4185   -6.1745   -3.8545 C   0  0  0  0  0  0  0  0  0  0  0  0
  -10.4338   -5.8245   -4.9235 C   0  0  0  0  0  0  0  0  0  0  0  0
   -9.8036   -5.0344   -5.9564 N   0  0  0  0  0  0  0  0  0  0  0  0
   -9.3602   -5.7123   -7.0893 C   0  0  0  0  0  0  0  0  0  0  0  0
   -9.5671   -6.9149   -7.2282 O   0  0  0  0  0  0  0  0  0  0  0  0
   -8.6504   -4.9425   -8.0946 C   0  0  0  0  0  0  0  0  0  0  0  0
   -9.0049   -3.6681   -8.4846 C   0  0  0  0  0  0  0  0  0  0  0  0
   -7.9774   -3.1108   -9.7120 S   0  0  0  0  0  0  0  0  0  0  0  0
   -7.0527   -4.4850   -9.7802 N   0  0  0  0  0  0  0  0  0  0  0  0
   -7.5387   -5.3552   -8.8958 C   0  0  0  0  0  0  0  0  0  0  0  0
   -6.6863   -7.0396   -8.6944 Br  0  0  0  0  0  0  0  0  0  0  0  0
   -9.2204   -3.7883   -5.5061 C   0  0  0  0  0  0  0  0  0  0  0  0
   -8.1585   -4.0770   -4.4646 C   0  0  0  0  0  0  0  0  0  0  0  0
  1  2  1  0
  2  3  2  0
  2  4  2  0
  2  5  1  0
  5  6  1  0
  6  7  1  0
  7  8  1  0
  8  9  1  0
  9 10  2  0
  9 11  1  0
 11 12  2  0
 12 13  1  0
 13 14  1  0
 14 15  2  0
 15 16  1  0
  8 17  1  0
 17 18  1  0
 18  5  1  0
 15 11  1  0
M  END
>  <ref_pdb>  (36) 
X0147_0A

>  <ref_mols>  (36) 
x1594,x1604,x1140

>  <original SMILES>  (36) 
NS(=O)(=O)C1CCN(C(=O)c2csnc2Br)CC1

$$$$
CSMB06614108197
     RDKit          3D

 17 18  0  0  0  0  0  0  0  0999 V2000
   -5.7723   -6.5871   -4.1066 C   0  0  0  0  0  0  0  0  0  0  0  0
   -7.1965   -6.2353   -4.0064 N   0  0  0  0  0  0  0  0  0  0  0  0
   -7.5332   -5.2162   -5.0199 C   0  0  0  0  0  0  0  0  0  0  0  0
   -9.0539   -5.1103   -5.1252 C   0  0  1  0  0  0  0  0  0  0  0  0
   -9.6130   -4.5388   -3.8362 C   0  0  0  0  0  0  0  0  0  0  0  0
   -9.3718   -5.4777   -2.6693 C   0  0  0  0  0  0  0  0  0  0  0  0
   -7.6239   -5.7469   -2.4301 S   0  0  0  0  0  0  0  0  0  0  0  0
   -6.9818   -4.4755   -2.1815 O   0  0  0  0  0  0  0  0  0  0  0  0
   -7.4384   -6.8810   -1.5547 O   0  0  0  0  0  0  0  0  0  0  0  0
   -9.4006   -4.2336   -6.1858 O   0  0  0  0  0  0  0  0  0  0  0  0
   -9.6062   -5.0162   -7.3596 C   0  0  0  0  0  0  0  0  0  0  0  0
   -8.6009   -4.7410   -8.4106 C   0  0  0  0  0  0  0  0  0  0  0  0
   -8.7772   -3.6319   -9.2282 N   0  0  0  0  0  0  0  0  0  0  0  0
   -7.8079   -3.5212  -10.1202 N   0  0  0  0  0  0  0  0  0  0  0  0
   -6.6739   -4.7434  -10.0018 S   0  0  0  0  0  0  0  0  0  0  0  0
   -7.4805   -5.5041   -8.6933 C   0  0  0  0  0  0  0  0  0  0  0  0
   -7.0432   -6.6374   -8.0977 N   0  0  0  0  0  0  0  0  0  0  0  0
  1  2  1  0
  2  3  1  0
  3  4  1  0
  4  5  1  0
  5  6  1  0
  6  7  1  0
  7  8  2  0
  7  9  2  0
  4 10  1  6
 10 11  1  0
 11 12  1  0
 12 13  1  0
 13 14  2  0
 14 15  1  0
 15 16  1  0
 16 17  1  0
  7  2  1  0
 16 12  2  0
M  END
>  <ref_pdb>  (37) 
X0147_0A

>  <ref_mols>  (37) 
x1594,x1604,x1140

>  <original SMILES>  (37) 
CN1C[C@H](OCc2nnsc2N)CCS1(=O)=O

$$$$
PV-006838715625
     RDKit          3D

 18 19  0  0  0  0  0  0  0  0999 V2000
  -10.5376   -4.4465   -4.5638 O   0  0  0  0  0  0  0  0  0  0  0  0
   -9.4736   -5.0615   -4.5957 C   0  0  0  0  0  0  0  0  0  0  0  0
   -8.7134   -5.1783   -5.7304 N   0  0  0  0  0  0  0  0  0  0  0  0
   -9.1431   -4.5022   -6.9229 C   0  0  0  0  0  0  0  0  0  0  0  0
   -8.0418   -4.5241   -7.8916 C   0  0  0  0  0  0  0  0  0  0  0  0
   -7.2078   -3.4782   -8.2117 C   0  0  0  0  0  0  0  0  0  0  0  0
   -6.3216   -3.8841   -9.1628 O   0  0  0  0  0  0  0  0  0  0  0  0
   -6.5638   -5.2117   -9.4853 N   0  0  0  0  0  0  0  0  0  0  0  0
   -7.5910   -5.5687   -8.7160 C   0  0  0  0  0  0  0  0  0  0  0  0
   -8.3352   -7.2954   -8.7403 Br  0  0  0  0  0  0  0  0  0  0  0  0
   -8.9542   -5.8020   -3.4095 C   0  0  1  0  0  0  0  0  0  0  0  0
   -8.8643   -7.3029   -3.5973 C   0  0  0  0  0  0  0  0  0  0  0  0
   -7.6257   -7.7895   -4.3257 C   0  0  0  0  0  0  0  0  0  0  0  0
   -6.3537   -7.3113   -3.6569 C   0  0  0  0  0  0  0  0  0  0  0  0
   -6.3184   -5.8466   -3.7670 N   0  0  0  0  0  0  0  0  0  0  0  0
   -7.4770   -5.0747   -2.7827 S   0  0  0  0  0  0  0  0  0  0  0  0
   -7.4586   -3.6587   -3.0778 O   0  0  0  0  0  0  0  0  0  0  0  0
   -7.2981   -5.5633   -1.4295 O   0  0  0  0  0  0  0  0  0  0  0  0
  1  2  2  0
  2  3  1  0
  3  4  1  0
  4  5  1  0
  5  6  2  0
  6  7  1  0
  7  8  1  0
  8  9  2  0
  9 10  1  0
 11  2  1  6
 11 12  1  0
 12 13  1  0
 13 14  1  0
 14 15  1  0
 15 16  1  0
 16 17  2  0
 16 18  2  0
  9  5  1  0
 16 11  1  0
M  END
>  <ref_pdb>  (38) 
X0147_0A

>  <ref_mols>  (38) 
x1594,x1604,x1140

>  <original SMILES>  (38) 
O=C(NCc1conc1Br)[C@H]1CCCNS1(=O)=O

$$$$
CSMB03450669566
     RDKit          3D

 17 18  0  0  0  0  0  0  0  0999 V2000
   -5.9278   -8.2179   -1.1624 C   0  0  0  0  0  0  0  0  0  0  0  0
   -5.8797   -7.7913   -2.6081 C   0  0  0  0  0  0  0  0  0  0  0  0
   -7.0821   -7.0035   -2.9088 N   0  0  0  0  0  0  0  0  0  0  0  0
   -8.2019   -7.8506   -3.3399 C   0  0  0  0  0  0  0  0  0  0  0  0
   -9.2438   -6.8552   -3.8283 C   0  0  0  0  0  0  0  0  0  0  0  0
   -8.5460   -5.7435   -4.6193 C   0  0  2  0  0  0  0  0  0  0  0  0
   -8.6526   -5.9496   -6.1143 C   0  0  1  0  0  0  0  0  0  0  0  0
  -10.5464   -6.1322   -6.6162 Br  0  0  0  0  0  0  0  0  0  0  0  0
   -8.1167   -4.8502   -6.9584 C   0  0  0  0  0  0  0  0  0  0  0  0
   -7.3457   -5.0102   -8.0901 C   0  0  0  0  0  0  0  0  0  0  0  0
   -6.8032   -6.6766   -8.8381 Br  0  0  0  0  0  0  0  0  0  0  0  0
   -6.9433   -3.5001   -8.7502 S   0  0  0  0  0  0  0  0  0  0  0  0
   -7.7539   -2.6036   -7.6098 N   0  0  0  0  0  0  0  0  0  0  0  0
   -8.3012   -3.4508   -6.7463 C   0  0  0  0  0  0  0  0  0  0  0  0
   -6.8317   -5.8268   -4.1168 S   0  0  0  0  0  0  0  0  0  0  0  0
   -6.0593   -6.4501   -5.1680 O   0  0  0  0  0  0  0  0  0  0  0  0
   -6.4326   -4.5958   -3.4820 O   0  0  0  0  0  0  0  0  0  0  0  0
  1  2  1  0
  2  3  1  0
  3  4  1  0
  4  5  1  0
  6  5  1  1
  6  7  1  0
  7  8  1  1
  7  9  1  0
  9 10  2  0
 10 11  1  0
 10 12  1  0
 12 13  1  0
 13 14  2  0
  6 15  1  0
 15 16  2  0
 15 17  2  0
 15  3  1  0
 14  9  1  0
M  END
>  <ref_pdb>  (39) 
X0147_0A

>  <ref_mols>  (39) 
x1594,x1604,x1140

>  <original SMILES>  (39) 
CCN1CC[C@H]([C@@H](Br)c2cnsc2Br)S1(=O)=O

$$$$
CSMB06659943994
     RDKit          3D

 17 18  0  0  0  0  0  0  0  0999 V2000
   -9.7455   -2.6329   -8.4422 C   0  0  0  0  0  0  0  0  0  0  0  0
   -8.8794   -3.7609   -8.6905 N   0  0  0  0  0  0  0  0  0  0  0  0
   -8.0701   -3.7532   -9.7579 N   0  0  0  0  0  0  0  0  0  0  0  0
   -7.3824   -4.8891   -9.7364 N   0  0  0  0  0  0  0  0  0  0  0  0
   -7.7806   -5.5985   -8.6398 C   0  0  0  0  0  0  0  0  0  0  0  0
   -7.0800   -7.2791   -8.1768 Br  0  0  0  0  0  0  0  0  0  0  0  0
   -8.7375   -4.8941   -7.9487 C   0  0  0  0  0  0  0  0  0  0  0  0
   -9.4969   -5.1861   -6.7268 C   0  0  0  0  0  0  0  0  0  0  0  0
   -9.0512   -4.3591   -5.6140 N   0  0  0  0  0  0  0  0  0  0  0  0
   -8.0832   -5.1264   -4.8412 C   0  0  1  0  0  0  0  0  0  0  0  0
   -6.6914   -4.6160   -5.1683 C   0  0  0  0  0  0  0  0  0  0  0  0
   -5.5956   -5.3545   -4.4233 C   0  0  0  0  0  0  0  0  0  0  0  0
   -6.1751   -6.4376   -3.6153 N   0  0  0  0  0  0  0  0  0  0  0  0
   -7.2233   -5.8790   -2.3945 S   0  0  0  0  0  0  0  0  0  0  0  0
   -6.5009   -4.9248   -1.5800 O   0  0  0  0  0  0  0  0  0  0  0  0
   -7.9075   -7.0147   -1.8171 O   0  0  0  0  0  0  0  0  0  0  0  0
   -8.3946   -4.9661   -3.3725 C   0  0  0  0  0  0  0  0  0  0  0  0
  1  2  1  0
  2  3  1  0
  3  4  2  0
  4  5  1  0
  5  6  1  0
  5  7  2  0
  7  8  1  0
  8  9  1  0
 10  9  1  6
 10 11  1  0
 11 12  1  0
 12 13  1  0
 13 14  1  0
 14 15  2  0
 14 16  2  0
 14 17  1  0
  7  2  1  0
 17 10  1  0
M  END
>  <ref_pdb>  (40) 
X0147_0A

>  <ref_mols>  (40) 
x1594,x1604,x1140

>  <original SMILES>  (40) 
Cn1nnc(Br)c1CN[C@H]1CCNS(=O)(=O)C1

$$$$
Z4451671242
     RDKit          3D

 17 18  0  0  0  0  0  0  0  0999 V2000
   -6.4272   -6.4444   -4.0875 N   0  0  0  0  0  0  0  0  0  0  0  0
   -7.1277   -5.0602   -3.3757 S   0  0  0  0  0  0  0  0  0  0  0  0
   -6.0759   -4.1008   -3.1027 O   0  0  0  0  0  0  0  0  0  0  0  0
   -8.0508   -5.4780   -2.3392 O   0  0  0  0  0  0  0  0  0  0  0  0
   -8.0643   -4.4673   -4.7638 C   0  0  2  0  0  0  0  0  0  0  0  0
   -8.6209   -3.0911   -4.4730 C   0  0  0  0  0  0  0  0  0  0  0  0
   -9.4308   -2.6263   -5.6612 C   0  0  0  0  0  0  0  0  0  0  0  0
  -10.5409   -3.6049   -5.9901 C   0  0  0  0  0  0  0  0  0  0  0  0
  -10.1232   -4.9873   -6.0791 N   0  0  0  0  0  0  0  0  0  0  0  0
   -9.8810   -5.4545   -7.4280 C   0  0  0  0  0  0  0  0  0  0  0  0
   -8.5655   -5.0649   -7.9799 C   0  0  0  0  0  0  0  0  0  0  0  0
   -7.4462   -5.8600   -8.0896 C   0  0  0  0  0  0  0  0  0  0  0  0
   -7.3076   -7.6742   -7.5261 Br  0  0  0  0  0  0  0  0  0  0  0  0
   -6.1766   -4.9933   -8.8117 S   0  0  0  0  0  0  0  0  0  0  0  0
   -7.0419   -3.5908   -9.0289 N   0  0  0  0  0  0  0  0  0  0  0  0
   -8.2707   -3.8034   -8.5713 C   0  0  0  0  0  0  0  0  0  0  0  0
   -9.1872   -5.4372   -5.0677 C   0  0  0  0  0  0  0  0  0  0  0  0
  1  2  1  0
  2  3  2  0
  2  4  2  0
  5  2  1  1
  5  6  1  0
  6  7  1  0
  7  8  1  0
  8  9  1  0
  9 10  1  0
 10 11  1  0
 11 12  2  0
 12 13  1  0
 12 14  1  0
 14 15  1  0
 15 16  2  0
  9 17  1  0
 17  5  1  0
 16 11  1  0
M  END
>  <ref_pdb>  (41) 
X0147_0A

>  <ref_mols>  (41) 
x1594,x1604,x1140

>  <original SMILES>  (41) 
NS(=O)(=O)[C@@H]1CCCN(Cc2cnsc2Br)C1

$$$$
Z3876426703
     RDKit          3D

 17 18  0  0  0  0  0  0  0  0999 V2000
   -6.5044   -6.4279   -4.0199 N   0  0  0  0  0  0  0  0  0  0  0  0
   -7.1784   -5.0240   -3.3209 S   0  0  0  0  0  0  0  0  0  0  0  0
   -6.1091   -4.0806   -3.0608 O   0  0  0  0  0  0  0  0  0  0  0  0
   -8.1057   -5.4145   -2.2776 O   0  0  0  0  0  0  0  0  0  0  0  0
   -8.1083   -4.4294   -4.7127 C   0  0  2  0  0  0  0  0  0  0  0  0
   -8.6397   -3.0405   -4.4351 C   0  0  0  0  0  0  0  0  0  0  0  0
   -9.4447   -2.5741   -5.6261 C   0  0  0  0  0  0  0  0  0  0  0  0
  -10.5727   -3.5365   -5.9417 C   0  0  0  0  0  0  0  0  0  0  0  0
  -10.1796   -4.9269   -6.0171 N   0  0  0  0  0  0  0  0  0  0  0  0
   -9.9496   -5.4125   -7.3615 C   0  0  0  0  0  0  0  0  0  0  0  0
   -8.6289   -5.0521   -7.9210 C   0  0  0  0  0  0  0  0  0  0  0  0
   -7.5242   -5.8678   -8.0252 C   0  0  0  0  0  0  0  0  0  0  0  0
   -7.4159   -7.6781   -7.4428 Br  0  0  0  0  0  0  0  0  0  0  0  0
   -6.2415   -5.0314   -8.7598 S   0  0  0  0  0  0  0  0  0  0  0  0
   -7.0826   -3.6162   -8.9897 N   0  0  0  0  0  0  0  0  0  0  0  0
   -8.3137   -3.8022   -8.5265 C   0  0  0  0  0  0  0  0  0  0  0  0
   -9.2490   -5.3826   -5.0034 C   0  0  0  0  0  0  0  0  0  0  0  0
  1  2  1  0
  2  3  2  0
  2  4  2  0
  5  2  1  1
  5  6  1  0
  6  7  1  0
  7  8  1  0
  8  9  1  0
  9 10  1  0
 10 11  1  0
 11 12  2  0
 12 13  1  0
 12 14  1  0
 14 15  1  0
 15 16  2  0
  9 17  1  0
 17  5  1  0
 16 11  1  0
M  END
>  <ref_pdb>  (42) 
X0147_0A

>  <ref_mols>  (42) 
x1594,x1604,x1140

>  <original SMILES>  (42) 
NS(=O)(=O)[C@@H]1CCCN(Cc2cnsc2Br)C1

$$$$
CSMB06266669596
     RDKit          3D

 16 17  0  0  0  0  0  0  0  0999 V2000
   -7.8465   -7.1724   -9.0008 N   0  0  0  0  0  0  0  0  0  0  0  0
   -7.6826   -5.8380   -8.8528 C   0  0  0  0  0  0  0  0  0  0  0  0
   -6.3719   -4.9576   -9.5243 S   0  0  0  0  0  0  0  0  0  0  0  0
   -6.9088   -3.4951   -8.9136 N   0  0  0  0  0  0  0  0  0  0  0  0
   -8.0275   -3.6089   -8.2200 N   0  0  0  0  0  0  0  0  0  0  0  0
   -8.4696   -4.9273   -8.1679 C   0  0  0  0  0  0  0  0  0  0  0  0
   -9.7103   -5.2128   -7.4102 C   0  0  0  0  0  0  0  0  0  0  0  0
   -9.3872   -5.6214   -6.0467 N   0  0  0  0  0  0  0  0  0  0  0  0
   -9.2483   -4.4323   -5.2137 C   0  0  1  0  0  0  0  0  0  0  0  0
   -9.9025   -4.6843   -3.8666 C   0  0  0  0  0  0  0  0  0  0  0  0
   -9.1785   -5.7340   -3.0425 C   0  0  0  0  0  0  0  0  0  0  0  0
   -7.5110   -5.2015   -2.7201 S   0  0  0  0  0  0  0  0  0  0  0  0
   -7.5763   -3.9026   -2.0817 O   0  0  0  0  0  0  0  0  0  0  0  0
   -6.7826   -6.3050   -2.1352 O   0  0  0  0  0  0  0  0  0  0  0  0
   -6.9952   -4.9815   -4.3277 N   0  0  0  0  0  0  0  0  0  0  0  0
   -7.7943   -3.9776   -5.0603 C   0  0  0  0  0  0  0  0  0  0  0  0
  1  2  1  0
  2  3  1  0
  3  4  1  0
  4  5  2  0
  5  6  1  0
  6  7  1  0
  7  8  1  0
  9  8  1  6
  9 10  1  0
 10 11  1  0
 11 12  1  0
 12 13  2  0
 12 14  2  0
 12 15  1  0
 15 16  1  0
  6  2  2  0
 16  9  1  0
M  END
>  <ref_pdb>  (43) 
X0147_0A

>  <ref_mols>  (43) 
x1594,x1604,x1140

>  <original SMILES>  (43) 
Nc1snnc1CN[C@H]1CCS(=O)(=O)NC1

$$$$
CSMB00108473863
     RDKit          3D

 19 20  0  0  0  0  0  0  0  0999 V2000
   -5.0617   -5.7332   -1.4324 C   0  0  0  0  0  0  0  0  0  0  0  0
   -4.7949   -6.5251   -2.6915 C   0  0  0  0  0  0  0  0  0  0  0  0
   -6.0441   -6.8744   -3.3851 N   0  0  0  0  0  0  0  0  0  0  0  0
   -6.9369   -7.7058   -2.5672 C   0  0  0  0  0  0  0  0  0  0  0  0
   -7.9042   -8.4083   -3.4984 C   0  0  0  0  0  0  0  0  0  0  0  0
   -8.7993   -7.4002   -4.1884 C   0  0  0  0  0  0  0  0  0  0  0  0
   -8.0191   -6.5013   -5.1433 C   0  0  1  0  0  0  0  0  0  0  0  0
   -8.9183   -5.4765   -5.8067 C   0  0  2  0  0  0  0  0  0  0  0  0
  -10.2099   -6.0272   -6.1989 N   0  0  0  0  0  0  0  0  0  0  0  0
   -8.3359   -4.7909   -6.9958 C   0  0  0  0  0  0  0  0  0  0  0  0
   -7.7878   -5.3543   -8.1315 C   0  0  0  0  0  0  0  0  0  0  0  0
   -7.6163   -7.2160   -8.5084 Br  0  0  0  0  0  0  0  0  0  0  0  0
   -7.2649   -4.1408   -9.1952 S   0  0  0  0  0  0  0  0  0  0  0  0
   -7.7292   -2.8707   -8.2382 N   0  0  0  0  0  0  0  0  0  0  0  0
   -8.2578   -3.3558   -7.1161 C   0  0  0  0  0  0  0  0  0  0  0  0
   -8.7176   -2.3808   -6.0995 C   0  0  0  0  0  0  0  0  0  0  0  0
   -6.7977   -5.5957   -4.1987 S   0  0  0  0  0  0  0  0  0  0  0  0
   -5.8224   -5.0242   -5.0977 O   0  0  0  0  0  0  0  0  0  0  0  0
   -7.4889   -4.7849   -3.2195 O   0  0  0  0  0  0  0  0  0  0  0  0
  1  2  1  0
  2  3  1  0
  3  4  1  0
  4  5  1  0
  5  6  1  0
  7  6  1  1
  7  8  1  0
  8  9  1  6
  8 10  1  0
 10 11  2  0
 11 12  1  0
 11 13  1  0
 13 14  1  0
 14 15  2  0
 15 16  1  0
  7 17  1  0
 17 18  2  0
 17 19  2  0
 17  3  1  0
 15 10  1  0
M  END
>  <ref_pdb>  (44) 
X0147_0A

>  <ref_mols>  (44) 
x1594,x1604,x1140

>  <original SMILES>  (44) 
CCN1CCC[C@@H]([C@H](N)c2c(C)nsc2Br)S1(=O)=O

$$$$
ZINC000306604981
     RDKit          3D

 13 13  0  0  0  0  0  0  0  0999 V2000
   -6.9001   -7.2354   -5.0439 C   0  0  0  0  0  0  0  0  0  0  0  0
   -7.1080   -5.7515   -4.8389 C   0  0  1  0  0  0  0  0  0  0  0  0
   -8.3095   -5.2773   -5.6202 C   0  0  0  0  0  0  0  0  0  0  0  0
   -7.9582   -4.9894   -6.9859 N   0  0  0  0  0  0  0  0  0  0  0  0
   -6.9740   -4.1292   -7.2772 N   0  0  0  0  0  0  0  0  0  0  0  0
   -6.9108   -4.1274   -8.6021 N   0  0  0  0  0  0  0  0  0  0  0  0
   -7.8475   -4.9806   -9.1425 N   0  0  0  0  0  0  0  0  0  0  0  0
   -8.4958   -5.5069   -8.1254 C   0  0  0  0  0  0  0  0  0  0  0  0
   -9.5036   -6.4030   -8.0799 N   0  0  0  0  0  0  0  0  0  0  0  0
   -7.4187   -5.3809   -3.1348 S   0  0  0  0  0  0  0  0  0  0  0  0
   -5.8920   -5.7541   -2.4778 N   0  0  0  0  0  0  0  0  0  0  0  0
   -7.6469   -3.9540   -3.0366 O   0  0  0  0  0  0  0  0  0  0  0  0
   -8.4024   -6.3290   -2.6516 O   0  0  0  0  0  0  0  0  0  0  0  0
  2  1  1  1
  2  3  1  0
  3  4  1  0
  4  5  1  0
  5  6  2  0
  6  7  1  0
  7  8  2  0
  8  9  1  0
  2 10  1  0
 10 11  1  0
 10 12  2  0
 10 13  2  0
  8  4  1  0
M  END
>  <ref_pdb>  (45) 
X0147_0A

>  <ref_mols>  (45) 
x1594,x1604,x1140

>  <original SMILES>  (45) 
C[C@@H](Cn1nnnc1N)S(N)(=O)=O

$$$$
CSMB00115037288
     RDKit          3D

 18 19  0  0  0  0  0  0  0  0999 V2000
   -6.3189   -6.6064   -0.6238 C   0  0  0  0  0  0  0  0  0  0  0  0
   -5.4892   -6.4539   -1.8750 C   0  0  0  0  0  0  0  0  0  0  0  0
   -6.3114   -6.8541   -3.0257 N   0  0  0  0  0  0  0  0  0  0  0  0
   -5.7380   -8.0405   -3.6777 C   0  0  0  0  0  0  0  0  0  0  0  0
   -6.7730   -8.6785   -4.5897 C   0  0  0  0  0  0  0  0  0  0  0  0
   -7.9627   -7.7918   -4.9116 C   0  0  0  0  0  0  0  0  0  0  0  0
   -7.5388   -6.4089   -5.3617 C   0  0  1  0  0  0  0  0  0  0  0  0
   -8.6689   -5.5046   -5.7841 C   0  0  2  0  0  0  0  0  0  0  0  0
   -9.8452   -6.2308   -6.1034 O   0  0  0  0  0  0  0  0  0  0  0  0
   -8.2987   -4.5606   -6.8664 C   0  0  0  0  0  0  0  0  0  0  0  0
   -8.2807   -3.1922   -6.7044 C   0  0  0  0  0  0  0  0  0  0  0  0
   -7.8004   -2.4315   -8.1432 S   0  0  0  0  0  0  0  0  0  0  0  0
   -7.6100   -3.8348   -9.0097 N   0  0  0  0  0  0  0  0  0  0  0  0
   -7.9096   -4.8552   -8.2113 C   0  0  0  0  0  0  0  0  0  0  0  0
   -7.7914   -6.6302   -8.8723 Br  0  0  0  0  0  0  0  0  0  0  0  0
   -6.5993   -5.5765   -4.1031 S   0  0  0  0  0  0  0  0  0  0  0  0
   -5.3262   -5.2049   -4.6807 O   0  0  0  0  0  0  0  0  0  0  0  0
   -7.4313   -4.6090   -3.4247 O   0  0  0  0  0  0  0  0  0  0  0  0
  1  2  1  0
  2  3  1  0
  3  4  1  0
  4  5  1  0
  5  6  1  0
  7  6  1  1
  7  8  1  0
  8  9  1  6
  8 10  1  0
 10 11  2  0
 11 12  1  0
 12 13  1  0
 13 14  2  0
 14 15  1  0
  7 16  1  0
 16 17  2  0
 16 18  2  0
 16  3  1  0
 14 10  1  0
M  END
>  <ref_pdb>  (46) 
X0147_0A

>  <ref_mols>  (46) 
x1594,x1604,x1140

>  <original SMILES>  (46) 
CCN1CCC[C@@H]([C@H](O)c2csnc2Br)S1(=O)=O

$$$$
CSMB06273575268
     RDKit          3D

 17 18  0  0  0  0  0  0  0  0999 V2000
   -6.2846   -5.9666   -3.8444 N   0  0  0  0  0  0  0  0  0  0  0  0
   -7.2954   -5.1989   -2.7055 S   0  0  0  0  0  0  0  0  0  0  0  0
   -7.0309   -3.7747   -2.7106 O   0  0  0  0  0  0  0  0  0  0  0  0
   -7.2864   -5.9642   -1.4754 O   0  0  0  0  0  0  0  0  0  0  0  0
   -8.8682   -5.4762   -3.4835 C   0  0  0  0  0  0  0  0  0  0  0  0
   -8.9957   -4.6694   -4.7509 C   0  0  2  0  0  0  0  0  0  0  0  0
  -10.0616   -3.6047   -4.5885 C   0  0  0  0  0  0  0  0  0  0  0  0
  -10.2416   -2.8395   -5.8848 C   0  0  0  0  0  0  0  0  0  0  0  0
  -10.5290   -3.7818   -7.0397 C   0  0  0  0  0  0  0  0  0  0  0  0
   -9.5065   -4.8146   -7.1086 N   0  0  0  0  0  0  0  0  0  0  0  0
   -9.3347   -5.5920   -5.9025 C   0  0  0  0  0  0  0  0  0  0  0  0
   -8.5192   -4.6916   -8.0525 C   0  0  0  0  0  0  0  0  0  0  0  0
   -8.5178   -3.6894   -8.9436 N   0  0  0  0  0  0  0  0  0  0  0  0
   -7.1634   -3.8955   -9.8890 S   0  0  0  0  0  0  0  0  0  0  0  0
   -6.5319   -5.2813   -9.2154 N   0  0  0  0  0  0  0  0  0  0  0  0
   -7.3853   -5.5966   -8.2390 C   0  0  0  0  0  0  0  0  0  0  0  0
   -7.0545   -7.0164   -7.3439 Cl  0  0  0  0  0  0  0  0  0  0  0  0
  1  2  1  0
  2  3  2  0
  2  4  2  0
  2  5  1  0
  6  5  1  1
  6  7  1  0
  7  8  1  0
  8  9  1  0
  9 10  1  0
 10 11  1  0
 10 12  1  0
 12 13  2  0
 13 14  1  0
 14 15  1  0
 15 16  2  0
 16 17  1  0
 11  6  1  0
 16 12  1  0
M  END
>  <ref_pdb>  (47) 
X0147_0A

>  <ref_mols>  (47) 
x1594,x1604,x1140

>  <original SMILES>  (47) 
NS(=O)(=O)C[C@@H]1CCCN(c2nsnc2Cl)C1

$$$$
CSMB03460922522
     RDKit          3D

 18 19  0  0  0  0  0  0  0  0999 V2000
   -5.5702   -7.6643   -3.7916 C   0  0  0  0  0  0  0  0  0  0  0  0
   -6.4425   -6.7299   -3.0715 N   0  0  0  0  0  0  0  0  0  0  0  0
   -7.4816   -7.4177   -2.2933 C   0  0  0  0  0  0  0  0  0  0  0  0
   -8.5330   -7.9802   -3.2325 C   0  0  0  0  0  0  0  0  0  0  0  0
   -9.2194   -6.8754   -4.0075 C   0  0  0  0  0  0  0  0  0  0  0  0
   -8.2546   -6.1602   -4.9480 C   0  0  1  0  0  0  0  0  0  0  0  0
   -8.9374   -5.0628   -5.7466 C   0  0  2  0  0  0  0  0  0  0  0  0
  -10.2552   -5.4724   -6.2272 N   0  0  0  0  0  0  0  0  0  0  0  0
  -11.1905   -4.5703   -5.6428 N   0  0  0  0  0  0  0  0  0  0  0  0
   -8.1639   -4.5748   -6.9239 C   0  0  0  0  0  0  0  0  0  0  0  0
   -7.5622   -5.2900   -7.9394 C   0  0  0  0  0  0  0  0  0  0  0  0
   -7.5445   -7.1864   -8.1383 Br  0  0  0  0  0  0  0  0  0  0  0  0
   -6.8089   -4.2328   -9.0374 S   0  0  0  0  0  0  0  0  0  0  0  0
   -7.2459   -2.8380   -8.2500 N   0  0  0  0  0  0  0  0  0  0  0  0
   -7.9286   -3.1875   -7.1663 C   0  0  0  0  0  0  0  0  0  0  0  0
   -6.9778   -5.3933   -3.9580 S   0  0  0  0  0  0  0  0  0  0  0  0
   -5.8981   -4.9757   -4.8223 O   0  0  0  0  0  0  0  0  0  0  0  0
   -7.6256   -4.4772   -3.0456 O   0  0  0  0  0  0  0  0  0  0  0  0
  1  2  1  0
  2  3  1  0
  3  4  1  0
  4  5  1  0
  6  5  1  1
  6  7  1  0
  7  8  1  6
  8  9  1  0
  7 10  1  0
 10 11  2  0
 11 12  1  0
 11 13  1  0
 13 14  1  0
 14 15  2  0
  6 16  1  0
 16 17  2  0
 16 18  2  0
 16  2  1  0
 15 10  1  0
M  END
>  <ref_pdb>  (48) 
X0147_0A

>  <ref_mols>  (48) 
x1594,x1604,x1140

>  <original SMILES>  (48) 
CN1CCC[C@@H]([C@H](NN)c2cnsc2Br)S1(=O)=O

$$$$
CSMB06634316897
     RDKit          3D

 16 17  0  0  0  0  0  0  0  0999 V2000
   -7.5214   -6.9875   -3.7956 C   0  0  0  0  0  0  0  0  0  0  0  0
   -7.4405   -5.2604   -3.3869 S   0  0  0  0  0  0  0  0  0  0  0  0
   -6.0912   -4.9553   -2.9709 O   0  0  0  0  0  0  0  0  0  0  0  0
   -8.5904   -4.9207   -2.5782 O   0  0  0  0  0  0  0  0  0  0  0  0
   -7.6853   -4.5638   -4.9218 N   0  0  0  0  0  0  0  0  0  0  0  0
   -7.2867   -3.1298   -4.9354 C   0  0  0  0  0  0  0  0  0  0  0  0
   -8.3238   -2.4148   -5.7786 C   0  0  0  0  0  0  0  0  0  0  0  0
   -9.5795   -3.2370   -5.6020 C   0  0  0  0  0  0  0  0  0  0  0  0
   -9.0863   -4.6543   -5.3991 C   0  0  1  0  0  0  0  0  0  0  0  0
   -9.2267   -5.5321   -6.6299 C   0  0  0  0  0  0  0  0  0  0  0  0
   -8.4473   -5.1275   -7.7660 N   0  0  0  0  0  0  0  0  0  0  0  0
   -8.8339   -4.2178   -8.7064 C   0  0  0  0  0  0  0  0  0  0  0  0
   -7.8975   -4.1360   -9.6297 N   0  0  0  0  0  0  0  0  0  0  0  0
   -6.8987   -5.0362   -9.3042 N   0  0  0  0  0  0  0  0  0  0  0  0
   -7.2618   -5.6202   -8.1909 C   0  0  0  0  0  0  0  0  0  0  0  0
   -6.4495   -6.8511   -7.3562 Cl  0  0  0  0  0  0  0  0  0  0  0  0
  1  2  1  0
  2  3  2  0
  2  4  2  0
  2  5  1  0
  5  6  1  0
  6  7  1  0
  7  8  1  0
  8  9  1  0
  9 10  1  6
 10 11  1  0
 11 12  1  0
 12 13  2  0
 13 14  1  0
 14 15  2  0
 15 16  1  0
  9  5  1  0
 15 11  1  0
M  END
>  <ref_pdb>  (49) 
X0147_0A

>  <ref_mols>  (49) 
x1594,x1604,x1140

>  <original SMILES>  (49) 
CS(=O)(=O)N1CCC[C@H]1Cn1cnnc1Cl

$$$$
CSMB06661280028
     RDKit          3D

 17 18  0  0  0  0  0  0  0  0999 V2000
  -10.7836   -4.3838   -5.2855 C   0  0  0  0  0  0  0  0  0  0  0  0
   -9.4034   -4.4734   -5.7517 N   0  0  0  0  0  0  0  0  0  0  0  0
   -9.4756   -5.2584   -6.9797 C   0  0  0  0  0  0  0  0  0  0  0  0
   -8.4843   -4.8290   -7.9732 C   0  0  0  0  0  0  0  0  0  0  0  0
   -7.5094   -5.5164   -8.6586 C   0  0  0  0  0  0  0  0  0  0  0  0
   -7.1037   -7.3431   -8.4887 Br  0  0  0  0  0  0  0  0  0  0  0  0
   -6.8497   -4.6726   -9.5044 N   0  0  0  0  0  0  0  0  0  0  0  0
   -7.3912   -3.4670   -9.3795 N   0  0  0  0  0  0  0  0  0  0  0  0
   -8.3701   -3.5652   -8.4704 N   0  0  0  0  0  0  0  0  0  0  0  0
   -9.1413   -2.3940   -8.1274 C   0  0  0  0  0  0  0  0  0  0  0  0
   -8.6291   -5.2152   -4.7491 C   0  0  1  0  0  0  0  0  0  0  0  0
   -7.1501   -5.3886   -5.1041 C   0  0  0  0  0  0  0  0  0  0  0  0
   -6.5405   -5.9653   -3.8918 N   0  0  0  0  0  0  0  0  0  0  0  0
   -7.2575   -5.2260   -2.5212 S   0  0  0  0  0  0  0  0  0  0  0  0
   -6.4114   -4.1440   -2.0702 O   0  0  0  0  0  0  0  0  0  0  0  0
   -7.7551   -6.2533   -1.6344 O   0  0  0  0  0  0  0  0  0  0  0  0
   -8.6308   -4.5167   -3.3990 C   0  0  0  0  0  0  0  0  0  0  0  0
  1  2  1  0
  2  3  1  0
  3  4  1  0
  4  5  2  0
  5  6  1  0
  5  7  1  0
  7  8  2  0
  8  9  1  0
  9 10  1  0
 11  2  1  6
 11 12  1  0
 12 13  1  0
 13 14  1  0
 14 15  2  0
 14 16  2  0
 14 17  1  0
  9  4  1  0
 17 11  1  0
M  END
>  <ref_pdb>  (50) 
X0147_0A

>  <ref_mols>  (50) 
x1594,x1604,x1140

>  <original SMILES>  (50) 
CN(Cc1c(Br)nnn1C)[C@H]1CNS(=O)(=O)C1

$$$$
ZINC000306604982
     RDKit          3D

 13 13  0  0  0  0  0  0  0  0999 V2000
   -7.7722   -7.2892   -4.7094 C   0  0  0  0  0  0  0  0  0  0  0  0
   -7.4575   -5.8105   -4.7409 C   0  0  1  0  0  0  0  0  0  0  0  0
   -8.5129   -5.0792   -5.5319 C   0  0  0  0  0  0  0  0  0  0  0  0
   -8.0616   -4.8791   -6.8849 N   0  0  0  0  0  0  0  0  0  0  0  0
   -7.1123   -3.9779   -7.1601 N   0  0  0  0  0  0  0  0  0  0  0  0
   -6.9214   -4.0792   -8.4687 N   0  0  0  0  0  0  0  0  0  0  0  0
   -7.7394   -5.0441   -9.0138 N   0  0  0  0  0  0  0  0  0  0  0  0
   -8.4454   -5.5324   -8.0165 C   0  0  0  0  0  0  0  0  0  0  0  0
   -9.3790   -6.5055   -7.9803 N   0  0  0  0  0  0  0  0  0  0  0  0
   -7.4470   -5.1291   -3.1060 S   0  0  0  0  0  0  0  0  0  0  0  0
   -6.0317   -5.8686   -2.5090 N   0  0  0  0  0  0  0  0  0  0  0  0
   -7.2278   -3.7030   -3.2258 O   0  0  0  0  0  0  0  0  0  0  0  0
   -8.6020   -5.6517   -2.4039 O   0  0  0  0  0  0  0  0  0  0  0  0
  2  1  1  1
  2  3  1  0
  3  4  1  0
  4  5  1  0
  5  6  2  0
  6  7  1  0
  7  8  2  0
  8  9  1  0
  2 10  1  0
 10 11  1  0
 10 12  2  0
 10 13  2  0
  8  4  1  0
M  END
>  <ref_pdb>  (51) 
X0147_0A

>  <ref_mols>  (51) 
x1594,x1604,x1140

>  <original SMILES>  (51) 
C[C@@H](Cn1nnnc1N)S(N)(=O)=O

$$$$
Z3310429604
     RDKit          3D

 17 18  0  0  0  0  0  0  0  0999 V2000
   -9.3751   -2.6272   -8.7546 C   0  0  0  0  0  0  0  0  0  0  0  0
   -8.4665   -3.7240   -8.5174 N   0  0  0  0  0  0  0  0  0  0  0  0
   -7.2383   -3.6874   -9.0466 N   0  0  0  0  0  0  0  0  0  0  0  0
   -6.6409   -4.8279   -8.7246 N   0  0  0  0  0  0  0  0  0  0  0  0
   -7.5163   -5.5643   -7.9771 C   0  0  0  0  0  0  0  0  0  0  0  0
   -7.1198   -7.2845   -7.3332 Br  0  0  0  0  0  0  0  0  0  0  0  0
   -8.6846   -4.8596   -7.7960 C   0  0  0  0  0  0  0  0  0  0  0  0
   -9.9524   -5.1529   -7.1108 C   0  0  0  0  0  0  0  0  0  0  0  0
  -10.0137   -4.8149   -5.6989 N   0  0  0  0  0  0  0  0  0  0  0  0
   -9.5524   -3.4641   -5.4159 C   0  0  0  0  0  0  0  0  0  0  0  0
   -9.0562   -3.4983   -3.9857 C   0  0  0  0  0  0  0  0  0  0  0  0
   -8.8976   -4.9634   -3.6427 C   0  0  2  0  0  0  0  0  0  0  0  0
   -7.2621   -5.3379   -3.0717 S   0  0  0  0  0  0  0  0  0  0  0  0
   -6.3267   -4.7778   -4.3829 N   0  0  0  0  0  0  0  0  0  0  0  0
   -6.9982   -4.5012   -1.9171 O   0  0  0  0  0  0  0  0  0  0  0  0
   -7.1428   -6.7804   -2.9895 O   0  0  0  0  0  0  0  0  0  0  0  0
   -9.1781   -5.7177   -4.9168 C   0  0  0  0  0  0  0  0  0  0  0  0
  1  2  1  0
  2  3  1  0
  3  4  2  0
  4  5  1  0
  5  6  1  0
  5  7  2  0
  7  8  1  0
  8  9  1  0
  9 10  1  0
 10 11  1  0
 11 12  1  0
 12 13  1  6
 13 14  1  0
 13 15  2  0
 13 16  2  0
 12 17  1  0
  7  2  1  0
 17  9  1  0
M  END
>  <ref_pdb>  (52) 
X0147_0A

>  <ref_mols>  (52) 
x1594,x1604,x1140

>  <original SMILES>  (52) 
Cn1nnc(Br)c1CN1CC[C@H](S(N)(=O)=O)C1

$$$$
CSMB00015567113
     RDKit          3D

 13 13  0  0  0  0  0  0  0  0999 V2000
   -7.8352   -7.2747   -4.6878 C   0  0  0  0  0  0  0  0  0  0  0  0
   -7.4833   -5.8052   -4.7404 C   0  0  1  0  0  0  0  0  0  0  0  0
   -8.5264   -5.0580   -5.5325 C   0  0  0  0  0  0  0  0  0  0  0  0
   -8.0676   -4.8620   -6.8836 N   0  0  0  0  0  0  0  0  0  0  0  0
   -7.1262   -3.9522   -7.1575 N   0  0  0  0  0  0  0  0  0  0  0  0
   -6.9245   -4.0597   -8.4641 N   0  0  0  0  0  0  0  0  0  0  0  0
   -7.7275   -5.0370   -9.0090 N   0  0  0  0  0  0  0  0  0  0  0  0
   -8.4354   -5.5269   -8.0138 C   0  0  0  0  0  0  0  0  0  0  0  0
   -9.3578   -6.5106   -7.9784 N   0  0  0  0  0  0  0  0  0  0  0  0
   -7.4415   -5.1045   -3.1140 S   0  0  0  0  0  0  0  0  0  0  0  0
   -6.0361   -5.8674   -2.5229 N   0  0  0  0  0  0  0  0  0  0  0  0
   -7.1929   -3.6851   -3.2528 O   0  0  0  0  0  0  0  0  0  0  0  0
   -8.5999   -5.5940   -2.3939 O   0  0  0  0  0  0  0  0  0  0  0  0
  2  1  1  1
  2  3  1  0
  3  4  1  0
  4  5  1  0
  5  6  2  0
  6  7  1  0
  7  8  2  0
  8  9  1  0
  2 10  1  0
 10 11  1  0
 10 12  2  0
 10 13  2  0
  8  4  1  0
M  END
>  <ref_pdb>  (53) 
X0147_0A

>  <ref_mols>  (53) 
x1594,x1604,x1140

>  <original SMILES>  (53) 
C[C@@H](Cn1nnnc1N)S(N)(=O)=O

$$$$
PV-006742214461
     RDKit          3D

 16 16  0  0  0  0  0  0  0  0999 V2000
   -9.2059   -2.5303   -7.3945 C   0  0  0  0  0  0  0  0  0  0  0  0
   -8.4120   -3.6244   -7.9974 C   0  0  0  0  0  0  0  0  0  0  0  0
   -8.0203   -3.4298   -9.2599 N   0  0  0  0  0  0  0  0  0  0  0  0
   -7.1066   -4.7206   -9.7450 S   0  0  0  0  0  0  0  0  0  0  0  0
   -7.2204   -5.5624   -8.2808 C   0  0  0  0  0  0  0  0  0  0  0  0
   -6.3884   -7.2541   -7.9748 Br  0  0  0  0  0  0  0  0  0  0  0  0
   -7.9920   -4.8578   -7.3788 C   0  0  0  0  0  0  0  0  0  0  0  0
   -8.2243   -5.3557   -6.1057 N   0  0  0  0  0  0  0  0  0  0  0  0
   -9.0936   -4.8833   -5.1497 C   0  0  0  0  0  0  0  0  0  0  0  0
   -9.9435   -4.0099   -5.3003 O   0  0  0  0  0  0  0  0  0  0  0  0
   -8.9927   -5.6126   -3.8499 C   0  0  1  0  0  0  0  0  0  0  0  0
   -9.2565   -7.0905   -3.9952 C   0  0  0  0  0  0  0  0  0  0  0  0
   -7.4631   -5.2551   -3.0486 S   0  0  0  0  0  0  0  0  0  0  0  0
   -6.4096   -6.3314   -3.8516 N   0  0  0  0  0  0  0  0  0  0  0  0
   -7.0678   -3.8987   -3.3697 O   0  0  0  0  0  0  0  0  0  0  0  0
   -7.5885   -5.6854   -1.6693 O   0  0  0  0  0  0  0  0  0  0  0  0
  1  2  1  0
  2  3  2  0
  3  4  1  0
  4  5  1  0
  5  6  1  0
  5  7  2  0
  7  8  1  0
  8  9  1  0
  9 10  2  0
  9 11  1  0
 11 12  1  6
 11 13  1  0
 13 14  1  0
 13 15  2  0
 13 16  2  0
  7  2  1  0
M  END
>  <ref_pdb>  (54) 
X0147_0A

>  <ref_mols>  (54) 
x1594,x1604,x1140

>  <original SMILES>  (54) 
Cc1nsc(Br)c1NC(=O)[C@@H](C)S(N)(=O)=O

$$$$
CSMB06273568913
     RDKit          3D

 17 18  0  0  0  0  0  0  0  0999 V2000
   -7.0117   -7.0679   -3.4595 N   0  0  0  0  0  0  0  0  0  0  0  0
   -7.0661   -5.4006   -3.0980 S   0  0  0  0  0  0  0  0  0  0  0  0
   -6.2794   -4.6759   -4.0744 O   0  0  0  0  0  0  0  0  0  0  0  0
   -6.8621   -5.2198   -1.6754 O   0  0  0  0  0  0  0  0  0  0  0  0
   -8.7909   -5.1171   -3.4241 C   0  0  0  0  0  0  0  0  0  0  0  0
   -9.0120   -4.4827   -4.7749 C   0  0  2  0  0  0  0  0  0  0  0  0
  -10.3107   -3.7033   -4.7686 C   0  0  0  0  0  0  0  0  0  0  0  0
  -10.5668   -3.1033   -6.1365 C   0  0  0  0  0  0  0  0  0  0  0  0
  -10.5468   -4.1741   -7.2114 C   0  0  0  0  0  0  0  0  0  0  0  0
   -9.3124   -4.9399   -7.1376 N   0  0  0  0  0  0  0  0  0  0  0  0
   -9.0321   -5.5462   -5.8555 C   0  0  0  0  0  0  0  0  0  0  0  0
   -8.3141   -4.6512   -8.0337 C   0  0  0  0  0  0  0  0  0  0  0  0
   -8.4601   -3.7041   -8.9724 N   0  0  0  0  0  0  0  0  0  0  0  0
   -7.0360   -3.6690   -9.8345 S   0  0  0  0  0  0  0  0  0  0  0  0
   -6.1893   -4.8838   -9.0737 N   0  0  0  0  0  0  0  0  0  0  0  0
   -7.0165   -5.3215   -8.1215 C   0  0  0  0  0  0  0  0  0  0  0  0
   -6.4799   -6.6312   -7.1611 Cl  0  0  0  0  0  0  0  0  0  0  0  0
  1  2  1  0
  2  3  2  0
  2  4  2  0
  2  5  1  0
  6  5  1  1
  6  7  1  0
  7  8  1  0
  8  9  1  0
  9 10  1  0
 10 11  1  0
 10 12  1  0
 12 13  2  0
 13 14  1  0
 14 15  1  0
 15 16  2  0
 16 17  1  0
 11  6  1  0
 16 12  1  0
M  END
>  <ref_pdb>  (55) 
X0147_0A

>  <ref_mols>  (55) 
x1594,x1604,x1140

>  <original SMILES>  (55) 
NS(=O)(=O)C[C@@H]1CCCN(c2nsnc2Cl)C1

$$$$
CSMB03460964545
     RDKit          3D

 18 19  0  0  0  0  0  0  0  0999 V2000
   -4.3606   -6.6857   -2.2100 C   0  0  0  0  0  0  0  0  0  0  0  0
   -4.7872   -7.1125   -3.5955 C   0  0  0  0  0  0  0  0  0  0  0  0
   -6.2330   -6.9221   -3.8038 N   0  0  0  0  0  0  0  0  0  0  0  0
   -7.0441   -7.6937   -2.8478 C   0  0  0  0  0  0  0  0  0  0  0  0
   -8.4410   -7.8329   -3.4167 C   0  0  0  0  0  0  0  0  0  0  0  0
   -9.1108   -6.4806   -3.5833 C   0  0  0  0  0  0  0  0  0  0  0  0
   -8.3959   -5.5618   -4.5699 C   0  0  2  0  0  0  0  0  0  0  0  0
   -8.3466   -6.0426   -6.0072 C   0  0  1  0  0  0  0  0  0  0  0  0
  -10.0152   -6.9477   -6.5245 Br  0  0  0  0  0  0  0  0  0  0  0  0
   -8.1696   -4.9526   -7.0060 C   0  0  0  0  0  0  0  0  0  0  0  0
   -7.2821   -4.9587   -8.0602 C   0  0  0  0  0  0  0  0  0  0  0  0
   -6.0874   -6.3783   -8.4932 Br  0  0  0  0  0  0  0  0  0  0  0  0
   -7.3930   -3.5083   -8.9353 S   0  0  0  0  0  0  0  0  0  0  0  0
   -8.5878   -2.8387   -7.9918 N   0  0  0  0  0  0  0  0  0  0  0  0
   -8.8711   -3.7093   -7.0302 C   0  0  0  0  0  0  0  0  0  0  0  0
   -6.7210   -5.3065   -3.9788 S   0  0  0  0  0  0  0  0  0  0  0  0
   -5.9094   -4.7166   -5.0178 O   0  0  0  0  0  0  0  0  0  0  0  0
   -6.7886   -4.7243   -2.6564 O   0  0  0  0  0  0  0  0  0  0  0  0
  1  2  1  0
  2  3  1  0
  3  4  1  0
  4  5  1  0
  5  6  1  0
  7  6  1  1
  7  8  1  0
  8  9  1  6
  8 10  1  0
 10 11  2  0
 11 12  1  0
 11 13  1  0
 13 14  1  0
 14 15  2  0
  7 16  1  0
 16 17  2  0
 16 18  2  0
 16  3  1  0
 15 10  1  0
M  END
>  <ref_pdb>  (56) 
X0147_0A

>  <ref_mols>  (56) 
x1594,x1604,x1140

>  <original SMILES>  (56) 
CCN1CCC[C@H]([C@@H](Br)c2cnsc2Br)S1(=O)=O

$$$$
CSMB03566345946
     RDKit          3D

 17 18  0  0  0  0  0  0  0  0999 V2000
   -7.0793   -7.4558   -9.0017 Br  0  0  0  0  0  0  0  0  0  0  0  0
   -7.5865   -5.6290   -8.9292 C   0  0  0  0  0  0  0  0  0  0  0  0
   -6.9785   -4.7502   -9.7240 N   0  0  0  0  0  0  0  0  0  0  0  0
   -7.6131   -3.2498   -9.4200 S   0  0  0  0  0  0  0  0  0  0  0  0
   -8.6682   -3.7668   -8.1975 C   0  0  0  0  0  0  0  0  0  0  0  0
   -8.5525   -5.1271   -8.0017 C   0  0  0  0  0  0  0  0  0  0  0  0
   -9.3470   -5.8805   -7.0519 C   0  0  0  0  0  0  0  0  0  0  0  0
   -9.8628   -6.9532   -7.3499 O   0  0  0  0  0  0  0  0  0  0  0  0
   -9.5167   -5.3376   -5.7961 N   0  0  0  0  0  0  0  0  0  0  0  0
   -8.7985   -4.2434   -5.1812 C   0  0  1  0  0  0  0  0  0  0  0  0
   -9.4608   -3.8584   -3.8703 C   0  0  0  0  0  0  0  0  0  0  0  0
   -9.2956   -4.9065   -2.7825 C   0  0  0  0  0  0  0  0  0  0  0  0
   -7.5667   -5.1715   -2.4519 S   0  0  0  0  0  0  0  0  0  0  0  0
   -6.9744   -3.8874   -2.1406 O   0  0  0  0  0  0  0  0  0  0  0  0
   -7.4324   -6.3166   -1.5820 O   0  0  0  0  0  0  0  0  0  0  0  0
   -7.0854   -5.6053   -4.0315 N   0  0  0  0  0  0  0  0  0  0  0  0
   -7.3064   -4.5240   -5.0093 C   0  0  0  0  0  0  0  0  0  0  0  0
  1  2  1  0
  2  3  2  0
  3  4  1  0
  4  5  1  0
  5  6  2  0
  6  7  1  0
  7  8  2  0
  7  9  1  0
 10  9  1  1
 10 11  1  0
 11 12  1  0
 12 13  1  0
 13 14  2  0
 13 15  2  0
 13 16  1  0
 16 17  1  0
  6  2  1  0
 17 10  1  0
M  END
>  <ref_pdb>  (57) 
X0147_0A

>  <ref_mols>  (57) 
x1594,x1604,x1140

>  <original SMILES>  (57) 
O=C(N[C@H]1CCS(=O)(=O)NC1)c1csnc1Br

$$$$
CSMB06655879710
     RDKit          3D

 17 18  0  0  0  0  0  0  0  0999 V2000
   -5.8708   -7.0736   -4.1472 C   0  0  0  0  0  0  0  0  0  0  0  0
   -6.2491   -5.7304   -3.6804 N   0  0  0  0  0  0  0  0  0  0  0  0
   -6.9009   -4.9713   -4.7690 C   0  0  0  0  0  0  0  0  0  0  0  0
   -8.3677   -5.4035   -4.7306 C   0  0  1  0  0  0  0  0  0  0  0  0
   -8.7997   -5.4033   -3.2799 C   0  0  0  0  0  0  0  0  0  0  0  0
   -7.3179   -5.7195   -2.3456 S   0  0  0  0  0  0  0  0  0  0  0  0
   -7.0501   -4.5363   -1.5616 O   0  0  0  0  0  0  0  0  0  0  0  0
   -7.3791   -7.0459   -1.7780 O   0  0  0  0  0  0  0  0  0  0  0  0
   -9.2032   -4.4870   -5.4949 N   0  0  0  0  0  0  0  0  0  0  0  0
   -9.5986   -5.1524   -6.7271 C   0  0  0  0  0  0  0  0  0  0  0  0
   -8.6433   -4.8918   -7.8105 C   0  0  0  0  0  0  0  0  0  0  0  0
   -7.7067   -5.6815   -8.4343 C   0  0  0  0  0  0  0  0  0  0  0  0
   -7.3142   -7.4744   -8.0329 Br  0  0  0  0  0  0  0  0  0  0  0  0
   -7.0679   -4.9665   -9.4052 N   0  0  0  0  0  0  0  0  0  0  0  0
   -7.5838   -3.7429   -9.4151 N   0  0  0  0  0  0  0  0  0  0  0  0
   -8.5258   -3.7023   -8.4642 N   0  0  0  0  0  0  0  0  0  0  0  0
   -9.2546   -2.4777   -8.2319 C   0  0  0  0  0  0  0  0  0  0  0  0
  1  2  1  0
  2  3  1  0
  3  4  1  0
  4  5  1  0
  5  6  1  0
  6  7  2  0
  6  8  2  0
  4  9  1  6
  9 10  1  0
 10 11  1  0
 11 12  2  0
 12 13  1  0
 12 14  1  0
 14 15  2  0
 15 16  1  0
 16 17  1  0
  6  2  1  0
 16 11  1  0
M  END
>  <ref_pdb>  (58) 
X0147_0A

>  <ref_mols>  (58) 
x1594,x1604,x1140

>  <original SMILES>  (58) 
CN1C[C@H](NCc2c(Br)nnn2C)CS1(=O)=O

$$$$
ZINC000533844772
     RDKit          3D

 16 17  0  0  0  0  0  0  0  0999 V2000
   -5.9969   -5.9618   -3.4813 N   0  0  0  0  0  0  0  0  0  0  0  0
   -7.2805   -4.9974   -2.8948 S   0  0  0  0  0  0  0  0  0  0  0  0
   -6.7193   -3.8230   -2.2561 O   0  0  0  0  0  0  0  0  0  0  0  0
   -8.2280   -5.8483   -2.2034 O   0  0  0  0  0  0  0  0  0  0  0  0
   -7.9725   -4.4976   -4.4420 C   0  0  2  0  0  0  0  0  0  0  0  0
   -9.0664   -3.4778   -4.2585 C   0  0  0  0  0  0  0  0  0  0  0  0
   -9.9546   -3.7069   -5.4592 C   0  0  0  0  0  0  0  0  0  0  0  0
   -9.8557   -5.1330   -5.7555 N   0  0  0  0  0  0  0  0  0  0  0  0
   -9.8683   -5.3456   -7.1995 C   0  0  0  0  0  0  0  0  0  0  0  0
   -8.5946   -5.0218   -7.8944 C   0  0  0  0  0  0  0  0  0  0  0  0
   -8.0502   -3.7416   -7.7929 N   0  0  0  0  0  0  0  0  0  0  0  0
   -6.9111   -3.6343   -8.4601 N   0  0  0  0  0  0  0  0  0  0  0  0
   -6.4833   -5.0540   -9.2444 S   0  0  0  0  0  0  0  0  0  0  0  0
   -7.8524   -5.8802   -8.6746 C   0  0  0  0  0  0  0  0  0  0  0  0
   -8.1392   -7.5162   -9.0686 Cl  0  0  0  0  0  0  0  0  0  0  0  0
   -8.6529   -5.6631   -5.1168 C   0  0  0  0  0  0  0  0  0  0  0  0
  1  2  1  0
  2  3  2  0
  2  4  2  0
  5  2  1  1
  5  6  1  0
  6  7  1  0
  7  8  1  0
  8  9  1  0
  9 10  1  0
 10 11  1  0
 11 12  2  0
 12 13  1  0
 13 14  1  0
 14 15  1  0
  8 16  1  0
 16  5  1  0
 14 10  2  0
M  END
>  <ref_pdb>  (59) 
X0147_0A

>  <ref_mols>  (59) 
x1594,x1604,x1140

>  <original SMILES>  (59) 
NS(=O)(=O)[C@@H]1CCN(Cc2nnsc2Cl)C1

$$$$
Z5520078522
     RDKit          3D

 16 17  0  0  0  0  0  0  0  0999 V2000
   -5.9751   -5.9620   -3.5057 N   0  0  0  0  0  0  0  0  0  0  0  0
   -7.2645   -5.0057   -2.9184 S   0  0  0  0  0  0  0  0  0  0  0  0
   -6.7103   -3.8291   -2.2777 O   0  0  0  0  0  0  0  0  0  0  0  0
   -8.2076   -5.8630   -2.2289 O   0  0  0  0  0  0  0  0  0  0  0  0
   -7.9584   -4.5074   -4.4652 C   0  0  2  0  0  0  0  0  0  0  0  0
   -9.0580   -3.4941   -4.2809 C   0  0  0  0  0  0  0  0  0  0  0  0
   -9.9444   -3.7264   -5.4824 C   0  0  0  0  0  0  0  0  0  0  0  0
   -9.8371   -5.1514   -5.7807 N   0  0  0  0  0  0  0  0  0  0  0  0
   -9.8479   -5.3620   -7.2250 C   0  0  0  0  0  0  0  0  0  0  0  0
   -8.5755   -5.0300   -7.9188 C   0  0  0  0  0  0  0  0  0  0  0  0
   -7.8281   -5.8830   -8.6999 C   0  0  0  0  0  0  0  0  0  0  0  0
   -8.1056   -7.5201   -9.0964 Cl  0  0  0  0  0  0  0  0  0  0  0  0
   -6.4634   -5.0483   -9.2676 S   0  0  0  0  0  0  0  0  0  0  0  0
   -6.8996   -3.6322   -8.4814 N   0  0  0  0  0  0  0  0  0  0  0  0
   -8.0384   -3.7469   -7.8152 N   0  0  0  0  0  0  0  0  0  0  0  0
   -8.6319   -5.6757   -5.1423 C   0  0  0  0  0  0  0  0  0  0  0  0
  1  2  1  0
  2  3  2  0
  2  4  2  0
  5  2  1  1
  5  6  1  0
  6  7  1  0
  7  8  1  0
  8  9  1  0
  9 10  1  0
 10 11  2  0
 11 12  1  0
 11 13  1  0
 13 14  1  0
 14 15  2  0
  8 16  1  0
 16  5  1  0
 15 10  1  0
M  END
>  <ref_pdb>  (60) 
X0147_0A

>  <ref_mols>  (60) 
x1594,x1604,x1140

>  <original SMILES>  (60) 
NS(=O)(=O)[C@@H]1CCN(Cc2nnsc2Cl)C1

$$$$
CSMB00115030795
     RDKit          3D

 16 17  0  0  0  0  0  0  0  0999 V2000
   -5.4597   -6.4404   -1.8026 C   0  0  0  0  0  0  0  0  0  0  0  0
   -5.9417   -6.0439   -3.1300 N   0  0  0  0  0  0  0  0  0  0  0  0
   -5.8202   -7.1346   -4.1054 C   0  0  0  0  0  0  0  0  0  0  0  0
   -6.5683   -6.6010   -5.3178 C   0  0  0  0  0  0  0  0  0  0  0  0
   -7.8826   -6.0038   -4.8192 C   0  0  2  0  0  0  0  0  0  0  0  0
   -8.3522   -4.7932   -5.5827 C   0  0  2  0  0  0  0  0  0  0  0  0
  -10.1062   -4.5735   -5.3837 Cl  0  0  0  0  0  0  0  0  0  0  0  0
   -8.0129   -4.7292   -7.0265 C   0  0  0  0  0  0  0  0  0  0  0  0
   -7.3028   -3.6817   -7.5746 C   0  0  0  0  0  0  0  0  0  0  0  0
   -7.0716   -3.9227   -9.2373 S   0  0  0  0  0  0  0  0  0  0  0  0
   -7.8609   -5.3804   -9.2969 N   0  0  0  0  0  0  0  0  0  0  0  0
   -8.3123   -5.6576   -8.0770 C   0  0  0  0  0  0  0  0  0  0  0  0
   -9.2782   -7.2658   -7.7878 Br  0  0  0  0  0  0  0  0  0  0  0  0
   -7.5602   -5.5018   -3.1383 S   0  0  0  0  0  0  0  0  0  0  0  0
   -7.5448   -4.0655   -3.0054 O   0  0  0  0  0  0  0  0  0  0  0  0
   -8.3203   -6.3679   -2.2662 O   0  0  0  0  0  0  0  0  0  0  0  0
  1  2  1  0
  2  3  1  0
  3  4  1  0
  5  4  1  6
  5  6  1  0
  6  7  1  6
  6  8  1  0
  8  9  2  0
  9 10  1  0
 10 11  1  0
 11 12  2  0
 12 13  1  0
  5 14  1  0
 14 15  2  0
 14 16  2  0
 14  2  1  0
 12  8  1  0
M  END
>  <ref_pdb>  (61) 
X0147_0A

>  <ref_mols>  (61) 
x1594,x1604,x1140

>  <original SMILES>  (61) 
CN1CC[C@H]([C@H](Cl)c2csnc2Br)S1(=O)=O

$$$$
Z5512570866
     RDKit          3D

 17 18  0  0  0  0  0  0  0  0999 V2000
   -9.7430   -2.6666   -8.7240 C   0  0  0  0  0  0  0  0  0  0  0  0
   -8.7326   -3.6923   -8.6154 N   0  0  0  0  0  0  0  0  0  0  0  0
   -7.5795   -3.5541   -9.2803 N   0  0  0  0  0  0  0  0  0  0  0  0
   -6.8634   -4.6477   -9.0512 N   0  0  0  0  0  0  0  0  0  0  0  0
   -7.5884   -5.4586   -8.2249 C   0  0  0  0  0  0  0  0  0  0  0  0
   -6.9864   -7.1466   -7.6590 Br  0  0  0  0  0  0  0  0  0  0  0  0
   -8.7787   -4.8501   -7.8978 C   0  0  0  0  0  0  0  0  0  0  0  0
   -9.9312   -5.2502   -7.0764 C   0  0  0  0  0  0  0  0  0  0  0  0
   -9.8483   -4.9290   -5.6631 N   0  0  0  0  0  0  0  0  0  0  0  0
   -9.5700   -3.5221   -5.4102 C   0  0  0  0  0  0  0  0  0  0  0  0
   -8.5720   -3.4881   -4.2757 C   0  0  0  0  0  0  0  0  0  0  0  0
   -7.8204   -4.7855   -4.4280 C   0  0  1  0  0  0  0  0  0  0  0  0
   -7.2170   -5.3709   -2.8728 S   0  0  0  0  0  0  0  0  0  0  0  0
   -6.3145   -6.7120   -3.4244 N   0  0  0  0  0  0  0  0  0  0  0  0
   -6.2988   -4.3764   -2.3531 O   0  0  0  0  0  0  0  0  0  0  0  0
   -8.3345   -5.8463   -2.0822 O   0  0  0  0  0  0  0  0  0  0  0  0
   -8.8419   -5.7423   -4.9879 C   0  0  0  0  0  0  0  0  0  0  0  0
  1  2  1  0
  2  3  1  0
  3  4  2  0
  4  5  1  0
  5  6  1  0
  5  7  2  0
  7  8  1  0
  8  9  1  0
  9 10  1  0
 10 11  1  0
 11 12  1  0
 12 13  1  1
 13 14  1  0
 13 15  2  0
 13 16  2  0
 12 17  1  0
  7  2  1  0
 17  9  1  0
M  END
>  <ref_pdb>  (62) 
X0147_0A

>  <ref_mols>  (62) 
x1594,x1604,x1140

>  <original SMILES>  (62) 
Cn1nnc(Br)c1CN1CC[C@@H](S(N)(=O)=O)C1

$$$$
CSMB00017255787
     RDKit          3D

 17 18  0  0  0  0  0  0  0  0999 V2000
   -6.6426   -6.8186   -4.0108 C   0  0  0  0  0  0  0  0  0  0  0  0
   -7.0715   -5.2217   -3.3665 S   0  0  0  0  0  0  0  0  0  0  0  0
   -5.8652   -4.4376   -3.2332 O   0  0  0  0  0  0  0  0  0  0  0  0
   -7.9937   -5.3973   -2.2655 O   0  0  0  0  0  0  0  0  0  0  0  0
   -7.9678   -4.5861   -4.6747 N   0  0  0  0  0  0  0  0  0  0  0  0
   -8.1952   -3.1329   -4.4764 C   0  0  0  0  0  0  0  0  0  0  0  0
   -8.8059   -2.5419   -5.7295 C   0  0  0  0  0  0  0  0  0  0  0  0
  -10.1294   -3.2037   -6.0462 C   0  0  0  0  0  0  0  0  0  0  0  0
  -10.0200   -4.7095   -6.0351 C   0  0  1  0  0  0  0  0  0  0  0  0
   -9.7568   -5.3599   -7.3729 C   0  0  0  0  0  0  0  0  0  0  0  0
   -8.5279   -4.9886   -8.0150 N   0  0  0  0  0  0  0  0  0  0  0  0
   -8.3452   -3.8837   -8.7952 C   0  0  0  0  0  0  0  0  0  0  0  0
   -7.1285   -3.9136   -9.3001 N   0  0  0  0  0  0  0  0  0  0  0  0
   -6.5244   -5.0870   -8.8848 N   0  0  0  0  0  0  0  0  0  0  0  0
   -7.3915   -5.7125   -8.1308 C   0  0  0  0  0  0  0  0  0  0  0  0
   -7.2243   -7.2355   -7.4072 Cl  0  0  0  0  0  0  0  0  0  0  0  0
   -9.2531   -5.2882   -4.8713 C   0  0  0  0  0  0  0  0  0  0  0  0
  1  2  1  0
  2  3  2  0
  2  4  2  0
  2  5  1  0
  5  6  1  0
  6  7  1  0
  7  8  1  0
  8  9  1  0
  9 10  1  6
 10 11  1  0
 11 12  1  0
 12 13  2  0
 13 14  1  0
 14 15  2  0
 15 16  1  0
  9 17  1  0
 17  5  1  0
 15 11  1  0
M  END
>  <ref_pdb>  (63) 
X0147_0A

>  <ref_mols>  (63) 
x1594,x1604,x1140

>  <original SMILES>  (63) 
CS(=O)(=O)N1CCC[C@@H](Cn2cnnc2Cl)C1

$$$$
CSMB00115764287
     RDKit          3D

 18 19  0  0  0  0  0  0  0  0999 V2000
   -7.3771   -6.8858   -2.6379 N   0  0  0  0  0  0  0  0  0  0  0  0
   -7.5811   -5.2126   -2.3809 S   0  0  0  0  0  0  0  0  0  0  0  0
   -6.3241   -4.6505   -1.9278 O   0  0  0  0  0  0  0  0  0  0  0  0
   -8.8107   -4.9872   -1.6474 O   0  0  0  0  0  0  0  0  0  0  0  0
   -7.8335   -4.6901   -4.0532 C   0  0  2  0  0  0  0  0  0  0  0  0
   -7.7987   -3.1731   -4.1642 C   0  0  0  0  0  0  0  0  0  0  0  0
   -8.1336   -2.7012   -5.5722 C   0  0  0  0  0  0  0  0  0  0  0  0
   -9.4161   -3.3369   -6.0811 C   0  0  0  0  0  0  0  0  0  0  0  0
   -9.3442   -4.7765   -5.9245 N   0  0  0  0  0  0  0  0  0  0  0  0
   -9.1698   -5.2041   -4.5502 C   0  0  0  0  0  0  0  0  0  0  0  0
   -8.7857   -5.6174   -6.8888 C   0  0  0  0  0  0  0  0  0  0  0  0
   -8.3802   -6.7327   -6.5671 O   0  0  0  0  0  0  0  0  0  0  0  0
   -8.6659   -5.1197   -8.2478 C   0  0  0  0  0  0  0  0  0  0  0  0
   -9.5454   -4.2380   -8.8389 C   0  0  0  0  0  0  0  0  0  0  0  0
   -9.0516   -3.8615  -10.4136 S   0  0  0  0  0  0  0  0  0  0  0  0
   -7.7302   -4.8595  -10.4091 N   0  0  0  0  0  0  0  0  0  0  0  0
   -7.6670   -5.4560   -9.2195 C   0  0  0  0  0  0  0  0  0  0  0  0
   -6.2241   -6.6386   -8.8651 Br  0  0  0  0  0  0  0  0  0  0  0  0
  1  2  1  0
  2  3  2  0
  2  4  2  0
  5  2  1  1
  5  6  1  0
  6  7  1  0
  7  8  1  0
  8  9  1  0
  9 10  1  0
  9 11  1  0
 11 12  2  0
 11 13  1  0
 13 14  2  0
 14 15  1  0
 15 16  1  0
 16 17  2  0
 17 18  1  0
 10  5  1  0
 17 13  1  0
M  END
>  <ref_pdb>  (64) 
X0147_0A

>  <ref_mols>  (64) 
x1594,x1604,x1140

>  <original SMILES>  (64) 
NS(=O)(=O)[C@@H]1CCCN(C(=O)c2csnc2Br)C1

$$$$
CSMB06655246842
     RDKit          3D

 17 18  0  0  0  0  0  0  0  0999 V2000
   -4.9277   -5.3272   -3.8809 C   0  0  0  0  0  0  0  0  0  0  0  0
   -6.2640   -5.9248   -3.8346 N   0  0  0  0  0  0  0  0  0  0  0  0
   -6.9489   -5.8376   -5.1419 C   0  0  0  0  0  0  0  0  0  0  0  0
   -8.3991   -5.3962   -4.8961 C   0  0  2  0  0  0  0  0  0  0  0  0
   -8.7594   -5.7455   -3.4634 C   0  0  0  0  0  0  0  0  0  0  0  0
   -7.2698   -5.2938   -2.6151 S   0  0  0  0  0  0  0  0  0  0  0  0
   -7.1627   -3.8512   -2.6457 O   0  0  0  0  0  0  0  0  0  0  0  0
   -7.0999   -6.0701   -1.4127 O   0  0  0  0  0  0  0  0  0  0  0  0
   -9.2971   -6.0820   -5.8149 N   0  0  0  0  0  0  0  0  0  0  0  0
   -9.7821   -5.1449   -6.8216 C   0  0  0  0  0  0  0  0  0  0  0  0
   -8.7162   -4.8226   -7.8046 C   0  0  0  0  0  0  0  0  0  0  0  0
   -8.0742   -3.5383   -7.9035 C   0  0  0  0  0  0  0  0  0  0  0  0
   -8.3722   -2.3558   -7.0621 C   0  0  0  0  0  0  0  0  0  0  0  0
   -7.1237   -3.4115   -8.8277 N   0  0  0  0  0  0  0  0  0  0  0  0
   -6.9917   -4.8447   -9.6523 S   0  0  0  0  0  0  0  0  0  0  0  0
   -8.1917   -5.6551   -8.7703 C   0  0  0  0  0  0  0  0  0  0  0  0
   -8.6955   -7.4635   -9.0911 Br  0  0  0  0  0  0  0  0  0  0  0  0
  1  2  1  0
  2  3  1  0
  3  4  1  0
  4  5  1  0
  5  6  1  0
  6  7  2  0
  6  8  2  0
  4  9  1  6
  9 10  1  0
 10 11  1  0
 11 12  1  0
 12 13  1  0
 12 14  2  0
 14 15  1  0
 15 16  1  0
 16 17  1  0
  6  2  1  0
 16 11  2  0
M  END
>  <ref_pdb>  (65) 
X0147_0A

>  <ref_mols>  (65) 
x1594,x1604,x1140

>  <original SMILES>  (65) 
Cc1nsc(Br)c1CN[C@@H]1CN(C)S(=O)(=O)C1

$$$$
PV-006923023048
     RDKit          3D

 18 19  0  0  0  0  0  0  0  0999 V2000
   -7.9108   -7.0085   -3.2521 N   0  0  0  0  0  0  0  0  0  0  0  0
   -7.5973   -5.3367   -3.2751 S   0  0  0  0  0  0  0  0  0  0  0  0
   -6.7818   -5.0020   -4.4260 O   0  0  0  0  0  0  0  0  0  0  0  0
   -7.1996   -4.9243   -1.9421 O   0  0  0  0  0  0  0  0  0  0  0  0
   -9.2274   -4.6966   -3.5389 C   0  0  1  0  0  0  0  0  0  0  0  0
   -9.2165   -3.1883   -3.7026 C   0  0  0  0  0  0  0  0  0  0  0  0
   -8.9269   -2.7344   -5.1203 C   0  0  0  0  0  0  0  0  0  0  0  0
   -9.8312   -3.4456   -6.1033 C   0  0  0  0  0  0  0  0  0  0  0  0
   -9.6927   -4.8789   -5.9527 N   0  0  0  0  0  0  0  0  0  0  0  0
   -8.8862   -5.6779   -6.7605 C   0  0  0  0  0  0  0  0  0  0  0  0
   -8.6532   -6.8382   -6.4256 O   0  0  0  0  0  0  0  0  0  0  0  0
   -8.3359   -5.1009   -7.9726 C   0  0  0  0  0  0  0  0  0  0  0  0
   -8.9911   -4.1890   -8.7720 C   0  0  0  0  0  0  0  0  0  0  0  0
   -8.0252   -3.7379  -10.0865 S   0  0  0  0  0  0  0  0  0  0  0  0
   -6.7593   -4.7347   -9.7028 N   0  0  0  0  0  0  0  0  0  0  0  0
   -7.0688   -5.3829   -8.5797 C   0  0  0  0  0  0  0  0  0  0  0  0
   -5.7992   -6.5792   -7.8300 Br  0  0  0  0  0  0  0  0  0  0  0  0
   -9.9820   -5.4062   -4.6394 C   0  0  0  0  0  0  0  0  0  0  0  0
  1  2  1  0
  2  3  2  0
  2  4  2  0
  5  2  1  6
  5  6  1  0
  6  7  1  0
  7  8  1  0
  8  9  1  0
  9 10  1  0
 10 11  2  0
 10 12  1  0
 12 13  2  0
 13 14  1  0
 14 15  1  0
 15 16  2  0
 16 17  1  0
  9 18  1  0
 18  5  1  0
 16 12  1  0
M  END
>  <ref_pdb>  (66) 
X0147_0A

>  <ref_mols>  (66) 
x1594,x1604,x1140

>  <original SMILES>  (66) 
NS(=O)(=O)[C@H]1CCCN(C(=O)c2csnc2Br)C1

$$$$
CSMB06364296917
     RDKit          3D

 17 18  0  0  0  0  0  0  0  0999 V2000
   -5.6953   -5.5662   -4.2399 C   0  0  0  0  0  0  0  0  0  0  0  0
   -7.1623   -5.5523   -4.1811 N   0  0  0  0  0  0  0  0  0  0  0  0
   -7.6978   -4.3448   -4.8422 C   0  0  0  0  0  0  0  0  0  0  0  0
   -9.2181   -4.4206   -5.0302 C   0  0  2  0  0  0  0  0  0  0  0  0
   -9.9442   -4.6358   -3.7141 C   0  0  0  0  0  0  0  0  0  0  0  0
   -9.4975   -5.8883   -2.9816 C   0  0  0  0  0  0  0  0  0  0  0  0
   -7.7594   -5.7746   -2.6106 S   0  0  0  0  0  0  0  0  0  0  0  0
   -7.5203   -4.5456   -1.8841 O   0  0  0  0  0  0  0  0  0  0  0  0
   -7.2916   -7.0511   -2.1228 O   0  0  0  0  0  0  0  0  0  0  0  0
   -9.6208   -5.4433   -5.9847 N   0  0  0  0  0  0  0  0  0  0  0  0
   -9.7663   -4.8547   -7.3043 C   0  0  0  0  0  0  0  0  0  0  0  0
   -8.5133   -4.8351   -8.0607 C   0  0  0  0  0  0  0  0  0  0  0  0
   -8.0333   -3.6879   -8.6202 N   0  0  0  0  0  0  0  0  0  0  0  0
   -6.8682   -3.8973   -9.2516 N   0  0  0  0  0  0  0  0  0  0  0  0
   -6.5890   -5.1923   -9.1509 N   0  0  0  0  0  0  0  0  0  0  0  0
   -7.5905   -5.7809   -8.4324 C   0  0  0  0  0  0  0  0  0  0  0  0
   -7.6249   -7.0992   -8.1509 N   0  0  0  0  0  0  0  0  0  0  0  0
  1  2  1  0
  2  3  1  0
  3  4  1  0
  4  5  1  0
  5  6  1  0
  6  7  1  0
  7  8  2  0
  7  9  2  0
  4 10  1  6
 10 11  1  0
 11 12  1  0
 12 13  1  0
 13 14  1  0
 14 15  2  0
 15 16  1  0
 16 17  1  0
  7  2  1  0
 16 12  2  0
M  END
>  <ref_pdb>  (67) 
X0147_0A

>  <ref_mols>  (67) 
x1594,x1604,x1140

>  <original SMILES>  (67) 
CN1C[C@@H](NCc2[nH]nnc2N)CCS1(=O)=O

$$$$
CSMB03460922109
     RDKit          3D

 18 19  0  0  0  0  0  0  0  0999 V2000
   -5.4785   -6.0920   -0.9365 C   0  0  0  0  0  0  0  0  0  0  0  0
   -5.1556   -6.7765   -2.2444 C   0  0  0  0  0  0  0  0  0  0  0  0
   -6.3618   -6.9889   -3.0613 N   0  0  0  0  0  0  0  0  0  0  0  0
   -7.3777   -7.8059   -2.3734 C   0  0  0  0  0  0  0  0  0  0  0  0
   -8.3313   -8.3644   -3.4146 C   0  0  0  0  0  0  0  0  0  0  0  0
   -9.0868   -7.2581   -4.1279 C   0  0  0  0  0  0  0  0  0  0  0  0
   -8.1380   -6.3560   -4.8923 C   0  0  1  0  0  0  0  0  0  0  0  0
   -8.8555   -5.2739   -5.6326 C   0  0  0  0  0  0  0  0  0  0  0  0
   -9.9105   -4.8089   -5.2018 O   0  0  0  0  0  0  0  0  0  0  0  0
   -8.3016   -4.7786   -6.8848 C   0  0  0  0  0  0  0  0  0  0  0  0
   -7.3681   -5.3592   -7.7201 C   0  0  0  0  0  0  0  0  0  0  0  0
   -6.5164   -7.0599   -7.5523 Br  0  0  0  0  0  0  0  0  0  0  0  0
   -7.0620   -4.3400   -9.0529 S   0  0  0  0  0  0  0  0  0  0  0  0
   -8.1432   -3.1623   -8.6160 N   0  0  0  0  0  0  0  0  0  0  0  0
   -8.7021   -3.5393   -7.4720 C   0  0  0  0  0  0  0  0  0  0  0  0
   -6.9871   -5.5837   -3.7920 S   0  0  0  0  0  0  0  0  0  0  0  0
   -5.9238   -4.9899   -4.5713 O   0  0  0  0  0  0  0  0  0  0  0  0
   -7.6895   -4.8418   -2.7704 O   0  0  0  0  0  0  0  0  0  0  0  0
  1  2  1  0
  2  3  1  0
  3  4  1  0
  4  5  1  0
  5  6  1  0
  6  7  1  0
  7  8  1  1
  8  9  2  0
  8 10  1  0
 10 11  2  0
 11 12  1  0
 11 13  1  0
 13 14  1  0
 14 15  2  0
  7 16  1  0
 16 17  2  0
 16 18  2  0
 16  3  1  0
 15 10  1  0
M  END
>  <ref_pdb>  (68) 
X0147_0A

>  <ref_mols>  (68) 
x1594,x1604,x1140

>  <original SMILES>  (68) 
CCN1CCC[C@@H](C(=O)c2cnsc2Br)S1(=O)=O

$$$$
PV-002242350023
     RDKit          3D

 19 20  0  0  0  0  0  0  0  0999 V2000
   -8.3543   -2.5454   -6.5414 C   0  0  0  0  0  0  0  0  0  0  0  0
   -7.9988   -3.5764   -7.4878 N   0  0  0  0  0  0  0  0  0  0  0  0
   -6.9494   -3.3871   -8.2996 N   0  0  0  0  0  0  0  0  0  0  0  0
   -6.8291   -4.4774   -9.0470 N   0  0  0  0  0  0  0  0  0  0  0  0
   -7.8299   -5.3371   -8.6961 C   0  0  0  0  0  0  0  0  0  0  0  0
   -8.0855   -7.0136   -9.5051 Br  0  0  0  0  0  0  0  0  0  0  0  0
   -8.6067   -4.7765   -7.7088 C   0  0  0  0  0  0  0  0  0  0  0  0
   -9.8194   -5.2591   -7.0312 C   0  0  0  0  0  0  0  0  0  0  0  0
   -9.6050   -5.3711   -5.6130 N   0  0  0  0  0  0  0  0  0  0  0  0
   -8.9864   -6.4751   -5.0724 C   0  0  0  0  0  0  0  0  0  0  0  0
   -8.6537   -7.4601   -5.7251 O   0  0  0  0  0  0  0  0  0  0  0  0
   -8.8171   -6.3681   -3.5882 C   0  0  1  0  0  0  0  0  0  0  0  0
   -8.6163   -7.7230   -2.9258 C   0  0  0  0  0  0  0  0  0  0  0  0
   -7.2813   -8.3787   -3.2360 C   0  0  0  0  0  0  0  0  0  0  0  0
   -6.1064   -7.5144   -2.8270 C   0  0  0  0  0  0  0  0  0  0  0  0
   -6.1531   -6.2635   -3.5997 N   0  0  0  0  0  0  0  0  0  0  0  0
   -7.4758   -5.2766   -3.1925 S   0  0  0  0  0  0  0  0  0  0  0  0
   -7.4981   -4.1227   -4.0670 O   0  0  0  0  0  0  0  0  0  0  0  0
   -7.4785   -5.1052   -1.7521 O   0  0  0  0  0  0  0  0  0  0  0  0
  1  2  1  0
  2  3  1  0
  3  4  2  0
  4  5  1  0
  5  6  1  0
  5  7  2  0
  7  8  1  0
  8  9  1  0
  9 10  1  0
 10 11  2  0
 12 10  1  6
 12 13  1  0
 13 14  1  0
 14 15  1  0
 15 16  1  0
 16 17  1  0
 17 18  2  0
 17 19  2  0
  7  2  1  0
 17 12  1  0
M  END
>  <ref_pdb>  (69) 
X0147_0A

>  <ref_mols>  (69) 
x1594,x1604,x1140

>  <original SMILES>  (69) 
Cn1nnc(Br)c1CNC(=O)[C@H]1CCCNS1(=O)=O

$$$$
CSMB02201768445
     RDKit          3D

 19 20  0  0  0  0  0  0  0  0999 V2000
   -3.3811   -6.4629   -3.3738 C   0  0  0  0  0  0  0  0  0  0  0  0
   -4.7393   -6.2625   -2.7476 C   0  0  0  0  0  0  0  0  0  0  0  0
   -5.7618   -6.6688   -3.7248 N   0  0  0  0  0  0  0  0  0  0  0  0
   -6.5413   -7.8050   -3.1942 C   0  0  0  0  0  0  0  0  0  0  0  0
   -7.3537   -8.4061   -4.3278 C   0  0  0  0  0  0  0  0  0  0  0  0
   -8.3782   -7.4213   -4.8618 C   0  0  0  0  0  0  0  0  0  0  0  0
   -7.6979   -6.1978   -5.4412 C   0  0  1  0  0  0  0  0  0  0  0  0
   -8.6776   -5.2250   -6.0125 C   0  0  0  0  0  0  0  0  0  0  0  0
   -9.7391   -4.9815   -5.4400 O   0  0  0  0  0  0  0  0  0  0  0  0
   -8.3449   -4.6104   -7.2730 C   0  0  0  0  0  0  0  0  0  0  0  0
   -7.3509   -4.8255   -8.2092 C   0  0  0  0  0  0  0  0  0  0  0  0
   -5.9742   -6.1119   -8.1888 Br  0  0  0  0  0  0  0  0  0  0  0  0
   -7.4999   -3.9663   -9.2623 N   0  0  0  0  0  0  0  0  0  0  0  0
   -8.5551   -3.2039   -9.0214 N   0  0  0  0  0  0  0  0  0  0  0  0
   -9.0511   -3.5821   -7.8381 N   0  0  0  0  0  0  0  0  0  0  0  0
  -10.2093   -2.8973   -7.3096 C   0  0  0  0  0  0  0  0  0  0  0  0
   -6.7549   -5.3602   -4.2007 S   0  0  0  0  0  0  0  0  0  0  0  0
   -5.9070   -4.3773   -4.8364 O   0  0  0  0  0  0  0  0  0  0  0  0
   -7.5851   -5.0294   -3.0644 O   0  0  0  0  0  0  0  0  0  0  0  0
  1  2  1  0
  2  3  1  0
  3  4  1  0
  4  5  1  0
  5  6  1  0
  6  7  1  0
  7  8  1  1
  8  9  2  0
  8 10  1  0
 10 11  2  0
 11 12  1  0
 11 13  1  0
 13 14  2  0
 14 15  1  0
 15 16  1  0
  7 17  1  0
 17 18  2  0
 17 19  2  0
 17  3  1  0
 15 10  1  0
M  END
>  <ref_pdb>  (70) 
X0147_0A

>  <ref_mols>  (70) 
x1594,x1604,x1140

>  <original SMILES>  (70) 
CCN1CCC[C@@H](C(=O)c2c(Br)nnn2C)S1(=O)=O

$$$$
CSMB03566349409
     RDKit          3D

 17 18  0  0  0  0  0  0  0  0999 V2000
   -6.8571   -7.1731   -9.1536 Br  0  0  0  0  0  0  0  0  0  0  0  0
   -7.6619   -5.4453   -9.2632 C   0  0  0  0  0  0  0  0  0  0  0  0
   -7.3185   -4.3452  -10.5089 S   0  0  0  0  0  0  0  0  0  0  0  0
   -8.2587   -3.1122   -9.9125 N   0  0  0  0  0  0  0  0  0  0  0  0
   -8.8011   -3.5407   -8.7785 C   0  0  0  0  0  0  0  0  0  0  0  0
   -8.5158   -4.8670   -8.3485 C   0  0  0  0  0  0  0  0  0  0  0  0
   -8.9772   -5.4857   -7.1329 C   0  0  0  0  0  0  0  0  0  0  0  0
   -9.1481   -6.6939   -7.0033 O   0  0  0  0  0  0  0  0  0  0  0  0
   -9.0906   -4.6039   -6.0767 N   0  0  0  0  0  0  0  0  0  0  0  0
   -9.0993   -5.1491   -4.7436 C   0  0  2  0  0  0  0  0  0  0  0  0
   -9.3133   -4.0454   -3.7279 C   0  0  0  0  0  0  0  0  0  0  0  0
   -9.3466   -4.5992   -2.3159 C   0  0  0  0  0  0  0  0  0  0  0  0
   -7.7859   -5.3392   -1.9011 S   0  0  0  0  0  0  0  0  0  0  0  0
   -6.7473   -4.3618   -2.1477 O   0  0  0  0  0  0  0  0  0  0  0  0
   -7.9250   -6.0204   -0.6350 O   0  0  0  0  0  0  0  0  0  0  0  0
   -7.7503   -6.4916   -3.1565 N   0  0  0  0  0  0  0  0  0  0  0  0
   -7.7715   -5.8762   -4.4916 C   0  0  0  0  0  0  0  0  0  0  0  0
  1  2  1  0
  2  3  1  0
  3  4  1  0
  4  5  2  0
  5  6  1  0
  6  7  1  0
  7  8  2  0
  7  9  1  0
 10  9  1  6
 10 11  1  0
 11 12  1  0
 12 13  1  0
 13 14  2  0
 13 15  2  0
 13 16  1  0
 16 17  1  0
  6  2  2  0
 17 10  1  0
M  END
>  <ref_pdb>  (71) 
X0147_0A

>  <ref_mols>  (71) 
x1594,x1604,x1140

>  <original SMILES>  (71) 
O=C(N[C@@H]1CCS(=O)(=O)NC1)c1cnsc1Br

$$$$
Z3078239956
     RDKit          3D

 17 18  0  0  0  0  0  0  0  0999 V2000
  -10.4486   -6.2630   -6.9456 N   0  0  0  0  0  0  0  0  0  0  0  0
   -9.5614   -5.7265   -7.4670 C   0  0  0  0  0  0  0  0  0  0  0  0
   -8.4703   -4.9802   -7.9929 C   0  0  0  0  0  0  0  0  0  0  0  0
   -8.0955   -3.7256   -7.5380 C   0  0  0  0  0  0  0  0  0  0  0  0
   -8.5591   -2.9221   -6.5399 N   0  0  0  0  0  0  0  0  0  0  0  0
   -9.4763   -3.3921   -5.5146 C   0  0  0  0  0  0  0  0  0  0  0  0
   -8.8861   -4.4795   -4.6314 C   0  0  2  0  0  0  0  0  0  0  0  0
   -9.8004   -4.7580   -3.4519 C   0  0  0  0  0  0  0  0  0  0  0  0
   -8.9956   -5.5652   -2.4445 C   0  0  0  0  0  0  0  0  0  0  0  0
   -7.2844   -5.1618   -2.7409 S   0  0  0  0  0  0  0  0  0  0  0  0
   -6.6462   -6.3318   -3.2981 O   0  0  0  0  0  0  0  0  0  0  0  0
   -6.7544   -4.4308   -1.6147 O   0  0  0  0  0  0  0  0  0  0  0  0
   -7.6026   -4.0815   -4.0254 N   0  0  0  0  0  0  0  0  0  0  0  0
   -6.7663   -3.2097   -8.5157 S   0  0  0  0  0  0  0  0  0  0  0  0
   -6.6574   -4.5864   -9.4278 N   0  0  0  0  0  0  0  0  0  0  0  0
   -7.6053   -5.4247   -9.0278 C   0  0  0  0  0  0  0  0  0  0  0  0
   -7.6978   -6.9563   -9.7722 Cl  0  0  0  0  0  0  0  0  0  0  0  0
  1  2  3  0
  2  3  1  0
  3  4  2  0
  4  5  1  0
  5  6  1  0
  7  6  1  6
  7  8  1  0
  8  9  1  0
  9 10  1  0
 10 11  2  0
 10 12  2  0
 10 13  1  0
  4 14  1  0
 14 15  1  0
 15 16  2  0
 16 17  1  0
 16  3  1  0
 13  7  1  0
M  END
>  <ref_pdb>  (72) 
X0147_0A

>  <ref_mols>  (72) 
x1594,x1604,x1140

>  <original SMILES>  (72) 
N#Cc1c(Cl)nsc1NC[C@@H]1CCS(=O)(=O)N1

$$$$
CSMB00115030797
     RDKit          3D

 17 18  0  0  0  0  0  0  0  0999 V2000
   -4.6881   -6.6409   -3.9616 C   0  0  0  0  0  0  0  0  0  0  0  0
   -5.9787   -6.7464   -3.2741 N   0  0  0  0  0  0  0  0  0  0  0  0
   -6.5817   -8.0832   -3.3984 C   0  0  0  0  0  0  0  0  0  0  0  0
   -7.1101   -8.3014   -4.8083 C   0  0  0  0  0  0  0  0  0  0  0  0
   -8.1732   -7.2889   -5.1952 C   0  0  0  0  0  0  0  0  0  0  0  0
   -7.6036   -5.8899   -5.1441 C   0  0  1  0  0  0  0  0  0  0  0  0
   -8.4211   -4.7720   -5.7276 C   0  0  2  0  0  0  0  0  0  0  0  0
  -10.1248   -4.8196   -5.2225 Cl  0  0  0  0  0  0  0  0  0  0  0  0
   -8.2839   -4.6659   -7.2115 C   0  0  0  0  0  0  0  0  0  0  0  0
   -9.2928   -4.7989   -8.1446 C   0  0  0  0  0  0  0  0  0  0  0  0
   -8.7042   -4.5682   -9.7158 S   0  0  0  0  0  0  0  0  0  0  0  0
   -7.1292   -4.3319   -9.2593 N   0  0  0  0  0  0  0  0  0  0  0  0
   -7.0724   -4.3938   -7.9328 C   0  0  0  0  0  0  0  0  0  0  0  0
   -5.3996   -4.1665   -7.0695 Br  0  0  0  0  0  0  0  0  0  0  0  0
   -7.0598   -5.4671   -3.5220 S   0  0  0  0  0  0  0  0  0  0  0  0
   -6.3061   -4.2369   -3.5992 O   0  0  0  0  0  0  0  0  0  0  0  0
   -8.1627   -5.6397   -2.6051 O   0  0  0  0  0  0  0  0  0  0  0  0
  1  2  1  0
  2  3  1  0
  3  4  1  0
  4  5  1  0
  6  5  1  1
  6  7  1  0
  7  8  1  6
  7  9  1  0
  9 10  2  0
 10 11  1  0
 11 12  1  0
 12 13  2  0
 13 14  1  0
  6 15  1  0
 15 16  2  0
 15 17  2  0
 15  2  1  0
 13  9  1  0
M  END
>  <ref_pdb>  (73) 
X0147_0A

>  <ref_mols>  (73) 
x1594,x1604,x1140

>  <original SMILES>  (73) 
CN1CCC[C@@H]([C@H](Cl)c2csnc2Br)S1(=O)=O

$$$$
CSMB00119832093
     RDKit          3D

 13 13  0  0  0  0  0  0  0  0999 V2000
   -9.8399   -5.4738   -5.5480 C   0  0  0  0  0  0  0  0  0  0  0  0
   -8.4394   -4.9214   -5.6774 C   0  0  1  0  0  0  0  0  0  0  0  0
   -7.4263   -5.7754   -4.9621 C   0  0  0  0  0  0  0  0  0  0  0  0
   -7.3412   -5.2611   -3.2736 S   0  0  0  0  0  0  0  0  0  0  0  0
   -5.9330   -6.1048   -2.8171 N   0  0  0  0  0  0  0  0  0  0  0  0
   -7.0802   -3.8379   -3.2569 O   0  0  0  0  0  0  0  0  0  0  0  0
   -8.4869   -5.8324   -2.5967 O   0  0  0  0  0  0  0  0  0  0  0  0
   -8.0589   -4.7207   -7.0495 N   0  0  0  0  0  0  0  0  0  0  0  0
   -7.6219   -3.5150   -7.4358 N   0  0  0  0  0  0  0  0  0  0  0  0
   -7.3122   -3.6571   -8.7169 N   0  0  0  0  0  0  0  0  0  0  0  0
   -7.5356   -4.9472   -9.1381 N   0  0  0  0  0  0  0  0  0  0  0  0
   -7.9968   -5.6004   -8.0934 C   0  0  0  0  0  0  0  0  0  0  0  0
   -8.3538   -6.8945   -7.9507 N   0  0  0  0  0  0  0  0  0  0  0  0
  2  1  1  6
  2  3  1  0
  3  4  1  0
  4  5  1  0
  4  6  2  0
  4  7  2  0
  2  8  1  0
  8  9  1  0
  9 10  2  0
 10 11  1  0
 11 12  2  0
 12 13  1  0
 12  8  1  0
M  END
>  <ref_pdb>  (74) 
X0147_0A

>  <ref_mols>  (74) 
x1594,x1604,x1140

>  <original SMILES>  (74) 
C[C@@H](CS(N)(=O)=O)n1nnnc1N

$$$$
CSMB06308572891
     RDKit          3D

 19 20  0  0  0  0  0  0  0  0999 V2000
   -7.0714   -6.5269   -9.7658 N   0  0  0  0  0  0  0  0  0  0  0  0
   -7.2491   -5.5405   -8.8444 C   0  0  0  0  0  0  0  0  0  0  0  0
   -6.2654   -4.7746   -8.3783 N   0  0  0  0  0  0  0  0  0  0  0  0
   -6.8722   -3.7177   -7.2668 S   0  0  0  0  0  0  0  0  0  0  0  0
   -8.5177   -4.2495   -7.3541 C   0  0  0  0  0  0  0  0  0  0  0  0
   -9.5294   -3.7086   -6.6100 N   0  0  0  0  0  0  0  0  0  0  0  0
  -10.9298   -3.9823   -6.8815 C   0  0  0  0  0  0  0  0  0  0  0  0
  -11.4648   -4.9570   -5.8512 C   0  0  0  0  0  0  0  0  0  0  0  0
  -11.2041   -4.4689   -4.4421 C   0  0  0  0  0  0  0  0  0  0  0  0
   -9.7616   -4.0523   -4.2178 C   0  0  1  0  0  0  0  0  0  0  0  0
   -8.8715   -5.2689   -4.0850 C   0  0  0  0  0  0  0  0  0  0  0  0
   -7.4569   -4.9044   -3.0802 S   0  0  0  0  0  0  0  0  0  0  0  0
   -6.8038   -3.7337   -3.6304 O   0  0  0  0  0  0  0  0  0  0  0  0
   -7.8815   -4.9520   -1.6960 O   0  0  0  0  0  0  0  0  0  0  0  0
   -6.5273   -6.2887   -3.4353 N   0  0  0  0  0  0  0  0  0  0  0  0
   -9.2598   -3.1201   -5.3119 C   0  0  0  0  0  0  0  0  0  0  0  0
   -8.5402   -5.2769   -8.2882 C   0  0  0  0  0  0  0  0  0  0  0  0
   -9.7185   -6.0163   -8.5927 C   0  0  0  0  0  0  0  0  0  0  0  0
  -10.7199   -6.5812   -8.7456 N   0  0  0  0  0  0  0  0  0  0  0  0
  1  2  1  0
  2  3  2  0
  3  4  1  0
  4  5  1  0
  5  6  1  0
  6  7  1  0
  7  8  1  0
  8  9  1  0
  9 10  1  0
 10 11  1  6
 11 12  1  0
 12 13  2  0
 12 14  2  0
 12 15  1  0
 10 16  1  0
  5 17  2  0
 17 18  1  0
 18 19  3  0
 17  2  1  0
 16  6  1  0
M  END
>  <ref_pdb>  (75) 
X0147_0A

>  <ref_mols>  (75) 
x1594,x1604,x1140

>  <original SMILES>  (75) 
N#Cc1c(N)nsc1N1CCC[C@@H](CS(N)(=O)=O)C1

$$$$
CSMB03443805694
     RDKit          3D

 16 17  0  0  0  0  0  0  0  0999 V2000
   -5.2872   -6.4112   -1.9484 C   0  0  0  0  0  0  0  0  0  0  0  0
   -5.8104   -6.0160   -3.2605 N   0  0  0  0  0  0  0  0  0  0  0  0
   -5.6316   -7.0725   -4.2637 C   0  0  0  0  0  0  0  0  0  0  0  0
   -6.4244   -6.5573   -5.4557 C   0  0  0  0  0  0  0  0  0  0  0  0
   -7.7662   -6.0491   -4.9313 C   0  0  2  0  0  0  0  0  0  0  0  0
   -8.3067   -4.8442   -5.6580 C   0  0  2  0  0  0  0  0  0  0  0  0
  -10.0694   -4.7300   -5.4268 Cl  0  0  0  0  0  0  0  0  0  0  0  0
   -8.0077   -4.7520   -7.1096 C   0  0  0  0  0  0  0  0  0  0  0  0
   -8.2804   -5.6410   -8.1299 C   0  0  0  0  0  0  0  0  0  0  0  0
   -9.1565   -7.3272   -7.9698 Br  0  0  0  0  0  0  0  0  0  0  0  0
   -7.7055   -5.0316   -9.6098 S   0  0  0  0  0  0  0  0  0  0  0  0
   -7.0784   -3.6307   -8.9770 N   0  0  0  0  0  0  0  0  0  0  0  0
   -7.3337   -3.6287   -7.6744 C   0  0  0  0  0  0  0  0  0  0  0  0
   -7.4598   -5.5789   -3.2384 S   0  0  0  0  0  0  0  0  0  0  0  0
   -7.5350   -4.1494   -3.0609 O   0  0  0  0  0  0  0  0  0  0  0  0
   -8.1538   -6.5186   -2.3877 O   0  0  0  0  0  0  0  0  0  0  0  0
  1  2  1  0
  2  3  1  0
  3  4  1  0
  5  4  1  6
  5  6  1  0
  6  7  1  6
  6  8  1  0
  8  9  2  0
  9 10  1  0
  9 11  1  0
 11 12  1  0
 12 13  2  0
  5 14  1  0
 14 15  2  0
 14 16  2  0
 14  2  1  0
 13  8  1  0
M  END
>  <ref_pdb>  (76) 
X0147_0A

>  <ref_mols>  (76) 
x1594,x1604,x1140

>  <original SMILES>  (76) 
CN1CC[C@H]([C@H](Cl)c2cnsc2Br)S1(=O)=O

$$$$
CSMB06661874515
     RDKit          3D

 16 17  0  0  0  0  0  0  0  0999 V2000
  -10.1271   -5.6777   -8.4195 C   0  0  0  0  0  0  0  0  0  0  0  0
   -8.8008   -5.1122   -8.4391 N   0  0  0  0  0  0  0  0  0  0  0  0
   -7.7193   -5.6075   -9.0964 C   0  0  0  0  0  0  0  0  0  0  0  0
   -7.6578   -7.1824  -10.1527 Br  0  0  0  0  0  0  0  0  0  0  0  0
   -6.6807   -4.8416   -8.8472 N   0  0  0  0  0  0  0  0  0  0  0  0
   -7.0836   -3.8524   -7.9780 N   0  0  0  0  0  0  0  0  0  0  0  0
   -8.3600   -4.0431   -7.7161 C   0  0  0  0  0  0  0  0  0  0  0  0
   -9.1682   -3.3184   -6.7117 C   0  0  0  0  0  0  0  0  0  0  0  0
   -9.4071   -4.1521   -5.5337 N   0  0  0  0  0  0  0  0  0  0  0  0
   -8.2232   -4.1172   -4.6721 C   0  0  2  0  0  0  0  0  0  0  0  0
   -7.1765   -5.1605   -5.0855 C   0  0  0  0  0  0  0  0  0  0  0  0
   -6.5389   -5.7023   -3.8655 N   0  0  0  0  0  0  0  0  0  0  0  0
   -7.1408   -4.8926   -2.4853 S   0  0  0  0  0  0  0  0  0  0  0  0
   -6.3847   -3.6753   -2.2892 O   0  0  0  0  0  0  0  0  0  0  0  0
   -7.3912   -5.8447   -1.4289 O   0  0  0  0  0  0  0  0  0  0  0  0
   -8.6655   -4.4564   -3.2645 C   0  0  0  0  0  0  0  0  0  0  0  0
  1  2  1  0
  2  3  1  0
  3  4  1  0
  3  5  2  0
  5  6  1  0
  6  7  2  0
  7  8  1  0
  8  9  1  0
 10  9  1  6
 10 11  1  0
 11 12  1  0
 12 13  1  0
 13 14  2  0
 13 15  2  0
 13 16  1  0
  7  2  1  0
 16 10  1  0
M  END
>  <ref_pdb>  (77) 
X0147_0A

>  <ref_mols>  (77) 
x1594,x1604,x1140

>  <original SMILES>  (77) 
Cn1c(Br)nnc1CN[C@@H]1CNS(=O)(=O)C1

$$$$
CSMB06288004222
     RDKit          3D

 18 19  0  0  0  0  0  0  0  0999 V2000
   -9.8140   -5.7550   -8.8855 C   0  0  0  0  0  0  0  0  0  0  0  0
   -8.5011   -5.1951   -8.4853 C   0  0  0  0  0  0  0  0  0  0  0  0
   -7.2959   -5.3869   -9.2485 C   0  0  0  0  0  0  0  0  0  0  0  0
   -7.3266   -6.1008  -10.4066 N   0  0  0  0  0  0  0  0  0  0  0  0
   -6.1952   -4.8403   -8.7412 N   0  0  0  0  0  0  0  0  0  0  0  0
   -6.5668   -4.0899   -7.3237 S   0  0  0  0  0  0  0  0  0  0  0  0
   -8.2578   -4.4540   -7.3359 C   0  0  0  0  0  0  0  0  0  0  0  0
   -9.1269   -4.0916   -6.3500 N   0  0  0  0  0  0  0  0  0  0  0  0
  -10.5553   -4.0457   -6.5883 C   0  0  0  0  0  0  0  0  0  0  0  0
  -11.2732   -4.5928   -5.3684 C   0  0  0  0  0  0  0  0  0  0  0  0
  -10.8168   -3.9105   -4.0899 C   0  0  0  0  0  0  0  0  0  0  0  0
   -9.3043   -3.8503   -3.9629 C   0  0  1  0  0  0  0  0  0  0  0  0
   -8.7333   -5.2183   -3.6562 C   0  0  0  0  0  0  0  0  0  0  0  0
   -7.1598   -5.0909   -2.8468 S   0  0  0  0  0  0  0  0  0  0  0  0
   -6.4130   -4.0026   -3.4455 O   0  0  0  0  0  0  0  0  0  0  0  0
   -7.4041   -5.1391   -1.4191 O   0  0  0  0  0  0  0  0  0  0  0  0
   -6.4914   -6.5763   -3.3519 N   0  0  0  0  0  0  0  0  0  0  0  0
   -8.6770   -3.2887   -5.2276 C   0  0  0  0  0  0  0  0  0  0  0  0
  1  2  1  0
  2  3  1  0
  3  4  1  0
  3  5  2  0
  5  6  1  0
  6  7  1  0
  7  8  1  0
  8  9  1  0
  9 10  1  0
 10 11  1  0
 11 12  1  0
 12 13  1  6
 13 14  1  0
 14 15  2  0
 14 16  2  0
 14 17  1  0
 12 18  1  0
  7  2  2  0
 18  8  1  0
M  END
>  <ref_pdb>  (78) 
X0147_0A

>  <ref_mols>  (78) 
x1594,x1604,x1140

>  <original SMILES>  (78) 
Cc1c(N)nsc1N1CCC[C@@H](CS(N)(=O)=O)C1

$$$$
CSMB00115037285
     RDKit          3D

 16 17  0  0  0  0  0  0  0  0999 V2000
   -6.4521   -7.9760   -2.6070 C   0  0  0  0  0  0  0  0  0  0  0  0
   -6.1397   -6.5841   -2.9722 N   0  0  0  0  0  0  0  0  0  0  0  0
   -5.2913   -6.5724   -4.1844 C   0  0  0  0  0  0  0  0  0  0  0  0
   -6.0902   -5.9663   -5.3330 C   0  0  0  0  0  0  0  0  0  0  0  0
   -7.5705   -5.9645   -4.9638 C   0  0  2  0  0  0  0  0  0  0  0  0
   -8.3484   -4.8607   -5.6367 C   0  0  2  0  0  0  0  0  0  0  0  0
   -9.7365   -5.0486   -5.4094 O   0  0  0  0  0  0  0  0  0  0  0  0
   -8.0664   -4.6734   -7.0820 C   0  0  0  0  0  0  0  0  0  0  0  0
   -7.5607   -3.5033   -7.6064 C   0  0  0  0  0  0  0  0  0  0  0  0
   -7.3532   -3.6472   -9.2845 S   0  0  0  0  0  0  0  0  0  0  0  0
   -7.8977   -5.2125   -9.3781 N   0  0  0  0  0  0  0  0  0  0  0  0
   -8.2531   -5.5998   -8.1566 C   0  0  0  0  0  0  0  0  0  0  0  0
   -8.9391   -7.3485   -7.8893 Br  0  0  0  0  0  0  0  0  0  0  0  0
   -7.5286   -5.6134   -3.2289 S   0  0  0  0  0  0  0  0  0  0  0  0
   -7.1454   -4.2286   -3.0682 O   0  0  0  0  0  0  0  0  0  0  0  0
   -8.6539   -6.2124   -2.5549 O   0  0  0  0  0  0  0  0  0  0  0  0
  1  2  1  0
  2  3  1  0
  3  4  1  0
  5  4  1  6
  5  6  1  0
  6  7  1  6
  6  8  1  0
  8  9  2  0
  9 10  1  0
 10 11  1  0
 11 12  2  0
 12 13  1  0
  5 14  1  0
 14 15  2  0
 14 16  2  0
 14  2  1  0
 12  8  1  0
M  END
>  <ref_pdb>  (79) 
X0147_0A

>  <ref_mols>  (79) 
x1594,x1604,x1140

>  <original SMILES>  (79) 
CN1CC[C@H]([C@H](O)c2csnc2Br)S1(=O)=O

$$$$
CSMB06365051520
     RDKit          3D

 17 18  0  0  0  0  0  0  0  0999 V2000
   -5.4848   -5.7726   -3.7855 C   0  0  0  0  0  0  0  0  0  0  0  0
   -6.9074   -5.4642   -3.9999 N   0  0  0  0  0  0  0  0  0  0  0  0
   -7.0404   -4.3942   -5.0154 C   0  0  0  0  0  0  0  0  0  0  0  0
   -8.5034   -4.3223   -5.4380 C   0  0  1  0  0  0  0  0  0  0  0  0
   -9.3609   -3.8036   -4.3105 C   0  0  0  0  0  0  0  0  0  0  0  0
   -9.3574   -4.8094   -3.1695 C   0  0  0  0  0  0  0  0  0  0  0  0
   -7.6996   -5.0563   -2.5455 S   0  0  0  0  0  0  0  0  0  0  0  0
   -7.1665   -3.7828   -2.1177 O   0  0  0  0  0  0  0  0  0  0  0  0
   -7.6839   -6.2223   -1.6943 O   0  0  0  0  0  0  0  0  0  0  0  0
   -8.6623   -3.5500   -6.6457 N   0  0  0  0  0  0  0  0  0  0  0  0
   -8.3596   -4.1659   -7.8243 C   0  0  0  0  0  0  0  0  0  0  0  0
   -8.1161   -3.2712   -9.2694 S   0  0  0  0  0  0  0  0  0  0  0  0
   -7.6974   -4.5593  -10.2149 N   0  0  0  0  0  0  0  0  0  0  0  0
   -7.7694   -5.6742   -9.4914 C   0  0  0  0  0  0  0  0  0  0  0  0
   -7.4788   -6.9180   -9.9585 N   0  0  0  0  0  0  0  0  0  0  0  0
   -8.1754   -5.5089   -8.1231 C   0  0  0  0  0  0  0  0  0  0  0  0
   -8.3485   -6.6490   -7.1887 C   0  0  0  0  0  0  0  0  0  0  0  0
  1  2  1  0
  2  3  1  0
  3  4  1  0
  4  5  1  0
  5  6  1  0
  6  7  1  0
  7  8  2  0
  7  9  2  0
  4 10  1  6
 10 11  1  0
 11 12  1  0
 12 13  1  0
 13 14  2  0
 14 15  1  0
 14 16  1  0
 16 17  1  0
  7  2  1  0
 16 11  2  0
M  END
>  <ref_pdb>  (80) 
X0147_0A

>  <ref_mols>  (80) 
x1594,x1604,x1140

>  <original SMILES>  (80) 
Cc1c(N)nsc1N[C@@H]1CCS(=O)(=O)N(C)C1

$$$$
CSMB06288035780
     RDKit          3D

 18 19  0  0  0  0  0  0  0  0999 V2000
   -7.4321   -6.8450   -2.5715 N   0  0  0  0  0  0  0  0  0  0  0  0
   -7.6692   -5.1765   -2.3114 S   0  0  0  0  0  0  0  0  0  0  0  0
   -6.4336   -4.5978   -1.8223 O   0  0  0  0  0  0  0  0  0  0  0  0
   -8.9219   -4.9748   -1.6108 O   0  0  0  0  0  0  0  0  0  0  0  0
   -7.8828   -4.6483   -3.9859 C   0  0  2  0  0  0  0  0  0  0  0  0
   -7.8792   -3.1308   -4.0902 C   0  0  0  0  0  0  0  0  0  0  0  0
   -8.1615   -2.6698   -5.5138 C   0  0  0  0  0  0  0  0  0  0  0  0
   -9.4078   -3.3313   -6.0793 C   0  0  0  0  0  0  0  0  0  0  0  0
   -9.3225   -4.7692   -5.9095 N   0  0  0  0  0  0  0  0  0  0  0  0
   -9.1910   -5.1864   -4.5272 C   0  0  0  0  0  0  0  0  0  0  0  0
   -8.7356   -5.6156   -6.8505 C   0  0  0  0  0  0  0  0  0  0  0  0
   -8.3148   -6.7172   -6.5009 O   0  0  0  0  0  0  0  0  0  0  0  0
   -8.6191   -5.1427   -8.2187 C   0  0  0  0  0  0  0  0  0  0  0  0
   -9.4648   -4.1942   -8.8622 C   0  0  0  0  0  0  0  0  0  0  0  0
   -9.2019   -3.8336  -10.1115 N   0  0  0  0  0  0  0  0  0  0  0  0
   -7.9036   -4.7338  -10.6192 S   0  0  0  0  0  0  0  0  0  0  0  0
   -7.6800   -5.5556   -9.1444 C   0  0  0  0  0  0  0  0  0  0  0  0
   -6.2650   -6.8124   -8.8931 Br  0  0  0  0  0  0  0  0  0  0  0  0
  1  2  1  0
  2  3  2  0
  2  4  2  0
  5  2  1  1
  5  6  1  0
  6  7  1  0
  7  8  1  0
  8  9  1  0
  9 10  1  0
  9 11  1  0
 11 12  2  0
 11 13  1  0
 13 14  1  0
 14 15  2  0
 15 16  1  0
 16 17  1  0
 17 18  1  0
 10  5  1  0
 17 13  2  0
M  END
>  <ref_pdb>  (81) 
X0147_0A

>  <ref_mols>  (81) 
x1594,x1604,x1140

>  <original SMILES>  (81) 
NS(=O)(=O)[C@@H]1CCCN(C(=O)c2cnsc2Br)C1

$$$$
CSMB03555291172
     RDKit          3D

 15 16  0  0  0  0  0  0  0  0999 V2000
   -8.2065   -7.2868   -8.8253 Cl  0  0  0  0  0  0  0  0  0  0  0  0
   -7.9683   -5.5994   -8.7230 C   0  0  0  0  0  0  0  0  0  0  0  0
   -7.1935   -4.7352   -9.9623 S   0  0  0  0  0  0  0  0  0  0  0  0
   -7.3290   -3.2767   -9.1440 N   0  0  0  0  0  0  0  0  0  0  0  0
   -7.9309   -3.4018   -7.9707 N   0  0  0  0  0  0  0  0  0  0  0  0
   -8.3025   -4.7197   -7.7167 C   0  0  0  0  0  0  0  0  0  0  0  0
   -8.9854   -5.0112   -6.4339 C   0  0  0  0  0  0  0  0  0  0  0  0
   -8.1380   -5.8206   -5.5723 N   0  0  0  0  0  0  0  0  0  0  0  0
   -8.9479   -6.4336   -4.5313 C   0  0  0  0  0  0  0  0  0  0  0  0
   -9.1436   -5.6536   -3.2523 C   0  0  0  0  0  0  0  0  0  0  0  0
   -7.5823   -5.2321   -2.5202 S   0  0  0  0  0  0  0  0  0  0  0  0
   -7.5925   -3.7987   -2.3094 O   0  0  0  0  0  0  0  0  0  0  0  0
   -7.3178   -6.1548   -1.4381 O   0  0  0  0  0  0  0  0  0  0  0  0
   -6.5325   -5.5598   -3.8030 N   0  0  0  0  0  0  0  0  0  0  0  0
   -7.0756   -4.9875   -5.0271 C   0  0  0  0  0  0  0  0  0  0  0  0
  1  2  1  0
  2  3  1  0
  3  4  1  0
  4  5  2  0
  5  6  1  0
  6  7  1  0
  7  8  1  0
  8  9  1  0
  9 10  1  0
 10 11  1  0
 11 12  2  0
 11 13  2  0
 11 14  1  0
 14 15  1  0
  6  2  2  0
 15  8  1  0
M  END
>  <ref_pdb>  (82) 
X0147_0A

>  <ref_mols>  (82) 
x1594,x1604,x1140

>  <original SMILES>  (82) 
O=S1(=O)CCN(Cc2nnsc2Cl)CN1

$$$$
CSMB02205941630
     RDKit          3D

 19 20  0  0  0  0  0  0  0  0999 V2000
   -3.5466   -5.3813   -2.6213 C   0  0  0  0  0  0  0  0  0  0  0  0
   -4.9329   -5.8360   -2.2360 C   0  0  0  0  0  0  0  0  0  0  0  0
   -5.6311   -6.2716   -3.4549 N   0  0  0  0  0  0  0  0  0  0  0  0
   -5.9576   -7.7083   -3.3610 C   0  0  0  0  0  0  0  0  0  0  0  0
   -6.3621   -8.2056   -4.7372 C   0  0  0  0  0  0  0  0  0  0  0  0
   -7.6395   -7.5405   -5.2157 C   0  0  0  0  0  0  0  0  0  0  0  0
   -7.4537   -6.0432   -5.3449 C   0  0  1  0  0  0  0  0  0  0  0  0
   -8.6121   -5.2600   -5.8923 C   0  0  2  0  0  0  0  0  0  0  0  0
   -9.9225   -5.8546   -5.7323 N   0  0  0  0  0  0  0  0  0  0  0  0
   -8.3667   -4.7540   -7.2495 C   0  0  0  0  0  0  0  0  0  0  0  0
   -8.3085   -5.3313   -8.4983 C   0  0  0  0  0  0  0  0  0  0  0  0
   -8.5560   -7.1461   -8.9192 Br  0  0  0  0  0  0  0  0  0  0  0  0
   -8.0119   -4.3826   -9.4350 N   0  0  0  0  0  0  0  0  0  0  0  0
   -7.8818   -3.2187   -8.8108 N   0  0  0  0  0  0  0  0  0  0  0  0
   -8.0968   -3.4417   -7.5090 N   0  0  0  0  0  0  0  0  0  0  0  0
   -8.0008   -2.3450   -6.5730 C   0  0  0  0  0  0  0  0  0  0  0  0
   -6.9880   -5.3111   -3.8070 S   0  0  0  0  0  0  0  0  0  0  0  0
   -6.5406   -3.9605   -4.0676 O   0  0  0  0  0  0  0  0  0  0  0  0
   -7.9993   -5.5935   -2.8137 O   0  0  0  0  0  0  0  0  0  0  0  0
  1  2  1  0
  2  3  1  0
  3  4  1  0
  4  5  1  0
  5  6  1  0
  7  6  1  1
  7  8  1  0
  8  9  1  6
  8 10  1  0
 10 11  2  0
 11 12  1  0
 11 13  1  0
 13 14  2  0
 14 15  1  0
 15 16  1  0
  7 17  1  0
 17 18  2  0
 17 19  2  0
 17  3  1  0
 15 10  1  0
M  END
>  <ref_pdb>  (83) 
X0147_0A

>  <ref_mols>  (83) 
x1594,x1604,x1140

>  <original SMILES>  (83) 
CCN1CCC[C@@H]([C@H](N)c2c(Br)nnn2C)S1(=O)=O

$$$$
CSMB06273012282
     RDKit          3D

 17 18  0  0  0  0  0  0  0  0999 V2000
   -7.3336   -6.7090   -1.6577 C   0  0  0  0  0  0  0  0  0  0  0  0
   -7.1626   -5.4353   -2.8780 S   0  0  0  0  0  0  0  0  0  0  0  0
   -6.1067   -5.8048   -3.7952 O   0  0  0  0  0  0  0  0  0  0  0  0
   -7.1819   -4.1498   -2.2153 O   0  0  0  0  0  0  0  0  0  0  0  0
   -8.6405   -5.6384   -3.6809 N   0  0  0  0  0  0  0  0  0  0  0  0
   -8.7588   -4.7965   -4.8837 C   0  0  2  0  0  0  0  0  0  0  0  0
   -9.9540   -3.8760   -4.7084 C   0  0  0  0  0  0  0  0  0  0  0  0
  -10.2936   -3.1498   -5.9919 C   0  0  0  0  0  0  0  0  0  0  0  0
  -10.4980   -4.1353   -7.1265 C   0  0  0  0  0  0  0  0  0  0  0  0
   -9.3134   -4.9693   -7.2729 N   0  0  0  0  0  0  0  0  0  0  0  0
   -8.9556   -5.7194   -6.0794 C   0  0  0  0  0  0  0  0  0  0  0  0
   -8.3380   -4.5493   -8.1421 C   0  0  0  0  0  0  0  0  0  0  0  0
   -8.4615   -3.4174   -8.8493 N   0  0  0  0  0  0  0  0  0  0  0  0
   -7.0665   -3.2675   -9.7431 S   0  0  0  0  0  0  0  0  0  0  0  0
   -6.2651   -4.6568   -9.2958 N   0  0  0  0  0  0  0  0  0  0  0  0
   -7.0871   -5.2510   -8.4283 C   0  0  0  0  0  0  0  0  0  0  0  0
   -6.5976   -6.7563   -7.7825 Cl  0  0  0  0  0  0  0  0  0  0  0  0
  1  2  1  0
  2  3  2  0
  2  4  2  0
  2  5  1  0
  6  5  1  1
  6  7  1  0
  7  8  1  0
  8  9  1  0
  9 10  1  0
 10 11  1  0
 10 12  1  0
 12 13  2  0
 13 14  1  0
 14 15  1  0
 15 16  2  0
 16 17  1  0
 11  6  1  0
 16 12  1  0
M  END
>  <ref_pdb>  (84) 
X0147_0A

>  <ref_mols>  (84) 
x1594,x1604,x1140

>  <original SMILES>  (84) 
CS(=O)(=O)N[C@@H]1CCCN(c2nsnc2Cl)C1

$$$$
CSMB00115022323
     RDKit          3D

 16 17  0  0  0  0  0  0  0  0999 V2000
   -5.9935   -7.4565   -2.5568 C   0  0  0  0  0  0  0  0  0  0  0  0
   -5.9402   -6.0411   -2.9599 N   0  0  0  0  0  0  0  0  0  0  0  0
   -5.1043   -5.9072   -4.1733 C   0  0  0  0  0  0  0  0  0  0  0  0
   -5.9959   -5.4828   -5.3348 C   0  0  0  0  0  0  0  0  0  0  0  0
   -7.4542   -5.7453   -4.9674 C   0  0  2  0  0  0  0  0  0  0  0  0
   -8.4203   -4.8235   -5.6712 C   0  0  2  0  0  0  0  0  0  0  0  0
   -9.7867   -5.3062   -5.5485 N   0  0  0  0  0  0  0  0  0  0  0  0
   -8.1386   -4.5575   -7.1067 C   0  0  0  0  0  0  0  0  0  0  0  0
   -7.9512   -3.2858   -7.6069 C   0  0  0  0  0  0  0  0  0  0  0  0
   -7.6312   -3.3413   -9.2719 S   0  0  0  0  0  0  0  0  0  0  0  0
   -7.7098   -4.9942   -9.3936 N   0  0  0  0  0  0  0  0  0  0  0  0
   -8.0008   -5.4841   -8.1919 C   0  0  0  0  0  0  0  0  0  0  0  0
   -8.1751   -7.3611   -7.9685 Br  0  0  0  0  0  0  0  0  0  0  0  0
   -7.4814   -5.3483   -3.2400 S   0  0  0  0  0  0  0  0  0  0  0  0
   -7.3605   -3.9131   -3.1162 O   0  0  0  0  0  0  0  0  0  0  0  0
   -8.4814   -6.1251   -2.5499 O   0  0  0  0  0  0  0  0  0  0  0  0
  1  2  1  0
  2  3  1  0
  3  4  1  0
  5  4  1  6
  5  6  1  0
  6  7  1  6
  6  8  1  0
  8  9  2  0
  9 10  1  0
 10 11  1  0
 11 12  2  0
 12 13  1  0
  5 14  1  0
 14 15  2  0
 14 16  2  0
 14  2  1  0
 12  8  1  0
M  END
>  <ref_pdb>  (85) 
X0147_0A

>  <ref_mols>  (85) 
x1594,x1604,x1140

>  <original SMILES>  (85) 
CN1CC[C@H]([C@H](N)c2csnc2Br)S1(=O)=O

$$$$
CSMB00108470077
     RDKit          3D

 17 18  0  0  0  0  0  0  0  0999 V2000
   -5.8781   -6.1233   -1.7428 C   0  0  0  0  0  0  0  0  0  0  0  0
   -6.4834   -6.6283   -2.9785 N   0  0  0  0  0  0  0  0  0  0  0  0
   -7.7137   -7.3914   -2.7156 C   0  0  0  0  0  0  0  0  0  0  0  0
   -8.6411   -7.2165   -3.9155 C   0  0  0  0  0  0  0  0  0  0  0  0
   -7.9360   -6.4319   -5.0217 C   0  0  1  0  0  0  0  0  0  0  0  0
   -8.8698   -5.5221   -5.7812 C   0  0  2  0  0  0  0  0  0  0  0  0
  -10.3579   -6.3567   -6.2966 Cl  0  0  0  0  0  0  0  0  0  0  0  0
   -8.2770   -4.8362   -6.9623 C   0  0  0  0  0  0  0  0  0  0  0  0
   -7.6009   -5.3896   -8.0317 C   0  0  0  0  0  0  0  0  0  0  0  0
   -7.2292   -7.2391   -8.3099 Br  0  0  0  0  0  0  0  0  0  0  0  0
   -7.1189   -4.1747   -9.1130 S   0  0  0  0  0  0  0  0  0  0  0  0
   -7.7609   -2.9180   -8.2452 N   0  0  0  0  0  0  0  0  0  0  0  0
   -8.3246   -3.4067   -7.1423 C   0  0  0  0  0  0  0  0  0  0  0  0
   -8.9455   -2.4401   -6.2060 C   0  0  0  0  0  0  0  0  0  0  0  0
   -6.7845   -5.4238   -4.1377 S   0  0  0  0  0  0  0  0  0  0  0  0
   -5.5856   -5.2095   -4.9075 O   0  0  0  0  0  0  0  0  0  0  0  0
   -7.5143   -4.3512   -3.4980 O   0  0  0  0  0  0  0  0  0  0  0  0
  1  2  1  0
  2  3  1  0
  3  4  1  0
  5  4  1  1
  5  6  1  0
  6  7  1  6
  6  8  1  0
  8  9  2  0
  9 10  1  0
  9 11  1  0
 11 12  1  0
 12 13  2  0
 13 14  1  0
  5 15  1  0
 15 16  2  0
 15 17  2  0
 15  2  1  0
 13  8  1  0
M  END
>  <ref_pdb>  (86) 
X0147_0A

>  <ref_mols>  (86) 
x1594,x1604,x1140

>  <original SMILES>  (86) 
Cc1nsc(Br)c1[C@@H](Cl)[C@@H]1CCN(C)S1(=O)=O

$$$$
PV-006747661906
     RDKit          3D

 20 21  0  0  0  0  0  0  0  0999 V2000
  -10.0020   -3.0431   -9.3443 C   0  0  0  0  0  0  0  0  0  0  0  0
   -8.7665   -3.7198   -8.9074 C   0  0  0  0  0  0  0  0  0  0  0  0
   -7.6103   -3.4387   -9.5148 N   0  0  0  0  0  0  0  0  0  0  0  0
   -6.6612   -4.2277   -8.8886 O   0  0  0  0  0  0  0  0  0  0  0  0
   -7.2551   -4.9716   -7.9175 C   0  0  0  0  0  0  0  0  0  0  0  0
   -6.4028   -6.0902   -6.9286 Cl  0  0  0  0  0  0  0  0  0  0  0  0
   -8.6002   -4.6811   -7.8805 C   0  0  0  0  0  0  0  0  0  0  0  0
   -9.6235   -5.2673   -6.9887 C   0  0  0  0  0  0  0  0  0  0  0  0
  -10.2337   -4.2424   -6.0617 C   0  0  0  0  0  0  0  0  0  0  0  0
  -11.1119   -3.4726   -6.4467 O   0  0  0  0  0  0  0  0  0  0  0  0
   -9.7717   -4.2645   -4.7576 N   0  0  0  0  0  0  0  0  0  0  0  0
  -10.2088   -3.1809   -3.9017 C   0  0  0  0  0  0  0  0  0  0  0  0
  -10.1694   -3.5694   -2.4369 C   0  0  0  0  0  0  0  0  0  0  0  0
   -8.8261   -4.1582   -2.0606 C   0  0  0  0  0  0  0  0  0  0  0  0
   -8.5197   -5.3497   -2.9455 C   0  0  2  0  0  0  0  0  0  0  0  0
   -6.9225   -6.0176   -2.5524 S   0  0  0  0  0  0  0  0  0  0  0  0
   -7.0060   -7.4634   -3.4568 N   0  0  0  0  0  0  0  0  0  0  0  0
   -5.9160   -5.1511   -3.1313 O   0  0  0  0  0  0  0  0  0  0  0  0
   -6.9134   -6.3511   -1.1425 O   0  0  0  0  0  0  0  0  0  0  0  0
   -8.5367   -4.9382   -4.4015 C   0  0  0  0  0  0  0  0  0  0  0  0
  1  2  1  0
  2  3  2  0
  3  4  1  0
  4  5  1  0
  5  6  1  0
  5  7  2  0
  7  8  1  0
  8  9  1  0
  9 10  2  0
  9 11  1  0
 11 12  1  0
 12 13  1  0
 13 14  1  0
 14 15  1  0
 15 16  1  1
 16 17  1  0
 16 18  2  0
 16 19  2  0
 15 20  1  0
  7  2  1  0
 20 11  1  0
M  END
>  <ref_pdb>  (87) 
X0147_0A

>  <ref_mols>  (87) 
x1594,x1604,x1140

>  <original SMILES>  (87) 
Cc1noc(Cl)c1CC(=O)N1CCC[C@H](S(N)(=O)=O)C1

$$$$
