ver_1.2
     RDKit          2D

  0  0  0  0  0  0  0  0  0  0999 V2000
M  END
>  <ref_url>  (1) 
https://fakepage.com

>  <submitter_name>  (1) 
Step Wills

>  <submitter_email>  (1) 
stephanie.wills@dtc.ox.ac.uk

>  <submitter_institution>  (1) 
University of Oxford

>  <generation_date>  (1) 
2021-06-04

>  <method>  (1) 
Fragment network

>  <ref_mols>  (1) 
The inspirational fragments used to propose the compound

>  <ref_pdb>  (1) 
Uploaded pdb file

>  <original SMILES>  (1) 
The SMILES of the compound

>  <synthon>  (1) 
The synthon of fragment B used for expansion of A

>  <original_name>  (1) 
Name of the compound

>  <comRMSD_score>  (1) 
Score: combined RMSD score

>  <IF_score>  (1) 
Score: Proportion of interactions made by fragment maintained by merge (average)

>  <SuCOS_score>  (1) 
Score: Average of SuCOS score against both fragments

>  <compound_ID>  (1) 
Catalog ID for compound

$$$$

     RDKit          3D

 19 19  0  0  0  0  0  0  0  0999 V2000
  -13.0820    5.8070  -78.0460 C   0  0  0  0  0  0  0  0  0  0  0  0
  -13.1010    4.9080  -76.8170 C   0  0  0  0  0  0  0  0  0  0  0  0
  -14.0420    3.7210  -77.0450 C   0  0  0  0  0  0  0  0  0  0  0  0
  -13.6160    5.7670  -75.6600 C   0  0  0  0  0  0  0  0  0  0  0  0
  -11.6880    4.5270  -76.5650 N   0  0  0  0  0  0  0  0  0  0  0  0
  -12.6160    6.7460  -75.2480 N   0  0  0  0  0  0  0  0  0  0  0  0
  -10.8950    4.1610  -77.9410 S   0  0  0  0  0  0  0  0  0  0  0  0
  -12.2910    6.6260  -73.6280 S   0  0  0  0  0  0  0  0  0  0  0  0
  -11.7290    3.1110  -78.4750 O   0  0  0  0  0  0  0  0  0  0  0  0
  -10.7910    5.4330  -78.5350 O   0  0  0  0  0  0  0  0  0  0  0  0
   -9.2460    3.5590  -77.8250 C   0  0  0  0  0  0  0  0  0  0  0  0
  -13.6680    7.5850  -73.0350 C   0  0  0  0  0  0  0  0  0  0  0  0
  -12.4480    5.2250  -73.3200 O   0  0  0  0  0  0  0  0  0  0  0  0
  -11.0580    7.3360  -73.3990 O   0  0  0  0  0  0  0  0  0  0  0  0
   -8.2800    4.0090  -78.7370 C   0  0  0  0  0  0  0  0  0  0  0  0
   -8.9260    2.6430  -76.8610 C   0  0  0  0  0  0  0  0  0  0  0  0
   -6.9830    3.5300  -78.6810 C   0  0  0  0  0  0  0  0  0  0  0  0
   -7.6310    2.1570  -76.8040 C   0  0  0  0  0  0  0  0  0  0  0  0
   -6.6590    2.5960  -77.7100 C   0  0  0  0  0  0  0  0  0  0  0  0
  1  2  1  0
  2  3  1  0
  2  4  1  0
  2  5  1  0
  4  6  1  0
  7  5  1  0
  8  6  1  0
  7  9  2  0
  7 10  2  0
  7 11  1  0
  8 12  1  0
  8 13  2  0
  8 14  2  0
 11 15  2  0
 11 16  1  0
 15 17  1  0
 16 18  2  0
 17 19  2  0
 18 19  1  0
M  END
>  <ref_url>  (2) 
https://fakepage.com

>  <submitter_name>  (2) 
Steph Wills

>  <submitter_email>  (2) 
stephanie.wills@dtc.ox.ac.uk

>  <submitter_institution>  (2) 
University of Oxford

>  <generation_date>  (2) 
2020-06-04

>  <method>  (2) 
Fragment network

>  <ref_mols>  (2) 
x0276_0B,x0208_0A

>  <ref_pdb>  (2) 
references/x0276-0B-x0208-0A-40239.holo_minimised_nolig.pdb

>  <original SMILES>  (2) 
CC(C)(CNS(C)(=O)=O)NS(=O)(=O)c1ccccc1

>  <synthon>  (2) 
[Xe]c1ccccc1

>  <original_name>  (2) 
x0276-0B-x0208-0A-40239

>  <comRMSD_score>  (2) 
0.9415569233986874

>  <IF_score>  (2) 
0.45

>  <SuCOS_score>  (2) 
0.4478195393336772

>  <compound_ID>  (2) 
REAL:Z2919601011

$$$$

     RDKit          3D

 19 19  0  0  0  0  0  0  0  0999 V2000
  -10.7240    4.8530  -77.8800 C   0  0  0  0  0  0  0  0  0  0  0  0
  -11.6900    4.2270  -77.0320 N   0  0  0  0  0  0  0  0  0  0  0  0
  -13.0490    4.7390  -77.2230 C   0  0  0  0  0  0  0  0  0  0  0  0
  -11.4890    3.1010  -76.2240 C   0  0  0  0  0  0  0  0  0  0  0  0
  -13.5950    5.5900  -76.0590 C   0  0  0  0  0  0  0  0  0  0  0  0
  -12.4160    2.3150  -76.0390 O   0  0  0  0  0  0  0  0  0  0  0  0
  -10.1690    2.8360  -75.5020 C   0  0  0  0  0  0  0  0  0  0  0  0
  -12.5740    6.4800  -75.4820 N   0  0  0  0  0  0  0  0  0  0  0  0
   -8.9460    1.6540  -76.1780 S   0  0  0  0  0  0  0  0  0  0  0  0
  -12.3390    6.4760  -73.8260 S   0  0  0  0  0  0  0  0  0  0  0  0
   -8.1960    2.5550  -77.4830 C   0  0  0  0  0  0  0  0  0  0  0  0
  -13.7580    7.4130  -73.3040 C   0  0  0  0  0  0  0  0  0  0  0  0
  -11.1400    7.2120  -73.4810 O   0  0  0  0  0  0  0  0  0  0  0  0
  -12.5310    5.1090  -73.4170 O   0  0  0  0  0  0  0  0  0  0  0  0
   -9.0290    3.4870  -77.9930 C   0  0  0  0  0  0  0  0  0  0  0  0
   -6.9070    2.4020  -78.0130 C   0  0  0  0  0  0  0  0  0  0  0  0
   -8.6460    4.2780  -79.0360 C   0  0  0  0  0  0  0  0  0  0  0  0
   -6.5040    3.2070  -79.0760 C   0  0  0  0  0  0  0  0  0  0  0  0
   -7.3790    4.1410  -79.5890 C   0  0  0  0  0  0  0  0  0  0  0  0
  1  2  1  0
  2  3  1  0
  2  4  1  0
  3  5  1  0
  4  6  2  0
  4  7  1  0
  5  8  1  0
  7  9  1  0
 10  8  1  0
  9 11  1  0
 10 12  1  0
 10 13  2  0
 10 14  2  0
 11 15  2  0
 11 16  1  0
 15 17  1  0
 16 18  2  0
 17 19  2  0
 18 19  1  0
M  END
>  <ref_url>  (3) 
https://fakepage.com

>  <submitter_name>  (3) 
Steph Wills

>  <submitter_email>  (3) 
stephanie.wills@dtc.ox.ac.uk

>  <submitter_institution>  (3) 
University of Oxford

>  <generation_date>  (3) 
2020-06-04

>  <method>  (3) 
Fragment network

>  <ref_mols>  (3) 
x0276_0B,x0208_0A

>  <ref_pdb>  (3) 
references/x0276-0B-x0208-0A-43588.holo_minimised_nolig.pdb

>  <original SMILES>  (3) 
CN(CCNS(C)(=O)=O)C(=O)CSc1ccccc1

>  <synthon>  (3) 
[Xe]c1ccccc1

>  <original_name>  (3) 
x0276-0B-x0208-0A-43588

>  <comRMSD_score>  (3) 
0.7947044685338646

>  <IF_score>  (3) 
0.5166666666666667

>  <SuCOS_score>  (3) 
0.4886173140150203

>  <compound_ID>  (3) 
REAL:Z1193168623

$$$$

     RDKit          3D

 16 16  0  0  0  0  0  0  0  0999 V2000
  -13.7910    7.4290  -73.2800 C   0  0  0  0  0  0  0  0  0  0  0  0
  -12.3300    6.5550  -73.8100 S   0  0  0  0  0  0  0  0  0  0  0  0
  -12.4480    5.1640  -73.4340 O   0  0  0  0  0  0  0  0  0  0  0  0
  -11.1580    7.3160  -73.4450 O   0  0  0  0  0  0  0  0  0  0  0  0
  -12.5670    6.5000  -75.4490 N   0  0  0  0  0  0  0  0  0  0  0  0
  -13.5040    5.6290  -76.0210 C   0  0  0  0  0  0  0  0  0  0  0  0
  -14.6420    5.5340  -75.5910 O   0  0  0  0  0  0  0  0  0  0  0  0
  -13.0000    4.8270  -77.1900 C   0  0  0  0  0  0  0  0  0  0  0  0
  -11.5770    4.3620  -76.9670 C   0  0  0  0  0  0  0  0  0  0  0  0
  -10.6430    4.7480  -78.4720 S   0  0  0  0  0  0  0  0  0  0  0  0
   -9.1240    3.8820  -78.2930 C   0  0  0  0  0  0  0  0  0  0  0  0
   -8.8980    3.0940  -77.1790 C   0  0  0  0  0  0  0  0  0  0  0  0
   -8.1510    4.0000  -79.2870 C   0  0  0  0  0  0  0  0  0  0  0  0
   -7.6950    2.4170  -77.0480 C   0  0  0  0  0  0  0  0  0  0  0  0
   -6.9400    3.3300  -79.1570 C   0  0  0  0  0  0  0  0  0  0  0  0
   -6.7150    2.5350  -78.0320 C   0  0  0  0  0  0  0  0  0  0  0  0
  1  2  1  0
  2  3  2  0
  2  4  2  0
  2  5  1  0
  5  6  1  0
  6  7  2  0
  6  8  1  0
  8  9  1  0
  9 10  1  0
 10 11  1  0
 11 12  2  0
 11 13  1  0
 12 14  1  0
 13 15  2  0
 14 16  2  0
 15 16  1  0
M  END
>  <ref_url>  (4) 
https://fakepage.com

>  <submitter_name>  (4) 
Steph Wills

>  <submitter_email>  (4) 
stephanie.wills@dtc.ox.ac.uk

>  <submitter_institution>  (4) 
University of Oxford

>  <generation_date>  (4) 
2020-06-04

>  <method>  (4) 
Fragment network

>  <ref_mols>  (4) 
x0276_0B,x0208_0A

>  <ref_pdb>  (4) 
references/x0276-0B-x0208-0A-81594.holo_minimised_nolig.pdb

>  <original SMILES>  (4) 
CS(=O)(=O)NC(=O)CCSc1ccccc1

>  <synthon>  (4) 
[Xe]c1ccccc1

>  <original_name>  (4) 
x0276-0B-x0208-0A-81594

>  <comRMSD_score>  (4) 
0.824948832912125

>  <IF_score>  (4) 
0.25

>  <SuCOS_score>  (4) 
0.4904122944268239

>  <compound_ID>  (4) 
MOLPORT:009-075-471

$$$$

     RDKit          3D

 20 20  0  0  0  0  0  0  0  0999 V2000
  -12.3450    5.2310  -77.6640 C   0  0  0  0  0  0  0  0  0  0  0  0
  -13.3070    5.8970  -76.7120 C   0  0  0  0  0  0  0  0  0  0  0  0
  -14.3840    6.6440  -77.5300 C   0  0  0  0  0  0  0  0  0  0  0  0
  -12.6360    6.8540  -75.7600 N   0  0  0  0  0  0  0  0  0  0  0  0
  -12.4840    6.3120  -74.1700 S   0  0  0  0  0  0  0  0  0  0  0  0
  -11.5620    5.2480  -74.1710 O   0  0  0  0  0  0  0  0  0  0  0  0
  -12.3160    7.4420  -73.2940 O   0  0  0  0  0  0  0  0  0  0  0  0
  -14.0280    5.4830  -73.9290 C   0  0  0  0  0  0  0  0  0  0  0  0
  -13.9100    4.0010  -74.3490 C   0  0  0  0  0  0  0  0  0  0  0  0
  -12.5750    3.4390  -74.1310 N   0  0  0  0  0  0  0  0  0  0  0  0
  -11.8680    2.7280  -75.0810 C   0  0  0  0  0  0  0  0  0  0  0  0
  -12.1820    1.6740  -75.6190 O   0  0  0  0  0  0  0  0  0  0  0  0
  -10.5210    3.2920  -75.5530 C   0  0  0  0  0  0  0  0  0  0  0  0
  -10.4570    3.1710  -76.9650 O   0  0  0  0  0  0  0  0  0  0  0  0
   -9.1300    3.1280  -77.5140 C   0  0  0  0  0  0  0  0  0  0  0  0
   -8.9660    4.0680  -78.6690 C   0  0  0  0  0  0  0  0  0  0  0  0
   -8.0180    2.3590  -77.1600 C   0  0  0  0  0  0  0  0  0  0  0  0
   -7.7320    4.1130  -79.3320 C   0  0  0  0  0  0  0  0  0  0  0  0
   -6.8010    2.4480  -77.8450 C   0  0  0  0  0  0  0  0  0  0  0  0
   -6.6660    3.3200  -78.9260 C   0  0  0  0  0  0  0  0  0  0  0  0
  1  2  1  0
  2  3  1  0
  2  4  1  0
  5  4  1  0
  5  6  2  0
  5  7  2  0
  5  8  1  0
  8  9  1  0
  9 10  1  0
 10 11  1  0
 11 12  2  0
 11 13  1  0
 13 14  1  0
 14 15  1  0
 15 16  2  0
 15 17  1  0
 16 18  1  0
 17 19  2  0
 18 20  2  0
 19 20  1  0
M  END
>  <ref_url>  (5) 
https://fakepage.com

>  <submitter_name>  (5) 
Steph Wills

>  <submitter_email>  (5) 
stephanie.wills@dtc.ox.ac.uk

>  <submitter_institution>  (5) 
University of Oxford

>  <generation_date>  (5) 
2020-06-04

>  <method>  (5) 
Fragment network

>  <ref_mols>  (5) 
x0276_0B,x0208_0A

>  <ref_pdb>  (5) 
references/x0276-0B-x0208-0A-97937.holo_minimised_nolig.pdb

>  <original SMILES>  (5) 
CC(C)NS(=O)(=O)CCNC(=O)COc1ccccc1

>  <synthon>  (5) 
[Xe]c1ccccc1

>  <original_name>  (5) 
x0276-0B-x0208-0A-97937

>  <comRMSD_score>  (5) 
0.9133710594866106

>  <IF_score>  (5) 
0.2666666666666666

>  <SuCOS_score>  (5) 
0.3994905354336575

>  <compound_ID>  (5) 
REAL:Z929521128

$$$$

     RDKit          3D

 20 20  0  0  0  0  0  0  0  0999 V2000
  -12.6610    5.7620  -77.7660 C   0  0  0  0  0  0  0  0  0  0  0  0
  -12.9210    6.5740  -76.4920 C   0  0  0  0  0  0  0  0  0  0  0  0
  -14.2090    7.3860  -76.5700 C   0  0  0  0  0  0  0  0  0  0  0  0
  -12.8800    5.7130  -75.2670 N   0  0  0  0  0  0  0  0  0  0  0  0
  -12.9920    4.3050  -75.4320 C   0  0  0  0  0  0  0  0  0  0  0  0
  -12.5400    6.3190  -73.6860 S   0  0  0  0  0  0  0  0  0  0  0  0
  -13.8660    3.6370  -74.8930 O   0  0  0  0  0  0  0  0  0  0  0  0
  -12.0380    3.7440  -76.2400 N   0  0  0  0  0  0  0  0  0  0  0  0
  -13.8670    7.4450  -73.3030 C   0  0  0  0  0  0  0  0  0  0  0  0
  -11.2620    7.0100  -73.5970 O   0  0  0  0  0  0  0  0  0  0  0  0
  -12.7870    5.1880  -72.8350 O   0  0  0  0  0  0  0  0  0  0  0  0
  -10.7090    3.6700  -75.9670 C   0  0  0  0  0  0  0  0  0  0  0  0
  -10.3370    4.4150  -75.1180 O   0  0  0  0  0  0  0  0  0  0  0  0
   -9.9410    2.7900  -76.6390 N   0  0  0  0  0  0  0  0  0  0  0  0
   -8.8520    3.0710  -77.4800 C   0  0  0  0  0  0  0  0  0  0  0  0
   -8.8550    3.9610  -78.5520 C   0  0  0  0  0  0  0  0  0  0  0  0
   -7.6850    2.3700  -77.1990 C   0  0  0  0  0  0  0  0  0  0  0  0
   -7.7070    4.1220  -79.3350 C   0  0  0  0  0  0  0  0  0  0  0  0
   -6.5400    2.5460  -77.9770 C   0  0  0  0  0  0  0  0  0  0  0  0
   -6.5520    3.4200  -79.0480 C   0  0  0  0  0  0  0  0  0  0  0  0
  1  2  1  0
  2  3  1  0
  2  4  1  0
  4  5  1  0
  6  4  1  0
  5  7  2  0
  5  8  1  0
  6  9  1  0
  6 10  2  0
  6 11  2  0
  8 12  1  0
 12 13  2  0
 12 14  1  0
 14 15  1  0
 15 16  2  0
 15 17  1  0
 16 18  1  0
 17 19  2  0
 18 20  2  0
 19 20  1  0
M  END
>  <ref_url>  (6) 
https://fakepage.com

>  <submitter_name>  (6) 
Steph Wills

>  <submitter_email>  (6) 
stephanie.wills@dtc.ox.ac.uk

>  <submitter_institution>  (6) 
University of Oxford

>  <generation_date>  (6) 
2020-06-04

>  <method>  (6) 
Fragment network

>  <ref_mols>  (6) 
x0276_0B,x0208_0A

>  <ref_pdb>  (6) 
references/x0276-0B-x0208-0A-147094.holo_minimised_nolig.pdb

>  <original SMILES>  (6) 
CC(C)N(C(=O)NC(=O)Nc1ccccc1)S(C)(=O)=O

>  <synthon>  (6) 
[Xe]c1ccccc1

>  <original_name>  (6) 
x0276-0B-x0208-0A-147094

>  <comRMSD_score>  (6) 
0.7587665253554609

>  <IF_score>  (6) 
0.4166666666666666

>  <SuCOS_score>  (6) 
0.4395710588713784

>  <compound_ID>  (6) 
MOLPORT:005-507-015

$$$$

     RDKit          3D

 17 17  0  0  0  0  0  0  0  0999 V2000
  -13.8160    7.4760  -73.2360 C   0  0  0  0  0  0  0  0  0  0  0  0
  -12.3680    6.6050  -73.7900 S   0  0  0  0  0  0  0  0  0  0  0  0
  -12.5360    5.1990  -73.5130 O   0  0  0  0  0  0  0  0  0  0  0  0
  -11.1990    7.3290  -73.3440 O   0  0  0  0  0  0  0  0  0  0  0  0
  -12.5470    6.7880  -75.4510 N   0  0  0  0  0  0  0  0  0  0  0  0
  -13.4170    5.8670  -76.1990 C   0  0  0  0  0  0  0  0  0  0  0  0
  -12.8890    4.4290  -76.0920 C   0  0  0  0  0  0  0  0  0  0  0  0
  -11.4380    4.3260  -76.2720 N   0  0  0  0  0  0  0  0  0  0  0  0
  -10.9260    4.2850  -77.8450 S   0  0  0  0  0  0  0  0  0  0  0  0
  -11.8120    3.2960  -78.4240 O   0  0  0  0  0  0  0  0  0  0  0  0
  -10.9530    5.6490  -78.2480 O   0  0  0  0  0  0  0  0  0  0  0  0
   -9.2660    3.6610  -77.8550 C   0  0  0  0  0  0  0  0  0  0  0  0
   -8.9320    2.7240  -76.9040 C   0  0  0  0  0  0  0  0  0  0  0  0
   -8.3130    4.0800  -78.7920 C   0  0  0  0  0  0  0  0  0  0  0  0
   -7.6540    2.1990  -76.8810 C   0  0  0  0  0  0  0  0  0  0  0  0
   -7.0250    3.5600  -78.7670 C   0  0  0  0  0  0  0  0  0  0  0  0
   -6.6960    2.6140  -77.8070 C   0  0  0  0  0  0  0  0  0  0  0  0
  1  2  1  0
  2  3  2  0
  2  4  2  0
  2  5  1  0
  5  6  1  0
  6  7  1  0
  7  8  1  0
  9  8  1  0
  9 10  2  0
  9 11  2  0
  9 12  1  0
 12 13  2  0
 12 14  1  0
 13 15  1  0
 14 16  2  0
 15 17  2  0
 16 17  1  0
M  END
>  <ref_url>  (7) 
https://fakepage.com

>  <submitter_name>  (7) 
Steph Wills

>  <submitter_email>  (7) 
stephanie.wills@dtc.ox.ac.uk

>  <submitter_institution>  (7) 
University of Oxford

>  <generation_date>  (7) 
2020-06-04

>  <method>  (7) 
Fragment network

>  <ref_mols>  (7) 
x0276_0B,x0208_0A

>  <ref_pdb>  (7) 
references/x0276-0B-x0208-0A-155281.holo_minimised_nolig.pdb

>  <original SMILES>  (7) 
CS(=O)(=O)NCCNS(=O)(=O)c1ccccc1

>  <synthon>  (7) 
[Xe]c1ccccc1

>  <original_name>  (7) 
x0276-0B-x0208-0A-155281

>  <comRMSD_score>  (7) 
0.9259653341243396

>  <IF_score>  (7) 
0.55

>  <SuCOS_score>  (7) 
0.4532059799607599

>  <compound_ID>  (7) 
MOLPORT:006-835-499

$$$$

     RDKit          3D

 19 19  0  0  0  0  0  0  0  0999 V2000
  -14.3950    4.7420  -79.0200 C   0  0  0  0  0  0  0  0  0  0  0  0
  -13.3340    5.4000  -78.1510 C   0  0  0  0  0  0  0  0  0  0  0  0
  -13.1500    4.7760  -76.7480 C   0  0  2  0  0  0  0  0  0  0  0  0
  -13.6950    5.7520  -75.7380 C   0  0  0  0  0  0  0  0  0  0  0  0
  -11.7100    4.4900  -76.4800 N   0  0  0  0  0  0  0  0  0  0  0  0
  -12.6280    6.6690  -75.3300 N   0  0  0  0  0  0  0  0  0  0  0  0
  -10.9420    4.2770  -77.9120 S   0  0  0  0  0  0  0  0  0  0  0  0
  -12.2920    6.6030  -73.6980 S   0  0  0  0  0  0  0  0  0  0  0  0
  -10.8470    5.5900  -78.4050 O   0  0  0  0  0  0  0  0  0  0  0  0
  -11.7820    3.2550  -78.4910 O   0  0  0  0  0  0  0  0  0  0  0  0
   -9.3030    3.6240  -77.8130 C   0  0  0  0  0  0  0  0  0  0  0  0
  -13.6760    7.5530  -73.0970 C   0  0  0  0  0  0  0  0  0  0  0  0
  -11.0590    7.2950  -73.4190 O   0  0  0  0  0  0  0  0  0  0  0  0
  -12.4820    5.2100  -73.3730 O   0  0  0  0  0  0  0  0  0  0  0  0
   -8.2420    4.0260  -78.8460 C   0  0  0  0  0  0  0  0  0  0  0  0
   -8.9520    2.7380  -76.8330 C   0  0  0  0  0  0  0  0  0  0  0  0
   -6.9680    3.5080  -78.7850 C   0  0  0  0  0  0  0  0  0  0  0  0
   -7.6530    2.2330  -76.8120 C   0  0  0  0  0  0  0  0  0  0  0  0
   -6.6790    2.6060  -77.7620 C   0  0  0  0  0  0  0  0  0  0  0  0
  1  2  1  0
  3  2  1  6
  3  4  1  0
  3  5  1  0
  4  6  1  0
  7  5  1  0
  8  6  1  0
  7  9  2  0
  7 10  2  0
  7 11  1  0
  8 12  1  0
  8 13  2  0
  8 14  2  0
 11 15  2  0
 11 16  1  0
 15 17  1  0
 16 18  2  0
 17 19  2  0
 18 19  1  0
M  END
>  <ref_url>  (8) 
https://fakepage.com

>  <submitter_name>  (8) 
Steph Wills

>  <submitter_email>  (8) 
stephanie.wills@dtc.ox.ac.uk

>  <submitter_institution>  (8) 
University of Oxford

>  <generation_date>  (8) 
2020-06-04

>  <method>  (8) 
Fragment network

>  <ref_mols>  (8) 
x0276_0B,x0208_0A

>  <ref_pdb>  (8) 
references/x0276-0B-x0208-0A-157657.holo_minimised_nolig.pdb

>  <original SMILES>  (8) 
CCC(CNS(C)(=O)=O)NS(=O)(=O)c1ccccc1

>  <synthon>  (8) 
[Xe]c1ccccc1

>  <original_name>  (8) 
x0276-0B-x0208-0A-157657

>  <comRMSD_score>  (8) 
0.9183564231821978

>  <IF_score>  (8) 
0.6333333333333333

>  <SuCOS_score>  (8) 
0.4616392622086813

>  <compound_ID>  (8) 
REAL:Z2278605433

$$$$

     RDKit          3D

 18 18  0  0  0  0  0  0  0  0999 V2000
  -10.9890    3.3360  -75.4460 C   0  0  0  0  0  0  0  0  0  0  0  0
  -11.4630    4.3790  -76.3550 N   0  0  0  0  0  0  0  0  0  0  0  0
  -12.9480    4.5190  -76.3610 C   0  0  0  0  0  0  0  0  0  0  0  0
  -10.9250    4.2950  -77.9370 S   0  0  0  0  0  0  0  0  0  0  0  0
  -13.4730    5.9500  -76.1960 C   0  0  0  0  0  0  0  0  0  0  0  0
  -11.7890    3.2690  -78.4800 O   0  0  0  0  0  0  0  0  0  0  0  0
  -10.9770    5.6330  -78.3740 O   0  0  0  0  0  0  0  0  0  0  0  0
   -9.2590    3.6880  -77.9980 C   0  0  0  0  0  0  0  0  0  0  0  0
  -12.5270    6.7680  -75.4190 N   0  0  0  0  0  0  0  0  0  0  0  0
   -8.3250    4.0960  -78.9630 C   0  0  0  0  0  0  0  0  0  0  0  0
   -8.9160    2.7670  -77.0510 C   0  0  0  0  0  0  0  0  0  0  0  0
  -12.3390    6.5380  -73.7710 S   0  0  0  0  0  0  0  0  0  0  0  0
   -7.0410    3.5640  -78.9530 C   0  0  0  0  0  0  0  0  0  0  0  0
   -7.6460    2.2350  -77.0400 C   0  0  0  0  0  0  0  0  0  0  0  0
  -13.7180    7.4780  -73.1530 C   0  0  0  0  0  0  0  0  0  0  0  0
  -11.1190    7.2260  -73.4080 O   0  0  0  0  0  0  0  0  0  0  0  0
  -12.5370    5.1380  -73.4820 O   0  0  0  0  0  0  0  0  0  0  0  0
   -6.7030    2.6280  -77.9850 C   0  0  0  0  0  0  0  0  0  0  0  0
  1  2  1  0
  2  3  1  0
  4  2  1  0
  3  5  1  0
  4  6  2  0
  4  7  2  0
  4  8  1  0
  5  9  1  0
  8 10  2  0
  8 11  1  0
 12  9  1  0
 10 13  1  0
 11 14  2  0
 12 15  1  0
 12 16  2  0
 12 17  2  0
 13 18  2  0
 14 18  1  0
M  END
>  <ref_url>  (9) 
https://fakepage.com

>  <submitter_name>  (9) 
Steph Wills

>  <submitter_email>  (9) 
stephanie.wills@dtc.ox.ac.uk

>  <submitter_institution>  (9) 
University of Oxford

>  <generation_date>  (9) 
2020-06-04

>  <method>  (9) 
Fragment network

>  <ref_mols>  (9) 
x0276_0B,x0208_0A

>  <ref_pdb>  (9) 
references/x0276-0B-x0208-0A-207426.holo_minimised_nolig.pdb

>  <original SMILES>  (9) 
CN(CCNS(C)(=O)=O)S(=O)(=O)c1ccccc1

>  <synthon>  (9) 
[Xe]c1ccccc1

>  <original_name>  (9) 
x0276-0B-x0208-0A-207426

>  <comRMSD_score>  (9) 
0.8487786474150318

>  <IF_score>  (9) 
0.55

>  <SuCOS_score>  (9) 
0.4718104402132058

>  <compound_ID>  (9) 
REAL:Z1203878132

$$$$

     RDKit          3D

 22 22  0  0  0  0  0  0  0  0999 V2000
  -12.4830    5.3680  -77.5550 C   0  0  0  0  0  0  0  0  0  0  0  0
  -13.4070    6.1610  -76.6680 C   0  0  0  0  0  0  0  0  0  0  0  0
  -12.7320    7.1120  -75.7030 N   0  0  0  0  0  0  0  0  0  0  0  0
  -13.1280    8.5230  -75.8550 C   0  0  0  0  0  0  0  0  0  0  0  0
  -12.4060    6.5060  -74.1600 S   0  0  0  0  0  0  0  0  0  0  0  0
  -11.9470    9.4770  -76.0610 C   0  0  0  0  0  0  0  0  0  0  0  0
  -11.6520    5.3010  -74.2720 O   0  0  0  0  0  0  0  0  0  0  0  0
  -11.9490    7.6100  -73.3470 O   0  0  0  0  0  0  0  0  0  0  0  0
  -13.9890    5.9140  -73.6620 C   0  0  0  0  0  0  0  0  0  0  0  0
  -14.0720    4.4360  -74.1280 C   0  0  0  0  0  0  0  0  0  0  0  0
  -13.2230    4.1410  -75.3120 N   0  0  0  0  0  0  0  0  0  0  0  0
  -12.1950    3.0710  -75.2260 C   0  0  0  0  0  0  0  0  0  0  0  0
  -12.2360    1.7900  -74.5970 O   0  0  0  0  0  0  0  0  0  0  0  0
  -10.8790    3.3750  -75.9450 C   0  0  0  0  0  0  0  0  0  0  0  0
  -10.0740    4.2520  -75.2200 O   0  0  0  0  0  0  0  0  0  0  0  0
  -10.6950    2.7880  -77.1670 N   0  0  0  0  0  0  0  0  0  0  0  0
   -9.3870    3.0570  -77.8230 C   0  0  0  0  0  0  0  0  0  0  0  0
   -8.2390    2.3740  -77.3590 C   0  0  0  0  0  0  0  0  0  0  0  0
   -9.2310    3.9490  -78.8910 C   0  0  0  0  0  0  0  0  0  0  0  0
   -6.9820    2.5850  -77.9600 C   0  0  0  0  0  0  0  0  0  0  0  0
   -7.9810    4.1270  -79.4660 C   0  0  0  0  0  0  0  0  0  0  0  0
   -6.8530    3.4660  -79.0210 C   0  0  0  0  0  0  0  0  0  0  0  0
  1  2  1  0
  2  3  1  0
  3  4  1  0
  5  3  1  0
  4  6  1  0
  5  7  2  0
  5  8  2  0
  5  9  1  0
  9 10  1  0
 10 11  1  0
 11 12  1  0
 12 13  2  0
 12 14  1  0
 14 15  2  0
 14 16  1  0
 16 17  1  0
 17 18  2  0
 17 19  1  0
 18 20  1  0
 19 21  2  0
 20 22  2  0
 21 22  1  0
M  END
>  <ref_url>  (10) 
https://fakepage.com

>  <submitter_name>  (10) 
Steph Wills

>  <submitter_email>  (10) 
stephanie.wills@dtc.ox.ac.uk

>  <submitter_institution>  (10) 
University of Oxford

>  <generation_date>  (10) 
2020-06-04

>  <method>  (10) 
Fragment network

>  <ref_mols>  (10) 
x0276_0B,x0208_0A

>  <ref_pdb>  (10) 
references/x0276-0B-x0208-0A-249936.holo_minimised_nolig.pdb

>  <original SMILES>  (10) 
CCN(CC)S(=O)(=O)CCNC(=O)C(=O)Nc1ccccc1

>  <synthon>  (10) 
[Xe]c1ccccc1

>  <original_name>  (10) 
x0276-0B-x0208-0A-249936

>  <comRMSD_score>  (10) 
0.9679547629289934

>  <IF_score>  (10) 
0.25

>  <SuCOS_score>  (10) 
0.4091570476791728

>  <compound_ID>  (10) 
MOLPORT:020-087-237

$$$$

     RDKit          3D

 21 21  0  0  0  0  0  0  0  0999 V2000
  -14.3710    6.6190  -77.7130 C   0  0  0  0  0  0  0  0  0  0  0  0
  -13.5490    5.8180  -76.6810 C   0  0  0  0  0  0  0  0  0  0  0  0
  -14.5050    4.7280  -76.1260 C   0  0  0  0  0  0  0  0  0  0  0  0
  -12.3270    5.1850  -77.3930 C   0  0  0  0  0  0  0  0  0  0  0  0
  -13.0240    6.6890  -75.5860 N   0  0  0  0  0  0  0  0  0  0  0  0
  -12.3640    6.0980  -74.1700 S   0  0  0  0  0  0  0  0  0  0  0  0
  -11.3620    5.1660  -74.4870 O   0  0  0  0  0  0  0  0  0  0  0  0
  -12.0910    7.2150  -73.2950 O   0  0  0  0  0  0  0  0  0  0  0  0
  -13.5860    5.0480  -73.4900 C   0  0  0  0  0  0  0  0  0  0  0  0
  -13.4010    3.5610  -73.8580 C   0  0  0  0  0  0  0  0  0  0  0  0
  -12.2820    3.2160  -73.7350 N   0  0  0  0  0  0  0  0  0  0  0  0
  -11.7080    2.6100  -74.9840 C   0  0  0  0  0  0  0  0  0  0  0  0
  -12.2080    1.4520  -75.6630 O   0  0  0  0  0  0  0  0  0  0  0  0
  -10.5590    3.2060  -75.5670 C   0  0  0  0  0  0  0  0  0  0  0  0
  -10.3400    2.9220  -76.9380 O   0  0  0  0  0  0  0  0  0  0  0  0
   -9.1340    3.1120  -77.5920 C   0  0  0  0  0  0  0  0  0  0  0  0
   -8.9420    4.0150  -78.6470 C   0  0  0  0  0  0  0  0  0  0  0  0
   -8.0460    2.3180  -77.1760 C   0  0  0  0  0  0  0  0  0  0  0  0
   -7.7080    4.1100  -79.2860 C   0  0  0  0  0  0  0  0  0  0  0  0
   -6.8010    2.4300  -77.8160 C   0  0  0  0  0  0  0  0  0  0  0  0
   -6.6670    3.3240  -78.8620 C   0  0  0  0  0  0  0  0  0  0  0  0
  1  2  1  0
  2  3  1  0
  2  4  1  0
  2  5  1  0
  6  5  1  0
  6  7  2  0
  6  8  2  0
  6  9  1  0
  9 10  1  0
 10 11  1  0
 11 12  1  0
 12 13  2  0
 12 14  1  0
 14 15  1  0
 15 16  1  0
 16 17  2  0
 16 18  1  0
 17 19  1  0
 18 20  2  0
 19 21  2  0
 20 21  1  0
M  END
>  <ref_url>  (11) 
https://fakepage.com

>  <submitter_name>  (11) 
Steph Wills

>  <submitter_email>  (11) 
stephanie.wills@dtc.ox.ac.uk

>  <submitter_institution>  (11) 
University of Oxford

>  <generation_date>  (11) 
2020-06-04

>  <method>  (11) 
Fragment network

>  <ref_mols>  (11) 
x0276_0B,x0208_0A

>  <ref_pdb>  (11) 
references/x0276-0B-x0208-0A-258447.holo_minimised_nolig.pdb

>  <original SMILES>  (11) 
CC(C)(C)NS(=O)(=O)CCNC(=O)COc1ccccc1

>  <synthon>  (11) 
[Xe]c1ccccc1

>  <original_name>  (11) 
x0276-0B-x0208-0A-258447

>  <comRMSD_score>  (11) 
0.9611292236819065

>  <IF_score>  (11) 
0.35

>  <SuCOS_score>  (11) 
0.4041652016068691

>  <compound_ID>  (11) 
REAL:Z366841850

$$$$

     RDKit          3D

 17 17  0  0  0  0  0  0  0  0999 V2000
   -6.5470    1.0140  -78.4960 C   0  0  0  0  0  0  0  0  0  0  0  0
   -7.1320    0.9660  -77.0930 C   0  0  0  0  0  0  0  0  0  0  0  0
   -8.6370    1.2050  -77.0740 C   0  0  0  0  0  0  0  0  0  0  0  0
   -9.4400    0.3100  -76.8540 O   0  0  0  0  0  0  0  0  0  0  0  0
   -8.9420    2.5300  -77.3430 N   0  0  0  0  0  0  0  0  0  0  0  0
   -9.8390    3.3680  -76.6440 C   0  0  2  0  0  0  0  0  0  0  0  0
  -10.6760    2.7420  -75.7540 C   0  0  0  0  0  0  0  0  0  0  0  0
  -10.6180    4.3070  -77.3110 C   0  0  0  0  0  0  0  0  0  0  0  0
  -11.8270    3.4940  -75.5310 C   0  0  0  0  0  0  0  0  0  0  0  0
  -11.5630    4.6920  -76.3580 N   0  0  0  0  0  0  0  0  0  0  0  0
  -12.7680    5.2220  -76.9930 C   0  0  0  0  0  0  0  0  0  0  0  0
  -13.5600    6.0480  -76.0960 C   0  0  0  0  0  0  0  0  0  0  0  0
  -12.7350    6.8510  -75.3680 N   0  0  0  0  0  0  0  0  0  0  0  0
  -12.4650    6.4790  -73.7610 S   0  0  0  0  0  0  0  0  0  0  0  0
  -13.7750    7.4440  -73.0420 C   0  0  0  0  0  0  0  0  0  0  0  0
  -12.6610    5.1290  -73.2980 O   0  0  0  0  0  0  0  0  0  0  0  0
  -11.2450    7.1610  -73.3950 O   0  0  0  0  0  0  0  0  0  0  0  0
  1  2  1  0
  2  3  1  0
  3  4  2  0
  3  5  1  0
  6  5  1  6
  6  7  1  0
  6  8  1  0
  7  9  1  0
  8 10  1  0
  9 10  1  0
 10 11  1  0
 11 12  1  0
 12 13  1  0
 14 13  1  0
 14 15  1  0
 14 16  2  0
 14 17  2  0
M  END
>  <ref_url>  (12) 
https://fakepage.com

>  <submitter_name>  (12) 
Steph Wills

>  <submitter_email>  (12) 
stephanie.wills@dtc.ox.ac.uk

>  <submitter_institution>  (12) 
University of Oxford

>  <generation_date>  (12) 
2020-06-04

>  <method>  (12) 
Fragment network

>  <ref_mols>  (12) 
x0176_0B,x0438_0B

>  <ref_pdb>  (12) 
references/x0176-0B-x0438-0B-810.holo_minimised_nolig.pdb

>  <original SMILES>  (12) 
CCC(=O)NC1CCN(CCNS(C)(=O)=O)C1

>  <synthon>  (12) 
CCC(=O)N[Xe]

>  <original_name>  (12) 
x0176-0B-x0438-0B-810

>  <comRMSD_score>  (12) 
0.6778361215605918

>  <IF_score>  (12) 
0.369047619047619

>  <SuCOS_score>  (12) 
0.5348622037662807

>  <compound_ID>  (12) 
REAL:PV-000762922368

$$$$

     RDKit          3D

 22 23  0  0  0  0  0  0  0  0999 V2000
  -10.6330    1.4940  -78.6390 C   0  0  0  0  0  0  0  0  0  0  0  0
  -11.6670    0.4340  -78.2480 C   0  0  1  0  0  0  0  0  0  0  0  0
  -12.9330    1.1280  -77.6110 C   0  0  0  0  0  0  0  0  0  0  0  0
  -12.0060   -0.6540  -79.3570 C   0  0  0  0  0  0  0  0  0  0  0  0
  -13.3930    2.4060  -78.1740 O   0  0  0  0  0  0  0  0  0  0  0  0
  -11.0250   -0.8310  -80.4470 O   0  0  0  0  0  0  0  0  0  0  0  0
  -12.8700    3.6760  -77.6720 C   0  0  0  0  0  0  0  0  0  0  0  0
   -9.9180   -0.0450  -80.3940 C   0  0  0  0  0  0  0  0  0  0  0  0
  -11.4460    3.4910  -77.2630 C   0  0  0  0  0  0  0  0  0  0  0  0
   -9.4480    0.8970  -81.3210 C   0  0  0  0  0  0  0  0  0  0  0  0
   -9.2190   -0.2400  -79.2270 C   0  0  0  0  0  0  0  0  0  0  0  0
  -11.1610    2.7180  -76.1390 C   0  0  0  0  0  0  0  0  0  0  0  0
  -10.3910    4.0580  -77.9890 C   0  0  0  0  0  0  0  0  0  0  0  0
   -8.3140    1.6600  -81.0340 C   0  0  0  0  0  0  0  0  0  0  0  0
   -8.0980    0.4970  -78.9360 C   0  0  0  0  0  0  0  0  0  0  0  0
   -9.6320   -1.1530  -78.3330 F   0  0  0  0  0  0  0  0  0  0  0  0
   -9.8570    2.4980  -75.7480 C   0  0  0  0  0  0  0  0  0  0  0  0
   -9.0820    3.8340  -77.5920 C   0  0  0  0  0  0  0  0  0  0  0  0
   -7.6460    1.4620  -79.8250 C   0  0  0  0  0  0  0  0  0  0  0  0
   -8.8120    3.0510  -76.4730 C   0  0  0  0  0  0  0  0  0  0  0  0
   -6.4570    2.2560  -79.4190 C   0  0  0  0  0  0  0  0  0  0  0  0
   -6.7240    2.7730  -78.0760 N   0  0  0  0  0  0  0  0  0  0  0  0
  2  1  1  6
  2  3  1  0
  2  4  1  0
  3  5  1  0
  4  6  1  0
  5  7  1  0
  6  8  1  0
  7  9  1  0
  8 10  2  0
  8 11  1  0
  9 12  2  0
  9 13  1  0
 10 14  1  0
 11 15  2  0
 11 16  1  0
 12 17  1  0
 13 18  2  0
 14 19  2  0
 15 19  1  0
 17 20  2  0
 18 20  1  0
 19 21  1  0
 21 22  1  0
M  END
>  <ref_url>  (13) 
https://fakepage.com

>  <submitter_name>  (13) 
Steph Wills

>  <submitter_email>  (13) 
stephanie.wills@dtc.ox.ac.uk

>  <submitter_institution>  (13) 
University of Oxford

>  <generation_date>  (13) 
2020-06-04

>  <method>  (13) 
Fragment network

>  <ref_mols>  (13) 
x0276_0B,x0212_0B

>  <ref_pdb>  (13) 
references/x0276-0B-x0212-0B-15169.holo_minimised_nolig.pdb

>  <original SMILES>  (13) 
CC(COCc1ccccc1)COc1ccc(CN)cc1F

>  <synthon>  (13) 
[Xe]c1ccccc1

>  <original_name>  (13) 
x0276-0B-x0212-0B-15169

>  <comRMSD_score>  (13) 
0.8551737174144913

>  <IF_score>  (13) 
0.5

>  <SuCOS_score>  (13) 
0.3884573403063899

>  <compound_ID>  (13) 
CHEMSPACE-BB:CSMB00116411312

$$$$

     RDKit          3D

 22 23  0  0  0  0  0  0  0  0999 V2000
  -12.6580    6.5480  -75.3650 N   0  0  0  0  0  0  0  0  0  0  0  0
  -13.6530    6.2340  -76.4040 C   0  0  0  0  0  0  0  0  0  0  0  0
  -13.0630    5.4150  -77.5530 C   0  0  0  0  0  0  0  0  0  0  0  0
  -11.9710    4.5540  -77.0300 C   0  0  0  0  0  0  0  0  0  0  0  0
  -10.6940    4.5810  -77.5810 C   0  0  0  0  0  0  0  0  0  0  0  0
  -12.2570    3.7150  -75.9530 C   0  0  0  0  0  0  0  0  0  0  0  0
   -9.7170    3.7630  -77.0340 C   0  0  0  0  0  0  0  0  0  0  0  0
  -11.2820    2.9090  -75.4280 C   0  0  0  0  0  0  0  0  0  0  0  0
  -10.0300    2.9400  -75.9660 C   0  0  0  0  0  0  0  0  0  0  0  0
  -11.5840    2.1070  -74.3970 F   0  0  0  0  0  0  0  0  0  0  0  0
   -9.0600    2.1710  -75.4930 O   0  0  0  0  0  0  0  0  0  0  0  0
   -8.5700    1.4760  -76.5910 C   0  0  0  0  0  0  0  0  0  0  0  0
   -8.3870    2.4010  -77.7870 C   0  0  0  0  0  0  0  0  0  0  0  0
   -9.2760    2.9070  -78.4700 O   0  0  0  0  0  0  0  0  0  0  0  0
   -7.0730    2.6130  -78.0390 N   0  0  0  0  0  0  0  0  0  0  0  0
   -6.6430    2.3890  -79.3840 C   0  0  0  0  0  0  0  0  0  0  0  0
   -7.6390    1.5020  -80.0770 C   0  0  0  0  0  0  0  0  0  0  0  0
   -8.2380    1.9340  -81.2570 C   0  0  0  0  0  0  0  0  0  0  0  0
   -7.9840    0.2400  -79.5640 C   0  0  0  0  0  0  0  0  0  0  0  0
   -9.1520    1.1260  -81.9120 C   0  0  0  0  0  0  0  0  0  0  0  0
   -8.9070   -0.5680  -80.2270 C   0  0  0  0  0  0  0  0  0  0  0  0
   -9.4900   -0.1240  -81.4040 C   0  0  0  0  0  0  0  0  0  0  0  0
  1  2  1  0
  2  3  1  0
  3  4  1  0
  4  5  2  0
  4  6  1  0
  5  7  1  0
  6  8  2  0
  7  9  2  0
  8  9  1  0
  8 10  1  0
  9 11  1  0
 11 12  1  0
 12 13  1  0
 13 14  2  0
 13 15  1  0
 15 16  1  0
 16 17  1  0
 17 18  2  0
 17 19  1  0
 18 20  1  0
 19 21  2  0
 20 22  2  0
 21 22  1  0
M  END
>  <ref_url>  (14) 
https://fakepage.com

>  <submitter_name>  (14) 
Steph Wills

>  <submitter_email>  (14) 
stephanie.wills@dtc.ox.ac.uk

>  <submitter_institution>  (14) 
University of Oxford

>  <generation_date>  (14) 
2020-06-04

>  <method>  (14) 
Fragment network

>  <ref_mols>  (14) 
x0276_0B,x0212_0B

>  <ref_pdb>  (14) 
references/x0276-0B-x0212-0B-18570.holo_minimised_nolig.pdb

>  <original SMILES>  (14) 
NCCc1ccc(OCC(=O)NCc2ccccc2)c(F)c1

>  <synthon>  (14) 
[Xe]c1ccccc1

>  <original_name>  (14) 
x0276-0B-x0212-0B-18570

>  <comRMSD_score>  (14) 
0.930890289330182

>  <IF_score>  (14) 
0.75

>  <SuCOS_score>  (14) 
0.5313376194347124

>  <compound_ID>  (14) 
CHEMSPACE-BB:CSMB00014270736

$$$$

     RDKit          3D

 27 29  0  0  0  0  0  0  0  0999 V2000
  -13.7660    7.4890  -73.1190 C   0  0  0  0  0  0  0  0  0  0  0  0
  -12.3520    6.5800  -73.6830 S   0  0  0  0  0  0  0  0  0  0  0  0
  -11.1610    7.2610  -73.2390 O   0  0  0  0  0  0  0  0  0  0  0  0
  -12.5720    5.1680  -73.4640 O   0  0  0  0  0  0  0  0  0  0  0  0
  -12.5090    6.8400  -75.3290 N   0  0  0  0  0  0  0  0  0  0  0  0
  -13.5450    6.1130  -76.0700 C   0  0  0  0  0  0  0  0  0  0  0  0
  -12.9400    5.5930  -77.3650 C   0  0  0  0  0  0  0  0  0  0  0  0
  -11.9410    4.5140  -77.1020 C   0  0  0  0  0  0  0  0  0  0  0  0
  -10.8890    4.3150  -77.9790 C   0  0  0  0  0  0  0  0  0  0  0  0
  -12.0810    3.7040  -75.9690 C   0  0  0  0  0  0  0  0  0  0  0  0
   -9.9930    3.3020  -77.7250 C   0  0  0  0  0  0  0  0  0  0  0  0
  -11.1740    2.6870  -75.7140 C   0  0  0  0  0  0  0  0  0  0  0  0
  -10.1440    2.4830  -76.5950 C   0  0  0  0  0  0  0  0  0  0  0  0
   -9.2020    1.4470  -76.4120 C   0  0  0  0  0  0  0  0  0  0  0  0
   -9.2350    0.2240  -75.7660 C   0  0  0  0  0  0  0  0  0  0  0  0
   -8.0750    1.7440  -77.0130 N   0  0  0  0  0  0  0  0  0  0  0  0
   -7.7130   -0.5460  -76.0090 S   0  0  0  0  0  0  0  0  0  0  0  0
   -7.2160    0.8360  -76.8980 C   0  0  0  0  0  0  0  0  0  0  0  0
   -6.1550    1.2430  -77.5300 N   0  0  0  0  0  0  0  0  0  0  0  0
   -6.6920    2.4190  -78.2120 C   0  0  0  0  0  0  0  0  0  0  0  0
   -6.5090    2.3870  -79.7070 C   0  0  0  0  0  0  0  0  0  0  0  0
   -7.5700    1.5140  -80.3160 C   0  0  0  0  0  0  0  0  0  0  0  0
   -8.2480    1.9620  -81.4260 C   0  0  0  0  0  0  0  0  0  0  0  0
   -7.8890    0.2550  -79.7860 C   0  0  0  0  0  0  0  0  0  0  0  0
   -9.2130    1.1770  -82.0090 C   0  0  0  0  0  0  0  0  0  0  0  0
   -8.8710   -0.5360  -80.3770 C   0  0  0  0  0  0  0  0  0  0  0  0
   -9.5300   -0.0730  -81.4960 C   0  0  0  0  0  0  0  0  0  0  0  0
  1  2  1  0
  2  3  2  0
  2  4  2  0
  2  5  1  0
  5  6  1  0
  6  7  1  0
  7  8  1  0
  8  9  2  0
  8 10  1  0
  9 11  1  0
 10 12  2  0
 11 13  2  0
 12 13  1  0
 13 14  1  0
 14 15  2  0
 14 16  1  0
 15 17  1  0
 16 18  2  0
 17 18  1  0
 18 19  1  0
 19 20  1  0
 20 21  1  0
 21 22  1  0
 22 23  2  0
 22 24  1  0
 23 25  1  0
 24 26  2  0
 25 27  2  0
 26 27  1  0
M  END
>  <ref_url>  (15) 
https://fakepage.com

>  <submitter_name>  (15) 
Steph Wills

>  <submitter_email>  (15) 
stephanie.wills@dtc.ox.ac.uk

>  <submitter_institution>  (15) 
University of Oxford

>  <generation_date>  (15) 
2020-06-04

>  <method>  (15) 
Fragment network

>  <ref_mols>  (15) 
x0276_0B,x0212_0B

>  <ref_pdb>  (15) 
references/x0276-0B-x0212-0B-42919.holo_minimised_nolig.pdb

>  <original SMILES>  (15) 
CS(=O)(=O)NCCc1ccc(-c2csc(NCCc3ccccc3)n2)cc1

>  <synthon>  (15) 
[Xe]c1ccccc1

>  <original_name>  (15) 
x0276-0B-x0212-0B-42919

>  <comRMSD_score>  (15) 
0.8247661140330288

>  <IF_score>  (15) 
0.875

>  <SuCOS_score>  (15) 
0.607598596956827

>  <compound_ID>  (15) 
MOLPORT:004-554-140

$$$$

     RDKit          3D

 22 23  0  0  0  0  0  0  0  0999 V2000
  -13.6320    6.1260  -76.2940 C   0  0  0  0  0  0  0  0  0  0  0  0
  -12.8410    5.8720  -77.5620 C   0  0  2  0  0  0  0  0  0  0  0  0
  -13.8000    5.7330  -78.6720 N   0  0  0  0  0  0  0  0  0  0  0  0
  -11.9560    4.6690  -77.3510 C   0  0  0  0  0  0  0  0  0  0  0  0
  -12.1930    3.7790  -76.1090 C   0  0  0  0  0  0  0  0  0  0  0  0
  -10.9380    4.3400  -78.2480 C   0  0  0  0  0  0  0  0  0  0  0  0
  -11.2810    2.6200  -76.0110 C   0  0  0  0  0  0  0  0  0  0  0  0
  -10.1640    3.2220  -78.0360 C   0  0  0  0  0  0  0  0  0  0  0  0
  -10.3170    2.3670  -76.9540 C   0  0  0  0  0  0  0  0  0  0  0  0
   -9.2470    3.0610  -79.0010 F   0  0  0  0  0  0  0  0  0  0  0  0
   -9.5840    1.4520  -76.8840 O   0  0  0  0  0  0  0  0  0  0  0  0
   -8.5760    2.0770  -76.1730 C   0  0  0  0  0  0  0  0  0  0  0  0
   -7.9680    2.8470  -77.1460 C   0  0  0  0  0  0  0  0  0  0  0  0
   -8.3590    3.9780  -77.3650 O   0  0  0  0  0  0  0  0  0  0  0  0
   -6.9580    2.2720  -77.8430 N   0  0  0  0  0  0  0  0  0  0  0  0
   -6.8250    2.4650  -79.2900 C   0  0  0  0  0  0  0  0  0  0  0  0
   -7.6540    1.5770  -79.9930 C   0  0  0  0  0  0  0  0  0  0  0  0
   -8.2790    1.9830  -81.2950 C   0  0  0  0  0  0  0  0  0  0  0  0
   -7.9570    0.2830  -79.5490 C   0  0  0  0  0  0  0  0  0  0  0  0
   -9.0870    1.1540  -82.0200 C   0  0  0  0  0  0  0  0  0  0  0  0
   -8.7970   -0.5500  -80.3100 C   0  0  0  0  0  0  0  0  0  0  0  0
   -9.3490   -0.1210  -81.5230 C   0  0  0  0  0  0  0  0  0  0  0  0
  2  1  1  1
  2  3  1  0
  2  4  1  0
  4  5  2  0
  4  6  1  0
  5  7  1  0
  6  8  2  0
  7  9  2  0
  8  9  1  0
  8 10  1  0
  9 11  1  0
 11 12  1  0
 12 13  1  0
 13 14  2  0
 13 15  1  0
 15 16  1  0
 16 17  1  0
 17 18  2  0
 17 19  1  0
 18 20  1  0
 19 21  2  0
 20 22  2  0
 21 22  1  0
M  END
>  <ref_url>  (16) 
https://fakepage.com

>  <submitter_name>  (16) 
Steph Wills

>  <submitter_email>  (16) 
stephanie.wills@dtc.ox.ac.uk

>  <submitter_institution>  (16) 
University of Oxford

>  <generation_date>  (16) 
2020-06-04

>  <method>  (16) 
Fragment network

>  <ref_mols>  (16) 
x0276_0B,x0212_0B

>  <ref_pdb>  (16) 
references/x0276-0B-x0212-0B-162464.holo_minimised_nolig.pdb

>  <original SMILES>  (16) 
CC(N)c1ccc(OCC(=O)NCc2ccccc2)c(F)c1

>  <synthon>  (16) 
[Xe]c1ccccc1

>  <original_name>  (16) 
x0276-0B-x0212-0B-162464

>  <comRMSD_score>  (16) 
0.9236905822117414

>  <IF_score>  (16) 
0.625

>  <SuCOS_score>  (16) 
0.463756842301214

>  <compound_ID>  (16) 
CHEMSPACE-BB:CSMB00013314790, CHEMSPACE-BB:CSMB00013314817, CHEMSPACE-BB:CSMB00013314838

$$$$

     RDKit          3D

 23 25  0  0  0  0  0  0  0  0999 V2000
  -12.5540    6.3880  -73.5370 C   0  0  0  0  0  0  0  0  0  0  0  0
  -12.6310    6.4590  -75.0420 C   0  0  0  0  0  0  0  0  0  0  0  0
  -13.9770    6.0460  -75.5770 C   0  0  0  0  0  0  0  0  0  0  0  0
  -13.7490    5.0010  -76.6440 C   0  0  0  0  0  0  0  0  0  0  0  0
  -12.3600    4.4340  -76.5990 C   0  0  0  0  0  0  0  0  0  0  0  0
  -11.9920    3.4250  -75.6830 C   0  0  0  0  0  0  0  0  0  0  0  0
  -11.4400    4.9270  -77.5060 C   0  0  0  0  0  0  0  0  0  0  0  0
  -10.6960    2.9040  -75.7010 C   0  0  0  0  0  0  0  0  0  0  0  0
  -10.1880    4.4100  -77.5280 C   0  0  0  0  0  0  0  0  0  0  0  0
   -9.8290    3.4200  -76.6480 C   0  0  0  0  0  0  0  0  0  0  0  0
   -8.5030    3.0560  -76.9240 C   0  0  0  0  0  0  0  0  0  0  0  0
   -8.3570    2.2300  -77.8310 N   0  0  0  0  0  0  0  0  0  0  0  0
   -7.4200    3.6140  -76.3230 O   0  0  0  0  0  0  0  0  0  0  0  0
   -7.0650    2.2790  -78.0050 C   0  0  0  0  0  0  0  0  0  0  0  0
   -6.3710    2.9060  -76.8550 C   0  0  0  0  0  0  0  0  0  0  0  0
   -6.6370    1.8250  -79.1320 C   0  0  0  0  0  0  0  0  0  0  0  0
   -5.2220    2.8390  -76.4700 O   0  0  0  0  0  0  0  0  0  0  0  0
   -7.6570    1.2810  -80.0400 C   0  0  0  0  0  0  0  0  0  0  0  0
   -8.1730    1.9280  -81.1750 C   0  0  0  0  0  0  0  0  0  0  0  0
   -8.1550    0.0200  -79.7010 C   0  0  0  0  0  0  0  0  0  0  0  0
   -9.1630    1.3110  -81.9350 C   0  0  0  0  0  0  0  0  0  0  0  0
   -9.1450   -0.5920  -80.4630 C   0  0  0  0  0  0  0  0  0  0  0  0
   -9.6470    0.0580  -81.5740 C   0  0  0  0  0  0  0  0  0  0  0  0
  1  2  1  0
  2  3  1  0
  3  4  1  0
  4  5  1  0
  5  6  2  0
  5  7  1  0
  6  8  1  0
  7  9  2  0
  8 10  2  0
  9 10  1  0
 10 11  1  0
 11 12  2  0
 11 13  1  0
 12 14  1  0
 13 15  1  0
 14 15  1  0
 14 16  2  3
 15 17  2  0
 16 18  1  0
 18 19  2  0
 18 20  1  0
 19 21  1  0
 20 22  2  0
 21 23  2  0
 22 23  1  0
M  END
>  <ref_url>  (17) 
https://fakepage.com

>  <submitter_name>  (17) 
Steph Wills

>  <submitter_email>  (17) 
stephanie.wills@dtc.ox.ac.uk

>  <submitter_institution>  (17) 
University of Oxford

>  <generation_date>  (17) 
2020-06-04

>  <method>  (17) 
Fragment network

>  <ref_mols>  (17) 
x0176_0B,x0212_0B

>  <ref_pdb>  (17) 
references/x0176-0B-x0212-0B-1765.holo_minimised_nolig.pdb

>  <original SMILES>  (17) 
CCCCc1ccc(C2=NC(=Cc3ccccc3)C(=O)O2)cc1

>  <synthon>  (17) 
[Xe]c1ccccc1

>  <original_name>  (17) 
x0176-0B-x0212-0B-1765

>  <comRMSD_score>  (17) 
0.913235761211503

>  <IF_score>  (17) 
0.8

>  <SuCOS_score>  (17) 
0.4716949834138197

>  <compound_ID>  (17) 
MOLPORT:003-718-042

$$$$

     RDKit          3D

 20 21  0  0  0  0  0  0  0  0999 V2000
  -12.6770    6.2040  -74.7870 N   0  0  0  0  0  0  0  0  0  0  0  0
  -13.6110    5.8010  -75.8340 C   0  0  0  0  0  0  0  0  0  0  0  0
  -12.8850    5.5210  -77.1470 C   0  0  0  0  0  0  0  0  0  0  0  0
  -11.7260    4.5810  -76.9390 C   0  0  0  0  0  0  0  0  0  0  0  0
  -11.7540    3.6130  -75.9230 C   0  0  0  0  0  0  0  0  0  0  0  0
  -10.6060    4.6740  -77.7710 C   0  0  0  0  0  0  0  0  0  0  0  0
  -10.6740    2.7530  -75.7440 C   0  0  0  0  0  0  0  0  0  0  0  0
   -9.5330    3.8240  -77.5980 C   0  0  0  0  0  0  0  0  0  0  0  0
   -9.5790    2.8730  -76.5850 C   0  0  0  0  0  0  0  0  0  0  0  0
   -8.5110    2.0230  -76.4050 O   0  0  0  0  0  0  0  0  0  0  0  0
   -7.3400    2.6290  -76.7980 C   0  0  0  0  0  0  0  0  0  0  0  0
   -6.7820    3.5640  -76.2410 O   0  0  0  0  0  0  0  0  0  0  0  0
   -6.8740    2.0050  -77.9070 N   0  0  0  0  0  0  0  0  0  0  0  0
   -7.0450    2.5360  -79.2270 C   0  0  0  0  0  0  0  0  0  0  0  0
   -7.9690    1.6500  -80.0050 C   0  0  0  0  0  0  0  0  0  0  0  0
   -8.3480    0.3940  -79.5020 C   0  0  0  0  0  0  0  0  0  0  0  0
   -8.4640    2.0650  -81.2370 C   0  0  0  0  0  0  0  0  0  0  0  0
   -9.2110   -0.4270  -80.2260 C   0  0  0  0  0  0  0  0  0  0  0  0
   -9.3200    1.2450  -81.9490 C   0  0  0  0  0  0  0  0  0  0  0  0
   -9.6970    0.0030  -81.4520 C   0  0  0  0  0  0  0  0  0  0  0  0
  1  2  1  0
  2  3  1  0
  3  4  1  0
  4  5  2  0
  4  6  1  0
  5  7  1  0
  6  8  2  0
  7  9  2  0
  8  9  1  0
  9 10  1  0
 10 11  1  0
 11 12  2  0
 11 13  1  0
 13 14  1  0
 14 15  1  0
 15 16  2  0
 15 17  1  0
 16 18  1  0
 17 19  2  0
 18 20  2  0
 19 20  1  0
M  END
>  <ref_url>  (18) 
https://fakepage.com

>  <submitter_name>  (18) 
Steph Wills

>  <submitter_email>  (18) 
stephanie.wills@dtc.ox.ac.uk

>  <submitter_institution>  (18) 
University of Oxford

>  <generation_date>  (18) 
2020-06-04

>  <method>  (18) 
Fragment network

>  <ref_mols>  (18) 
x0176_0B,x0212_0B

>  <ref_pdb>  (18) 
references/x0176-0B-x0212-0B-1913.holo_minimised_nolig.pdb

>  <original SMILES>  (18) 
NCCc1ccc(OC(=O)NCc2ccccc2)cc1

>  <synthon>  (18) 
[Xe]c1ccccc1

>  <original_name>  (18) 
x0176-0B-x0212-0B-1913

>  <comRMSD_score>  (18) 
0.6555102338382405

>  <IF_score>  (18) 
0.675

>  <SuCOS_score>  (18) 
0.5452630536861058

>  <compound_ID>  (18) 
CHEMSPACE-BB:CSMB00014268054

$$$$

     RDKit          3D

 21 22  0  0  0  0  0  0  0  0999 V2000
  -14.1810    5.9700  -78.3440 C   0  0  0  0  0  0  0  0  0  0  0  0
  -13.4790    5.7610  -77.0010 C   0  0  0  0  0  0  0  0  0  0  0  0
  -13.1080    4.2950  -76.7700 C   0  0  0  0  0  0  0  0  0  0  0  0
  -11.6530    4.0200  -77.0460 C   0  0  0  0  0  0  0  0  0  0  0  0
  -11.1200    4.7260  -78.1150 C   0  0  0  0  0  0  0  0  0  0  0  0
  -10.7880    3.1390  -76.3600 C   0  0  0  0  0  0  0  0  0  0  0  0
   -9.7990    4.5860  -78.4830 C   0  0  0  0  0  0  0  0  0  0  0  0
   -9.4670    3.0450  -76.7360 C   0  0  0  0  0  0  0  0  0  0  0  0
  -11.0340    2.2100  -75.2410 C   0  0  0  0  0  0  0  0  0  0  0  0
   -8.9690    3.7600  -77.7880 C   0  0  0  0  0  0  0  0  0  0  0  0
   -9.7930    0.8960  -75.5850 S   0  0  0  0  0  0  0  0  0  0  0  0
   -9.1870    1.4300  -77.1690 C   0  0  0  0  0  0  0  0  0  0  0  0
  -10.0630    1.4600  -78.1070 N   0  0  0  0  0  0  0  0  0  0  0  0
   -7.8470    1.7610  -77.3200 N   0  0  0  0  0  0  0  0  0  0  0  0
   -7.2580    2.1380  -78.6160 C   0  0  0  0  0  0  0  0  0  0  0  0
   -8.0000    1.3950  -79.6910 C   0  0  0  0  0  0  0  0  0  0  0  0
   -8.4520    0.1130  -79.3750 C   0  0  0  0  0  0  0  0  0  0  0  0
   -8.2600    1.9280  -80.9720 C   0  0  0  0  0  0  0  0  0  0  0  0
   -9.1520   -0.6360  -80.2990 C   0  0  0  0  0  0  0  0  0  0  0  0
   -8.9620    1.1630  -81.8960 C   0  0  0  0  0  0  0  0  0  0  0  0
   -9.4030   -0.1110  -81.5460 C   0  0  0  0  0  0  0  0  0  0  0  0
  1  2  1  0
  2  3  1  0
  3  4  1  0
  4  5  2  0
  4  6  1  0
  5  7  1  0
  6  8  2  0
  6  9  1  0
  7 10  2  0
  8 10  1  0
  9 11  1  0
 11 12  1  0
 12 13  2  3
 12 14  1  0
 14 15  1  0
 15 16  1  0
 16 17  2  0
 16 18  1  0
 17 19  1  0
 18 20  2  0
 19 21  2  0
 20 21  1  0
M  END
>  <ref_url>  (19) 
https://fakepage.com

>  <submitter_name>  (19) 
Steph Wills

>  <submitter_email>  (19) 
stephanie.wills@dtc.ox.ac.uk

>  <submitter_institution>  (19) 
University of Oxford

>  <generation_date>  (19) 
2020-06-04

>  <method>  (19) 
Fragment network

>  <ref_mols>  (19) 
x0176_0B,x0212_0B

>  <ref_pdb>  (19) 
references/x0176-0B-x0212-0B-3745.holo_minimised_nolig.pdb

>  <original SMILES>  (19) 
CCCc1ccccc1CSC(=N)NCc1ccccc1

>  <synthon>  (19) 
[Xe]c1ccccc1

>  <original_name>  (19) 
x0176-0B-x0212-0B-3745

>  <comRMSD_score>  (19) 
0.982530428779822

>  <IF_score>  (19) 
0.3333333333333333

>  <SuCOS_score>  (19) 
0.4954672938514788

>  <compound_ID>  (19) 
CHEMSPACE-BB:CSMB00116958006

$$$$

     RDKit          3D

 22 23  0  0  0  0  0  0  0  0999 V2000
   -8.6100    4.2170  -79.7480 C   0  0  0  0  0  0  0  0  0  0  0  0
   -9.0090    3.9720  -78.3050 C   0  0  0  0  0  0  0  0  0  0  0  0
   -7.8520    3.5970  -77.3670 C   0  0  0  0  0  0  0  0  0  0  0  0
   -7.2760    2.2890  -77.6550 N   0  0  0  0  0  0  0  0  0  0  0  0
   -6.7660    2.1570  -79.0230 C   0  0  0  0  0  0  0  0  0  0  0  0
   -7.6340    1.1160  -76.9830 C   0  0  0  0  0  0  0  0  0  0  0  0
   -7.6560    1.3500  -79.9330 C   0  0  0  0  0  0  0  0  0  0  0  0
   -6.9090    0.1250  -76.9420 O   0  0  0  0  0  0  0  0  0  0  0  0
   -8.8670    1.2110  -76.3850 N   0  0  0  0  0  0  0  0  0  0  0  0
   -8.1350    0.1050  -79.5090 C   0  0  0  0  0  0  0  0  0  0  0  0
   -8.0160    1.8190  -81.2040 C   0  0  0  0  0  0  0  0  0  0  0  0
   -9.7710    2.2560  -76.6310 C   0  0  0  0  0  0  0  0  0  0  0  0
   -8.9470   -0.6570  -80.3300 C   0  0  0  0  0  0  0  0  0  0  0  0
   -8.8230    1.0530  -82.0200 C   0  0  0  0  0  0  0  0  0  0  0  0
   -9.8540    2.8970  -77.8600 C   0  0  0  0  0  0  0  0  0  0  0  0
  -10.6140    2.6690  -75.6030 C   0  0  0  0  0  0  0  0  0  0  0  0
   -9.2880   -0.1840  -81.5830 C   0  0  0  0  0  0  0  0  0  0  0  0
  -10.7600    3.9400  -78.0730 C   0  0  0  0  0  0  0  0  0  0  0  0
  -11.5250    3.7120  -75.8120 C   0  0  0  0  0  0  0  0  0  0  0  0
  -11.6000    4.3530  -77.0550 C   0  0  0  0  0  0  0  0  0  0  0  0
  -12.5620    5.4710  -77.3270 C   0  0  0  0  0  0  0  0  0  0  0  0
  -13.4410    5.7430  -76.1310 C   0  0  0  0  0  0  0  0  0  0  0  0
  1  2  1  0
  2  3  1  0
  3  4  1  0
  4  5  1  0
  4  6  1  0
  5  7  1  0
  6  8  2  0
  6  9  1  0
  7 10  2  0
  7 11  1  0
  9 12  1  0
 10 13  1  0
 11 14  2  0
 12 15  2  0
 12 16  1  0
 13 17  2  0
 14 17  1  0
 15 18  1  0
 16 19  2  0
 18 20  2  0
 19 20  1  0
 20 21  1  0
 21 22  1  0
M  END
>  <ref_url>  (20) 
https://fakepage.com

>  <submitter_name>  (20) 
Steph Wills

>  <submitter_email>  (20) 
stephanie.wills@dtc.ox.ac.uk

>  <submitter_institution>  (20) 
University of Oxford

>  <generation_date>  (20) 
2020-06-04

>  <method>  (20) 
Fragment network

>  <ref_mols>  (20) 
x0176_0B,x0212_0B

>  <ref_pdb>  (20) 
references/x0176-0B-x0212-0B-4027.holo_minimised_nolig.pdb

>  <original SMILES>  (20) 
CCCN(Cc1ccccc1)C(=O)Nc1ccc(CC)cc1

>  <synthon>  (20) 
[Xe]c1ccccc1

>  <original_name>  (20) 
x0176-0B-x0212-0B-4027

>  <comRMSD_score>  (20) 
0.5934202631319997

>  <IF_score>  (20) 
0.4

>  <SuCOS_score>  (20) 
0.5206813473308438

>  <compound_ID>  (20) 
REAL:Z409955816

$$$$

     RDKit          3D

 22 23  0  0  0  0  0  0  0  0999 V2000
  -12.5360    6.3380  -73.8500 C   0  0  0  0  0  0  0  0  0  0  0  0
  -12.5670    6.4530  -75.2790 O   0  0  0  0  0  0  0  0  0  0  0  0
  -13.6260    5.8150  -75.8780 C   0  0  0  0  0  0  0  0  0  0  0  0
  -14.7710    5.8470  -75.4560 O   0  0  0  0  0  0  0  0  0  0  0  0
  -13.1410    5.0860  -77.1110 C   0  0  0  0  0  0  0  0  0  0  0  0
  -11.9470    4.2270  -76.8300 C   0  0  0  0  0  0  0  0  0  0  0  0
  -12.0180    3.1620  -75.9230 C   0  0  0  0  0  0  0  0  0  0  0  0
  -10.7510    4.4870  -77.4710 C   0  0  0  0  0  0  0  0  0  0  0  0
  -10.8920    2.3750  -75.6700 C   0  0  0  0  0  0  0  0  0  0  0  0
   -9.6420    3.6960  -77.2080 C   0  0  0  0  0  0  0  0  0  0  0  0
   -9.7010    2.6510  -76.3220 C   0  0  0  0  0  0  0  0  0  0  0  0
   -8.5960    1.8590  -76.0590 N   0  0  0  0  0  0  0  0  0  0  0  0
   -7.3770    2.0840  -76.6220 C   0  0  0  0  0  0  0  0  0  0  0  0
   -6.3210    2.3050  -76.0470 O   0  0  0  0  0  0  0  0  0  0  0  0
   -7.4870    2.0260  -77.9810 N   0  0  0  0  0  0  0  0  0  0  0  0
   -6.8950    0.9510  -78.7410 C   0  0  0  0  0  0  0  0  0  0  0  0
   -7.8750    0.4240  -79.7590 C   0  0  0  0  0  0  0  0  0  0  0  0
   -8.9480   -0.3050  -79.2840 C   0  0  0  0  0  0  0  0  0  0  0  0
   -7.7680    0.6240  -81.1500 C   0  0  0  0  0  0  0  0  0  0  0  0
   -9.8910   -0.8220  -80.1560 C   0  0  0  0  0  0  0  0  0  0  0  0
   -8.7090    0.1100  -82.0230 C   0  0  0  0  0  0  0  0  0  0  0  0
   -9.7740   -0.6160  -81.5200 C   0  0  0  0  0  0  0  0  0  0  0  0
  1  2  1  0
  2  3  1  0
  3  4  2  0
  3  5  1  0
  5  6  1  0
  6  7  2  0
  6  8  1  0
  7  9  1  0
  8 10  2  0
  9 11  2  0
 10 11  1  0
 11 12  1  0
 12 13  1  0
 13 14  2  0
 13 15  1  0
 15 16  1  0
 16 17  1  0
 17 18  2  0
 17 19  1  0
 18 20  1  0
 19 21  2  0
 20 22  2  0
 21 22  1  0
M  END
>  <ref_url>  (21) 
https://fakepage.com

>  <submitter_name>  (21) 
Steph Wills

>  <submitter_email>  (21) 
stephanie.wills@dtc.ox.ac.uk

>  <submitter_institution>  (21) 
University of Oxford

>  <generation_date>  (21) 
2020-06-04

>  <method>  (21) 
Fragment network

>  <ref_mols>  (21) 
x0176_0B,x0212_0B

>  <ref_pdb>  (21) 
references/x0176-0B-x0212-0B-6501.holo_minimised_nolig.pdb

>  <original SMILES>  (21) 
COC(=O)Cc1ccc(NC(=O)NCc2ccccc2)cc1

>  <synthon>  (21) 
[Xe]c1ccccc1

>  <original_name>  (21) 
x0176-0B-x0212-0B-6501

>  <comRMSD_score>  (21) 
0.9430626034755448

>  <IF_score>  (21) 
0.303030303030303

>  <SuCOS_score>  (21) 
0.4839073578083387

>  <compound_ID>  (21) 
REAL:Z287258490

$$$$

     RDKit          3D

 19 20  0  0  0  0  0  0  0  0999 V2000
  -13.4690    5.7380  -76.0860 C   0  0  0  0  0  0  0  0  0  0  0  0
  -13.0100    5.0170  -77.3320 C   0  0  0  0  0  0  0  0  0  0  0  0
  -11.7030    4.3420  -77.0780 C   0  0  0  0  0  0  0  0  0  0  0  0
  -11.5610    3.4010  -76.0490 C   0  0  0  0  0  0  0  0  0  0  0  0
  -10.6080    4.6480  -77.8670 C   0  0  0  0  0  0  0  0  0  0  0  0
  -10.3320    2.7790  -75.8280 C   0  0  0  0  0  0  0  0  0  0  0  0
   -9.3880    4.0300  -77.6470 C   0  0  0  0  0  0  0  0  0  0  0  0
   -9.2440    3.0970  -76.6300 C   0  0  0  0  0  0  0  0  0  0  0  0
   -7.9810    2.5410  -76.5070 N   0  0  0  0  0  0  0  0  0  0  0  0
   -7.5330    1.5530  -77.3240 C   0  0  0  0  0  0  0  0  0  0  0  0
   -8.0730    0.4730  -77.5070 O   0  0  0  0  0  0  0  0  0  0  0  0
   -6.3530    1.9190  -77.9540 N   0  0  0  0  0  0  0  0  0  0  0  0
   -6.3070    2.1970  -79.3770 C   0  0  0  0  0  0  0  0  0  0  0  0
   -7.0220    1.1640  -80.2180 C   0  0  0  0  0  0  0  0  0  0  0  0
   -7.3760    1.4910  -81.5400 C   0  0  0  0  0  0  0  0  0  0  0  0
   -7.3700   -0.1110  -79.7350 C   0  0  0  0  0  0  0  0  0  0  0  0
   -8.0490    0.5820  -82.3550 C   0  0  0  0  0  0  0  0  0  0  0  0
   -8.0490   -1.0180  -80.5550 C   0  0  0  0  0  0  0  0  0  0  0  0
   -8.3850   -0.6720  -81.8630 C   0  0  0  0  0  0  0  0  0  0  0  0
  1  2  1  0
  2  3  1  0
  3  4  2  0
  3  5  1  0
  4  6  1  0
  5  7  2  0
  6  8  2  0
  7  8  1  0
  8  9  1  0
  9 10  1  0
 10 11  2  0
 10 12  1  0
 12 13  1  0
 13 14  1  0
 14 15  2  0
 14 16  1  0
 15 17  1  0
 16 18  2  0
 17 19  2  0
 18 19  1  0
M  END
>  <ref_url>  (22) 
https://fakepage.com

>  <submitter_name>  (22) 
Steph Wills

>  <submitter_email>  (22) 
stephanie.wills@dtc.ox.ac.uk

>  <submitter_institution>  (22) 
University of Oxford

>  <generation_date>  (22) 
2020-06-04

>  <method>  (22) 
Fragment network

>  <ref_mols>  (22) 
x0176_0B,x0212_0B

>  <ref_pdb>  (22) 
references/x0176-0B-x0212-0B-6816.holo_minimised_nolig.pdb

>  <original SMILES>  (22) 
CCc1ccc(NC(=O)NCc2ccccc2)cc1

>  <synthon>  (22) 
[Xe]c1ccccc1

>  <original_name>  (22) 
x0176-0B-x0212-0B-6816

>  <comRMSD_score>  (22) 
0.9370265181157752

>  <IF_score>  (22) 
0.3095238095238095

>  <SuCOS_score>  (22) 
0.4439478109875954

>  <compound_ID>  (22) 
CHEMSPACE-BB:CSMB00000218095, REAL:Z123966202

$$$$

     RDKit          3D

 22 23  0  0  0  0  0  0  0  0999 V2000
  -13.1500    6.1530  -76.4350 C   0  0  0  0  0  0  0  0  0  0  0  0
  -12.9070    4.8990  -77.2180 C   0  0  0  0  0  0  0  0  0  0  0  0
  -13.6430    4.5760  -78.1450 O   0  0  0  0  0  0  0  0  0  0  0  0
  -11.7490    4.0460  -76.8340 C   0  0  0  0  0  0  0  0  0  0  0  0
  -11.8960    2.9260  -76.0100 C   0  0  0  0  0  0  0  0  0  0  0  0
  -10.4830    4.3800  -77.3130 C   0  0  0  0  0  0  0  0  0  0  0  0
  -10.7810    2.1550  -75.6800 C   0  0  0  0  0  0  0  0  0  0  0  0
   -9.3770    3.5960  -76.9690 C   0  0  0  0  0  0  0  0  0  0  0  0
   -9.5270    2.4960  -76.1640 C   0  0  0  0  0  0  0  0  0  0  0  0
   -8.1910    3.9800  -77.4630 O   0  0  0  0  0  0  0  0  0  0  0  0
   -7.0820    3.2600  -76.9530 C   0  0  2  0  0  0  0  0  0  0  0  0
   -5.8340    4.0720  -77.3110 C   0  0  0  0  0  0  0  0  0  0  0  0
   -7.0270    1.8530  -77.5570 C   0  0  0  0  0  0  0  0  0  0  0  0
   -7.8180    0.9400  -77.3600 O   0  0  0  0  0  0  0  0  0  0  0  0
   -5.9820    1.7840  -78.3960 O   0  0  0  0  0  0  0  0  0  0  0  0
   -6.3440    2.2790  -79.6690 C   0  0  0  0  0  0  0  0  0  0  0  0
   -7.0850    1.1980  -80.4120 C   0  0  0  0  0  0  0  0  0  0  0  0
   -7.3150   -0.0820  -79.8840 C   0  0  0  0  0  0  0  0  0  0  0  0
   -7.5580    1.4910  -81.6780 C   0  0  0  0  0  0  0  0  0  0  0  0
   -8.0030   -1.0430  -80.6400 C   0  0  0  0  0  0  0  0  0  0  0  0
   -8.2380    0.5420  -82.4380 C   0  0  0  0  0  0  0  0  0  0  0  0
   -8.4600   -0.7290  -81.9200 C   0  0  0  0  0  0  0  0  0  0  0  0
  1  2  1  0
  2  3  2  0
  2  4  1  0
  4  5  2  0
  4  6  1  0
  5  7  1  0
  6  8  2  0
  7  9  2  0
  8  9  1  0
  8 10  1  0
 10 11  1  0
 11 12  1  6
 11 13  1  0
 13 14  2  0
 13 15  1  0
 15 16  1  0
 16 17  1  0
 17 18  2  0
 17 19  1  0
 18 20  1  0
 19 21  2  0
 20 22  2  0
 21 22  1  0
M  END
>  <ref_url>  (23) 
https://fakepage.com

>  <submitter_name>  (23) 
Steph Wills

>  <submitter_email>  (23) 
stephanie.wills@dtc.ox.ac.uk

>  <submitter_institution>  (23) 
University of Oxford

>  <generation_date>  (23) 
2020-06-04

>  <method>  (23) 
Fragment network

>  <ref_mols>  (23) 
x0176_0B,x0212_0B

>  <ref_pdb>  (23) 
references/x0176-0B-x0212-0B-7405.holo_minimised_nolig.pdb

>  <original SMILES>  (23) 
CC(=O)c1cccc(OC(C)C(=O)OCc2ccccc2)c1

>  <synthon>  (23) 
[Xe]c1ccccc1

>  <original_name>  (23) 
x0176-0B-x0212-0B-7405

>  <comRMSD_score>  (23) 
0.9947964397411851

>  <IF_score>  (23) 
0.55

>  <SuCOS_score>  (23) 
0.3820932896087875

>  <compound_ID>  (23) 
CHEMSPACE-BB:CSMB00040581021

$$$$

     RDKit          3D

 21 22  0  0  0  0  0  0  0  0999 V2000
  -12.8440    6.7580  -75.5720 N   0  0  0  0  0  0  0  0  0  0  0  0
  -13.6230    5.7550  -76.0750 C   0  0  0  0  0  0  0  0  0  0  0  0
  -15.0630    5.3680  -75.3360 S   0  0  0  0  0  0  0  0  0  0  0  0
  -13.1140    5.0440  -77.3080 C   0  0  0  0  0  0  0  0  0  0  0  0
  -11.8350    4.3110  -77.0220 C   0  0  0  0  0  0  0  0  0  0  0  0
  -11.7780    3.3170  -76.0380 C   0  0  0  0  0  0  0  0  0  0  0  0
  -10.6940    4.6260  -77.7440 C   0  0  0  0  0  0  0  0  0  0  0  0
  -10.5840    2.6430  -75.7800 C   0  0  0  0  0  0  0  0  0  0  0  0
   -9.5080    3.9540  -77.4870 C   0  0  0  0  0  0  0  0  0  0  0  0
   -9.4520    2.9680  -76.5080 C   0  0  0  0  0  0  0  0  0  0  0  0
   -8.2160    2.3780  -76.3480 N   0  0  0  0  0  0  0  0  0  0  0  0
   -7.1250    2.7730  -77.0540 C   0  0  0  0  0  0  0  0  0  0  0  0
   -6.5370    3.8400  -76.9630 O   0  0  0  0  0  0  0  0  0  0  0  0
   -6.7490    1.7710  -77.9110 N   0  0  0  0  0  0  0  0  0  0  0  0
   -6.3410    2.0330  -79.2740 C   0  0  0  0  0  0  0  0  0  0  0  0
   -7.0600    1.0790  -80.1820 C   0  0  0  0  0  0  0  0  0  0  0  0
   -7.3510    1.4320  -81.5130 C   0  0  0  0  0  0  0  0  0  0  0  0
   -7.4760   -0.1710  -79.7080 C   0  0  0  0  0  0  0  0  0  0  0  0
   -8.0350    0.5500  -82.3420 C   0  0  0  0  0  0  0  0  0  0  0  0
   -8.1620   -1.0490  -80.5410 C   0  0  0  0  0  0  0  0  0  0  0  0
   -8.4390   -0.6870  -81.8570 C   0  0  0  0  0  0  0  0  0  0  0  0
  1  2  1  0
  2  3  2  0
  2  4  1  0
  4  5  1  0
  5  6  2  0
  5  7  1  0
  6  8  1  0
  7  9  2  0
  8 10  2  0
  9 10  1  0
 10 11  1  0
 11 12  1  0
 12 13  2  0
 12 14  1  0
 14 15  1  0
 15 16  1  0
 16 17  2  0
 16 18  1  0
 17 19  1  0
 18 20  2  0
 19 21  2  0
 20 21  1  0
M  END
>  <ref_url>  (24) 
https://fakepage.com

>  <submitter_name>  (24) 
Steph Wills

>  <submitter_email>  (24) 
stephanie.wills@dtc.ox.ac.uk

>  <submitter_institution>  (24) 
University of Oxford

>  <generation_date>  (24) 
2020-06-04

>  <method>  (24) 
Fragment network

>  <ref_mols>  (24) 
x0176_0B,x0212_0B

>  <ref_pdb>  (24) 
references/x0176-0B-x0212-0B-7580.holo_minimised_nolig.pdb

>  <original SMILES>  (24) 
NC(=S)Cc1ccc(NC(=O)NCc2ccccc2)cc1

>  <synthon>  (24) 
[Xe]c1ccccc1

>  <original_name>  (24) 
x0176-0B-x0212-0B-7580

>  <comRMSD_score>  (24) 
0.8994189096299899

>  <IF_score>  (24) 
0.3541666666666666

>  <SuCOS_score>  (24) 
0.4773342688475083

>  <compound_ID>  (24) 
CHEMSPACE-BB:CSMB00014267262

$$$$

     RDKit          3D

 21 22  0  0  0  0  0  0  0  0999 V2000
  -14.4930    3.9500  -77.3240 C   0  0  0  0  0  0  0  0  0  0  0  0
  -13.2820    4.8820  -77.0990 C   0  0  0  0  0  0  0  0  0  0  0  0
  -13.2420    5.9000  -78.2400 C   0  0  0  0  0  0  0  0  0  0  0  0
  -13.4980    5.6380  -75.7790 C   0  0  0  0  0  0  0  0  0  0  0  0
  -11.9370    4.1880  -76.9800 C   0  0  0  0  0  0  0  0  0  0  0  0
  -11.7690    3.2200  -75.9780 C   0  0  0  0  0  0  0  0  0  0  0  0
  -10.8540    4.4690  -77.8140 C   0  0  0  0  0  0  0  0  0  0  0  0
  -10.5640    2.5550  -75.8060 C   0  0  0  0  0  0  0  0  0  0  0  0
   -9.6530    3.8030  -77.6420 C   0  0  0  0  0  0  0  0  0  0  0  0
   -9.5050    2.8490  -76.6390 C   0  0  0  0  0  0  0  0  0  0  0  0
   -8.2600    2.2640  -76.5670 N   0  0  0  0  0  0  0  0  0  0  0  0
   -7.0720    2.7910  -76.9900 C   0  0  0  0  0  0  0  0  0  0  0  0
   -6.1810    4.0280  -76.2940 S   0  0  0  0  0  0  0  0  0  0  0  0
   -6.7040    2.1110  -78.1340 N   0  0  0  0  0  0  0  0  0  0  0  0
   -6.7710    2.6460  -79.4820 C   0  0  0  0  0  0  0  0  0  0  0  0
   -7.4450    1.6700  -80.4020 C   0  0  0  0  0  0  0  0  0  0  0  0
   -8.3540    2.1280  -81.3450 C   0  0  0  0  0  0  0  0  0  0  0  0
   -7.1780    0.2960  -80.3360 C   0  0  0  0  0  0  0  0  0  0  0  0
   -9.0010    1.2440  -82.2010 C   0  0  0  0  0  0  0  0  0  0  0  0
   -7.8260   -0.5900  -81.2040 C   0  0  0  0  0  0  0  0  0  0  0  0
   -8.7400   -0.1160  -82.1320 C   0  0  0  0  0  0  0  0  0  0  0  0
  2  1  1  0
  2  3  1  0
  2  4  1  0
  2  5  1  0
  5  6  2  0
  5  7  1  0
  6  8  1  0
  7  9  2  0
  8 10  2  0
  9 10  1  0
 10 11  1  0
 11 12  1  0
 12 13  2  0
 12 14  1  0
 14 15  1  0
 15 16  1  0
 16 17  2  0
 16 18  1  0
 17 19  1  0
 18 20  2  0
 19 21  2  0
 20 21  1  0
M  END
>  <ref_url>  (25) 
https://fakepage.com

>  <submitter_name>  (25) 
Steph Wills

>  <submitter_email>  (25) 
stephanie.wills@dtc.ox.ac.uk

>  <submitter_institution>  (25) 
University of Oxford

>  <generation_date>  (25) 
2020-06-04

>  <method>  (25) 
Fragment network

>  <ref_mols>  (25) 
x0176_0B,x0212_0B

>  <ref_pdb>  (25) 
references/x0176-0B-x0212-0B-7766.holo_minimised_nolig.pdb

>  <original SMILES>  (25) 
CC(C)(C)c1ccc(NC(=S)NCc2ccccc2)cc1

>  <synthon>  (25) 
[Xe]c1ccccc1

>  <original_name>  (25) 
x0176-0B-x0212-0B-7766

>  <comRMSD_score>  (25) 
0.8598949790526745

>  <IF_score>  (25) 
0.5

>  <SuCOS_score>  (25) 
0.4766204564299658

>  <compound_ID>  (25) 
MOLPORT:009-034-127

$$$$

     RDKit          3D

 20 21  0  0  0  0  0  0  0  0999 V2000
   -6.3120    3.8510  -77.0350 C   0  0  0  0  0  0  0  0  0  0  0  0
   -7.3610    3.2170  -77.8370 N   0  0  0  0  0  0  0  0  0  0  0  0
   -6.8790    2.5210  -79.0570 C   0  0  0  0  0  0  0  0  0  0  0  0
   -8.3000    2.4400  -77.0320 C   0  0  0  0  0  0  0  0  0  0  0  0
   -7.8500    1.6750  -79.8730 C   0  0  0  0  0  0  0  0  0  0  0  0
   -9.6230    3.0900  -76.8590 C   0  0  0  0  0  0  0  0  0  0  0  0
   -8.3230    2.1220  -81.1180 C   0  0  0  0  0  0  0  0  0  0  0  0
   -8.2980    0.4240  -79.4060 C   0  0  0  0  0  0  0  0  0  0  0  0
  -10.5910    2.6070  -75.9810 C   0  0  0  0  0  0  0  0  0  0  0  0
   -9.8790    4.2030  -77.6230 C   0  0  0  0  0  0  0  0  0  0  0  0
   -9.2080    1.3470  -81.8640 C   0  0  0  0  0  0  0  0  0  0  0  0
   -9.1870   -0.3480  -80.1580 C   0  0  0  0  0  0  0  0  0  0  0  0
  -11.8230    3.2620  -75.9090 C   0  0  0  0  0  0  0  0  0  0  0  0
  -11.0810    4.8540  -77.5560 C   0  0  0  0  0  0  0  0  0  0  0  0
   -9.6400    0.1150  -81.3850 C   0  0  0  0  0  0  0  0  0  0  0  0
  -12.0720    4.3930  -76.7110 C   0  0  0  0  0  0  0  0  0  0  0  0
  -13.3930    5.1140  -76.6960 C   0  0  0  0  0  0  0  0  0  0  0  0
  -13.6240    6.0190  -75.5140 C   0  0  0  0  0  0  0  0  0  0  0  0
  -14.8260    6.3710  -75.2110 N   0  0  0  0  0  0  0  0  0  0  0  0
  -12.5760    6.4560  -74.7830 N   0  0  0  0  0  0  0  0  0  0  0  0
  1  2  1  0
  2  3  1  0
  2  4  1  0
  3  5  1  0
  4  6  1  0
  5  7  2  0
  5  8  1  0
  6  9  2  0
  6 10  1  0
  7 11  1  0
  8 12  2  0
  9 13  1  0
 10 14  2  0
 11 15  2  0
 12 15  1  0
 13 16  2  0
 14 16  1  0
 16 17  1  0
 17 18  1  0
 18 19  2  3
 18 20  1  0
M  END
>  <ref_url>  (26) 
https://fakepage.com

>  <submitter_name>  (26) 
Steph Wills

>  <submitter_email>  (26) 
stephanie.wills@dtc.ox.ac.uk

>  <submitter_institution>  (26) 
University of Oxford

>  <generation_date>  (26) 
2020-06-04

>  <method>  (26) 
Fragment network

>  <ref_mols>  (26) 
x0176_0B,x0212_0B

>  <ref_pdb>  (26) 
references/x0176-0B-x0212-0B-9279.holo_minimised_nolig.pdb

>  <original SMILES>  (26) 
CN(Cc1ccccc1)Cc1ccc(CC(=N)N)cc1

>  <synthon>  (26) 
[Xe]c1ccccc1

>  <original_name>  (26) 
x0176-0B-x0212-0B-9279

>  <comRMSD_score>  (26) 
0.9921050221624724

>  <IF_score>  (26) 
0.675

>  <SuCOS_score>  (26) 
0.5500846081807202

>  <compound_ID>  (26) 
CHEMSPACE-BB:CSMB00016979495

$$$$

     RDKit          3D

 20 21  0  0  0  0  0  0  0  0999 V2000
  -13.5970    5.6090  -75.9720 C   0  0  0  0  0  0  0  0  0  0  0  0
  -13.1720    4.8650  -77.2020 C   0  0  1  0  0  0  0  0  0  0  0  0
  -13.3360    5.4560  -78.2630 O   0  0  0  0  0  0  0  0  0  0  0  0
  -11.8440    4.2240  -77.0290 C   0  0  0  0  0  0  0  0  0  0  0  0
  -11.6240    3.2420  -76.0520 C   0  0  0  0  0  0  0  0  0  0  0  0
  -10.7860    4.6020  -77.8530 C   0  0  0  0  0  0  0  0  0  0  0  0
  -10.3640    2.6540  -75.9120 C   0  0  0  0  0  0  0  0  0  0  0  0
   -9.5400    4.0210  -77.7140 C   0  0  0  0  0  0  0  0  0  0  0  0
   -9.3170    3.0470  -76.7490 C   0  0  0  0  0  0  0  0  0  0  0  0
   -8.0500    2.5830  -76.7480 O   0  0  0  0  0  0  0  0  0  0  0  0
   -7.1060    3.4290  -77.4010 C   0  0  0  0  0  0  0  0  0  0  0  0
   -5.7350    2.7770  -77.3060 C   0  0  0  0  0  0  0  0  0  0  0  0
   -5.6230    1.7170  -78.2690 O   0  0  0  0  0  0  0  0  0  0  0  0
   -6.1510    2.1310  -79.5410 C   0  0  0  0  0  0  0  0  0  0  0  0
   -6.9140    1.1770  -80.2370 C   0  0  0  0  0  0  0  0  0  0  0  0
   -7.2940    1.4560  -81.5580 C   0  0  0  0  0  0  0  0  0  0  0  0
   -7.3310   -0.0470  -79.6760 C   0  0  0  0  0  0  0  0  0  0  0  0
   -8.0530    0.5560  -82.3080 C   0  0  0  0  0  0  0  0  0  0  0  0
   -8.0970   -0.9520  -80.4230 C   0  0  0  0  0  0  0  0  0  0  0  0
   -8.4570   -0.6490  -81.7430 C   0  0  0  0  0  0  0  0  0  0  0  0
  2  1  1  1
  2  3  1  0
  2  4  1  0
  4  5  2  0
  4  6  1  0
  5  7  1  0
  6  8  2  0
  7  9  2  0
  8  9  1  0
  9 10  1  0
 10 11  1  0
 11 12  1  0
 12 13  1  0
 13 14  1  0
 14 15  1  0
 15 16  2  0
 15 17  1  0
 16 18  1  0
 17 19  2  0
 18 20  2  0
 19 20  1  0
M  END
>  <ref_url>  (27) 
https://fakepage.com

>  <submitter_name>  (27) 
Steph Wills

>  <submitter_email>  (27) 
stephanie.wills@dtc.ox.ac.uk

>  <submitter_institution>  (27) 
University of Oxford

>  <generation_date>  (27) 
2020-06-04

>  <method>  (27) 
Fragment network

>  <ref_mols>  (27) 
x0176_0B,x0212_0B

>  <ref_pdb>  (27) 
references/x0176-0B-x0212-0B-13761.holo_minimised_nolig.pdb

>  <original SMILES>  (27) 
CC(O)c1ccc(OCCOCc2ccccc2)cc1

>  <synthon>  (27) 
[Xe]c1ccccc1

>  <original_name>  (27) 
x0176-0B-x0212-0B-13761

>  <comRMSD_score>  (27) 
0.9307412427036654

>  <IF_score>  (27) 
0.3541666666666666

>  <SuCOS_score>  (27) 
0.395162702912637

>  <compound_ID>  (27) 
CHEMSPACE-BB:CSMB00014805903, CHEMSPACE-BB:CSMB00014805927, CHEMSPACE-BB:CSMB00014805928

$$$$

     RDKit          3D

 22 23  0  0  0  0  0  0  0  0999 V2000
  -13.6900    5.5300  -78.4980 C   0  0  0  0  0  0  0  0  0  0  0  0
  -12.8900    5.4980  -77.1760 C   0  0  0  0  0  0  0  0  0  0  0  0
  -12.4040    6.9270  -76.9660 C   0  0  0  0  0  0  0  0  0  0  0  0
  -13.9120    5.3230  -76.0610 C   0  0  0  0  0  0  0  0  0  0  0  0
  -11.7970    4.3910  -77.0540 C   0  0  0  0  0  0  0  0  0  0  0  0
  -11.8350    3.5490  -75.9260 C   0  0  0  0  0  0  0  0  0  0  0  0
  -10.7680    4.1400  -77.9880 C   0  0  0  0  0  0  0  0  0  0  0  0
  -10.9300    2.5070  -75.7390 C   0  0  0  0  0  0  0  0  0  0  0  0
   -9.8460    3.0810  -77.7980 C   0  0  0  0  0  0  0  0  0  0  0  0
   -9.9330    2.2430  -76.6630 C   0  0  0  0  0  0  0  0  0  0  0  0
   -9.0810    1.0560  -76.3060 C   0  0  0  0  0  0  0  0  0  0  0  0
   -9.3980    0.3410  -75.3680 O   0  0  0  0  0  0  0  0  0  0  0  0
   -8.0180    0.8710  -77.1420 O   0  0  0  0  0  0  0  0  0  0  0  0
   -7.3950    2.0800  -77.3930 N   0  0  0  0  0  0  0  0  0  0  0  0
   -7.4540    2.4210  -78.6400 C   0  0  0  0  0  0  0  0  0  0  0  0
   -6.9240    3.5970  -78.9940 N   0  0  0  0  0  0  0  0  0  0  0  0
   -8.1290    1.5460  -79.6600 C   0  0  0  0  0  0  0  0  0  0  0  0
   -8.5550    0.2560  -79.3080 C   0  0  0  0  0  0  0  0  0  0  0  0
   -8.3490    2.0040  -80.9760 C   0  0  0  0  0  0  0  0  0  0  0  0
   -9.1880   -0.5530  -80.2370 C   0  0  0  0  0  0  0  0  0  0  0  0
   -8.9830    1.1790  -81.8970 C   0  0  0  0  0  0  0  0  0  0  0  0
   -9.4010   -0.0940  -81.5220 C   0  0  0  0  0  0  0  0  0  0  0  0
  2  1  1  0
  2  3  1  0
  2  4  1  0
  2  5  1  0
  5  6  2  0
  5  7  1  0
  6  8  1  0
  7  9  2  0
  8 10  2  0
  9 10  1  0
 10 11  1  0
 11 12  2  0
 11 13  1  0
 13 14  1  0
 14 15  2  3
 15 16  1  0
 15 17  1  0
 17 18  2  0
 17 19  1  0
 18 20  1  0
 19 21  2  0
 20 22  2  0
 21 22  1  0
M  END
>  <ref_url>  (28) 
https://fakepage.com

>  <submitter_name>  (28) 
Steph Wills

>  <submitter_email>  (28) 
stephanie.wills@dtc.ox.ac.uk

>  <submitter_institution>  (28) 
University of Oxford

>  <generation_date>  (28) 
2020-06-04

>  <method>  (28) 
Fragment network

>  <ref_mols>  (28) 
x0176_0B,x0212_0B

>  <ref_pdb>  (28) 
references/x0176-0B-x0212-0B-15793.holo_minimised_nolig.pdb

>  <original SMILES>  (28) 
CC(C)(C)c1ccc(C(=O)ON=C(N)c2ccccc2)cc1

>  <synthon>  (28) 
[Xe]c1ccccc1

>  <original_name>  (28) 
x0176-0B-x0212-0B-15793

>  <comRMSD_score>  (28) 
0.8757759292540918

>  <IF_score>  (28) 
0.5833333333333333

>  <SuCOS_score>  (28) 
0.4671843710099208

>  <compound_ID>  (28) 
MOLPORT:003-002-537

$$$$

     RDKit          3D

 20 21  0  0  0  0  0  0  0  0999 V2000
   -8.3390    0.1760  -76.0020 C   0  0  0  0  0  0  0  0  0  0  0  0
   -8.4380    0.9150  -77.3260 C   0  0  0  0  0  0  0  0  0  0  0  0
   -7.4240    1.9780  -77.4530 N   0  0  0  0  0  0  0  0  0  0  0  0
   -6.9600    2.1450  -78.8530 C   0  0  0  0  0  0  0  0  0  0  0  0
   -7.9370    3.2480  -76.9510 C   0  0  0  0  0  0  0  0  0  0  0  0
   -7.8770    1.4080  -79.7790 C   0  0  0  0  0  0  0  0  0  0  0  0
   -9.4150    3.4000  -76.8400 C   0  0  0  0  0  0  0  0  0  0  0  0
   -8.3320    0.1460  -79.3780 C   0  0  0  0  0  0  0  0  0  0  0  0
   -8.2900    1.9330  -81.0020 C   0  0  0  0  0  0  0  0  0  0  0  0
   -9.9590    4.2490  -77.7720 C   0  0  0  0  0  0  0  0  0  0  0  0
  -10.2390    2.7830  -75.8950 C   0  0  0  0  0  0  0  0  0  0  0  0
   -9.1940   -0.5810  -80.1660 C   0  0  0  0  0  0  0  0  0  0  0  0
   -9.1490    1.1920  -81.7840 C   0  0  0  0  0  0  0  0  0  0  0  0
  -11.2870    4.5290  -77.8070 C   0  0  0  0  0  0  0  0  0  0  0  0
  -11.6090    3.0600  -75.9220 C   0  0  0  0  0  0  0  0  0  0  0  0
   -9.6060   -0.0590  -81.3640 C   0  0  0  0  0  0  0  0  0  0  0  0
  -12.1270    3.9470  -76.8860 C   0  0  0  0  0  0  0  0  0  0  0  0
  -13.5750    4.2990  -76.9550 C   0  0  0  0  0  0  0  0  0  0  0  0
  -13.8850    5.3410  -75.9720 C   0  0  0  0  0  0  0  0  0  0  0  0
  -14.0970    6.1440  -75.1630 N   0  0  0  0  0  0  0  0  0  0  0  0
  1  2  1  0
  2  3  1  0
  3  4  1  0
  3  5  1  0
  4  6  1  0
  5  7  1  0
  6  8  2  0
  6  9  1  0
  7 10  2  0
  7 11  1  0
  8 12  1  0
  9 13  2  0
 10 14  1  0
 11 15  2  0
 12 16  2  0
 13 16  1  0
 14 17  2  0
 15 17  1  0
 17 18  1  0
 18 19  1  0
 19 20  3  0
M  END
>  <ref_url>  (29) 
https://fakepage.com

>  <submitter_name>  (29) 
Steph Wills

>  <submitter_email>  (29) 
stephanie.wills@dtc.ox.ac.uk

>  <submitter_institution>  (29) 
University of Oxford

>  <generation_date>  (29) 
2020-06-04

>  <method>  (29) 
Fragment network

>  <ref_mols>  (29) 
x0176_0B,x0212_0B

>  <ref_pdb>  (29) 
references/x0176-0B-x0212-0B-18130.holo_minimised_nolig.pdb

>  <original SMILES>  (29) 
CCN(Cc1ccccc1)Cc1ccc(CC#N)cc1

>  <synthon>  (29) 
[Xe]c1ccccc1

>  <original_name>  (29) 
x0176-0B-x0212-0B-18130

>  <comRMSD_score>  (29) 
0.9025796122900964

>  <IF_score>  (29) 
0.25

>  <SuCOS_score>  (29) 
0.5203214432777898

>  <compound_ID>  (29) 
CHEMSPACE-BB:CSMB00010091684

$$$$

     RDKit          3D

 23 24  0  0  0  0  0  0  0  0999 V2000
   -6.8920    1.7750  -77.8330 C   0  0  0  0  0  0  0  0  0  0  0  0
   -6.2970    1.9780  -79.2150 C   0  0  0  0  0  0  0  0  0  0  0  0
   -4.8310    1.7960  -79.3910 C   0  0  0  0  0  0  0  0  0  0  0  0
   -6.5940    3.4450  -79.5390 C   0  0  0  0  0  0  0  0  0  0  0  0
   -7.0780    1.0580  -80.1520 C   0  0  0  0  0  0  0  0  0  0  0  0
   -7.7650    3.8210  -78.9540 C   0  0  0  0  0  0  0  0  0  0  0  0
   -7.5520   -0.2880  -79.6960 C   0  0  0  0  0  0  0  0  0  0  0  0
   -7.3770    1.4430  -81.4790 C   0  0  0  0  0  0  0  0  0  0  0  0
   -8.6350    4.5710  -79.7840 O   0  0  0  0  0  0  0  0  0  0  0  0
   -8.1340    3.4870  -77.6930 N   0  0  0  0  0  0  0  0  0  0  0  0
   -8.2500   -1.1120  -80.5680 C   0  0  0  0  0  0  0  0  0  0  0  0
   -8.0780    0.5800  -82.3320 C   0  0  0  0  0  0  0  0  0  0  0  0
   -9.4010    3.5470  -77.1840 C   0  0  0  0  0  0  0  0  0  0  0  0
   -8.5090   -0.6850  -81.8750 C   0  0  0  0  0  0  0  0  0  0  0  0
  -10.0040    2.9070  -76.0240 C   0  0  0  0  0  0  0  0  0  0  0  0
  -10.1180    4.3880  -78.0040 C   0  0  0  0  0  0  0  0  0  0  0  0
  -11.4770    3.2510  -75.7930 C   0  0  0  0  0  0  0  0  0  0  0  0
  -11.4170    4.6950  -77.8060 C   0  0  0  0  0  0  0  0  0  0  0  0
  -12.1070    4.1660  -76.7460 C   0  0  0  0  0  0  0  0  0  0  0  0
  -13.4340    4.5460  -76.6140 C   0  0  0  0  0  0  0  0  0  0  0  0
  -13.5800    5.8750  -76.2220 C   0  0  0  0  0  0  0  0  0  0  0  0
  -12.7420    6.2810  -75.2220 N   0  0  0  0  0  0  0  0  0  0  0  0
  -14.3800    6.6590  -76.7180 O   0  0  0  0  0  0  0  0  0  0  0  0
  2  1  1  0
  2  3  1  0
  2  4  1  0
  2  5  1  0
  4  6  1  0
  5  7  2  0
  5  8  1  0
  6  9  2  0
  6 10  1  0
  7 11  1  0
  8 12  2  0
 10 13  1  0
 11 14  2  0
 12 14  1  0
 13 15  2  0
 13 16  1  0
 15 17  1  0
 16 18  2  0
 17 19  2  0
 18 19  1  0
 19 20  1  0
 20 21  1  0
 21 22  1  0
 21 23  2  0
M  END
>  <ref_url>  (30) 
https://fakepage.com

>  <submitter_name>  (30) 
Steph Wills

>  <submitter_email>  (30) 
stephanie.wills@dtc.ox.ac.uk

>  <submitter_institution>  (30) 
University of Oxford

>  <generation_date>  (30) 
2020-06-04

>  <method>  (30) 
Fragment network

>  <ref_mols>  (30) 
x0176_0B,x0212_0B

>  <ref_pdb>  (30) 
references/x0176-0B-x0212-0B-18494.holo_minimised_nolig.pdb

>  <original SMILES>  (30) 
CC(C)(CC(=O)Nc1ccc(CC(N)=O)cc1)c1ccccc1

>  <synthon>  (30) 
[Xe]c1ccccc1

>  <original_name>  (30) 
x0176-0B-x0212-0B-18494

>  <comRMSD_score>  (30) 
0.997186709364566

>  <IF_score>  (30) 
0.25

>  <SuCOS_score>  (30) 
0.4535238034217154

>  <compound_ID>  (30) 
REAL:Z898744622

$$$$

     RDKit          3D

 21 22  0  0  0  0  0  0  0  0999 V2000
  -12.8570    7.0470  -76.3800 C   0  0  0  0  0  0  0  0  0  0  0  0
  -13.6690    5.7620  -76.2360 C   0  0  0  0  0  0  0  0  0  0  0  0
  -13.3890    4.7120  -77.3140 C   0  0  1  0  0  0  0  0  0  0  0  0
  -13.7310    5.2090  -78.7240 C   0  0  0  0  0  0  0  0  0  0  0  0
  -11.9980    4.1540  -77.1150 C   0  0  0  0  0  0  0  0  0  0  0  0
  -11.8120    3.1870  -76.1170 C   0  0  0  0  0  0  0  0  0  0  0  0
  -10.9030    4.5590  -77.8680 C   0  0  0  0  0  0  0  0  0  0  0  0
  -10.5530    2.6430  -75.8850 C   0  0  0  0  0  0  0  0  0  0  0  0
   -9.6460    4.0120  -77.6360 C   0  0  0  0  0  0  0  0  0  0  0  0
   -9.4720    3.0590  -76.6480 C   0  0  0  0  0  0  0  0  0  0  0  0
   -8.2430    2.4890  -76.3760 N   0  0  0  0  0  0  0  0  0  0  0  0
   -7.0340    2.8670  -76.8380 C   0  0  0  0  0  0  0  0  0  0  0  0
   -6.0930    4.1740  -76.3860 S   0  0  0  0  0  0  0  0  0  0  0  0
   -6.5280    2.0410  -77.8000 N   0  0  0  0  0  0  0  0  0  0  0  0
   -6.3280    2.3050  -79.2140 C   0  0  0  0  0  0  0  0  0  0  0  0
   -6.9920    1.2730  -80.0840 C   0  0  0  0  0  0  0  0  0  0  0  0
   -7.2540    1.5540  -81.4340 C   0  0  0  0  0  0  0  0  0  0  0  0
   -7.3810    0.0220  -79.5650 C   0  0  0  0  0  0  0  0  0  0  0  0
   -7.8920    0.6080  -82.2490 C   0  0  0  0  0  0  0  0  0  0  0  0
   -8.0220   -0.9160  -80.3820 C   0  0  0  0  0  0  0  0  0  0  0  0
   -8.2740   -0.6220  -81.7160 C   0  0  0  0  0  0  0  0  0  0  0  0
  1  2  1  0
  2  3  1  0
  3  4  1  6
  3  5  1  0
  5  6  2  0
  5  7  1  0
  6  8  1  0
  7  9  2  0
  8 10  2  0
  9 10  1  0
 10 11  1  0
 11 12  1  0
 12 13  2  0
 12 14  1  0
 14 15  1  0
 15 16  1  0
 16 17  2  0
 16 18  1  0
 17 19  1  0
 18 20  2  0
 19 21  2  0
 20 21  1  0
M  END
>  <ref_url>  (31) 
https://fakepage.com

>  <submitter_name>  (31) 
Steph Wills

>  <submitter_email>  (31) 
stephanie.wills@dtc.ox.ac.uk

>  <submitter_institution>  (31) 
University of Oxford

>  <generation_date>  (31) 
2020-06-04

>  <method>  (31) 
Fragment network

>  <ref_mols>  (31) 
x0176_0B,x0212_0B

>  <ref_pdb>  (31) 
references/x0176-0B-x0212-0B-19382.holo_minimised_nolig.pdb

>  <original SMILES>  (31) 
CCC(C)c1ccc(NC(=S)NCc2ccccc2)cc1

>  <synthon>  (31) 
[Xe]c1ccccc1

>  <original_name>  (31) 
x0176-0B-x0212-0B-19382

>  <comRMSD_score>  (31) 
0.9722357246819442

>  <IF_score>  (31) 
0.2777777777777778

>  <SuCOS_score>  (31) 
0.4355689572820318

>  <compound_ID>  (31) 
MOLPORT:008-326-624

$$$$

     RDKit          3D

 28 29  0  0  0  0  0  0  0  0999 V2000
  -14.6970    7.8760  -70.8010 C   0  0  0  0  0  0  0  0  0  0  0  0
  -14.2170    6.7110  -71.6910 C   0  0  0  0  0  0  0  0  0  0  0  0
  -15.1210    5.6600  -71.8880 C   0  0  0  0  0  0  0  0  0  0  0  0
  -13.8660    7.2610  -72.9630 O   0  0  0  0  0  0  0  0  0  0  0  0
  -12.8960    6.5080  -73.7130 C   0  0  0  0  0  0  0  0  0  0  0  0
  -13.0890    6.8050  -75.0740 C   0  0  0  0  0  0  0  0  0  0  0  0
  -13.6710    5.7570  -75.9190 N   0  0  0  0  0  0  0  0  0  0  0  0
  -12.8580    5.5080  -77.0950 C   0  0  0  0  0  0  0  0  0  0  0  0
  -11.8130    4.6620  -76.7460 C   0  0  0  0  0  0  0  0  0  0  0  0
  -11.9880    3.7720  -75.6780 C   0  0  0  0  0  0  0  0  0  0  0  0
  -10.6030    4.6970  -77.4460 C   0  0  0  0  0  0  0  0  0  0  0  0
  -10.9670    2.9160  -75.2910 C   0  0  0  0  0  0  0  0  0  0  0  0
   -9.5460    3.8600  -77.0870 C   0  0  0  0  0  0  0  0  0  0  0  0
   -9.6800    2.9610  -76.0250 C   0  0  0  0  0  0  0  0  0  0  0  0
   -8.6100    2.1880  -75.7770 O   0  0  0  0  0  0  0  0  0  0  0  0
   -8.5580    1.2280  -76.7900 C   0  0  0  0  0  0  0  0  0  0  0  0
   -9.2010    1.8560  -77.8520 C   0  0  2  0  0  0  0  0  0  0  0  0
   -9.6300    0.8720  -78.7990 O   0  0  0  0  0  0  0  0  0  0  0  0
   -8.4360    2.9740  -78.4360 C   0  0  0  0  0  0  0  0  0  0  0  0
   -6.9820    2.7750  -78.3640 N   0  0  0  0  0  0  0  0  0  0  0  0
   -6.2340    3.9850  -78.0010 C   0  0  0  0  0  0  0  0  0  0  0  0
   -6.5670    2.2410  -79.6650 C   0  0  0  0  0  0  0  0  0  0  0  0
   -7.5860    1.4990  -80.2850 C   0  0  0  0  0  0  0  0  0  0  0  0
   -7.9220    0.1530  -79.8830 C   0  0  0  0  0  0  0  0  0  0  0  0
   -8.3390    2.0320  -81.3360 C   0  0  0  0  0  0  0  0  0  0  0  0
   -8.9410   -0.6080  -80.4830 C   0  0  0  0  0  0  0  0  0  0  0  0
   -9.3540    1.2760  -81.9430 C   0  0  0  0  0  0  0  0  0  0  0  0
   -9.6560   -0.0250  -81.5220 C   0  0  0  0  0  0  0  0  0  0  0  0
  1  2  1  0
  2  3  1  0
  2  4  1  0
  4  5  1  0
  5  6  1  0
  6  7  1  0
  7  8  1  0
  8  9  1  0
  9 10  2  0
  9 11  1  0
 10 12  1  0
 11 13  2  0
 12 14  2  0
 13 14  1  0
 14 15  1  0
 15 16  1  0
 16 17  1  0
 17 18  1  6
 17 19  1  0
 19 20  1  0
 20 21  1  0
 20 22  1  0
 22 23  1  0
 23 24  2  0
 23 25  1  0
 24 26  1  0
 25 27  2  0
 26 28  2  0
 27 28  1  0
M  END
>  <ref_url>  (32) 
https://fakepage.com

>  <submitter_name>  (32) 
Steph Wills

>  <submitter_email>  (32) 
stephanie.wills@dtc.ox.ac.uk

>  <submitter_institution>  (32) 
University of Oxford

>  <generation_date>  (32) 
2020-06-04

>  <method>  (32) 
Fragment network

>  <ref_mols>  (32) 
x0176_0B,x0212_0B

>  <ref_pdb>  (32) 
references/x0176-0B-x0212-0B-21214.holo_minimised_nolig.pdb

>  <original SMILES>  (32) 
CC(C)OCCNCc1ccc(OCC(O)CN(C)Cc2ccccc2)cc1

>  <synthon>  (32) 
[Xe]c1ccccc1

>  <original_name>  (32) 
x0176-0B-x0212-0B-21214

>  <comRMSD_score>  (32) 
0.7870234831076917

>  <IF_score>  (32) 
0.9

>  <SuCOS_score>  (32) 
0.530613470085488

>  <compound_ID>  (32) 
MOLPORT:005-061-536

$$$$

     RDKit          3D

 24 25  0  0  0  0  0  0  0  0999 V2000
  -12.5520    7.8830  -75.7270 C   0  0  0  0  0  0  0  0  0  0  0  0
  -12.7250    6.5350  -75.2050 N   0  0  0  0  0  0  0  0  0  0  0  0
  -12.5450    6.3920  -73.7610 C   0  0  0  0  0  0  0  0  0  0  0  0
  -13.5860    5.7130  -75.9420 C   0  0  0  0  0  0  0  0  0  0  0  0
  -14.7270    5.4700  -75.5450 O   0  0  0  0  0  0  0  0  0  0  0  0
  -13.0350    5.1400  -77.2420 C   0  0  0  0  0  0  0  0  0  0  0  0
  -11.8030    4.3130  -77.0380 C   0  0  0  0  0  0  0  0  0  0  0  0
  -11.7550    3.3440  -76.0290 C   0  0  0  0  0  0  0  0  0  0  0  0
  -10.7020    4.5120  -77.8490 C   0  0  0  0  0  0  0  0  0  0  0  0
  -10.6010    2.5800  -75.8400 C   0  0  0  0  0  0  0  0  0  0  0  0
   -9.5580    3.7530  -77.6590 C   0  0  0  0  0  0  0  0  0  0  0  0
   -9.5030    2.7840  -76.6560 C   0  0  0  0  0  0  0  0  0  0  0  0
   -8.3090    2.0790  -76.5540 N   0  0  0  0  0  0  0  0  0  0  0  0
   -7.0650    2.5990  -76.7710 C   0  0  0  0  0  0  0  0  0  0  0  0
   -6.6070    3.6260  -76.2770 O   0  0  0  0  0  0  0  0  0  0  0  0
   -6.2350    1.7730  -77.7270 C   0  0  0  0  0  0  0  0  0  0  0  0
   -6.4760    2.2840  -79.1450 C   0  0  2  0  0  0  0  0  0  0  0  0
   -7.3830    3.4300  -79.0410 N   0  0  0  0  0  0  0  0  0  0  0  0
   -7.0990    1.2630  -80.0750 C   0  0  0  0  0  0  0  0  0  0  0  0
   -7.4770   -0.0100  -79.5950 C   0  0  0  0  0  0  0  0  0  0  0  0
   -7.3400    1.5570  -81.4360 C   0  0  0  0  0  0  0  0  0  0  0  0
   -8.0760   -0.9490  -80.4440 C   0  0  0  0  0  0  0  0  0  0  0  0
   -7.9360    0.6090  -82.2780 C   0  0  0  0  0  0  0  0  0  0  0  0
   -8.3020   -0.6380  -81.7820 C   0  0  0  0  0  0  0  0  0  0  0  0
  1  2  1  0
  2  3  1  0
  2  4  1  0
  4  5  2  0
  4  6  1  0
  6  7  1  0
  7  8  2  0
  7  9  1  0
  8 10  1  0
  9 11  2  0
 10 12  2  0
 11 12  1  0
 12 13  1  0
 13 14  1  0
 14 15  2  0
 14 16  1  0
 16 17  1  0
 17 18  1  1
 17 19  1  0
 19 20  2  0
 19 21  1  0
 20 22  1  0
 21 23  2  0
 22 24  2  0
 23 24  1  0
M  END
>  <ref_url>  (33) 
https://fakepage.com

>  <submitter_name>  (33) 
Steph Wills

>  <submitter_email>  (33) 
stephanie.wills@dtc.ox.ac.uk

>  <submitter_institution>  (33) 
University of Oxford

>  <generation_date>  (33) 
2020-06-04

>  <method>  (33) 
Fragment network

>  <ref_mols>  (33) 
x0176_0B,x0212_0B

>  <ref_pdb>  (33) 
references/x0176-0B-x0212-0B-21853.holo_minimised_nolig.pdb

>  <original SMILES>  (33) 
CN(C)C(=O)Cc1ccc(NC(=O)CC(N)c2ccccc2)cc1

>  <synthon>  (33) 
[Xe]c1ccccc1

>  <original_name>  (33) 
x0176-0B-x0212-0B-21853

>  <comRMSD_score>  (33) 
0.8585844292917391

>  <IF_score>  (33) 
0.1875

>  <SuCOS_score>  (33) 
0.5157362544246581

>  <compound_ID>  (33) 
REAL:Z2435091777

$$$$

     RDKit          3D

 24 25  0  0  0  0  0  0  0  0999 V2000
   -4.5330   -0.4510  -79.7630 O   0  0  0  0  0  0  0  0  0  0  0  0
   -5.3790    0.2910  -79.2830 C   0  0  0  0  0  0  0  0  0  0  0  0
   -6.2810   -0.0920  -78.3270 N   0  0  0  0  0  0  0  0  0  0  0  0
   -5.5490    1.5960  -79.6310 O   0  0  0  0  0  0  0  0  0  0  0  0
   -6.3770    0.5170  -77.0050 C   0  0  0  0  0  0  0  0  0  0  0  0
   -6.8100    2.1800  -79.2840 C   0  0  0  0  0  0  0  0  0  0  0  0
   -7.8220    0.9090  -76.6070 C   0  0  0  0  0  0  0  0  0  0  0  0
   -7.8850    1.4530  -80.0470 C   0  0  0  0  0  0  0  0  0  0  0  0
   -8.0250    2.3340  -76.9040 N   0  0  0  0  0  0  0  0  0  0  0  0
   -8.3700    1.9790  -81.2450 C   0  0  0  0  0  0  0  0  0  0  0  0
   -8.4160    0.2400  -79.5750 C   0  0  0  0  0  0  0  0  0  0  0  0
   -9.2460    2.9790  -76.7780 C   0  0  0  0  0  0  0  0  0  0  0  0
   -9.3550    1.3060  -81.9490 C   0  0  0  0  0  0  0  0  0  0  0  0
   -9.4060   -0.4280  -80.2910 C   0  0  0  0  0  0  0  0  0  0  0  0
  -10.2120    2.7060  -75.8120 C   0  0  0  0  0  0  0  0  0  0  0  0
   -9.5040    3.9920  -77.7030 C   0  0  0  0  0  0  0  0  0  0  0  0
   -9.8740    0.1080  -81.4780 C   0  0  0  0  0  0  0  0  0  0  0  0
  -11.4040    3.4390  -75.7690 C   0  0  0  0  0  0  0  0  0  0  0  0
  -10.6850    4.7240  -77.6670 C   0  0  0  0  0  0  0  0  0  0  0  0
  -11.6510    4.4600  -76.6970 C   0  0  0  0  0  0  0  0  0  0  0  0
  -12.9260    5.2630  -76.6490 C   0  0  0  0  0  0  0  0  0  0  0  0
  -13.1150    6.0450  -77.7430 F   0  0  0  0  0  0  0  0  0  0  0  0
  -14.0530    4.5050  -76.5180 F   0  0  0  0  0  0  0  0  0  0  0  0
  -12.9540    6.1240  -75.5930 F   0  0  0  0  0  0  0  0  0  0  0  0
  1  2  2  0
  2  3  1  0
  2  4  1  0
  3  5  1  0
  4  6  1  0
  5  7  1  0
  6  8  1  0
  7  9  1  0
  8 10  2  0
  8 11  1  0
  9 12  1  0
 10 13  1  0
 11 14  2  0
 12 15  2  0
 12 16  1  0
 13 17  2  0
 14 17  1  0
 15 18  1  0
 16 19  2  0
 18 20  2  0
 19 20  1  0
 20 21  1  0
 21 22  1  0
 21 23  1  0
 21 24  1  0
M  END
>  <ref_url>  (34) 
https://fakepage.com

>  <submitter_name>  (34) 
Steph Wills

>  <submitter_email>  (34) 
stephanie.wills@dtc.ox.ac.uk

>  <submitter_institution>  (34) 
University of Oxford

>  <generation_date>  (34) 
2020-06-04

>  <method>  (34) 
Fragment network

>  <ref_mols>  (34) 
x0176_0B,x0212_0B

>  <ref_pdb>  (34) 
references/x0176-0B-x0212-0B-22791.holo_minimised_nolig.pdb

>  <original SMILES>  (34) 
O=C(NCCNc1ccc(C(F)(F)F)cc1)OCc1ccccc1

>  <synthon>  (34) 
[Xe]c1ccccc1

>  <original_name>  (34) 
x0176-0B-x0212-0B-22791

>  <comRMSD_score>  (34) 
0.604495027353606

>  <IF_score>  (34) 
0.675

>  <SuCOS_score>  (34) 
0.474089073613073

>  <compound_ID>  (34) 
CHEMSPACE-BB:CSMB00155129048

$$$$

     RDKit          3D

 21 22  0  0  0  0  0  0  0  0999 V2000
   -6.1180    1.2920  -75.9480 C   0  0  0  0  0  0  0  0  0  0  0  0
   -6.3920    1.2210  -77.4200 C   0  0  0  0  0  0  0  0  0  0  0  0
   -7.3340    2.2320  -77.9230 N   0  0  0  0  0  0  0  0  0  0  0  0
   -7.2070    2.5280  -79.3310 C   0  0  0  0  0  0  0  0  0  0  0  0
   -7.8690    3.2260  -77.1490 C   0  0  0  0  0  0  0  0  0  0  0  0
   -8.0250    1.6820  -80.0340 C   0  0  0  0  0  0  0  0  0  0  0  0
   -7.0260    4.2670  -76.6170 O   0  0  0  0  0  0  0  0  0  0  0  0
   -9.2160    3.2490  -76.7870 C   0  0  0  0  0  0  0  0  0  0  0  0
   -8.3920    0.4460  -79.4980 C   0  0  0  0  0  0  0  0  0  0  0  0
   -8.5020    2.0380  -81.2750 C   0  0  0  0  0  0  0  0  0  0  0  0
   -9.6470    2.2420  -75.9610 C   0  0  0  0  0  0  0  0  0  0  0  0
  -10.1220    4.2460  -77.2080 C   0  0  0  0  0  0  0  0  0  0  0  0
   -9.2300   -0.4240  -80.1990 C   0  0  0  0  0  0  0  0  0  0  0  0
   -9.3260    1.2000  -81.9780 C   0  0  0  0  0  0  0  0  0  0  0  0
  -10.9580    2.2060  -75.5300 C   0  0  0  0  0  0  0  0  0  0  0  0
  -11.4620    4.2250  -76.7590 C   0  0  0  0  0  0  0  0  0  0  0  0
   -9.7360   -0.0460  -81.5070 C   0  0  0  0  0  0  0  0  0  0  0  0
  -11.8640    3.1890  -75.9190 C   0  0  0  0  0  0  0  0  0  0  0  0
  -12.3860    5.2200  -77.1340 C   0  0  0  0  0  0  0  0  0  0  0  0
  -13.2770    5.6420  -76.1430 C   0  0  0  0  0  0  0  0  0  0  0  0
  -12.6060    6.1430  -74.9450 N   0  0  0  0  0  0  0  0  0  0  0  0
  1  2  1  0
  2  3  1  0
  3  4  1  0
  3  5  1  0
  4  6  1  0
  5  7  2  0
  5  8  1  0
  6  9  2  0
  6 10  1  0
  8 11  2  0
  8 12  1  0
  9 13  1  0
 10 14  2  0
 11 15  1  0
 12 16  2  0
 13 17  2  0
 14 17  1  0
 15 18  2  0
 16 18  1  0
 16 19  1  0
 19 20  1  0
 20 21  1  0
M  END
>  <ref_url>  (35) 
https://fakepage.com

>  <submitter_name>  (35) 
Steph Wills

>  <submitter_email>  (35) 
stephanie.wills@dtc.ox.ac.uk

>  <submitter_institution>  (35) 
University of Oxford

>  <generation_date>  (35) 
2020-06-04

>  <method>  (35) 
Fragment network

>  <ref_mols>  (35) 
x0176_0B,x0212_0B

>  <ref_pdb>  (35) 
references/x0176-0B-x0212-0B-23239.holo_minimised_nolig.pdb

>  <original SMILES>  (35) 
CCN(Cc1ccccc1)C(=O)c1cccc(CCN)c1

>  <synthon>  (35) 
[Xe]c1ccccc1

>  <original_name>  (35) 
x0176-0B-x0212-0B-23239

>  <comRMSD_score>  (35) 
0.7262876209418218

>  <IF_score>  (35) 
0.8

>  <SuCOS_score>  (35) 
0.5491326164748741

>  <compound_ID>  (35) 
CHEMSPACE-BB:CSMB00011706592

$$$$

     RDKit          3D

 25 26  0  0  0  0  0  0  0  0999 V2000
  -11.5100    6.6730  -73.3270 C   0  0  0  0  0  0  0  0  0  0  0  0
  -12.6780    7.3920  -73.8030 C   0  0  0  0  0  0  0  0  0  0  0  0
  -13.6370    6.2920  -74.1280 C   0  0  2  0  0  0  0  0  0  0  0  0
  -13.7470    6.2080  -75.5880 N   0  0  0  0  0  0  0  0  0  0  0  0
  -14.9450    6.6040  -73.3880 C   0  0  0  0  0  0  0  0  0  0  0  0
  -14.2910    4.9110  -75.9800 C   0  0  0  0  0  0  0  0  0  0  0  0
  -15.6460    7.6820  -73.8490 N   0  0  0  0  0  0  0  0  0  0  0  0
  -15.3720    5.9430  -72.4330 O   0  0  0  0  0  0  0  0  0  0  0  0
  -13.5780    4.3050  -77.1970 C   0  0  0  0  0  0  0  0  0  0  0  0
  -12.1250    3.9560  -77.0330 C   0  0  0  0  0  0  0  0  0  0  0  0
  -11.2070    4.5110  -77.8870 C   0  0  0  0  0  0  0  0  0  0  0  0
  -11.6770    3.0740  -76.0240 C   0  0  0  0  0  0  0  0  0  0  0  0
   -9.8840    4.2180  -77.7560 C   0  0  0  0  0  0  0  0  0  0  0  0
  -10.3080    2.7780  -75.8960 C   0  0  0  0  0  0  0  0  0  0  0  0
   -9.4130    3.3750  -76.7830 C   0  0  0  0  0  0  0  0  0  0  0  0
   -7.9350    3.2090  -76.7880 C   0  0  0  0  0  0  0  0  0  0  0  0
   -7.4290    2.1210  -77.5720 N   0  0  0  0  0  0  0  0  0  0  0  0
   -7.0950    2.3000  -78.8920 C   0  0  0  0  0  0  0  0  0  0  0  0
   -6.1950    3.0160  -79.3220 O   0  0  0  0  0  0  0  0  0  0  0  0
   -7.9570    1.5050  -79.7760 C   0  0  0  0  0  0  0  0  0  0  0  0
   -8.2770    1.9730  -81.0470 C   0  0  0  0  0  0  0  0  0  0  0  0
   -8.4500    0.2840  -79.3180 C   0  0  0  0  0  0  0  0  0  0  0  0
   -9.0990    1.2030  -81.8380 C   0  0  0  0  0  0  0  0  0  0  0  0
   -9.2740   -0.4790  -80.1210 C   0  0  0  0  0  0  0  0  0  0  0  0
   -9.6010   -0.0160  -81.3780 C   0  0  0  0  0  0  0  0  0  0  0  0
  1  2  1  0
  3  2  1  6
  3  4  1  0
  3  5  1  0
  4  6  1  0
  5  7  1  0
  5  8  2  0
  6  9  1  0
  9 10  1  0
 10 11  2  0
 10 12  1  0
 11 13  1  0
 12 14  2  0
 13 15  2  0
 14 15  1  0
 15 16  1  0
 16 17  1  0
 17 18  1  0
 18 19  2  0
 18 20  1  0
 20 21  2  0
 20 22  1  0
 21 23  1  0
 22 24  2  0
 23 25  2  0
 24 25  1  0
M  END
>  <ref_url>  (36) 
https://fakepage.com

>  <submitter_name>  (36) 
Steph Wills

>  <submitter_email>  (36) 
stephanie.wills@dtc.ox.ac.uk

>  <submitter_institution>  (36) 
University of Oxford

>  <generation_date>  (36) 
2020-06-04

>  <method>  (36) 
Fragment network

>  <ref_mols>  (36) 
x0176_0B,x0212_0B

>  <ref_pdb>  (36) 
references/x0176-0B-x0212-0B-26854.holo_minimised_nolig.pdb

>  <original SMILES>  (36) 
CCC(NCCc1ccc(CNC(=O)c2ccccc2)cc1)C(N)=O

>  <synthon>  (36) 
[Xe]c1ccccc1

>  <original_name>  (36) 
x0176-0B-x0212-0B-26854

>  <comRMSD_score>  (36) 
0.9407181260040616

>  <IF_score>  (36) 
0.375

>  <SuCOS_score>  (36) 
0.5634892782985217

>  <compound_ID>  (36) 
REAL:PV-000789892680

$$$$

     RDKit          3D

 19 20  0  0  0  0  0  0  0  0999 V2000
  -13.5110    5.8590  -75.5950 C   0  0  0  0  0  0  0  0  0  0  0  0
  -13.4260    4.7590  -76.5930 C   0  0  0  0  0  0  0  0  0  0  0  0
  -14.3570    3.8160  -76.2550 F   0  0  0  0  0  0  0  0  0  0  0  0
  -13.8430    5.2890  -77.7790 F   0  0  0  0  0  0  0  0  0  0  0  0
  -12.0320    4.2170  -76.6330 C   0  0  0  0  0  0  0  0  0  0  0  0
  -11.6150    3.1500  -75.8120 C   0  0  0  0  0  0  0  0  0  0  0  0
  -11.1390    4.7990  -77.5050 C   0  0  0  0  0  0  0  0  0  0  0  0
  -10.2940    2.6930  -75.8710 C   0  0  0  0  0  0  0  0  0  0  0  0
   -9.8630    4.3430  -77.5550 C   0  0  0  0  0  0  0  0  0  0  0  0
   -9.4190    3.3190  -76.7570 C   0  0  0  0  0  0  0  0  0  0  0  0
   -7.9790    3.0250  -76.9530 C   0  0  0  0  0  0  0  0  0  0  0  0
   -7.6730    1.9670  -77.8470 N   0  0  0  0  0  0  0  0  0  0  0  0
   -7.2620    2.2190  -79.1130 C   0  0  0  0  0  0  0  0  0  0  0  0
   -8.0780    1.5340  -79.9790 C   0  0  0  0  0  0  0  0  0  0  0  0
   -8.5830    0.1820  -79.5510 C   0  0  0  0  0  0  0  0  0  0  0  0
   -8.4560    2.0440  -81.2240 C   0  0  0  0  0  0  0  0  0  0  0  0
   -9.4220   -0.5410  -80.3970 C   0  0  0  0  0  0  0  0  0  0  0  0
   -9.2870    1.2590  -81.9940 C   0  0  0  0  0  0  0  0  0  0  0  0
   -9.7660    0.0130  -81.6170 C   0  0  0  0  0  0  0  0  0  0  0  0
  1  2  1  0
  2  3  1  0
  2  4  1  0
  2  5  1  0
  5  6  2  0
  5  7  1  0
  6  8  1  0
  7  9  2  0
  8 10  2  0
  9 10  1  0
 10 11  1  0
 11 12  1  0
 12 13  1  0
 13 14  1  0
 14 15  2  0
 14 16  1  0
 15 17  1  0
 16 18  2  0
 17 19  2  0
 18 19  1  0
M  END
>  <ref_url>  (37) 
https://fakepage.com

>  <submitter_name>  (37) 
Steph Wills

>  <submitter_email>  (37) 
stephanie.wills@dtc.ox.ac.uk

>  <submitter_institution>  (37) 
University of Oxford

>  <generation_date>  (37) 
2020-06-04

>  <method>  (37) 
Fragment network

>  <ref_mols>  (37) 
x0176_0B,x0212_0B

>  <ref_pdb>  (37) 
references/x0176-0B-x0212-0B-27901.holo_minimised_nolig.pdb

>  <original SMILES>  (37) 
CC(F)(F)c1ccc(CNCc2ccccc2)cc1

>  <synthon>  (37) 
[Xe]c1ccccc1

>  <original_name>  (37) 
x0176-0B-x0212-0B-27901

>  <comRMSD_score>  (37) 
0.8714424345111198

>  <IF_score>  (37) 
0.8

>  <SuCOS_score>  (37) 
0.5151124570663475

>  <compound_ID>  (37) 
CHEMSPACE-BB:CSMB00068916571, REAL:Z2219340631

$$$$

     RDKit          3D

 22 23  0  0  0  0  0  0  0  0999 V2000
  -14.2070    6.0710  -75.0410 N   0  0  0  0  0  0  0  0  0  0  0  0
  -13.7820    5.6540  -76.0370 C   0  0  0  0  0  0  0  0  0  0  0  0
  -13.2020    5.0960  -77.2560 C   0  0  0  0  0  0  0  0  0  0  0  0
  -11.9180    4.4000  -76.9350 C   0  0  0  0  0  0  0  0  0  0  0  0
  -10.7750    4.6990  -77.6540 C   0  0  0  0  0  0  0  0  0  0  0  0
  -11.8650    3.4480  -75.9060 C   0  0  0  0  0  0  0  0  0  0  0  0
   -9.5790    4.0580  -77.3580 C   0  0  0  0  0  0  0  0  0  0  0  0
  -10.6600    2.8090  -75.6140 C   0  0  0  0  0  0  0  0  0  0  0  0
   -9.5240    3.1190  -76.3430 C   0  0  0  0  0  0  0  0  0  0  0  0
   -8.4140    2.4550  -75.9970 O   0  0  0  0  0  0  0  0  0  0  0  0
   -7.4270    2.5260  -77.0070 C   0  0  0  0  0  0  0  0  0  0  0  0
   -6.0270    2.7260  -76.4220 C   0  0  2  0  0  0  0  0  0  0  0  0
   -5.9610    3.9190  -75.6070 O   0  0  0  0  0  0  0  0  0  0  0  0
   -5.0210    2.7850  -77.5700 C   0  0  0  0  0  0  0  0  0  0  0  0
   -5.2830    1.7960  -78.5780 O   0  0  0  0  0  0  0  0  0  0  0  0
   -6.1210    2.3060  -79.6190 C   0  0  0  0  0  0  0  0  0  0  0  0
   -6.9490    1.2270  -80.2830 C   0  0  0  0  0  0  0  0  0  0  0  0
   -7.3240    0.0210  -79.6640 C   0  0  0  0  0  0  0  0  0  0  0  0
   -7.3870    1.4590  -81.5930 C   0  0  0  0  0  0  0  0  0  0  0  0
   -8.1140   -0.9150  -80.3530 C   0  0  0  0  0  0  0  0  0  0  0  0
   -8.1670    0.5300  -82.2780 C   0  0  0  0  0  0  0  0  0  0  0  0
   -8.5340   -0.6570  -81.6620 C   0  0  0  0  0  0  0  0  0  0  0  0
  1  2  3  0
  2  3  1  0
  3  4  1  0
  4  5  2  0
  4  6  1  0
  5  7  1  0
  6  8  2  0
  7  9  2  0
  8  9  1  0
  9 10  1  0
 10 11  1  0
 11 12  1  0
 12 13  1  6
 12 14  1  0
 14 15  1  0
 15 16  1  0
 16 17  1  0
 17 18  2  0
 17 19  1  0
 18 20  1  0
 19 21  2  0
 20 22  2  0
 21 22  1  0
M  END
>  <ref_url>  (38) 
https://fakepage.com

>  <submitter_name>  (38) 
Steph Wills

>  <submitter_email>  (38) 
stephanie.wills@dtc.ox.ac.uk

>  <submitter_institution>  (38) 
University of Oxford

>  <generation_date>  (38) 
2020-06-04

>  <method>  (38) 
Fragment network

>  <ref_mols>  (38) 
x0176_0B,x0212_0B

>  <ref_pdb>  (38) 
references/x0176-0B-x0212-0B-28128.holo_minimised_nolig.pdb

>  <original SMILES>  (38) 
N#CCc1ccc(OCC(O)COCc2ccccc2)cc1

>  <synthon>  (38) 
[Xe]c1ccccc1

>  <original_name>  (38) 
x0176-0B-x0212-0B-28128

>  <comRMSD_score>  (38) 
0.9619313226864042

>  <IF_score>  (38) 
0.3095238095238095

>  <SuCOS_score>  (38) 
0.4111691421650797

>  <compound_ID>  (38) 
CHEMSPACE-BB:CSMB00011991317

$$$$

     RDKit          3D

 22 23  0  0  0  0  0  0  0  0999 V2000
  -14.0970   -0.1000  -78.2000 C   0  0  0  0  0  0  0  0  0  0  0  0
  -12.6120    0.0120  -78.5240 C   0  0  2  0  0  0  0  0  0  0  0  0
  -12.0940    1.3650  -77.9210 C   0  0  0  0  0  0  0  0  0  0  0  0
  -12.4100   -0.2520  -80.0680 C   0  0  0  0  0  0  0  0  0  0  0  0
  -13.0280    2.1920  -77.5940 O   0  0  0  0  0  0  0  0  0  0  0  0
  -11.1380   -0.7610  -80.5290 O   0  0  0  0  0  0  0  0  0  0  0  0
  -12.5800    3.4210  -76.8920 C   0  0  0  0  0  0  0  0  0  0  0  0
  -10.0540    0.0610  -80.4840 C   0  0  0  0  0  0  0  0  0  0  0  0
  -11.2290    3.2960  -76.8180 C   0  0  0  0  0  0  0  0  0  0  0  0
   -9.3760   -0.1440  -79.3050 C   0  0  0  0  0  0  0  0  0  0  0  0
   -9.5850    1.0220  -81.4020 C   0  0  0  0  0  0  0  0  0  0  0  0
  -10.3460    4.0400  -77.5950 C   0  0  0  0  0  0  0  0  0  0  0  0
  -10.7600    2.3550  -75.9240 C   0  0  0  0  0  0  0  0  0  0  0  0
   -8.2520    0.5880  -78.9940 C   0  0  0  0  0  0  0  0  0  0  0  0
   -8.4460    1.7730  -81.0850 C   0  0  0  0  0  0  0  0  0  0  0  0
   -8.9810    3.8230  -77.4720 C   0  0  0  0  0  0  0  0  0  0  0  0
   -9.4230    2.1080  -75.7670 C   0  0  0  0  0  0  0  0  0  0  0  0
   -7.7830    1.5540  -79.8680 C   0  0  0  0  0  0  0  0  0  0  0  0
   -8.4610    2.7910  -76.4920 C   0  0  0  0  0  0  0  0  0  0  0  0
   -6.6610    2.2670  -79.4740 C   0  0  0  0  0  0  0  0  0  0  0  0
   -6.7490    2.8260  -78.2200 N   0  0  0  0  0  0  0  0  0  0  0  0
   -5.2630    2.4680  -80.3610 S   0  0  0  0  0  0  0  0  0  0  0  0
  2  1  1  6
  2  3  1  0
  2  4  1  0
  3  5  1  0
  4  6  1  0
  5  7  1  0
  6  8  1  0
  7  9  1  0
  8 10  2  0
  8 11  1  0
  9 12  2  0
  9 13  1  0
 10 14  1  0
 11 15  2  0
 12 16  1  0
 13 17  2  0
 14 18  2  0
 15 18  1  0
 16 19  2  0
 17 19  1  0
 18 20  1  0
 20 21  1  0
 20 22  2  0
M  END
>  <ref_url>  (39) 
https://fakepage.com

>  <submitter_name>  (39) 
Steph Wills

>  <submitter_email>  (39) 
stephanie.wills@dtc.ox.ac.uk

>  <submitter_institution>  (39) 
University of Oxford

>  <generation_date>  (39) 
2020-06-04

>  <method>  (39) 
Fragment network

>  <ref_mols>  (39) 
x0176_0B,x0212_0B

>  <ref_pdb>  (39) 
references/x0176-0B-x0212-0B-28324.holo_minimised_nolig.pdb

>  <original SMILES>  (39) 
CC(COCc1ccccc1)COc1ccc(C(N)=S)cc1

>  <synthon>  (39) 
[Xe]c1ccccc1

>  <original_name>  (39) 
x0176-0B-x0212-0B-28324

>  <comRMSD_score>  (39) 
0.9680656673819372

>  <IF_score>  (39) 
0.55

>  <SuCOS_score>  (39) 
0.3827656182229551

>  <compound_ID>  (39) 
CHEMSPACE-BB:CSMB00116418864

$$$$

     RDKit          3D

 17 18  0  0  0  0  0  0  0  0999 V2000
  -13.0220    5.3450  -76.9340 C   0  0  0  0  0  0  0  0  0  0  0  0
  -11.7220    4.6280  -76.7850 C   0  0  0  0  0  0  0  0  0  0  0  0
  -10.7180    4.8500  -77.7070 C   0  0  0  0  0  0  0  0  0  0  0  0
  -11.4860    3.7390  -75.7350 C   0  0  0  0  0  0  0  0  0  0  0  0
   -9.4960    4.2250  -77.5860 C   0  0  0  0  0  0  0  0  0  0  0  0
  -10.2450    3.1120  -75.6170 C   0  0  0  0  0  0  0  0  0  0  0  0
   -9.2280    3.3660  -76.5380 C   0  0  0  0  0  0  0  0  0  0  0  0
   -7.9840    2.8070  -76.4280 N   0  0  0  0  0  0  0  0  0  0  0  0
   -7.7500    1.4100  -76.2210 C   0  0  0  0  0  0  0  0  0  0  0  0
   -8.0740    0.9580  -77.5590 C   0  0  0  0  0  0  0  0  0  0  0  0
   -7.9230    1.7020  -78.6540 C   0  0  0  0  0  0  0  0  0  0  0  0
   -8.3400    1.1580  -79.8940 C   0  0  0  0  0  0  0  0  0  0  0  0
   -8.7270   -0.1670  -79.8020 C   0  0  0  0  0  0  0  0  0  0  0  0
   -8.3860    1.8500  -81.1050 C   0  0  0  0  0  0  0  0  0  0  0  0
   -9.1740   -0.8380  -80.9060 C   0  0  0  0  0  0  0  0  0  0  0  0
   -8.8380    1.1620  -82.2110 C   0  0  0  0  0  0  0  0  0  0  0  0
   -9.2280   -0.1700  -82.1070 C   0  0  0  0  0  0  0  0  0  0  0  0
  1  2  1  0
  2  3  2  0
  2  4  1  0
  3  5  1  0
  4  6  2  0
  5  7  2  0
  6  7  1  0
  7  8  1  0
  8  9  1  0
  9 10  1  0
 10 11  2  3
 11 12  1  0
 12 13  2  0
 12 14  1  0
 13 15  1  0
 14 16  2  0
 15 17  2  0
 16 17  1  0
M  END
>  <ref_url>  (40) 
https://fakepage.com

>  <submitter_name>  (40) 
Steph Wills

>  <submitter_email>  (40) 
stephanie.wills@dtc.ox.ac.uk

>  <submitter_institution>  (40) 
University of Oxford

>  <generation_date>  (40) 
2020-06-04

>  <method>  (40) 
Fragment network

>  <ref_mols>  (40) 
x0176_0B,x0212_0B

>  <ref_pdb>  (40) 
references/x0176-0B-x0212-0B-29550.holo_minimised_nolig.pdb

>  <original SMILES>  (40) 
Cc1ccc(NCC=Cc2ccccc2)cc1

>  <synthon>  (40) 
[Xe]c1ccccc1

>  <original_name>  (40) 
x0176-0B-x0212-0B-29550

>  <comRMSD_score>  (40) 
0.8898994325203262

>  <IF_score>  (40) 
0.8

>  <SuCOS_score>  (40) 
0.4088330514376509

>  <compound_ID>  (40) 
REAL:Z57329029, CHEMSPACE-BB:CSMB00000389738

$$$$

     RDKit          3D

 24 25  0  0  0  0  0  0  0  0999 V2000
  -13.5290    5.9340  -75.9990 C   0  0  0  0  0  0  0  0  0  0  0  0
  -13.2060    5.0060  -77.1530 C   0  0  0  0  0  0  0  0  0  0  0  0
  -11.8250    4.3900  -76.9720 C   0  0  0  0  0  0  0  0  0  0  0  0
  -11.6320    3.3430  -75.9410 C   0  0  0  0  0  0  0  0  0  0  0  0
  -10.7290    4.7640  -77.7370 C   0  0  0  0  0  0  0  0  0  0  0  0
  -10.3820    2.7720  -75.7820 C   0  0  0  0  0  0  0  0  0  0  0  0
   -9.4890    4.1540  -77.5380 C   0  0  0  0  0  0  0  0  0  0  0  0
   -9.3160    3.1710  -76.5780 C   0  0  0  0  0  0  0  0  0  0  0  0
   -8.0740    2.4940  -76.3240 N   0  0  0  0  0  0  0  0  0  0  0  0
   -6.9320    2.7690  -76.9910 C   0  0  0  0  0  0  0  0  0  0  0  0
   -6.1790    3.7030  -76.7660 O   0  0  0  0  0  0  0  0  0  0  0  0
   -6.7060    1.8280  -77.9780 N   0  0  0  0  0  0  0  0  0  0  0  0
   -6.4010    2.1070  -79.4340 C   0  0  2  0  0  0  0  0  0  0  0  0
   -6.7530    3.5620  -79.7810 C   0  0  0  0  0  0  0  0  0  0  0  0
   -7.1570    1.1010  -80.3000 C   0  0  0  0  0  0  0  0  0  0  0  0
   -4.8900    1.9290  -79.8090 C   0  0  0  0  0  0  0  0  0  0  0  0
   -7.5170    1.4220  -81.6060 C   0  0  0  0  0  0  0  0  0  0  0  0
   -7.5190   -0.1510  -79.7870 C   0  0  0  0  0  0  0  0  0  0  0  0
   -4.6420    2.1780  -81.1110 F   0  0  0  0  0  0  0  0  0  0  0  0
   -4.4440    0.6790  -79.5600 F   0  0  0  0  0  0  0  0  0  0  0  0
   -4.1070    2.7880  -79.0990 F   0  0  0  0  0  0  0  0  0  0  0  0
   -8.2170    0.5250  -82.3980 C   0  0  0  0  0  0  0  0  0  0  0  0
   -8.2260   -1.0600  -80.5760 C   0  0  0  0  0  0  0  0  0  0  0  0
   -8.5740   -0.7180  -81.8840 C   0  0  0  0  0  0  0  0  0  0  0  0
  1  2  1  0
  2  3  1  0
  3  4  2  0
  3  5  1  0
  4  6  1  0
  5  7  2  0
  6  8  2  0
  7  8  1  0
  8  9  1  0
  9 10  1  0
 10 11  2  0
 10 12  1  0
 13 12  1  0
 13 14  1  6
 13 15  1  0
 13 16  1  0
 15 17  2  0
 15 18  1  0
 16 19  1  0
 16 20  1  0
 16 21  1  0
 17 22  1  0
 18 23  2  0
 22 24  2  0
 23 24  1  0
M  END
>  <ref_url>  (41) 
https://fakepage.com

>  <submitter_name>  (41) 
Steph Wills

>  <submitter_email>  (41) 
stephanie.wills@dtc.ox.ac.uk

>  <submitter_institution>  (41) 
University of Oxford

>  <generation_date>  (41) 
2020-06-04

>  <method>  (41) 
Fragment network

>  <ref_mols>  (41) 
x0176_0B,x0212_0B

>  <ref_pdb>  (41) 
references/x0176-0B-x0212-0B-32066.holo_minimised_nolig.pdb

>  <original SMILES>  (41) 
CCc1ccc(NC(=O)NC(C)(c2ccccc2)C(F)(F)F)cc1

>  <synthon>  (41) 
[Xe]c1ccccc1

>  <original_name>  (41) 
x0176-0B-x0212-0B-32066

>  <comRMSD_score>  (41) 
0.8744560545300981

>  <IF_score>  (41) 
0.4375

>  <SuCOS_score>  (41) 
0.4442812917862813

>  <compound_ID>  (41) 
REAL:PV-001951707766

$$$$

     RDKit          3D

 24 25  0  0  0  0  0  0  0  0999 V2000
  -13.6220    6.2730  -76.0460 C   0  0  0  0  0  0  0  0  0  0  0  0
  -13.0720    5.5850  -77.2450 C   0  0  0  0  0  0  0  0  0  0  0  0
  -12.0200    4.6010  -76.9300 C   0  0  0  0  0  0  0  0  0  0  0  0
  -12.2280    3.6290  -75.9550 C   0  0  0  0  0  0  0  0  0  0  0  0
  -10.8150    4.6450  -77.6040 C   0  0  0  0  0  0  0  0  0  0  0  0
  -11.2440    2.7130  -75.6540 C   0  0  0  0  0  0  0  0  0  0  0  0
   -9.8430    3.7270  -77.2970 C   0  0  0  0  0  0  0  0  0  0  0  0
  -10.0420    2.7520  -76.3170 C   0  0  0  0  0  0  0  0  0  0  0  0
   -9.0760    1.8940  -76.0370 O   0  0  0  0  0  0  0  0  0  0  0  0
   -7.8710    2.5340  -76.2120 C   0  0  0  0  0  0  0  0  0  0  0  0
   -7.7220    3.0090  -77.6360 C   0  0  0  0  0  0  0  0  0  0  0  0
   -8.4340    3.8450  -78.1810 O   0  0  0  0  0  0  0  0  0  0  0  0
   -6.6360    2.3130  -78.2670 N   0  0  0  0  0  0  0  0  0  0  0  0
   -5.8900    1.3870  -77.5230 C   0  0  0  0  0  0  0  0  0  0  0  0
   -6.5320    2.3760  -79.6320 C   0  0  1  0  0  0  0  0  0  0  0  0
   -5.2710    2.0340  -80.1510 C   0  0  0  0  0  0  0  0  0  0  0  0
   -7.6560    1.5160  -80.2010 C   0  0  0  0  0  0  0  0  0  0  0  0
   -5.0720    0.6810  -80.4250 C   0  0  0  0  0  0  0  0  0  0  0  0
   -8.0150    0.2930  -79.6310 C   0  0  0  0  0  0  0  0  0  0  0  0
   -8.3380    1.9780  -81.3260 C   0  0  0  0  0  0  0  0  0  0  0  0
   -3.9230    0.2950  -80.6640 O   0  0  0  0  0  0  0  0  0  0  0  0
   -9.1250   -0.4990  -80.2480 C   0  0  0  0  0  0  0  0  0  0  0  0
   -9.3700    1.2380  -81.8980 C   0  0  0  0  0  0  0  0  0  0  0  0
   -9.7650    0.0100  -81.3690 C   0  0  0  0  0  0  0  0  0  0  0  0
  1  2  1  0
  2  3  1  0
  3  4  2  0
  3  5  1  0
  4  6  1  0
  5  7  2  0
  6  8  2  0
  7  8  1  0
  8  9  1  0
  9 10  1  0
 10 11  1  0
 11 12  2  0
 11 13  1  0
 13 14  1  0
 13 15  1  0
 15 16  1  1
 15 17  1  0
 16 18  1  0
 17 19  2  0
 17 20  1  0
 18 21  1  0
 19 22  1  0
 20 23  2  0
 22 24  2  0
 23 24  1  0
M  END
>  <ref_url>  (42) 
https://fakepage.com

>  <submitter_name>  (42) 
Steph Wills

>  <submitter_email>  (42) 
stephanie.wills@dtc.ox.ac.uk

>  <submitter_institution>  (42) 
University of Oxford

>  <generation_date>  (42) 
2020-06-04

>  <method>  (42) 
Fragment network

>  <ref_mols>  (42) 
x0176_0B,x0212_0B

>  <ref_pdb>  (42) 
references/x0176-0B-x0212-0B-32678.holo_minimised_nolig.pdb

>  <original SMILES>  (42) 
CCc1ccc(OCC(=O)N(C)C(CCO)c2ccccc2)cc1

>  <synthon>  (42) 
[Xe]c1ccccc1

>  <original_name>  (42) 
x0176-0B-x0212-0B-32678

>  <comRMSD_score>  (42) 
0.7888397092924018

>  <IF_score>  (42) 
0.675

>  <SuCOS_score>  (42) 
0.4834361789063697

>  <compound_ID>  (42) 
REAL:Z1451194418

$$$$

     RDKit          3D

 24 25  0  0  0  0  0  0  0  0999 V2000
  -13.1280    6.1050  -78.1020 C   0  0  0  0  0  0  0  0  0  0  0  0
  -13.2640    4.8490  -77.2650 C   0  0  0  0  0  0  0  0  0  0  0  0
  -14.1960    3.8460  -77.9660 C   0  0  0  0  0  0  0  0  0  0  0  0
  -11.9210    4.2360  -77.0270 C   0  0  0  0  0  0  0  0  0  0  0  0
  -13.8470    5.3220  -75.9280 C   0  0  0  0  0  0  0  0  0  0  0  0
  -10.8640    4.5650  -77.8710 C   0  0  0  0  0  0  0  0  0  0  0  0
  -11.7190    3.3320  -75.9650 C   0  0  0  0  0  0  0  0  0  0  0  0
  -14.9860    6.0340  -76.1200 F   0  0  0  0  0  0  0  0  0  0  0  0
  -14.1580    4.2940  -75.1070 F   0  0  0  0  0  0  0  0  0  0  0  0
  -12.9870    6.1430  -75.2700 F   0  0  0  0  0  0  0  0  0  0  0  0
   -9.6280    4.0090  -77.6760 C   0  0  0  0  0  0  0  0  0  0  0  0
  -10.4880    2.7450  -75.7260 C   0  0  0  0  0  0  0  0  0  0  0  0
   -9.4340    3.0570  -76.5550 C   0  0  0  0  0  0  0  0  0  0  0  0
   -8.1760    2.5470  -76.4610 N   0  0  0  0  0  0  0  0  0  0  0  0
   -7.7810    1.7680  -77.4880 C   0  0  0  0  0  0  0  0  0  0  0  0
   -8.4530    0.8940  -78.0210 O   0  0  0  0  0  0  0  0  0  0  0  0
   -6.5200    2.0990  -77.8950 N   0  0  0  0  0  0  0  0  0  0  0  0
   -6.3060    2.2360  -79.3190 C   0  0  0  0  0  0  0  0  0  0  0  0
   -7.0170    1.2790  -80.2510 C   0  0  0  0  0  0  0  0  0  0  0  0
   -7.3240    0.0240  -79.7290 C   0  0  0  0  0  0  0  0  0  0  0  0
   -7.3840    1.5720  -81.5710 C   0  0  0  0  0  0  0  0  0  0  0  0
   -8.0420   -1.0110  -80.5490 C   0  0  0  0  0  0  0  0  0  0  0  0
   -8.0520    0.6120  -82.3690 C   0  0  0  0  0  0  0  0  0  0  0  0
   -8.3810   -0.6630  -81.8660 C   0  0  0  0  0  0  0  0  0  0  0  0
  2  1  1  0
  2  3  1  0
  2  4  1  0
  2  5  1  0
  4  6  2  0
  4  7  1  0
  5  8  1  0
  5  9  1  0
  5 10  1  0
  6 11  1  0
  7 12  2  0
 11 13  2  0
 12 13  1  0
 13 14  1  0
 14 15  1  0
 15 16  2  0
 15 17  1  0
 17 18  1  0
 18 19  1  0
 19 20  2  0
 19 21  1  0
 20 22  1  0
 21 23  2  0
 22 24  2  0
 23 24  1  0
M  END
>  <ref_url>  (43) 
https://fakepage.com

>  <submitter_name>  (43) 
Steph Wills

>  <submitter_email>  (43) 
stephanie.wills@dtc.ox.ac.uk

>  <submitter_institution>  (43) 
University of Oxford

>  <generation_date>  (43) 
2020-06-04

>  <method>  (43) 
Fragment network

>  <ref_mols>  (43) 
x0176_0B,x0212_0B

>  <ref_pdb>  (43) 
references/x0176-0B-x0212-0B-33271.holo_minimised_nolig.pdb

>  <original SMILES>  (43) 
CC(C)(c1ccc(NC(=O)NCc2ccccc2)cc1)C(F)(F)F

>  <synthon>  (43) 
[Xe]c1ccccc1

>  <original_name>  (43) 
x0176-0B-x0212-0B-33271

>  <comRMSD_score>  (43) 
0.8853338353412227

>  <IF_score>  (43) 
0.1428571428571428

>  <SuCOS_score>  (43) 
0.4572484488269879

>  <compound_ID>  (43) 
REAL:Z1864609546

$$$$

     RDKit          3D

 21 22  0  0  0  0  0  0  0  0999 V2000
  -14.6500    7.0370  -76.7010 C   0  0  0  0  0  0  0  0  0  0  0  0
  -13.6500    5.9790  -76.1790 C   0  0  0  0  0  0  0  0  0  0  0  0
  -13.0960    5.1000  -77.3260 C   0  0  0  0  0  0  0  0  0  0  0  0
  -13.9140    5.1120  -78.4940 O   0  0  0  0  0  0  0  0  0  0  0  0
  -11.7920    4.3100  -77.1890 C   0  0  0  0  0  0  0  0  0  0  0  0
  -11.7410    3.2240  -76.1230 C   0  0  0  0  0  0  0  0  0  0  0  0
  -10.6990    4.5610  -78.0020 C   0  0  0  0  0  0  0  0  0  0  0  0
  -10.5590    2.4940  -76.0060 C   0  0  0  0  0  0  0  0  0  0  0  0
   -9.5280    3.8300  -77.8780 C   0  0  0  0  0  0  0  0  0  0  0  0
   -9.4090    2.8130  -76.9290 C   0  0  0  0  0  0  0  0  0  0  0  0
   -8.3240    2.0430  -76.7410 O   0  0  0  0  0  0  0  0  0  0  0  0
   -7.0540    2.6810  -76.6000 C   0  0  0  0  0  0  0  0  0  0  0  0
   -6.8670    3.6660  -77.5620 C   0  0  0  0  0  0  0  0  0  0  0  0
   -6.8880    3.2100  -78.9150 O   0  0  0  0  0  0  0  0  0  0  0  0
   -6.3220    1.9280  -79.0780 C   0  0  0  0  0  0  0  0  0  0  0  0
   -7.0550    1.0620  -80.0500 C   0  0  0  0  0  0  0  0  0  0  0  0
   -7.3210    1.5560  -81.4850 C   0  0  0  0  0  0  0  0  0  0  0  0
   -7.5080   -0.2000  -79.6390 C   0  0  0  0  0  0  0  0  0  0  0  0
   -8.0890    0.5550  -82.3720 C   0  0  0  0  0  0  0  0  0  0  0  0
   -8.2040   -1.0450  -80.5030 C   0  0  0  0  0  0  0  0  0  0  0  0
   -8.4810   -0.6820  -81.8190 C   0  0  0  0  0  0  0  0  0  0  0  0
  1  2  1  0
  2  3  1  0
  3  4  2  0
  3  5  1  0
  5  6  2  0
  5  7  1  0
  6  8  1  0
  7  9  2  0
  8 10  2  0
  9 10  1  0
 10 11  1  0
 11 12  1  0
 12 13  1  0
 13 14  1  0
 14 15  1  0
 15 16  1  0
 16 17  2  0
 16 18  1  0
 17 19  1  0
 18 20  2  0
 19 21  2  0
 20 21  1  0
M  END
>  <ref_url>  (44) 
https://fakepage.com

>  <submitter_name>  (44) 
Steph Wills

>  <submitter_email>  (44) 
stephanie.wills@dtc.ox.ac.uk

>  <submitter_institution>  (44) 
University of Oxford

>  <generation_date>  (44) 
2020-06-04

>  <method>  (44) 
Fragment network

>  <ref_mols>  (44) 
x0176_0B,x0212_0B

>  <ref_pdb>  (44) 
references/x0176-0B-x0212-0B-33888.holo_minimised_nolig.pdb

>  <original SMILES>  (44) 
CCC(=O)c1ccc(OCCOCc2ccccc2)cc1

>  <synthon>  (44) 
[Xe]c1ccccc1

>  <original_name>  (44) 
x0176-0B-x0212-0B-33888

>  <comRMSD_score>  (44) 
0.8907334789008338

>  <IF_score>  (44) 
0.3125

>  <SuCOS_score>  (44) 
0.4073262998810021

>  <compound_ID>  (44) 
CHEMSPACE-BB:CSMB00014805432

$$$$

     RDKit          3D

 25 26  0  0  0  0  0  0  0  0999 V2000
  -12.7580    5.7750  -78.1670 C   0  0  0  0  0  0  0  0  0  0  0  0
  -12.9990    4.8060  -77.0250 C   0  0  0  0  0  0  0  0  0  0  0  0
  -13.3880    5.5550  -75.7500 C   0  0  0  0  0  0  0  0  0  0  0  0
  -11.7790    3.9360  -76.8280 C   0  0  0  0  0  0  0  0  0  0  0  0
  -10.5780    4.1740  -77.5120 C   0  0  0  0  0  0  0  0  0  0  0  0
  -11.8630    2.8570  -75.9370 C   0  0  0  0  0  0  0  0  0  0  0  0
   -9.4760    3.3400  -77.3100 C   0  0  0  0  0  0  0  0  0  0  0  0
  -10.7910    2.0020  -75.7060 C   0  0  0  0  0  0  0  0  0  0  0  0
   -9.5840    2.1830  -76.3580 C   0  0  0  0  0  0  0  0  0  0  0  0
   -8.5390    1.2870  -76.1070 C   0  0  0  0  0  0  0  0  0  0  0  0
   -8.8040    0.0970  -75.9520 O   0  0  0  0  0  0  0  0  0  0  0  0
   -7.4250    1.7980  -76.0660 O   0  0  0  0  0  0  0  0  0  0  0  0
   -6.3400    0.8580  -76.1210 C   0  0  0  0  0  0  0  0  0  0  0  0
   -5.6960    1.0020  -77.4630 C   0  0  0  0  0  0  0  0  0  0  0  0
   -5.1130    0.0740  -78.0410 O   0  0  0  0  0  0  0  0  0  0  0  0
   -5.8060    2.2380  -78.0370 N   0  0  0  0  0  0  0  0  0  0  0  0
   -6.9730    2.8050  -78.0270 N   0  0  0  0  0  0  0  0  0  0  0  0
   -7.6340    3.0720  -79.1720 C   0  0  0  0  0  0  0  0  0  0  0  0
   -8.0210    4.1910  -79.4740 O   0  0  0  0  0  0  0  0  0  0  0  0
   -7.8750    1.9250  -80.0900 C   0  0  0  0  0  0  0  0  0  0  0  0
   -7.7130    0.5980  -79.6840 C   0  0  0  0  0  0  0  0  0  0  0  0
   -8.2660    2.2040  -81.3930 C   0  0  0  0  0  0  0  0  0  0  0  0
   -7.9330   -0.4240  -80.5830 C   0  0  0  0  0  0  0  0  0  0  0  0
   -8.4870    1.1780  -82.2810 C   0  0  0  0  0  0  0  0  0  0  0  0
   -8.3170   -0.1300  -81.8850 C   0  0  0  0  0  0  0  0  0  0  0  0
  1  2  1  0
  2  3  1  0
  2  4  1  0
  4  5  2  0
  4  6  1  0
  5  7  1  0
  6  8  2  0
  7  9  2  0
  8  9  1  0
  9 10  1  0
 10 11  2  0
 10 12  1  0
 12 13  1  0
 13 14  1  0
 14 15  2  0
 14 16  1  0
 16 17  1  0
 17 18  1  0
 18 19  2  0
 18 20  1  0
 20 21  2  0
 20 22  1  0
 21 23  1  0
 22 24  2  0
 23 25  2  0
 24 25  1  0
M  END
>  <ref_url>  (45) 
https://fakepage.com

>  <submitter_name>  (45) 
Steph Wills

>  <submitter_email>  (45) 
stephanie.wills@dtc.ox.ac.uk

>  <submitter_institution>  (45) 
University of Oxford

>  <generation_date>  (45) 
2020-06-04

>  <method>  (45) 
Fragment network

>  <ref_mols>  (45) 
x0176_0B,x0212_0B

>  <ref_pdb>  (45) 
references/x0176-0B-x0212-0B-39964.holo_minimised_nolig.pdb

>  <original SMILES>  (45) 
CC(C)c1ccc(C(=O)OCC(=O)NNC(=O)c2ccccc2)cc1

>  <synthon>  (45) 
[Xe]c1ccccc1

>  <original_name>  (45) 
x0176-0B-x0212-0B-39964

>  <comRMSD_score>  (45) 
0.7942851037800943

>  <IF_score>  (45) 
0.3333333333333333

>  <SuCOS_score>  (45) 
0.4818600567711922

>  <compound_ID>  (45) 
MOLPORT:009-240-635

$$$$

     RDKit          3D

 20 21  0  0  0  0  0  0  0  0999 V2000
   -6.6110    3.8480  -75.9880 C   0  0  0  0  0  0  0  0  0  0  0  0
   -6.4770    2.4450  -76.6030 C   0  0  0  0  0  0  0  0  0  0  0  0
   -7.4720    2.2110  -77.6790 N   0  0  0  0  0  0  0  0  0  0  0  0
   -6.8440    1.9410  -78.9720 C   0  0  0  0  0  0  0  0  0  0  0  0
   -8.2260    3.3180  -77.8980 C   0  0  0  0  0  0  0  0  0  0  0  0
   -7.8710    1.3280  -79.8880 C   0  0  0  0  0  0  0  0  0  0  0  0
   -9.5750    3.4230  -77.2470 C   0  0  0  0  0  0  0  0  0  0  0  0
   -8.4330    0.1020  -79.5200 C   0  0  0  0  0  0  0  0  0  0  0  0
   -8.2800    1.9410  -81.0870 C   0  0  0  0  0  0  0  0  0  0  0  0
  -10.2590    4.4930  -77.7350 C   0  0  0  0  0  0  0  0  0  0  0  0
  -10.1570    2.5990  -76.2680 C   0  0  0  0  0  0  0  0  0  0  0  0
   -9.3860   -0.5100  -80.3230 C   0  0  0  0  0  0  0  0  0  0  0  0
   -9.2330    1.3190  -81.8850 C   0  0  0  0  0  0  0  0  0  0  0  0
  -11.5790    4.8030  -77.2690 C   0  0  0  0  0  0  0  0  0  0  0  0
  -11.4620    2.9000  -75.8140 C   0  0  0  0  0  0  0  0  0  0  0  0
   -9.7850    0.0990  -81.5020 C   0  0  0  0  0  0  0  0  0  0  0  0
  -12.1650    4.0090  -76.3290 C   0  0  0  0  0  0  0  0  0  0  0  0
  -13.4450    4.3720  -75.9520 C   0  0  2  0  0  0  0  0  0  0  0  0
  -13.5410    5.7220  -75.6520 C   0  0  0  0  0  0  0  0  0  0  0  0
  -13.7370    3.6930  -74.7310 O   0  0  0  0  0  0  0  0  0  0  0  0
  1  2  1  0
  2  3  1  0
  3  4  1  0
  3  5  1  0
  4  6  1  0
  5  7  1  0
  6  8  2  0
  6  9  1  0
  7 10  2  0
  7 11  1  0
  8 12  1  0
  9 13  2  0
 10 14  1  0
 11 15  2  0
 12 16  2  0
 13 16  1  0
 14 17  2  0
 15 17  1  0
 17 18  1  0
 18 19  1  1
 18 20  1  0
M  END
>  <ref_url>  (46) 
https://fakepage.com

>  <submitter_name>  (46) 
Steph Wills

>  <submitter_email>  (46) 
stephanie.wills@dtc.ox.ac.uk

>  <submitter_institution>  (46) 
University of Oxford

>  <generation_date>  (46) 
2020-06-04

>  <method>  (46) 
Fragment network

>  <ref_mols>  (46) 
x0176_0B,x0212_0B

>  <ref_pdb>  (46) 
references/x0176-0B-x0212-0B-42070.holo_minimised_nolig.pdb

>  <original SMILES>  (46) 
CCN(Cc1ccccc1)Cc1ccc(C(C)O)cc1

>  <synthon>  (46) 
[Xe]c1ccccc1

>  <original_name>  (46) 
x0176-0B-x0212-0B-42070

>  <comRMSD_score>  (46) 
0.9524974038535884

>  <IF_score>  (46) 
0.675

>  <SuCOS_score>  (46) 
0.5128503727436704

>  <compound_ID>  (46) 
CHEMSPACE-BB:CSMB00010973522

$$$$

     RDKit          3D

 18 19  0  0  0  0  0  0  0  0999 V2000
  -13.1900    5.9290  -75.7460 C   0  0  0  0  0  0  0  0  0  0  0  0
  -12.6850    5.0580  -76.8830 C   0  0  0  0  0  0  0  0  0  0  0  0
  -13.4700    5.3120  -78.0390 O   0  0  0  0  0  0  0  0  0  0  0  0
  -11.5960    4.1660  -76.7000 C   0  0  0  0  0  0  0  0  0  0  0  0
  -11.7950    2.8750  -75.9300 C   0  0  0  0  0  0  0  0  0  0  0  0
  -10.3090    4.4390  -77.1910 C   0  0  0  0  0  0  0  0  0  0  0  0
  -10.7030    2.0160  -75.7260 C   0  0  0  0  0  0  0  0  0  0  0  0
   -9.2570    3.5510  -76.9290 C   0  0  0  0  0  0  0  0  0  0  0  0
   -9.4730    2.3940  -76.2310 C   0  0  0  0  0  0  0  0  0  0  0  0
   -7.5150    3.7670  -77.3980 S   0  0  0  0  0  0  0  0  0  0  0  0
   -7.5690    3.5690  -79.0930 C   0  0  0  0  0  0  0  0  0  0  0  0
   -7.0470    2.3110  -79.2970 C   0  0  0  0  0  0  0  0  0  0  0  0
   -7.9810    1.4360  -80.0360 C   0  0  0  0  0  0  0  0  0  0  0  0
   -8.5520    1.9310  -81.3420 C   0  0  0  0  0  0  0  0  0  0  0  0
   -8.3410    0.1780  -79.5450 C   0  0  0  0  0  0  0  0  0  0  0  0
   -9.4230    1.1230  -82.0220 C   0  0  0  0  0  0  0  0  0  0  0  0
   -9.2300   -0.6370  -80.2510 C   0  0  0  0  0  0  0  0  0  0  0  0
   -9.7700   -0.2000  -81.4560 C   0  0  0  0  0  0  0  0  0  0  0  0
  1  2  1  0
  2  3  2  0
  2  4  1  0
  4  5  2  0
  4  6  1  0
  5  7  1  0
  6  8  2  0
  7  9  2  0
  8  9  1  0
  8 10  1  0
 10 11  1  0
 11 12  1  0
 12 13  1  0
 13 14  2  0
 13 15  1  0
 14 16  1  0
 15 17  2  0
 16 18  2  0
 17 18  1  0
M  END
>  <ref_url>  (47) 
https://fakepage.com

>  <submitter_name>  (47) 
Steph Wills

>  <submitter_email>  (47) 
stephanie.wills@dtc.ox.ac.uk

>  <submitter_institution>  (47) 
University of Oxford

>  <generation_date>  (47) 
2020-06-04

>  <method>  (47) 
Fragment network

>  <ref_mols>  (47) 
x0176_0B,x0212_0B

>  <ref_pdb>  (47) 
references/x0176-0B-x0212-0B-44071.holo_minimised_nolig.pdb

>  <original SMILES>  (47) 
CC(=O)c1cccc(SCCc2ccccc2)c1

>  <synthon>  (47) 
[Xe]c1ccccc1

>  <original_name>  (47) 
x0176-0B-x0212-0B-44071

>  <comRMSD_score>  (47) 
0.7474170013540241

>  <IF_score>  (47) 
0.75

>  <SuCOS_score>  (47) 
0.4599457950782455

>  <compound_ID>  (47) 
CHEMSPACE-BB:CSMB00003551575

$$$$

     RDKit          3D

 23 24  0  0  0  0  0  0  0  0999 V2000
  -13.3670    6.1460  -75.7970 C   0  0  0  0  0  0  0  0  0  0  0  0
  -13.0500    5.3870  -77.0550 C   0  0  0  0  0  0  0  0  0  0  0  0
  -11.8230    4.5510  -76.8420 C   0  0  0  0  0  0  0  0  0  0  0  0
  -10.7160    4.7580  -77.6530 C   0  0  0  0  0  0  0  0  0  0  0  0
  -11.7640    3.5690  -75.8440 C   0  0  0  0  0  0  0  0  0  0  0  0
   -9.5710    4.0090  -77.4740 C   0  0  0  0  0  0  0  0  0  0  0  0
  -10.6030    2.8140  -75.6690 C   0  0  0  0  0  0  0  0  0  0  0  0
   -9.5030    3.0460  -76.4930 C   0  0  0  0  0  0  0  0  0  0  0  0
   -8.3550    2.3080  -76.3130 N   0  0  0  0  0  0  0  0  0  0  0  0
   -7.1930    2.5850  -76.9770 C   0  0  0  0  0  0  0  0  0  0  0  0
   -6.4960    3.5820  -76.8780 O   0  0  0  0  0  0  0  0  0  0  0  0
   -6.8900    1.5270  -77.7950 N   0  0  0  0  0  0  0  0  0  0  0  0
   -6.4860    1.5850  -79.2060 C   0  0  2  0  0  0  0  0  0  0  0  0
   -5.6620    2.8170  -79.6670 C   0  0  0  0  0  0  0  0  0  0  0  0
   -7.6860    1.1790  -80.0470 C   0  0  0  0  0  0  0  0  0  0  0  0
   -6.2930    4.1880  -79.4930 C   0  0  0  0  0  0  0  0  0  0  0  0
   -8.1430    1.8900  -81.1740 C   0  0  0  0  0  0  0  0  0  0  0  0
   -8.3700    0.0140  -79.6680 C   0  0  0  0  0  0  0  0  0  0  0  0
   -7.7270    4.1570  -79.7440 C   0  0  0  0  0  0  0  0  0  0  0  0
   -9.2460    1.4230  -81.8840 C   0  0  0  0  0  0  0  0  0  0  0  0
   -9.4700   -0.4400  -80.3800 C   0  0  0  0  0  0  0  0  0  0  0  0
   -8.8620    4.1640  -79.9280 N   0  0  0  0  0  0  0  0  0  0  0  0
   -9.9060    0.2630  -81.4850 C   0  0  0  0  0  0  0  0  0  0  0  0
  1  2  1  0
  2  3  1  0
  3  4  2  0
  3  5  1  0
  4  6  1  0
  5  7  2  0
  6  8  2  0
  7  8  1  0
  8  9  1  0
  9 10  1  0
 10 11  2  0
 10 12  1  0
 12 13  1  0
 13 14  1  6
 13 15  1  0
 14 16  1  0
 15 17  2  0
 15 18  1  0
 16 19  1  0
 17 20  1  0
 18 21  2  0
 19 22  3  0
 20 23  2  0
 21 23  1  0
M  END
>  <ref_url>  (48) 
https://fakepage.com

>  <submitter_name>  (48) 
Steph Wills

>  <submitter_email>  (48) 
stephanie.wills@dtc.ox.ac.uk

>  <submitter_institution>  (48) 
University of Oxford

>  <generation_date>  (48) 
2020-06-04

>  <method>  (48) 
Fragment network

>  <ref_mols>  (48) 
x0176_0B,x0212_0B

>  <ref_pdb>  (48) 
references/x0176-0B-x0212-0B-44358.holo_minimised_nolig.pdb

>  <original SMILES>  (48) 
CCc1ccc(NC(=O)NC(CCC#N)c2ccccc2)cc1

>  <synthon>  (48) 
[Xe]c1ccccc1

>  <original_name>  (48) 
x0176-0B-x0212-0B-44358

>  <comRMSD_score>  (48) 
0.72703139696571

>  <IF_score>  (48) 
0.675

>  <SuCOS_score>  (48) 
0.4883251972360273

>  <compound_ID>  (48) 
REAL:Z1487504788

$$$$

     RDKit          3D

 23 24  0  0  0  0  0  0  0  0999 V2000
  -13.3980    7.3020  -75.8150 C   0  0  0  0  0  0  0  0  0  0  0  0
  -13.4790    5.7780  -75.6570 C   0  0  0  0  0  0  0  0  0  0  0  0
  -12.7340    5.2840  -74.4110 C   0  0  0  0  0  0  0  0  0  0  0  0
  -12.8810    5.1410  -76.8520 C   0  0  0  0  0  0  0  0  0  0  0  0
  -13.3470    5.2900  -77.9740 O   0  0  0  0  0  0  0  0  0  0  0  0
  -11.7350    4.3600  -76.7330 C   0  0  0  0  0  0  0  0  0  0  0  0
  -10.6310    4.6500  -77.5070 C   0  0  0  0  0  0  0  0  0  0  0  0
  -11.6650    3.2820  -75.8320 C   0  0  0  0  0  0  0  0  0  0  0  0
   -9.4030    3.8240  -77.3470 C   0  0  0  0  0  0  0  0  0  0  0  0
  -10.5140    2.5080  -75.6880 C   0  0  0  0  0  0  0  0  0  0  0  0
   -9.3780    2.7750  -76.4360 C   0  0  0  0  0  0  0  0  0  0  0  0
   -8.1740    2.0700  -76.3530 N   0  0  0  0  0  0  0  0  0  0  0  0
   -7.0020    2.4840  -76.9570 C   0  0  0  0  0  0  0  0  0  0  0  0
   -5.7080    2.5750  -76.3290 O   0  0  0  0  0  0  0  0  0  0  0  0
   -7.2550    2.8150  -78.2730 N   0  0  0  0  0  0  0  0  0  0  0  0
   -8.4640    3.5330  -78.6210 C   0  0  0  0  0  0  0  0  0  0  0  0
   -6.7370    2.0690  -79.2630 C   0  0  0  0  0  0  0  0  0  0  0  0
   -7.7940    1.3670  -80.0650 C   0  0  0  0  0  0  0  0  0  0  0  0
   -8.3330    1.9220  -81.2310 C   0  0  0  0  0  0  0  0  0  0  0  0
   -8.2710    0.1190  -79.6430 C   0  0  0  0  0  0  0  0  0  0  0  0
   -9.3110    1.2380  -81.9390 C   0  0  0  0  0  0  0  0  0  0  0  0
   -9.2490   -0.5650  -80.3460 C   0  0  0  0  0  0  0  0  0  0  0  0
   -9.7720   -0.0030  -81.5000 C   0  0  0  0  0  0  0  0  0  0  0  0
  1  2  1  0
  2  3  1  0
  2  4  1  0
  4  5  2  0
  4  6  1  0
  6  7  2  0
  6  8  1  0
  7  9  1  0
  8 10  2  0
  9 11  2  0
 10 11  1  0
 11 12  1  0
 12 13  1  0
 13 14  2  0
 13 15  1  0
 15 16  1  0
 15 17  1  0
 17 18  1  0
 18 19  2  0
 18 20  1  0
 19 21  1  0
 20 22  2  0
 21 23  2  0
 22 23  1  0
M  END
>  <ref_url>  (49) 
https://fakepage.com

>  <submitter_name>  (49) 
Steph Wills

>  <submitter_email>  (49) 
stephanie.wills@dtc.ox.ac.uk

>  <submitter_institution>  (49) 
University of Oxford

>  <generation_date>  (49) 
2020-06-04

>  <method>  (49) 
Fragment network

>  <ref_mols>  (49) 
x0176_0B,x0212_0B

>  <ref_pdb>  (49) 
references/x0176-0B-x0212-0B-44458.holo_minimised_nolig.pdb

>  <original SMILES>  (49) 
CC(C)C(=O)c1ccc(NC(=O)N(C)Cc2ccccc2)cc1

>  <synthon>  (49) 
[Xe]c1ccccc1

>  <original_name>  (49) 
x0176-0B-x0212-0B-44458

>  <comRMSD_score>  (49) 
0.7420056499888562

>  <IF_score>  (49) 
0.8

>  <SuCOS_score>  (49) 
0.523488477034486

>  <compound_ID>  (49) 
REAL:PV-001947070439

$$$$

     RDKit          3D

 22 23  0  0  0  0  0  0  0  0999 V2000
  -12.5150    6.4630  -73.5130 C   0  0  0  0  0  0  0  0  0  0  0  0
  -12.8250    6.6790  -74.9620 C   0  0  0  0  0  0  0  0  0  0  0  0
  -12.5860    7.9740  -75.5120 O   0  0  0  0  0  0  0  0  0  0  0  0
  -13.3850    5.5910  -75.8210 C   0  0  0  0  0  0  0  0  0  0  0  0
  -12.7030    5.4570  -77.0140 C   0  0  0  0  0  0  0  0  0  0  0  0
  -11.6380    4.5650  -77.0560 C   0  0  0  0  0  0  0  0  0  0  0  0
  -10.6300    4.7990  -77.9700 C   0  0  0  0  0  0  0  0  0  0  0  0
  -11.5380    3.4300  -76.2230 C   0  0  0  0  0  0  0  0  0  0  0  0
   -9.5200    3.8400  -78.0260 C   0  0  0  0  0  0  0  0  0  0  0  0
  -10.4610    2.5210  -76.2930 C   0  0  0  0  0  0  0  0  0  0  0  0
   -9.4320    2.7320  -77.2240 C   0  0  0  0  0  0  0  0  0  0  0  0
   -8.5350    1.9320  -77.2720 O   0  0  0  0  0  0  0  0  0  0  0  0
   -7.3390    2.4120  -76.7060 C   0  0  0  0  0  0  0  0  0  0  0  0
   -6.5740    3.3490  -77.6020 C   0  0  0  0  0  0  0  0  0  0  0  0
   -7.0300    3.2640  -78.8760 O   0  0  0  0  0  0  0  0  0  0  0  0
   -6.5720    2.1170  -79.5840 C   0  0  0  0  0  0  0  0  0  0  0  0
   -7.6520    1.4310  -80.1390 C   0  0  0  0  0  0  0  0  0  0  0  0
   -8.0890    0.2380  -79.5600 C   0  0  0  0  0  0  0  0  0  0  0  0
   -8.2780    1.9510  -81.2790 C   0  0  0  0  0  0  0  0  0  0  0  0
   -9.2530   -0.5240  -80.1590 C   0  0  0  0  0  0  0  0  0  0  0  0
   -9.3480    1.3070  -81.8890 C   0  0  0  0  0  0  0  0  0  0  0  0
   -9.8600    0.1120  -81.3930 C   0  0  0  0  0  0  0  0  0  0  0  0
  1  2  1  0
  2  3  2  0
  2  4  1  0
  4  5  1  0
  5  6  1  0
  6  7  2  0
  6  8  1  0
  7  9  1  0
  8 10  2  0
  9 11  2  0
 10 11  1  0
 11 12  1  0
 12 13  1  0
 13 14  1  0
 14 15  1  0
 15 16  1  0
 16 17  1  0
 17 18  2  0
 17 19  1  0
 18 20  1  0
 19 21  2  0
 20 22  2  0
 21 22  1  0
M  END
>  <ref_url>  (50) 
https://fakepage.com

>  <submitter_name>  (50) 
Steph Wills

>  <submitter_email>  (50) 
stephanie.wills@dtc.ox.ac.uk

>  <submitter_institution>  (50) 
University of Oxford

>  <generation_date>  (50) 
2020-06-04

>  <method>  (50) 
Fragment network

>  <ref_mols>  (50) 
x0176_0B,x0212_0B

>  <ref_pdb>  (50) 
references/x0176-0B-x0212-0B-46171.holo_minimised_nolig.pdb

>  <original SMILES>  (50) 
CC(=O)CCc1ccc(OCCOCc2ccccc2)cc1

>  <synthon>  (50) 
[Xe]c1ccccc1

>  <original_name>  (50) 
x0176-0B-x0212-0B-46171

>  <comRMSD_score>  (50) 
0.8216808202522254

>  <IF_score>  (50) 
0.675

>  <SuCOS_score>  (50) 
0.5164666098854357

>  <compound_ID>  (50) 
CHEMSPACE-BB:CSMB00014805433

$$$$

     RDKit          3D

 22 23  0  0  0  0  0  0  0  0999 V2000
   -6.3040    0.3100  -77.2940 C   0  0  0  0  0  0  0  0  0  0  0  0
   -6.7180    1.6050  -77.8460 N   0  0  0  0  0  0  0  0  0  0  0  0
   -6.3420    1.8650  -79.2510 C   0  0  0  0  0  0  0  0  0  0  0  0
   -7.1790    2.7150  -77.0200 C   0  0  0  0  0  0  0  0  0  0  0  0
   -7.0350    1.0490  -80.1580 C   0  0  0  0  0  0  0  0  0  0  0  0
   -6.7170    3.8520  -77.0800 O   0  0  0  0  0  0  0  0  0  0  0  0
   -8.2400    2.3250  -76.1100 N   0  0  0  0  0  0  0  0  0  0  0  0
   -7.5190   -0.3040  -79.7480 C   0  0  0  0  0  0  0  0  0  0  0  0
   -7.3450    1.4370  -81.4740 C   0  0  0  0  0  0  0  0  0  0  0  0
   -9.4310    3.0350  -76.4230 C   0  0  0  0  0  0  0  0  0  0  0  0
   -8.2310   -1.1440  -80.5900 C   0  0  0  0  0  0  0  0  0  0  0  0
   -8.0720    0.5680  -82.3170 C   0  0  0  0  0  0  0  0  0  0  0  0
   -9.4910    4.0510  -77.5300 C   0  0  0  0  0  0  0  0  0  0  0  0
  -10.5740    2.7830  -75.6840 C   0  0  0  0  0  0  0  0  0  0  0  0
   -8.5050   -0.7000  -81.8760 C   0  0  0  0  0  0  0  0  0  0  0  0
  -10.6730    4.7090  -77.7840 C   0  0  0  0  0  0  0  0  0  0  0  0
  -11.7640    3.4670  -75.9630 C   0  0  0  0  0  0  0  0  0  0  0  0
  -11.8910    4.4310  -76.9840 C   0  0  0  0  0  0  0  0  0  0  0  0
  -13.0930    5.0820  -77.2220 C   0  0  0  0  0  0  0  0  0  0  0  0
  -13.5840    5.6300  -76.0330 C   0  0  0  0  0  0  0  0  0  0  0  0
  -12.6450    6.1330  -75.1700 N   0  0  0  0  0  0  0  0  0  0  0  0
  -14.7730    5.6680  -75.7470 O   0  0  0  0  0  0  0  0  0  0  0  0
  1  2  1  0
  2  3  1  0
  2  4  1  0
  3  5  1  0
  4  6  2  0
  4  7  1  0
  5  8  2  0
  5  9  1  0
  7 10  1  0
  8 11  1  0
  9 12  2  0
 10 13  2  0
 10 14  1  0
 11 15  2  0
 12 15  1  0
 13 16  1  0
 14 17  2  0
 16 18  2  0
 17 18  1  0
 18 19  1  0
 19 20  1  0
 20 21  1  0
 20 22  2  0
M  END
>  <ref_url>  (51) 
https://fakepage.com

>  <submitter_name>  (51) 
Steph Wills

>  <submitter_email>  (51) 
stephanie.wills@dtc.ox.ac.uk

>  <submitter_institution>  (51) 
University of Oxford

>  <generation_date>  (51) 
2020-06-04

>  <method>  (51) 
Fragment network

>  <ref_mols>  (51) 
x0176_0B,x0212_0B

>  <ref_pdb>  (51) 
references/x0176-0B-x0212-0B-47317.holo_minimised_nolig.pdb

>  <original SMILES>  (51) 
CN(Cc1ccccc1)C(=O)Nc1ccc(CC(N)=O)cc1

>  <synthon>  (51) 
[Xe]c1ccccc1

>  <original_name>  (51) 
x0176-0B-x0212-0B-47317

>  <comRMSD_score>  (51) 
0.9511418821605956

>  <IF_score>  (51) 
0.3541666666666666

>  <SuCOS_score>  (51) 
0.4740663244936314

>  <compound_ID>  (51) 
MOLPORT:009-053-078

$$$$

     RDKit          3D

 20 21  0  0  0  0  0  0  0  0999 V2000
  -13.6250    6.0070  -76.6040 C   0  0  0  0  0  0  0  0  0  0  0  0
  -13.0670    4.8900  -77.4460 C   0  0  0  0  0  0  0  0  0  0  0  0
  -13.8170    4.4470  -78.5750 O   0  0  0  0  0  0  0  0  0  0  0  0
  -11.7610    4.2480  -77.1050 C   0  0  0  0  0  0  0  0  0  0  0  0
  -11.6810    3.4240  -75.9810 C   0  0  0  0  0  0  0  0  0  0  0  0
  -10.6250    4.4640  -77.8880 C   0  0  0  0  0  0  0  0  0  0  0  0
  -10.4800    2.8310  -75.6390 C   0  0  0  0  0  0  0  0  0  0  0  0
   -9.4190    3.8690  -77.5460 C   0  0  0  0  0  0  0  0  0  0  0  0
   -9.3470    3.0540  -76.4120 C   0  0  0  0  0  0  0  0  0  0  0  0
   -8.1790    2.4970  -76.0840 O   0  0  0  0  0  0  0  0  0  0  0  0
   -7.0630    2.5440  -76.9670 C   0  0  0  0  0  0  0  0  0  0  0  0
   -6.0280    3.1580  -76.7720 O   0  0  0  0  0  0  0  0  0  0  0  0
   -7.3590    1.7960  -78.0630 C   0  0  0  0  0  0  0  0  0  0  0  0
   -6.9060    2.0470  -79.3270 C   0  0  0  0  0  0  0  0  0  0  0  0
   -7.4150    1.0940  -80.3230 C   0  0  0  0  0  0  0  0  0  0  0  0
   -7.6390    1.4830  -81.6340 C   0  0  0  0  0  0  0  0  0  0  0  0
   -7.6900   -0.2220  -79.9110 C   0  0  0  0  0  0  0  0  0  0  0  0
   -8.1400    0.5630  -82.5510 C   0  0  0  0  0  0  0  0  0  0  0  0
   -8.1940   -1.1320  -80.8310 C   0  0  0  0  0  0  0  0  0  0  0  0
   -8.4190   -0.7430  -82.1480 C   0  0  0  0  0  0  0  0  0  0  0  0
  1  2  1  0
  2  3  2  0
  2  4  1  0
  4  5  2  0
  4  6  1  0
  5  7  1  0
  6  8  2  0
  7  9  2  0
  8  9  1  0
  9 10  1  0
 10 11  1  0
 11 12  2  0
 11 13  1  0
 13 14  2  3
 14 15  1  0
 15 16  2  0
 15 17  1  0
 16 18  1  0
 17 19  2  0
 18 20  2  0
 19 20  1  0
M  END
>  <ref_url>  (52) 
https://fakepage.com

>  <submitter_name>  (52) 
Steph Wills

>  <submitter_email>  (52) 
stephanie.wills@dtc.ox.ac.uk

>  <submitter_institution>  (52) 
University of Oxford

>  <generation_date>  (52) 
2020-06-04

>  <method>  (52) 
Fragment network

>  <ref_mols>  (52) 
x0176_0B,x0212_0B

>  <ref_pdb>  (52) 
references/x0176-0B-x0212-0B-50670.holo_minimised_nolig.pdb

>  <original SMILES>  (52) 
CC(=O)c1ccc(OC(=O)C=Cc2ccccc2)cc1

>  <synthon>  (52) 
[Xe]c1ccccc1

>  <original_name>  (52) 
x0176-0B-x0212-0B-50670

>  <comRMSD_score>  (52) 
0.8226604244237363

>  <IF_score>  (52) 
0.2857142857142857

>  <SuCOS_score>  (52) 
0.4143132365407861

>  <compound_ID>  (52) 
MOLPORT:001-031-036

$$$$

     RDKit          3D

 22 23  0  0  0  0  0  0  0  0999 V2000
   -8.7280    3.8170  -79.3470 C   0  0  0  0  0  0  0  0  0  0  0  0
   -7.5760    3.6420  -78.3550 C   0  0  2  0  0  0  0  0  0  0  0  0
   -6.2980    3.8030  -79.1300 C   0  0  0  0  0  0  0  0  0  0  0  0
   -7.6180    2.3410  -77.4970 C   0  0  0  0  0  0  0  0  0  0  0  0
   -6.0620    2.9360  -79.9560 O   0  0  0  0  0  0  0  0  0  0  0  0
   -8.2020    2.4790  -76.4320 O   0  0  0  0  0  0  0  0  0  0  0  0
   -6.5280    1.6960  -79.4510 C   0  0  0  0  0  0  0  0  0  0  0  0
   -9.3800    3.1310  -76.5210 C   0  0  0  0  0  0  0  0  0  0  0  0
   -7.6430    1.2070  -80.1340 C   0  0  0  0  0  0  0  0  0  0  0  0
   -9.6480    4.1450  -77.4210 C   0  0  0  0  0  0  0  0  0  0  0  0
  -10.3700    2.7340  -75.6330 C   0  0  0  0  0  0  0  0  0  0  0  0
   -8.2270    0.0060  -79.6800 C   0  0  0  0  0  0  0  0  0  0  0  0
   -8.1900    1.8730  -81.2490 C   0  0  0  0  0  0  0  0  0  0  0  0
  -10.8720    4.7810  -77.4490 C   0  0  0  0  0  0  0  0  0  0  0  0
  -11.6160    3.3730  -75.6570 C   0  0  0  0  0  0  0  0  0  0  0  0
   -9.3380   -0.5420  -80.3160 C   0  0  0  0  0  0  0  0  0  0  0  0
   -9.2900    1.3520  -81.9020 C   0  0  0  0  0  0  0  0  0  0  0  0
  -11.8640    4.4020  -76.5680 C   0  0  0  0  0  0  0  0  0  0  0  0
   -9.9090    0.1830  -81.5120 C   0  0  0  0  0  0  0  0  0  0  0  0
  -13.0880    5.0560  -76.6160 C   0  0  2  0  0  0  0  0  0  0  0  0
  -13.2750    6.1510  -75.7970 C   0  0  0  0  0  0  0  0  0  0  0  0
  -14.1270    4.1300  -76.2960 O   0  0  0  0  0  0  0  0  0  0  0  0
  2  1  1  6
  2  3  1  0
  2  4  1  0
  3  5  1  0
  4  6  1  0
  5  7  1  0
  6  8  1  0
  7  9  1  0
  8 10  2  0
  8 11  1  0
  9 12  2  0
  9 13  1  0
 10 14  1  0
 11 15  2  0
 12 16  1  0
 13 17  2  0
 14 18  2  0
 15 18  1  0
 16 19  2  0
 17 19  1  0
 18 20  1  0
 20 21  1  1
 20 22  1  0
M  END
>  <ref_url>  (53) 
https://fakepage.com

>  <submitter_name>  (53) 
Steph Wills

>  <submitter_email>  (53) 
stephanie.wills@dtc.ox.ac.uk

>  <submitter_institution>  (53) 
University of Oxford

>  <generation_date>  (53) 
2020-06-04

>  <method>  (53) 
Fragment network

>  <ref_mols>  (53) 
x0176_0B,x0212_0B

>  <ref_pdb>  (53) 
references/x0176-0B-x0212-0B-54779.holo_minimised_nolig.pdb

>  <original SMILES>  (53) 
CC(COCc1ccccc1)COc1ccc(C(C)O)cc1

>  <synthon>  (53) 
[Xe]c1ccccc1

>  <original_name>  (53) 
x0176-0B-x0212-0B-54779

>  <comRMSD_score>  (53) 
0.8018452902930946

>  <IF_score>  (53) 
0.675

>  <SuCOS_score>  (53) 
0.4492817015369869

>  <compound_ID>  (53) 
CHEMSPACE-BB:CSMB00116409870, CHEMSPACE-BB:CSMB00116409874, CHEMSPACE-BB:CSMB00116409875

$$$$

     RDKit          3D

 24 25  0  0  0  0  0  0  0  0999 V2000
  -13.9160    7.4350  -73.3390 C   0  0  0  0  0  0  0  0  0  0  0  0
  -12.5090    6.4750  -73.8470 S   0  0  0  0  0  0  0  0  0  0  0  0
  -11.3220    7.1660  -73.3720 O   0  0  0  0  0  0  0  0  0  0  0  0
  -12.7320    5.0790  -73.5430 O   0  0  0  0  0  0  0  0  0  0  0  0
  -12.6020    6.6690  -75.5240 N   0  0  0  0  0  0  0  0  0  0  0  0
  -13.0890    5.5460  -76.3700 C   0  0  0  0  0  0  0  0  0  0  0  0
  -12.0420    4.9600  -77.3090 C   0  0  0  0  0  0  0  0  0  0  0  0
  -11.1370    4.0320  -76.7520 C   0  0  1  0  0  0  0  0  0  0  0  0
  -11.6930    2.8810  -76.1890 C   0  0  0  0  0  0  0  0  0  0  0  0
  -10.0590    3.5620  -77.6420 N   0  0  0  0  0  0  0  0  0  0  0  0
  -10.8460    1.8990  -75.6580 C   0  0  0  0  0  0  0  0  0  0  0  0
   -9.0290    2.7270  -77.0940 C   0  0  0  0  0  0  0  0  0  0  0  0
   -9.4110    4.3160  -78.6910 C   0  0  0  0  0  0  0  0  0  0  0  0
   -9.5150    1.7030  -76.3090 C   0  0  0  0  0  0  0  0  0  0  0  0
   -9.9760    4.9070  -79.5420 O   0  0  0  0  0  0  0  0  0  0  0  0
   -8.0380    4.2180  -78.5530 N   0  0  0  0  0  0  0  0  0  0  0  0
   -7.1250    3.6530  -79.4600 C   0  0  0  0  0  0  0  0  0  0  0  0
   -6.6390    2.3660  -79.2550 C   0  0  0  0  0  0  0  0  0  0  0  0
   -7.1550    1.3610  -80.0630 C   0  0  0  0  0  0  0  0  0  0  0  0
   -7.3850    1.6430  -81.4100 C   0  0  0  0  0  0  0  0  0  0  0  0
   -7.4650    0.0870  -79.5340 C   0  0  0  0  0  0  0  0  0  0  0  0
   -7.9710    0.5960  -82.3350 C   0  0  0  0  0  0  0  0  0  0  0  0
   -8.0160   -0.9350  -80.3260 C   0  0  0  0  0  0  0  0  0  0  0  0
   -8.2810   -0.7430  -81.6810 C   0  0  0  0  0  0  0  0  0  0  0  0
  1  2  1  0
  2  3  2  0
  2  4  2  0
  2  5  1  0
  5  6  1  0
  6  7  1  0
  8  7  1  6
  8  9  1  0
  8 10  1  0
  9 11  1  0
 10 12  1  0
 10 13  1  0
 11 14  1  0
 12 14  1  0
 13 15  2  0
 13 16  1  0
 16 17  1  0
 17 18  1  0
 18 19  1  0
 19 20  2  0
 19 21  1  0
 20 22  1  0
 21 23  2  0
 22 24  2  0
 23 24  1  0
M  END
>  <ref_url>  (54) 
https://fakepage.com

>  <submitter_name>  (54) 
Steph Wills

>  <submitter_email>  (54) 
stephanie.wills@dtc.ox.ac.uk

>  <submitter_institution>  (54) 
University of Oxford

>  <generation_date>  (54) 
2020-06-04

>  <method>  (54) 
Fragment network

>  <ref_mols>  (54) 
x0176_0B,x0212_0B

>  <ref_pdb>  (54) 
references/x0176-0B-x0212-0B-55718.holo_minimised_nolig.pdb

>  <original SMILES>  (54) 
CS(=O)(=O)NCCC1CCCCN1C(=O)NCCc1ccccc1

>  <synthon>  (54) 
[Xe]c1ccccc1

>  <original_name>  (54) 
x0176-0B-x0212-0B-55718

>  <comRMSD_score>  (54) 
0.9281446247457584

>  <IF_score>  (54) 
0.6875

>  <SuCOS_score>  (54) 
0.5549808552505299

>  <compound_ID>  (54) 
REAL:Z595788914, MOLPORT:009-336-934

$$$$

     RDKit          3D

 21 22  0  0  0  0  0  0  0  0999 V2000
  -14.6620    4.9240  -75.3010 O   0  0  0  0  0  0  0  0  0  0  0  0
  -13.6020    5.6820  -75.9120 C   0  0  0  0  0  0  0  0  0  0  0  0
  -13.1170    6.8760  -75.5210 O   0  0  0  0  0  0  0  0  0  0  0  0
  -12.9890    5.0430  -77.1590 C   0  0  0  0  0  0  0  0  0  0  0  0
  -11.7810    4.1730  -76.8000 C   0  0  0  0  0  0  0  0  0  0  0  0
  -10.5880    4.6140  -77.3400 C   0  0  0  0  0  0  0  0  0  0  0  0
  -11.8160    3.0130  -76.0060 C   0  0  0  0  0  0  0  0  0  0  0  0
   -9.4140    3.8960  -77.1070 C   0  0  0  0  0  0  0  0  0  0  0  0
  -10.6380    2.3000  -75.7740 C   0  0  0  0  0  0  0  0  0  0  0  0
   -9.4430    2.7470  -76.3320 C   0  0  0  0  0  0  0  0  0  0  0  0
   -8.2400    1.9990  -76.0990 N   0  0  0  0  0  0  0  0  0  0  0  0
   -7.0570    2.5230  -76.7890 C   0  0  0  0  0  0  0  0  0  0  0  0
   -5.8940    2.9230  -76.1920 O   0  0  0  0  0  0  0  0  0  0  0  0
   -7.2060    2.5890  -78.1560 N   0  0  0  0  0  0  0  0  0  0  0  0
   -6.4950    1.8790  -79.1520 C   0  0  0  0  0  0  0  0  0  0  0  0
   -7.2280    1.0370  -80.0230 C   0  0  0  0  0  0  0  0  0  0  0  0
   -7.5500    1.4650  -81.4460 C   0  0  0  0  0  0  0  0  0  0  0  0
   -7.6890   -0.2240  -79.5940 C   0  0  0  0  0  0  0  0  0  0  0  0
   -8.2800    0.5750  -82.2450 C   0  0  0  0  0  0  0  0  0  0  0  0
   -8.4180   -1.1050  -80.3920 C   0  0  0  0  0  0  0  0  0  0  0  0
   -8.7320   -0.7540  -81.7020 C   0  0  0  0  0  0  0  0  0  0  0  0
  1  2  2  0
  2  3  1  0
  2  4  1  0
  4  5  1  0
  5  6  2  0
  5  7  1  0
  6  8  1  0
  7  9  2  0
  8 10  2  0
  9 10  1  0
 10 11  1  0
 11 12  1  0
 12 13  2  0
 12 14  1  0
 14 15  1  0
 15 16  1  0
 16 17  2  0
 16 18  1  0
 17 19  1  0
 18 20  2  0
 19 21  2  0
 20 21  1  0
M  END
>  <ref_url>  (55) 
https://fakepage.com

>  <submitter_name>  (55) 
Steph Wills

>  <submitter_email>  (55) 
stephanie.wills@dtc.ox.ac.uk

>  <submitter_institution>  (55) 
University of Oxford

>  <generation_date>  (55) 
2020-06-04

>  <method>  (55) 
Fragment network

>  <ref_mols>  (55) 
x0176_0B,x0212_0B

>  <ref_pdb>  (55) 
references/x0176-0B-x0212-0B-56116.holo_minimised_nolig.pdb

>  <original SMILES>  (55) 
O=C(O)Cc1ccc(NC(=O)NCc2ccccc2)cc1

>  <synthon>  (55) 
[Xe]c1ccccc1

>  <original_name>  (55) 
x0176-0B-x0212-0B-56116

>  <comRMSD_score>  (55) 
0.9426779451824108

>  <IF_score>  (55) 
0.5

>  <SuCOS_score>  (55) 
0.4871175065103469

>  <compound_ID>  (55) 
CHEMSPACE-BB:CSMB00011427645

$$$$

     RDKit          3D

 22 23  0  0  0  0  0  0  0  0999 V2000
  -13.5360    3.9600  -78.2560 C   0  0  0  0  0  0  0  0  0  0  0  0
  -12.6880    4.7330  -77.2470 C   0  0  0  0  0  0  0  0  0  0  0  0
  -12.3240    6.0530  -77.8530 C   0  0  0  0  0  0  0  0  0  0  0  0
  -13.4630    5.0450  -75.9790 C   0  0  0  0  0  0  0  0  0  0  0  0
  -11.4410    3.8880  -76.8960 C   0  0  0  0  0  0  0  0  0  0  0  0
  -11.5530    2.8890  -75.9350 C   0  0  0  0  0  0  0  0  0  0  0  0
  -10.1730    4.0580  -77.4890 C   0  0  0  0  0  0  0  0  0  0  0  0
  -10.4810    2.0840  -75.5620 C   0  0  0  0  0  0  0  0  0  0  0  0
   -9.0900    3.2940  -77.1540 C   0  0  0  0  0  0  0  0  0  0  0  0
   -9.8500    4.9630  -78.4370 O   0  0  0  0  0  0  0  0  0  0  0  0
   -9.1340    2.2890  -76.2140 C   0  0  0  0  0  0  0  0  0  0  0  0
   -9.1860    4.2710  -79.5160 C   0  0  0  0  0  0  0  0  0  0  0  0
   -7.7930    4.2380  -79.5120 C   0  0  0  0  0  0  0  0  0  0  0  0
   -7.2290    3.7400  -78.3400 C   0  0  0  0  0  0  0  0  0  0  0  0
   -7.4500    2.5340  -78.3360 O   0  0  0  0  0  0  0  0  0  0  0  0
   -6.5780    1.8720  -79.2190 C   0  0  0  0  0  0  0  0  0  0  0  0
   -7.2260    1.0480  -80.1350 C   0  0  0  0  0  0  0  0  0  0  0  0
   -7.5880   -0.2510  -79.7910 C   0  0  0  0  0  0  0  0  0  0  0  0
   -7.5420    1.4480  -81.4360 C   0  0  0  0  0  0  0  0  0  0  0  0
   -8.2140   -1.1480  -80.6470 C   0  0  0  0  0  0  0  0  0  0  0  0
   -8.1670    0.5810  -82.3460 C   0  0  0  0  0  0  0  0  0  0  0  0
   -8.5030   -0.7270  -81.9480 C   0  0  0  0  0  0  0  0  0  0  0  0
  2  1  1  0
  2  3  1  0
  2  4  1  0
  2  5  1  0
  5  6  2  0
  5  7  1  0
  6  8  1  0
  7  9  2  0
  7 10  1  0
  8 11  2  0
  9 11  1  0
 10 12  1  0
 12 13  1  0
 13 14  1  0
 14 15  1  0
 15 16  1  0
 16 17  1  0
 17 18  2  0
 17 19  1  0
 18 20  1  0
 19 21  2  0
 20 22  2  0
 21 22  1  0
M  END
>  <ref_url>  (56) 
https://fakepage.com

>  <submitter_name>  (56) 
Steph Wills

>  <submitter_email>  (56) 
stephanie.wills@dtc.ox.ac.uk

>  <submitter_institution>  (56) 
University of Oxford

>  <generation_date>  (56) 
2020-06-04

>  <method>  (56) 
Fragment network

>  <ref_mols>  (56) 
x0176_0B,x0212_0B

>  <ref_pdb>  (56) 
references/x0176-0B-x0212-0B-56976.holo_minimised_nolig.pdb

>  <original SMILES>  (56) 
CC(C)(C)c1ccccc1OCCCOCc1ccccc1

>  <synthon>  (56) 
[Xe]c1ccccc1

>  <original_name>  (56) 
x0176-0B-x0212-0B-56976

>  <comRMSD_score>  (56) 
0.9235960202900678

>  <IF_score>  (56) 
0.3125

>  <SuCOS_score>  (56) 
0.4424623062202958

>  <compound_ID>  (56) 
CHEMSPACE-BB:CSMB00015071376

$$$$

     RDKit          3D

 21 22  0  0  0  0  0  0  0  0999 V2000
  -12.7130    6.4360  -75.4210 N   0  0  0  0  0  0  0  0  0  0  0  0
  -13.7290    5.6440  -76.1130 C   0  0  0  0  0  0  0  0  0  0  0  0
  -15.0670    5.5510  -75.6250 O   0  0  0  0  0  0  0  0  0  0  0  0
  -13.2260    4.9330  -77.3810 C   0  0  0  0  0  0  0  0  0  0  0  0
  -11.8650    4.2480  -77.1240 C   0  0  0  0  0  0  0  0  0  0  0  0
  -11.7990    3.2130  -75.9940 C   0  0  0  0  0  0  0  0  0  0  0  0
  -10.7510    4.5700  -77.8920 C   0  0  0  0  0  0  0  0  0  0  0  0
  -10.4170    2.6070  -75.8160 C   0  0  0  0  0  0  0  0  0  0  0  0
   -9.5350    3.9700  -77.6590 C   0  0  0  0  0  0  0  0  0  0  0  0
   -9.3810    3.0200  -76.6480 C   0  0  0  0  0  0  0  0  0  0  0  0
   -8.1640    2.4540  -76.4470 N   0  0  0  0  0  0  0  0  0  0  0  0
   -7.0530    2.8400  -77.2590 C   0  0  0  0  0  0  0  0  0  0  0  0
   -5.7440    3.1010  -76.9710 O   0  0  0  0  0  0  0  0  0  0  0  0
   -7.3670    2.9720  -78.6030 C   0  0  0  0  0  0  0  0  0  0  0  0
   -6.6160    2.2540  -79.5040 C   0  0  0  0  0  0  0  0  0  0  0  0
   -7.2160    1.2610  -80.2680 C   0  0  0  0  0  0  0  0  0  0  0  0
   -7.5410   -0.0830  -79.6760 C   0  0  0  0  0  0  0  0  0  0  0  0
   -7.5140    1.5140  -81.5980 C   0  0  0  0  0  0  0  0  0  0  0  0
   -8.1910   -1.1670  -80.5570 C   0  0  0  0  0  0  0  0  0  0  0  0
   -8.1020    0.5630  -82.4520 C   0  0  0  0  0  0  0  0  0  0  0  0
   -8.4470   -0.7330  -82.0240 C   0  0  0  0  0  0  0  0  0  0  0  0
  1  2  1  0
  2  3  2  0
  2  4  1  0
  4  5  1  0
  5  6  2  0
  5  7  1  0
  6  8  1  0
  7  9  2  0
  8 10  2  0
  9 10  1  0
 10 11  1  0
 11 12  1  0
 12 13  2  0
 12 14  1  0
 14 15  1  0
 15 16  1  0
 16 17  2  0
 16 18  1  0
 17 19  1  0
 18 20  2  0
 19 21  2  0
 20 21  1  0
M  END
>  <ref_url>  (57) 
https://fakepage.com

>  <submitter_name>  (57) 
Steph Wills

>  <submitter_email>  (57) 
stephanie.wills@dtc.ox.ac.uk

>  <submitter_institution>  (57) 
University of Oxford

>  <generation_date>  (57) 
2020-06-04

>  <method>  (57) 
Fragment network

>  <ref_mols>  (57) 
x0176_0B,x0212_0B

>  <ref_pdb>  (57) 
references/x0176-0B-x0212-0B-57733.holo_minimised_nolig.pdb

>  <original SMILES>  (57) 
NC(=O)Cc1ccc(NC(=O)CCc2ccccc2)cc1

>  <synthon>  (57) 
[Xe]c1ccccc1

>  <original_name>  (57) 
x0176-0B-x0212-0B-57733

>  <comRMSD_score>  (57) 
0.8373533453686071

>  <IF_score>  (57) 
0.2857142857142857

>  <SuCOS_score>  (57) 
0.4960724016422188

>  <compound_ID>  (57) 
REAL:Z364995958

$$$$

     RDKit          3D

 23 24  0  0  0  0  0  0  0  0999 V2000
  -13.0320    6.1930  -76.6290 C   0  0  0  0  0  0  0  0  0  0  0  0
  -13.1130    5.1690  -77.7330 C   0  0  0  0  0  0  0  0  0  0  0  0
  -12.0940    4.0670  -77.6140 C   0  0  0  0  0  0  0  0  0  0  0  0
  -10.8220    4.1920  -78.1630 C   0  0  0  0  0  0  0  0  0  0  0  0
  -12.4280    2.8890  -76.9350 C   0  0  0  0  0  0  0  0  0  0  0  0
   -9.8890    3.1770  -78.0490 C   0  0  0  0  0  0  0  0  0  0  0  0
  -11.4910    1.8620  -76.8130 C   0  0  0  0  0  0  0  0  0  0  0  0
  -10.2140    1.9940  -77.3680 C   0  0  0  0  0  0  0  0  0  0  0  0
   -9.2940    0.8600  -77.1840 N   0  0  0  0  0  0  0  0  0  0  0  0
   -7.9140    0.9840  -77.0700 C   0  0  0  0  0  0  0  0  0  0  0  0
   -7.2050    0.1060  -76.5970 O   0  0  0  0  0  0  0  0  0  0  0  0
   -7.3810    2.1660  -77.5220 N   0  0  0  0  0  0  0  0  0  0  0  0
   -7.7840    3.3760  -76.8040 C   0  0  0  0  0  0  0  0  0  0  0  0
   -6.9820    2.3360  -78.8540 C   0  0  0  0  0  0  0  0  0  0  0  0
   -9.0020    3.1240  -76.1570 C   0  0  0  0  0  0  0  0  0  0  0  0
   -7.7710    1.5460  -79.7020 C   0  0  0  0  0  0  0  0  0  0  0  0
   -9.5320    3.9670  -75.4520 O   0  0  0  0  0  0  0  0  0  0  0  0
   -8.1840    0.2860  -79.2690 C   0  0  0  0  0  0  0  0  0  0  0  0
   -8.1510    2.0140  -80.9870 C   0  0  0  0  0  0  0  0  0  0  0  0
  -10.9530    3.8790  -75.3120 C   0  0  0  0  0  0  0  0  0  0  0  0
   -9.0360   -0.5610  -80.1650 C   0  0  0  0  0  0  0  0  0  0  0  0
   -8.9430    1.2470  -81.8590 C   0  0  0  0  0  0  0  0  0  0  0  0
   -9.4080   -0.0150  -81.5080 C   0  0  0  0  0  0  0  0  0  0  0  0
  1  2  1  0
  2  3  1  0
  3  4  2  0
  3  5  1  0
  4  6  1  0
  5  7  2  0
  6  8  2  0
  7  8  1  0
  8  9  1  0
  9 10  1  0
 10 11  2  0
 10 12  1  0
 12 13  1  0
 12 14  1  0
 13 15  1  0
 14 16  1  0
 15 17  1  0
 16 18  2  0
 16 19  1  0
 17 20  1  0
 18 21  1  0
 19 22  2  0
 21 23  2  0
 22 23  1  0
M  END
>  <ref_url>  (58) 
https://fakepage.com

>  <submitter_name>  (58) 
Steph Wills

>  <submitter_email>  (58) 
stephanie.wills@dtc.ox.ac.uk

>  <submitter_institution>  (58) 
University of Oxford

>  <generation_date>  (58) 
2020-06-04

>  <method>  (58) 
Fragment network

>  <ref_mols>  (58) 
x0176_0B,x0212_0B

>  <ref_pdb>  (58) 
references/x0176-0B-x0212-0B-58046.holo_minimised_nolig.pdb

>  <original SMILES>  (58) 
CCc1ccc(NC(=O)N(CCOC)Cc2ccccc2)cc1

>  <synthon>  (58) 
[Xe]c1ccccc1

>  <original_name>  (58) 
x0176-0B-x0212-0B-58046

>  <comRMSD_score>  (58) 
0.9174153674981363

>  <IF_score>  (58) 
0.25

>  <SuCOS_score>  (58) 
0.48427719841402

>  <compound_ID>  (58) 
REAL:Z409953136

$$$$

     RDKit          3D

 23 24  0  0  0  0  0  0  0  0999 V2000
  -12.5580    6.4280  -73.8870 C   0  0  0  0  0  0  0  0  0  0  0  0
  -12.6850    6.5880  -75.2630 N   0  0  0  0  0  0  0  0  0  0  0  0
  -12.5640    7.9560  -75.7680 C   0  0  0  0  0  0  0  0  0  0  0  0
  -13.4630    5.6750  -75.9960 C   0  0  0  0  0  0  0  0  0  0  0  0
  -14.6110    5.3670  -75.6890 O   0  0  0  0  0  0  0  0  0  0  0  0
  -13.0140    5.0100  -77.1370 C   0  0  0  0  0  0  0  0  0  0  0  0
  -11.8130    4.3500  -76.9550 C   0  0  0  0  0  0  0  0  0  0  0  0
  -10.7160    4.6610  -77.7530 C   0  0  0  0  0  0  0  0  0  0  0  0
  -11.7380    3.3660  -75.9390 C   0  0  0  0  0  0  0  0  0  0  0  0
   -9.5190    4.0110  -77.5650 C   0  0  0  0  0  0  0  0  0  0  0  0
  -10.5530    2.6690  -75.6970 C   0  0  0  0  0  0  0  0  0  0  0  0
   -9.4570    2.9680  -76.4770 C   0  0  0  0  0  0  0  0  0  0  0  0
   -8.2820    2.3630  -76.3200 N   0  0  0  0  0  0  0  0  0  0  0  0
   -7.1310    2.7330  -77.0780 C   0  0  0  0  0  0  0  0  0  0  0  0
   -6.3520    3.9150  -76.9400 O   0  0  0  0  0  0  0  0  0  0  0  0
   -6.8460    1.7710  -77.9800 N   0  0  0  0  0  0  0  0  0  0  0  0
   -6.3740    1.9930  -79.2450 C   0  0  0  0  0  0  0  0  0  0  0  0
   -7.0780    1.0630  -80.1940 C   0  0  0  0  0  0  0  0  0  0  0  0
   -7.4930   -0.1960  -79.7430 C   0  0  0  0  0  0  0  0  0  0  0  0
   -7.3570    1.4330  -81.5250 C   0  0  0  0  0  0  0  0  0  0  0  0
   -8.1670   -1.0670  -80.5970 C   0  0  0  0  0  0  0  0  0  0  0  0
   -8.0330    0.5540  -82.3750 C   0  0  0  0  0  0  0  0  0  0  0  0
   -8.4340   -0.6910  -81.9090 C   0  0  0  0  0  0  0  0  0  0  0  0
  1  2  1  0
  2  3  1  0
  2  4  1  0
  4  5  2  0
  4  6  1  0
  6  7  1  0
  7  8  2  0
  7  9  1  0
  8 10  1  0
  9 11  2  0
 10 12  2  0
 11 12  1  0
 12 13  1  0
 13 14  1  0
 14 15  2  0
 14 16  1  0
 16 17  1  0
 17 18  1  0
 18 19  2  0
 18 20  1  0
 19 21  1  0
 20 22  2  0
 21 23  2  0
 22 23  1  0
M  END
>  <ref_url>  (59) 
https://fakepage.com

>  <submitter_name>  (59) 
Steph Wills

>  <submitter_email>  (59) 
stephanie.wills@dtc.ox.ac.uk

>  <submitter_institution>  (59) 
University of Oxford

>  <generation_date>  (59) 
2020-06-04

>  <method>  (59) 
Fragment network

>  <ref_mols>  (59) 
x0176_0B,x0212_0B

>  <ref_pdb>  (59) 
references/x0176-0B-x0212-0B-63589.holo_minimised_nolig.pdb

>  <original SMILES>  (59) 
CN(C)C(=O)Cc1ccc(NC(=O)NCc2ccccc2)cc1

>  <synthon>  (59) 
[Xe]c1ccccc1

>  <original_name>  (59) 
x0176-0B-x0212-0B-63589

>  <comRMSD_score>  (59) 
0.8310484453499195

>  <IF_score>  (59) 
0.3095238095238095

>  <SuCOS_score>  (59) 
0.5066672952669671

>  <compound_ID>  (59) 
REAL:Z435699880

$$$$

     RDKit          3D

 22 23  0  0  0  0  0  0  0  0999 V2000
  -13.5920    5.9690  -76.2590 C   0  0  0  0  0  0  0  0  0  0  0  0
  -12.5840    5.7910  -77.3880 C   0  0  0  0  0  0  0  0  0  0  0  0
  -11.7430    4.6980  -77.2820 C   0  0  0  0  0  0  0  0  0  0  0  0
  -11.6960    3.8630  -76.0540 C   0  0  0  0  0  0  0  0  0  0  0  0
  -10.9020    4.3180  -78.3060 C   0  0  0  0  0  0  0  0  0  0  0  0
  -10.8820    2.7690  -75.9440 C   0  0  0  0  0  0  0  0  0  0  0  0
  -10.0910    3.2000  -78.1630 C   0  0  0  0  0  0  0  0  0  0  0  0
  -10.0840    2.4180  -76.9890 C   0  0  0  0  0  0  0  0  0  0  0  0
   -9.3270    1.3390  -76.8260 O   0  0  0  0  0  0  0  0  0  0  0  0
   -8.1580    1.8240  -76.2860 C   0  0  0  0  0  0  0  0  0  0  0  0
   -7.4720    2.5260  -77.2480 C   0  0  0  0  0  0  0  0  0  0  0  0
   -8.2450    3.7190  -77.2670 O   0  0  0  0  0  0  0  0  0  0  0  0
   -6.6720    2.7200  -78.0370 N   0  0  0  0  0  0  0  0  0  0  0  0
   -6.9700    2.9240  -79.4640 C   0  0  0  0  0  0  0  0  0  0  0  0
   -7.7690    4.1710  -79.7730 C   0  0  0  0  0  0  0  0  0  0  0  0
   -5.6290    3.0450  -80.2200 C   0  0  0  0  0  0  0  0  0  0  0  0
   -7.8310    1.7850  -80.0360 C   0  0  0  0  0  0  0  0  0  0  0  0
   -8.4070    2.0260  -81.3670 C   0  0  0  0  0  0  0  0  0  0  0  0
   -8.1160    0.5480  -79.4260 C   0  0  0  0  0  0  0  0  0  0  0  0
   -9.1930    1.0820  -81.9870 C   0  0  0  0  0  0  0  0  0  0  0  0
   -8.9250   -0.3990  -80.0830 C   0  0  0  0  0  0  0  0  0  0  0  0
   -9.4540   -0.1300  -81.3500 C   0  0  0  0  0  0  0  0  0  0  0  0
  1  2  1  0
  2  3  1  0
  3  4  2  0
  3  5  1  0
  4  6  1  0
  5  7  2  0
  6  8  2  0
  7  8  1  0
  8  9  1  0
  9 10  1  0
 10 11  1  0
 11 12  2  0
 11 13  1  0
 14 13  1  0
 14 15  1  0
 14 16  1  0
 14 17  1  0
 17 18  2  0
 17 19  1  0
 18 20  1  0
 19 21  2  0
 20 22  2  0
 21 22  1  0
M  END
>  <ref_url>  (60) 
https://fakepage.com

>  <submitter_name>  (60) 
Steph Wills

>  <submitter_email>  (60) 
stephanie.wills@dtc.ox.ac.uk

>  <submitter_institution>  (60) 
University of Oxford

>  <generation_date>  (60) 
2020-06-04

>  <method>  (60) 
Fragment network

>  <ref_mols>  (60) 
x0176_0B,x0212_0B

>  <ref_pdb>  (60) 
references/x0176-0B-x0212-0B-63963.holo_minimised_nolig.pdb

>  <original SMILES>  (60) 
CCc1ccc(OCC(=O)NC(C)(C)c2ccccc2)cc1

>  <synthon>  (60) 
[Xe]c1ccccc1

>  <original_name>  (60) 
x0176-0B-x0212-0B-63963

>  <comRMSD_score>  (60) 
0.969909924100978

>  <IF_score>  (60) 
0.5

>  <SuCOS_score>  (60) 
0.4836085513613057

>  <compound_ID>  (60) 
REAL:Z875663778

$$$$

     RDKit          3D

 18 19  0  0  0  0  0  0  0  0999 V2000
  -12.7160    6.7970  -74.5610 N   0  0  0  0  0  0  0  0  0  0  0  0
  -13.2030    6.1390  -75.6330 C   0  0  0  0  0  0  0  0  0  0  0  0
  -13.2860    5.1060  -76.7080 C   0  0  0  0  0  0  0  0  0  0  0  0
  -11.9810    4.3790  -76.7620 C   0  0  0  0  0  0  0  0  0  0  0  0
  -10.9950    4.8250  -77.6040 C   0  0  0  0  0  0  0  0  0  0  0  0
  -11.7550    3.2380  -75.9660 C   0  0  0  0  0  0  0  0  0  0  0  0
   -9.8270    4.1390  -77.6560 C   0  0  0  0  0  0  0  0  0  0  0  0
  -10.5280    2.5550  -76.0450 C   0  0  0  0  0  0  0  0  0  0  0  0
   -9.5460    3.0270  -76.9260 C   0  0  0  0  0  0  0  0  0  0  0  0
   -8.3390    2.4300  -77.1050 C   0  0  0  0  0  0  0  0  0  0  0  0
   -7.3730    3.0430  -77.9190 N   0  0  0  0  0  0  0  0  0  0  0  0
   -6.8610    2.6080  -79.1300 C   0  0  0  0  0  0  0  0  0  0  0  0
   -7.8360    1.6570  -79.8280 C   0  0  0  0  0  0  0  0  0  0  0  0
   -8.3330    2.1630  -81.1400 C   0  0  0  0  0  0  0  0  0  0  0  0
   -8.2800    0.4070  -79.3680 C   0  0  0  0  0  0  0  0  0  0  0  0
   -9.2770    1.2910  -81.8780 C   0  0  0  0  0  0  0  0  0  0  0  0
   -9.1860   -0.3720  -80.1250 C   0  0  0  0  0  0  0  0  0  0  0  0
   -9.6840    0.0590  -81.3690 C   0  0  0  0  0  0  0  0  0  0  0  0
  1  2  1  0
  2  3  1  0
  3  4  1  0
  4  5  2  0
  4  6  1  0
  5  7  1  0
  6  8  2  0
  7  9  2  0
  8  9  1  0
  9 10  1  0
 10 11  1  0
 11 12  1  0
 12 13  1  0
 13 14  2  0
 13 15  1  0
 14 16  1  0
 15 17  2  0
 16 18  2  0
 17 18  1  0
M  END
>  <ref_url>  (61) 
https://fakepage.com

>  <submitter_name>  (61) 
Steph Wills

>  <submitter_email>  (61) 
stephanie.wills@dtc.ox.ac.uk

>  <submitter_institution>  (61) 
University of Oxford

>  <generation_date>  (61) 
2020-06-04

>  <method>  (61) 
Fragment network

>  <ref_mols>  (61) 
x0176_0B,x0212_0B

>  <ref_pdb>  (61) 
references/x0176-0B-x0212-0B-67961.holo_minimised_nolig.pdb

>  <original SMILES>  (61) 
NCCc1ccc(CNCc2ccccc2)cc1

>  <synthon>  (61) 
[Xe]c1ccccc1

>  <original_name>  (61) 
x0176-0B-x0212-0B-67961

>  <comRMSD_score>  (61) 
0.9811893081018226

>  <IF_score>  (61) 
0.675

>  <SuCOS_score>  (61) 
0.5567760945337268

>  <compound_ID>  (61) 
REAL:Z2354423917, CHEMSPACE-BB:CSMB00012038338

$$$$

     RDKit          3D

 22 23  0  0  0  0  0  0  0  0999 V2000
  -13.5940    5.4630  -76.2350 C   0  0  0  0  0  0  0  0  0  0  0  0
  -13.0740    4.6340  -77.4030 C   0  0  0  0  0  0  0  0  0  0  0  0
  -11.6900    4.0490  -77.0960 C   0  0  0  0  0  0  0  0  0  0  0  0
  -10.6000    4.4740  -78.0650 C   0  0  0  0  0  0  0  0  0  0  0  0
  -11.3970    3.1990  -76.0270 C   0  0  0  0  0  0  0  0  0  0  0  0
   -9.2470    3.9280  -77.7580 C   0  0  0  0  0  0  0  0  0  0  0  0
  -10.0930    2.7320  -75.8170 C   0  0  0  0  0  0  0  0  0  0  0  0
   -9.0280    3.0930  -76.6560 C   0  0  0  0  0  0  0  0  0  0  0  0
   -7.8680    2.7490  -76.5110 O   0  0  0  0  0  0  0  0  0  0  0  0
   -7.0590    3.9110  -76.3500 C   0  0  0  0  0  0  0  0  0  0  0  0
   -5.7090    3.7950  -76.5730 C   0  0  0  0  0  0  0  0  0  0  0  0
   -4.9500    4.5210  -75.9480 O   0  0  0  0  0  0  0  0  0  0  0  0
   -5.2780    2.9000  -77.5210 N   0  0  0  0  0  0  0  0  0  0  0  0
   -4.7630    3.3610  -78.7930 C   0  0  0  0  0  0  0  0  0  0  0  0
   -5.6720    2.6290  -79.7120 C   0  0  0  0  0  0  0  0  0  0  0  0
   -6.8840    2.1440  -79.2220 C   0  0  0  0  0  0  0  0  0  0  0  0
   -7.8730    1.3700  -80.0110 C   0  0  0  0  0  0  0  0  0  0  0  0
   -8.3780    0.1790  -79.4840 C   0  0  0  0  0  0  0  0  0  0  0  0
   -8.2870    1.8220  -81.2520 C   0  0  0  0  0  0  0  0  0  0  0  0
   -9.3020   -0.5630  -80.2040 C   0  0  0  0  0  0  0  0  0  0  0  0
   -9.2000    1.0780  -81.9610 C   0  0  0  0  0  0  0  0  0  0  0  0
   -9.7100   -0.1070  -81.4430 C   0  0  0  0  0  0  0  0  0  0  0  0
  1  2  1  0
  2  3  1  0
  3  4  2  0
  3  5  1  0
  4  6  1  0
  5  7  2  0
  6  8  2  0
  7  8  1  0
  8  9  1  0
  9 10  1  0
 10 11  1  0
 11 12  2  0
 11 13  1  0
 13 14  1  0
 14 15  1  0
 15 16  2  3
 16 17  1  0
 17 18  2  0
 17 19  1  0
 18 20  1  0
 19 21  2  0
 20 22  2  0
 21 22  1  0
M  END
>  <ref_url>  (62) 
https://fakepage.com

>  <submitter_name>  (62) 
Steph Wills

>  <submitter_email>  (62) 
stephanie.wills@dtc.ox.ac.uk

>  <submitter_institution>  (62) 
University of Oxford

>  <generation_date>  (62) 
2020-06-04

>  <method>  (62) 
Fragment network

>  <ref_mols>  (62) 
x0176_0B,x0212_0B

>  <ref_pdb>  (62) 
references/x0176-0B-x0212-0B-68206.holo_minimised_nolig.pdb

>  <original SMILES>  (62) 
CCc1ccc(OCC(=O)NCC=Cc2ccccc2)cc1

>  <synthon>  (62) 
[Xe]c1ccccc1

>  <original_name>  (62) 
x0176-0B-x0212-0B-68206

>  <comRMSD_score>  (62) 
0.7272783453854981

>  <IF_score>  (62) 
0.375

>  <SuCOS_score>  (62) 
0.4995159600934287

>  <compound_ID>  (62) 
REAL:Z1188556680

$$$$

     RDKit          3D

 21 22  0  0  0  0  0  0  0  0999 V2000
  -12.6950    7.5820  -76.4580 C   0  0  0  0  0  0  0  0  0  0  0  0
  -12.5740    6.6590  -77.4800 N   0  0  0  0  0  0  0  0  0  0  0  0
  -13.0420    5.3070  -77.2160 C   0  0  2  0  0  0  0  0  0  0  0  0
  -13.9630    5.2620  -76.0350 C   0  0  0  0  0  0  0  0  0  0  0  0
  -11.8280    4.4510  -76.9770 C   0  0  0  0  0  0  0  0  0  0  0  0
  -10.7830    4.4400  -77.8660 C   0  0  0  0  0  0  0  0  0  0  0  0
  -11.7080    3.6320  -75.8450 C   0  0  0  0  0  0  0  0  0  0  0  0
   -9.6590    3.6810  -77.6880 C   0  0  0  0  0  0  0  0  0  0  0  0
  -10.5680    2.8470  -75.6440 C   0  0  0  0  0  0  0  0  0  0  0  0
   -9.5220    2.8640  -76.5680 C   0  0  0  0  0  0  0  0  0  0  0  0
   -8.3760    2.1050  -76.3850 N   0  0  0  0  0  0  0  0  0  0  0  0
   -7.1650    2.4900  -76.8620 C   0  0  0  0  0  0  0  0  0  0  0  0
   -6.0780    2.4240  -76.3000 O   0  0  0  0  0  0  0  0  0  0  0  0
   -7.3190    2.9930  -78.1250 N   0  0  0  0  0  0  0  0  0  0  0  0
   -6.6810    2.3680  -79.2610 C   0  0  0  0  0  0  0  0  0  0  0  0
   -7.6630    1.4940  -79.9970 C   0  0  0  0  0  0  0  0  0  0  0  0
   -8.2460    1.9280  -81.2910 C   0  0  0  0  0  0  0  0  0  0  0  0
   -8.0800    0.2380  -79.5260 C   0  0  0  0  0  0  0  0  0  0  0  0
   -9.1380    1.1510  -81.9970 C   0  0  0  0  0  0  0  0  0  0  0  0
   -8.9930   -0.5370  -80.2600 C   0  0  0  0  0  0  0  0  0  0  0  0
   -9.5120   -0.0890  -81.4780 C   0  0  0  0  0  0  0  0  0  0  0  0
  1  2  1  0
  2  3  1  0
  3  4  1  1
  3  5  1  0
  5  6  2  0
  5  7  1  0
  6  8  1  0
  7  9  2  0
  8 10  2  0
  9 10  1  0
 10 11  1  0
 11 12  1  0
 12 13  2  0
 12 14  1  0
 14 15  1  0
 15 16  1  0
 16 17  2  0
 16 18  1  0
 17 19  1  0
 18 20  2  0
 19 21  2  0
 20 21  1  0
M  END
>  <ref_url>  (63) 
https://fakepage.com

>  <submitter_name>  (63) 
Steph Wills

>  <submitter_email>  (63) 
stephanie.wills@dtc.ox.ac.uk

>  <submitter_institution>  (63) 
University of Oxford

>  <generation_date>  (63) 
2020-06-04

>  <method>  (63) 
Fragment network

>  <ref_mols>  (63) 
x0176_0B,x0212_0B

>  <ref_pdb>  (63) 
references/x0176-0B-x0212-0B-69486.holo_minimised_nolig.pdb

>  <original SMILES>  (63) 
CNC(C)c1ccc(NC(=O)NCc2ccccc2)cc1

>  <synthon>  (63) 
[Xe]c1ccccc1

>  <original_name>  (63) 
x0176-0B-x0212-0B-69486

>  <comRMSD_score>  (63) 
0.7092690971513645

>  <IF_score>  (63) 
0.4166666666666667

>  <SuCOS_score>  (63) 
0.4955438042915455

>  <compound_ID>  (63) 
CHEMSPACE-BB:CSMB00011458247

$$$$

     RDKit          3D

 21 22  0  0  0  0  0  0  0  0999 V2000
  -11.8540    4.4180  -74.8440 C   0  0  0  0  0  0  0  0  0  0  0  0
  -12.3760    5.7740  -74.9120 N   0  0  0  0  0  0  0  0  0  0  0  0
  -12.5190    6.3910  -73.5970 C   0  0  0  0  0  0  0  0  0  0  0  0
  -13.3330    6.0620  -75.9570 C   0  0  0  0  0  0  0  0  0  0  0  0
  -13.0480    5.2470  -77.0430 C   0  0  0  0  0  0  0  0  0  0  0  0
  -11.8650    4.4890  -77.0040 C   0  0  0  0  0  0  0  0  0  0  0  0
  -11.7180    3.3610  -76.1900 C   0  0  0  0  0  0  0  0  0  0  0  0
  -10.7440    4.8090  -77.7870 C   0  0  0  0  0  0  0  0  0  0  0  0
  -10.4570    2.5650  -76.1600 C   0  0  0  0  0  0  0  0  0  0  0  0
   -9.5560    4.0680  -77.7720 C   0  0  0  0  0  0  0  0  0  0  0  0
   -9.3890    2.9440  -76.9660 C   0  0  0  0  0  0  0  0  0  0  0  0
   -8.1970    2.2570  -76.9940 C   0  0  0  0  0  0  0  0  0  0  0  0
   -7.3040    2.7620  -77.9010 N   0  0  0  0  0  0  0  0  0  0  0  0
   -6.8980    2.2410  -79.1260 C   0  0  0  0  0  0  0  0  0  0  0  0
   -5.5900    2.3540  -79.6950 O   0  0  0  0  0  0  0  0  0  0  0  0
   -7.8430    1.5300  -79.8800 C   0  0  0  0  0  0  0  0  0  0  0  0
   -8.3270    0.3070  -79.4310 C   0  0  0  0  0  0  0  0  0  0  0  0
   -8.3300    2.0100  -81.1050 C   0  0  0  0  0  0  0  0  0  0  0  0
   -9.2490   -0.4580  -80.1060 C   0  0  0  0  0  0  0  0  0  0  0  0
   -9.2670    1.2920  -81.8530 C   0  0  0  0  0  0  0  0  0  0  0  0
   -9.7760    0.0540  -81.4250 C   0  0  0  0  0  0  0  0  0  0  0  0
  1  2  1  0
  2  3  1  0
  2  4  1  0
  4  5  1  0
  5  6  1  0
  6  7  2  0
  6  8  1  0
  7  9  1  0
  8 10  2  0
  9 11  2  0
 10 11  1  0
 11 12  1  0
 12 13  1  0
 13 14  1  0
 14 15  2  0
 14 16  1  0
 16 17  2  0
 16 18  1  0
 17 19  1  0
 18 20  2  0
 19 21  2  0
 20 21  1  0
M  END
>  <ref_url>  (64) 
https://fakepage.com

>  <submitter_name>  (64) 
Steph Wills

>  <submitter_email>  (64) 
stephanie.wills@dtc.ox.ac.uk

>  <submitter_institution>  (64) 
University of Oxford

>  <generation_date>  (64) 
2020-06-04

>  <method>  (64) 
Fragment network

>  <ref_mols>  (64) 
x0176_0B,x0212_0B

>  <ref_pdb>  (64) 
references/x0176-0B-x0212-0B-70049.holo_minimised_nolig.pdb

>  <original SMILES>  (64) 
CN(C)CCc1ccc(CNC(=O)c2ccccc2)cc1

>  <synthon>  (64) 
[Xe]c1ccccc1

>  <original_name>  (64) 
x0176-0B-x0212-0B-70049

>  <comRMSD_score>  (64) 
0.5417477204313753

>  <IF_score>  (64) 
0.675

>  <SuCOS_score>  (64) 
0.5825784041471622

>  <compound_ID>  (64) 
REAL:Z1802494651

$$$$

     RDKit          3D

 23 24  0  0  0  0  0  0  0  0999 V2000
  -13.6410    5.6560  -75.8790 C   0  0  0  0  0  0  0  0  0  0  0  0
  -13.0820    4.9770  -77.1250 C   0  0  0  0  0  0  0  0  0  0  0  0
  -13.7220    5.0630  -78.1690 O   0  0  0  0  0  0  0  0  0  0  0  0
  -11.7510    4.2340  -76.9550 C   0  0  0  0  0  0  0  0  0  0  0  0
  -10.5870    4.6430  -77.8290 C   0  0  0  0  0  0  0  0  0  0  0  0
  -11.6330    3.2160  -76.0040 C   0  0  0  0  0  0  0  0  0  0  0  0
   -9.3240    3.8620  -77.5640 C   0  0  0  0  0  0  0  0  0  0  0  0
  -10.4320    2.5450  -75.8250 C   0  0  0  0  0  0  0  0  0  0  0  0
   -9.3060    2.8610  -76.5850 C   0  0  0  0  0  0  0  0  0  0  0  0
   -8.1280    2.1510  -76.3510 N   0  0  0  0  0  0  0  0  0  0  0  0
   -6.9780    2.6790  -77.0710 C   0  0  0  0  0  0  0  0  0  0  0  0
   -6.3500    3.8690  -76.8510 O   0  0  0  0  0  0  0  0  0  0  0  0
   -6.5790    1.7870  -78.0330 N   0  0  0  0  0  0  0  0  0  0  0  0
   -6.3530    2.1430  -79.4480 C   0  0  2  0  0  0  0  0  0  0  0  0
   -7.0180    1.1800  -80.2050 C   0  0  0  0  0  0  0  0  0  0  0  0
   -4.8190    2.3280  -79.7400 C   0  0  1  0  0  0  0  0  0  0  0  0
   -7.3510   -0.0620  -79.6940 C   0  0  0  0  0  0  0  0  0  0  0  0
   -7.4020    1.4440  -81.5440 C   0  0  0  0  0  0  0  0  0  0  0  0
   -4.4770    1.9370  -81.0340 C   0  0  0  0  0  0  0  0  0  0  0  0
   -4.4910    3.5130  -79.6260 O   0  0  0  0  0  0  0  0  0  0  0  0
   -8.0690   -1.0510  -80.5300 C   0  0  0  0  0  0  0  0  0  0  0  0
   -8.0850    0.5450  -82.3980 C   0  0  0  0  0  0  0  0  0  0  0  0
   -8.4610   -0.7380  -81.9750 C   0  0  0  0  0  0  0  0  0  0  0  0
  1  2  1  0
  2  3  2  0
  2  4  1  0
  4  5  2  0
  4  6  1  0
  5  7  1  0
  6  8  2  0
  7  9  2  0
  8  9  1  0
  9 10  1  0
 10 11  1  0
 11 12  2  0
 11 13  1  0
 14 13  1  1
 14 15  1  0
 14 16  1  0
 15 17  2  0
 15 18  1  0
 16 19  1  6
 16 20  1  0
 17 21  1  0
 18 22  2  0
 21 23  2  0
 22 23  1  0
M  END
>  <ref_url>  (65) 
https://fakepage.com

>  <submitter_name>  (65) 
Steph Wills

>  <submitter_email>  (65) 
stephanie.wills@dtc.ox.ac.uk

>  <submitter_institution>  (65) 
University of Oxford

>  <generation_date>  (65) 
2020-06-04

>  <method>  (65) 
Fragment network

>  <ref_mols>  (65) 
x0176_0B,x0212_0B

>  <ref_pdb>  (65) 
references/x0176-0B-x0212-0B-70191.holo_minimised_nolig.pdb

>  <original SMILES>  (65) 
CC(=O)c1ccc(NC(=O)NC(c2ccccc2)C(C)O)cc1

>  <synthon>  (65) 
[Xe]c1ccccc1

>  <original_name>  (65) 
x0176-0B-x0212-0B-70191

>  <comRMSD_score>  (65) 
0.9672904811895956

>  <IF_score>  (65) 
0.3095238095238095

>  <SuCOS_score>  (65) 
0.416431156224009

>  <compound_ID>  (65) 
REAL:PV-001941538676

$$$$

     RDKit          3D

 21 22  0  0  0  0  0  0  0  0999 V2000
   -5.8580    1.7040  -76.0950 C   0  0  0  0  0  0  0  0  0  0  0  0
   -7.1250    1.1030  -76.6550 C   0  0  0  0  0  0  0  0  0  0  0  0
   -7.6520    1.9660  -77.7120 N   0  0  0  0  0  0  0  0  0  0  0  0
   -6.9200    2.0820  -78.9120 C   0  0  0  0  0  0  0  0  0  0  0  0
   -8.0110    3.2430  -77.1790 C   0  0  0  0  0  0  0  0  0  0  0  0
   -7.3030    1.2160  -79.9160 C   0  0  0  0  0  0  0  0  0  0  0  0
   -9.4590    3.4680  -76.9420 C   0  0  0  0  0  0  0  0  0  0  0  0
   -7.4360    1.5610  -81.2810 C   0  0  0  0  0  0  0  0  0  0  0  0
   -7.6220   -0.1170  -79.5940 C   0  0  0  0  0  0  0  0  0  0  0  0
  -10.2340    2.8960  -75.9230 C   0  0  0  0  0  0  0  0  0  0  0  0
  -10.0410    4.3420  -77.8260 C   0  0  0  0  0  0  0  0  0  0  0  0
   -7.8640    0.6630  -82.2830 C   0  0  0  0  0  0  0  0  0  0  0  0
   -8.0440   -0.9990  -80.5770 C   0  0  0  0  0  0  0  0  0  0  0  0
  -11.5910    3.2480  -75.8290 C   0  0  0  0  0  0  0  0  0  0  0  0
  -11.3570    4.6900  -77.7390 C   0  0  0  0  0  0  0  0  0  0  0  0
   -8.1750   -0.6480  -81.9120 C   0  0  0  0  0  0  0  0  0  0  0  0
  -12.1420    4.1570  -76.7460 C   0  0  0  0  0  0  0  0  0  0  0  0
  -13.4610    4.5660  -76.7140 C   0  0  0  0  0  0  0  0  0  0  0  0
  -13.7620    5.2340  -75.5170 C   0  0  0  0  0  0  0  0  0  0  0  0
  -12.7140    6.0960  -75.2800 N   0  0  0  0  0  0  0  0  0  0  0  0
  -12.5720    6.2150  -73.9130 C   0  0  0  0  0  0  0  0  0  0  0  0
  1  2  1  0
  2  3  1  0
  3  4  1  0
  3  5  1  0
  4  6  1  0
  5  7  1  0
  6  8  2  0
  6  9  1  0
  7 10  2  0
  7 11  1  0
  8 12  1  0
  9 13  2  0
 10 14  1  0
 11 15  2  0
 12 16  2  0
 13 16  1  0
 14 17  2  0
 15 17  1  0
 17 18  1  0
 18 19  1  0
 19 20  1  0
 20 21  1  0
M  END
>  <ref_url>  (66) 
https://fakepage.com

>  <submitter_name>  (66) 
Steph Wills

>  <submitter_email>  (66) 
stephanie.wills@dtc.ox.ac.uk

>  <submitter_institution>  (66) 
University of Oxford

>  <generation_date>  (66) 
2020-06-04

>  <method>  (66) 
Fragment network

>  <ref_mols>  (66) 
x0176_0B,x0212_0B

>  <ref_pdb>  (66) 
references/x0176-0B-x0212-0B-71358.holo_minimised_nolig.pdb

>  <original SMILES>  (66) 
CCN(Cc1ccccc1)Cc1ccc(CCNC)cc1

>  <synthon>  (66) 
[Xe]c1ccccc1

>  <original_name>  (66) 
x0176-0B-x0212-0B-71358

>  <comRMSD_score>  (66) 
0.9773520348369872

>  <IF_score>  (66) 
0.1428571428571428

>  <SuCOS_score>  (66) 
0.524968689091968

>  <compound_ID>  (66) 
CHEMSPACE-BB:CSMB00013842626

$$$$

     RDKit          3D

 22 23  0  0  0  0  0  0  0  0999 V2000
  -14.3490    4.2150  -78.0940 C   0  0  0  0  0  0  0  0  0  0  0  0
  -13.3090    4.9480  -77.2510 C   0  0  0  0  0  0  0  0  0  0  0  0
  -12.8140    6.1860  -77.9440 C   0  0  0  0  0  0  0  0  0  0  0  0
  -13.9620    5.4310  -75.9450 C   0  0  0  0  0  0  0  0  0  0  0  0
  -12.1320    4.0250  -77.0190 C   0  0  0  0  0  0  0  0  0  0  0  0
  -12.1530    3.2260  -75.8760 C   0  0  0  0  0  0  0  0  0  0  0  0
  -11.0650    3.9650  -77.9090 C   0  0  0  0  0  0  0  0  0  0  0  0
  -11.1160    2.3680  -75.6200 C   0  0  0  0  0  0  0  0  0  0  0  0
  -10.0310    3.1000  -77.6560 C   0  0  0  0  0  0  0  0  0  0  0  0
  -10.0770    2.3160  -76.5090 C   0  0  0  0  0  0  0  0  0  0  0  0
   -8.7730    1.1650  -76.0730 S   0  0  0  0  0  0  0  0  0  0  0  0
   -7.6770    2.5820  -76.0720 C   0  0  0  0  0  0  0  0  0  0  0  0
   -7.5860    3.1570  -77.4280 C   0  0  0  0  0  0  0  0  0  0  0  0
   -8.2850    4.0280  -77.9360 O   0  0  0  0  0  0  0  0  0  0  0  0
   -6.5620    2.6040  -78.2560 N   0  0  0  0  0  0  0  0  0  0  0  0
   -6.6440    2.6240  -79.6790 C   0  0  0  0  0  0  0  0  0  0  0  0
   -7.6560    1.6170  -80.1450 C   0  0  0  0  0  0  0  0  0  0  0  0
   -8.3790    1.9140  -81.2790 C   0  0  0  0  0  0  0  0  0  0  0  0
   -7.8900    0.3980  -79.4820 C   0  0  0  0  0  0  0  0  0  0  0  0
   -9.3140    1.0230  -81.7520 C   0  0  0  0  0  0  0  0  0  0  0  0
   -8.8430   -0.4970  -79.9730 C   0  0  0  0  0  0  0  0  0  0  0  0
   -9.5560   -0.1800  -81.1150 C   0  0  0  0  0  0  0  0  0  0  0  0
  2  1  1  0
  2  3  1  0
  2  4  1  0
  2  5  1  0
  5  6  2  0
  5  7  1  0
  6  8  1  0
  7  9  2  0
  8 10  2  0
  9 10  1  0
 10 11  1  0
 11 12  1  0
 12 13  1  0
 13 14  2  0
 13 15  1  0
 15 16  1  0
 16 17  1  0
 17 18  2  0
 17 19  1  0
 18 20  1  0
 19 21  2  0
 20 22  2  0
 21 22  1  0
M  END
>  <ref_url>  (67) 
https://fakepage.com

>  <submitter_name>  (67) 
Steph Wills

>  <submitter_email>  (67) 
stephanie.wills@dtc.ox.ac.uk

>  <submitter_institution>  (67) 
University of Oxford

>  <generation_date>  (67) 
2020-06-04

>  <method>  (67) 
Fragment network

>  <ref_mols>  (67) 
x0176_0B,x0212_0B

>  <ref_pdb>  (67) 
references/x0176-0B-x0212-0B-71520.holo_minimised_nolig.pdb

>  <original SMILES>  (67) 
CC(C)(C)c1ccc(SCC(=O)NCc2ccccc2)cc1

>  <synthon>  (67) 
[Xe]c1ccccc1

>  <original_name>  (67) 
x0176-0B-x0212-0B-71520

>  <comRMSD_score>  (67) 
0.9648504952897468

>  <IF_score>  (67) 
0.25

>  <SuCOS_score>  (67) 
0.4713341449862254

>  <compound_ID>  (67) 
REAL:Z24452827

$$$$

     RDKit          3D

 20 21  0  0  0  0  0  0  0  0999 V2000
  -13.5450    5.9760  -75.9190 C   0  0  0  0  0  0  0  0  0  0  0  0
  -12.6460    5.7710  -77.0950 C   0  0  0  0  0  0  0  0  0  0  0  0
  -11.6410    4.6810  -76.8750 C   0  0  0  0  0  0  0  0  0  0  0  0
  -11.8360    3.7000  -75.8980 C   0  0  0  0  0  0  0  0  0  0  0  0
  -10.4920    4.6270  -77.6540 C   0  0  0  0  0  0  0  0  0  0  0  0
  -10.9230    2.6740  -75.6800 C   0  0  0  0  0  0  0  0  0  0  0  0
   -9.5850    3.6060  -77.4390 C   0  0  0  0  0  0  0  0  0  0  0  0
   -9.7810    2.6220  -76.4600 C   0  0  0  0  0  0  0  0  0  0  0  0
   -8.7780    1.5400  -76.2460 C   0  0  0  0  0  0  0  0  0  0  0  0
   -7.6750    1.9450  -75.9980 O   0  0  0  0  0  0  0  0  0  0  0  0
   -7.6530    3.3280  -76.3370 C   0  0  0  0  0  0  0  0  0  0  0  0
   -7.4080    3.5950  -77.6550 C   0  0  0  0  0  0  0  0  0  0  0  0
   -7.0190    2.4110  -78.2220 N   0  0  0  0  0  0  0  0  0  0  0  0
   -6.8030    2.3200  -79.6440 C   0  0  0  0  0  0  0  0  0  0  0  0
   -7.7950    1.5170  -80.1960 C   0  0  0  0  0  0  0  0  0  0  0  0
   -8.1220    0.2820  -79.6130 C   0  0  0  0  0  0  0  0  0  0  0  0
   -8.4510    1.9680  -81.3360 C   0  0  0  0  0  0  0  0  0  0  0  0
   -9.1140   -0.5110  -80.1780 C   0  0  0  0  0  0  0  0  0  0  0  0
   -9.4440    1.2240  -81.9450 C   0  0  0  0  0  0  0  0  0  0  0  0
   -9.8060   -0.0020  -81.4120 C   0  0  0  0  0  0  0  0  0  0  0  0
  1  2  1  0
  2  3  1  0
  3  4  2  0
  3  5  1  0
  4  6  1  0
  5  7  2  0
  6  8  2  0
  7  8  1  0
  8  9  1  0
  9 10  1  0
 10 11  1  0
 11 12  1  0
 12 13  1  0
 13 14  1  0
 14 15  1  0
 15 16  2  0
 15 17  1  0
 16 18  1  0
 17 19  2  0
 18 20  2  0
 19 20  1  0
M  END
>  <ref_url>  (68) 
https://fakepage.com

>  <submitter_name>  (68) 
Steph Wills

>  <submitter_email>  (68) 
stephanie.wills@dtc.ox.ac.uk

>  <submitter_institution>  (68) 
University of Oxford

>  <generation_date>  (68) 
2020-06-04

>  <method>  (68) 
Fragment network

>  <ref_mols>  (68) 
x0176_0B,x0212_0B

>  <ref_pdb>  (68) 
references/x0176-0B-x0212-0B-71760.holo_minimised_nolig.pdb

>  <original SMILES>  (68) 
CCc1ccc(COCCNCc2ccccc2)cc1

>  <synthon>  (68) 
[Xe]c1ccccc1

>  <original_name>  (68) 
x0176-0B-x0212-0B-71760

>  <comRMSD_score>  (68) 
0.826211468877276

>  <IF_score>  (68) 
0.7083333333333333

>  <SuCOS_score>  (68) 
0.5186646017293903

>  <compound_ID>  (68) 
CHEMSPACE-BB:CSMB00109462147

$$$$

     RDKit          3D

 20 21  0  0  0  0  0  0  0  0999 V2000
  -13.3590    6.0090  -76.2700 C   0  0  0  0  0  0  0  0  0  0  0  0
  -13.2760    4.8900  -77.2910 C   0  0  2  0  0  0  0  0  0  0  0  0
  -14.2330    4.1180  -77.3660 O   0  0  0  0  0  0  0  0  0  0  0  0
  -11.9080    4.2610  -77.0740 C   0  0  0  0  0  0  0  0  0  0  0  0
  -11.7950    3.2150  -76.0310 C   0  0  0  0  0  0  0  0  0  0  0  0
  -10.7670    4.6230  -77.8020 C   0  0  0  0  0  0  0  0  0  0  0  0
  -10.5720    2.6260  -75.8060 C   0  0  0  0  0  0  0  0  0  0  0  0
   -9.5450    3.9960  -77.5400 C   0  0  0  0  0  0  0  0  0  0  0  0
   -9.4760    3.0150  -76.5490 C   0  0  0  0  0  0  0  0  0  0  0  0
   -8.2440    2.3500  -76.2490 N   0  0  0  0  0  0  0  0  0  0  0  0
   -7.1130    2.6190  -76.9200 C   0  0  0  0  0  0  0  0  0  0  0  0
   -6.4520    3.7310  -76.5210 O   0  0  0  0  0  0  0  0  0  0  0  0
   -6.7940    1.7210  -77.9050 N   0  0  0  0  0  0  0  0  0  0  0  0
   -6.2890    2.0810  -79.2730 C   0  0  0  0  0  0  0  0  0  0  0  0
   -7.0280    1.1210  -80.2030 C   0  0  0  0  0  0  0  0  0  0  0  0
   -7.4400   -0.1300  -79.7620 C   0  0  0  0  0  0  0  0  0  0  0  0
   -7.3450    1.4650  -81.5300 C   0  0  0  0  0  0  0  0  0  0  0  0
   -8.1320   -1.0410  -80.5470 C   0  0  0  0  0  0  0  0  0  0  0  0
   -8.0430    0.5630  -82.3500 C   0  0  0  0  0  0  0  0  0  0  0  0
   -8.4320   -0.6870  -81.8560 C   0  0  0  0  0  0  0  0  0  0  0  0
  2  1  1  1
  2  3  1  0
  2  4  1  0
  4  5  2  0
  4  6  1  0
  5  7  1  0
  6  8  2  0
  7  9  2  0
  8  9  1  0
  9 10  1  0
 10 11  1  0
 11 12  2  0
 11 13  1  0
 13 14  1  0
 14 15  1  0
 15 16  2  0
 15 17  1  0
 16 18  1  0
 17 19  2  0
 18 20  2  0
 19 20  1  0
M  END
>  <ref_url>  (69) 
https://fakepage.com

>  <submitter_name>  (69) 
Steph Wills

>  <submitter_email>  (69) 
stephanie.wills@dtc.ox.ac.uk

>  <submitter_institution>  (69) 
University of Oxford

>  <generation_date>  (69) 
2020-06-04

>  <method>  (69) 
Fragment network

>  <ref_mols>  (69) 
x0176_0B,x0212_0B

>  <ref_pdb>  (69) 
references/x0176-0B-x0212-0B-71973.holo_minimised_nolig.pdb

>  <original SMILES>  (69) 
CC(O)c1ccc(NC(=O)NCc2ccccc2)cc1

>  <synthon>  (69) 
[Xe]c1ccccc1

>  <original_name>  (69) 
x0176-0B-x0212-0B-71973

>  <comRMSD_score>  (69) 
0.9960058276414104

>  <IF_score>  (69) 
0.3541666666666666

>  <SuCOS_score>  (69) 
0.4066863437634793

>  <compound_ID>  (69) 
CHEMSPACE-BB:CSMB00011458240

$$$$

     RDKit          3D

 19 20  0  0  0  0  0  0  0  0999 V2000
  -14.5210    4.2150  -76.3920 C   0  0  0  0  0  0  0  0  0  0  0  0
  -13.3000    5.1350  -76.6020 C   0  0  0  0  0  0  0  0  0  0  0  0
  -13.1920    6.1510  -75.4670 C   0  0  0  0  0  0  0  0  0  0  0  0
  -12.0060    4.3470  -76.6780 C   0  0  0  0  0  0  0  0  0  0  0  0
  -11.7770    3.0860  -75.8570 C   0  0  0  0  0  0  0  0  0  0  0  0
  -11.0140    4.7950  -77.5320 C   0  0  0  0  0  0  0  0  0  0  0  0
  -10.5730    2.4070  -76.0030 C   0  0  0  0  0  0  0  0  0  0  0  0
   -9.8260    4.1090  -77.6670 C   0  0  0  0  0  0  0  0  0  0  0  0
   -9.5660    2.9580  -76.9670 C   0  0  0  0  0  0  0  0  0  0  0  0
   -8.3700    2.3150  -77.1890 C   0  0  0  0  0  0  0  0  0  0  0  0
   -7.3770    3.1020  -77.7600 N   0  0  0  0  0  0  0  0  0  0  0  0
   -6.5060    3.8550  -76.8450 C   0  0  0  0  0  0  0  0  0  0  0  0
   -6.8280    2.4920  -78.8940 C   0  0  0  0  0  0  0  0  0  0  0  0
   -7.8010    1.6820  -79.7500 C   0  0  0  0  0  0  0  0  0  0  0  0
   -8.3070    2.2230  -81.0950 C   0  0  0  0  0  0  0  0  0  0  0  0
   -8.2610    0.4090  -79.3430 C   0  0  0  0  0  0  0  0  0  0  0  0
   -9.2680    1.3360  -81.8820 C   0  0  0  0  0  0  0  0  0  0  0  0
   -9.1530   -0.3540  -80.1260 C   0  0  0  0  0  0  0  0  0  0  0  0
   -9.6420    0.0930  -81.3550 C   0  0  0  0  0  0  0  0  0  0  0  0
  1  2  1  0
  2  3  1  0
  2  4  1  0
  4  5  2  0
  4  6  1  0
  5  7  1  0
  6  8  2  0
  7  9  2  0
  8  9  1  0
  9 10  1  0
 10 11  1  0
 11 12  1  0
 11 13  1  0
 13 14  1  0
 14 15  2  0
 14 16  1  0
 15 17  1  0
 16 18  2  0
 17 19  2  0
 18 19  1  0
M  END
>  <ref_url>  (70) 
https://fakepage.com

>  <submitter_name>  (70) 
Steph Wills

>  <submitter_email>  (70) 
stephanie.wills@dtc.ox.ac.uk

>  <submitter_institution>  (70) 
University of Oxford

>  <generation_date>  (70) 
2020-06-04

>  <method>  (70) 
Fragment network

>  <ref_mols>  (70) 
x0176_0B,x0212_0B

>  <ref_pdb>  (70) 
references/x0176-0B-x0212-0B-75446.holo_minimised_nolig.pdb

>  <original SMILES>  (70) 
CC(C)c1ccc(CN(C)Cc2ccccc2)cc1

>  <synthon>  (70) 
[Xe]c1ccccc1

>  <original_name>  (70) 
x0176-0B-x0212-0B-75446

>  <comRMSD_score>  (70) 
0.9856458753866252

>  <IF_score>  (70) 
0.675

>  <SuCOS_score>  (70) 
0.5232345038675429

>  <compound_ID>  (70) 
CHEMSPACE-BB:CSMB00113876489

$$$$

     RDKit          3D

 24 25  0  0  0  0  0  0  0  0999 V2000
   -6.4500    2.0100  -77.0820 C   0  0  0  0  0  0  0  0  0  0  0  0
   -6.6640    2.7960  -78.3000 N   0  0  0  0  0  0  0  0  0  0  0  0
   -7.8460    3.6520  -78.3880 C   0  0  0  0  0  0  0  0  0  0  0  0
   -6.3720    2.0820  -79.5600 C   0  0  0  0  0  0  0  0  0  0  0  0
   -9.0200    2.8040  -78.6900 C   0  0  0  0  0  0  0  0  0  0  0  0
   -7.4910    1.4470  -80.1440 C   0  0  0  0  0  0  0  0  0  0  0  0
   -8.7120    1.5720  -78.0260 O   0  0  0  0  0  0  0  0  0  0  0  0
   -8.1480    2.0070  -81.2350 C   0  0  0  0  0  0  0  0  0  0  0  0
   -7.9860    0.2130  -79.6600 C   0  0  0  0  0  0  0  0  0  0  0  0
   -8.9730    1.7740  -76.6580 C   0  0  0  0  0  0  0  0  0  0  0  0
   -9.3180    1.3490  -81.8820 C   0  0  0  0  0  0  0  0  0  0  0  0
   -9.0930   -0.4120  -80.2610 C   0  0  0  0  0  0  0  0  0  0  0  0
   -8.2900    1.1690  -75.5750 O   0  0  0  0  0  0  0  0  0  0  0  0
  -10.0110    2.6300  -76.5980 C   0  0  0  0  0  0  0  0  0  0  0  0
   -9.7560    0.1370  -81.3610 C   0  0  0  0  0  0  0  0  0  0  0  0
  -11.0900    2.3830  -75.7880 C   0  0  0  0  0  0  0  0  0  0  0  0
   -9.9790    3.7790  -77.4080 C   0  0  0  0  0  0  0  0  0  0  0  0
  -12.1660    3.3860  -75.8770 C   0  0  0  0  0  0  0  0  0  0  0  0
  -11.0000    4.7120  -77.4780 C   0  0  0  0  0  0  0  0  0  0  0  0
  -12.1330    4.5090  -76.6930 C   0  0  0  0  0  0  0  0  0  0  0  0
  -13.1990    5.3810  -76.7160 C   0  0  0  0  0  0  0  0  0  0  0  0
  -13.1670    6.5150  -77.6740 C   0  0  0  0  0  0  0  0  0  0  0  0
  -14.5280    4.5920  -76.8320 C   0  0  0  0  0  0  0  0  0  0  0  0
  -13.2410    5.9890  -75.3290 C   0  0  0  0  0  0  0  0  0  0  0  0
  1  2  1  0
  2  3  1  0
  2  4  1  0
  3  5  1  0
  4  6  1  0
  5  7  1  0
  6  8  2  0
  6  9  1  0
  7 10  1  0
  8 11  1  0
  9 12  2  0
 10 13  2  0
 10 14  1  0
 11 15  2  0
 12 15  1  0
 14 16  2  0
 14 17  1  0
 16 18  1  0
 17 19  2  0
 18 20  2  0
 19 20  1  0
 20 21  1  0
 21 22  1  0
 21 23  1  0
 21 24  1  0
M  END
>  <ref_url>  (71) 
https://fakepage.com

>  <submitter_name>  (71) 
Steph Wills

>  <submitter_email>  (71) 
stephanie.wills@dtc.ox.ac.uk

>  <submitter_institution>  (71) 
University of Oxford

>  <generation_date>  (71) 
2020-06-04

>  <method>  (71) 
Fragment network

>  <ref_mols>  (71) 
x0176_0B,x0212_0B

>  <ref_pdb>  (71) 
references/x0176-0B-x0212-0B-76618.holo_minimised_nolig.pdb

>  <original SMILES>  (71) 
CN(CCOC(=O)c1ccc(C(C)(C)C)cc1)Cc1ccccc1

>  <synthon>  (71) 
[Xe]c1ccccc1

>  <original_name>  (71) 
x0176-0B-x0212-0B-76618

>  <comRMSD_score>  (71) 
0.9406915231183216

>  <IF_score>  (71) 
0.775

>  <SuCOS_score>  (71) 
0.4891008056128032

>  <compound_ID>  (71) 
MOLPORT:002-216-212

$$$$

     RDKit          3D

 21 22  0  0  0  0  0  0  0  0999 V2000
  -12.6690    5.7050  -77.0880 C   0  0  0  0  0  0  0  0  0  0  0  0
  -11.6150    4.6520  -76.8400 C   0  0  0  0  0  0  0  0  0  0  0  0
  -10.4320    4.6470  -77.7610 C   0  0  0  0  0  0  0  0  0  0  0  0
  -11.6880    3.7120  -75.8260 C   0  0  0  0  0  0  0  0  0  0  0  0
   -9.4300    3.6910  -77.5660 C   0  0  0  0  0  0  0  0  0  0  0  0
  -10.6770    2.7880  -75.6740 C   0  0  0  0  0  0  0  0  0  0  0  0
   -9.5770    2.7750  -76.5190 C   0  0  0  0  0  0  0  0  0  0  0  0
   -8.3790    1.5320  -76.1770 S   0  0  0  0  0  0  0  0  0  0  0  0
   -7.0980    2.1910  -76.0660 O   0  0  0  0  0  0  0  0  0  0  0  0
   -8.9650    0.7520  -75.1270 O   0  0  0  0  0  0  0  0  0  0  0  0
   -8.4050    0.5250  -77.4760 N   0  0  0  0  0  0  0  0  0  0  0  0
   -9.6200    0.0020  -77.9250 C   0  0  0  0  0  0  0  0  0  0  0  0
   -7.1420   -0.0170  -77.6180 C   0  0  0  0  0  0  0  0  0  0  0  0
   -6.2800    1.1630  -78.0130 C   0  0  0  0  0  0  0  0  0  0  0  0
   -6.5640    1.8670  -79.3210 C   0  0  0  0  0  0  0  0  0  0  0  0
   -7.6790    1.3090  -80.1540 C   0  0  0  0  0  0  0  0  0  0  0  0
   -8.3140    2.0330  -81.2920 C   0  0  0  0  0  0  0  0  0  0  0  0
   -8.1750    0.0300  -79.8730 C   0  0  0  0  0  0  0  0  0  0  0  0
   -9.3400    1.4270  -82.0010 C   0  0  0  0  0  0  0  0  0  0  0  0
   -9.2080   -0.5380  -80.6040 C   0  0  0  0  0  0  0  0  0  0  0  0
   -9.7830    0.1510  -81.6530 C   0  0  0  0  0  0  0  0  0  0  0  0
  1  2  1  0
  2  3  2  0
  2  4  1  0
  3  5  1  0
  4  6  2  0
  5  7  2  0
  6  7  1  0
  7  8  1  0
  8  9  2  0
  8 10  2  0
  8 11  1  0
 11 12  1  0
 11 13  1  0
 13 14  1  0
 14 15  2  3
 15 16  1  0
 16 17  2  0
 16 18  1  0
 17 19  1  0
 18 20  2  0
 19 21  2  0
 20 21  1  0
M  END
>  <ref_url>  (72) 
https://fakepage.com

>  <submitter_name>  (72) 
Steph Wills

>  <submitter_email>  (72) 
stephanie.wills@dtc.ox.ac.uk

>  <submitter_institution>  (72) 
University of Oxford

>  <generation_date>  (72) 
2020-06-04

>  <method>  (72) 
Fragment network

>  <ref_mols>  (72) 
x0176_0B,x0212_0B

>  <ref_pdb>  (72) 
references/x0176-0B-x0212-0B-76854.holo_minimised_nolig.pdb

>  <original SMILES>  (72) 
Cc1ccc(S(=O)(=O)N(C)CC=Cc2ccccc2)cc1

>  <synthon>  (72) 
[Xe]c1ccccc1

>  <original_name>  (72) 
x0176-0B-x0212-0B-76854

>  <comRMSD_score>  (72) 
0.8548002956565605

>  <IF_score>  (72) 
0.9

>  <SuCOS_score>  (72) 
0.4301964986677711

>  <compound_ID>  (72) 
MOLPORT:044-384-804

$$$$

     RDKit          3D

 26 27  0  0  0  0  0  0  0  0999 V2000
   -6.6230    2.5040  -79.5030 C   0  0  0  0  0  0  0  0  0  0  0  0
   -7.8300    1.6300  -79.8330 C   0  0  0  0  0  0  0  0  0  0  0  0
   -8.5160    1.8490  -81.1970 C   0  0  0  0  0  0  0  0  0  0  0  0
   -8.2940    0.6860  -78.9330 C   0  0  0  0  0  0  0  0  0  0  0  0
   -9.7430    0.9910  -81.5090 C   0  0  0  0  0  0  0  0  0  0  0  0
   -9.4060   -0.0880  -79.1980 C   0  0  0  0  0  0  0  0  0  0  0  0
  -10.1280    0.0210  -80.3750 C   0  0  0  0  0  0  0  0  0  0  0  0
  -11.5420   -1.0450  -80.4270 S   0  0  0  0  0  0  0  0  0  0  0  0
  -11.0710   -2.6360  -80.3470 O   0  0  0  0  0  0  0  0  0  0  0  0
  -12.4240   -0.5390  -81.4530 O   0  0  0  0  0  0  0  0  0  0  0  0
  -12.3480   -0.6060  -78.9810 N   0  0  0  0  0  0  0  0  0  0  0  0
  -11.8780   -0.8230  -77.6720 C   0  0  0  0  0  0  0  0  0  0  0  0
  -11.5370    0.4940  -76.9400 C   0  0  0  0  0  0  0  0  0  0  0  0
  -12.6360    1.2500  -76.4780 N   0  0  0  0  0  0  0  0  0  0  0  0
  -13.9920    0.6900  -76.5050 C   0  0  0  0  0  0  0  0  0  0  0  0
  -12.3520    2.6160  -76.2570 C   0  0  0  0  0  0  0  0  0  0  0  0
  -11.1430    3.1520  -76.7640 O   0  0  0  0  0  0  0  0  0  0  0  0
  -13.2510    3.4560  -75.5820 N   0  0  0  0  0  0  0  0  0  0  0  0
  -13.4790    4.8410  -76.0070 C   0  0  0  0  0  0  0  0  0  0  0  0
  -12.3900    5.3370  -76.9250 C   0  0  0  0  0  0  0  0  0  0  0  0
  -11.1070    4.4720  -76.9710 C   0  0  0  0  0  0  0  0  0  0  0  0
  -10.8890    3.4910  -75.8080 C   0  0  0  0  0  0  0  0  0  0  0  0
  -10.1320    4.5050  -77.9720 C   0  0  0  0  0  0  0  0  0  0  0  0
   -9.7600    2.6710  -75.7840 C   0  0  0  0  0  0  0  0  0  0  0  0
   -9.0180    3.6700  -77.8930 C   0  0  0  0  0  0  0  0  0  0  0  0
   -8.8280    2.7670  -76.8270 C   0  0  0  0  0  0  0  0  0  0  0  0
  1  2  1  0
  2  3  2  0
  2  4  1  0
  3  5  1  0
  4  6  2  0
  5  7  2  0
  6  7  1  0
  7  8  1  0
  8  9  2  0
  8 10  2  0
  8 11  1  0
 11 12  1  0
 12 13  1  0
 13 14  1  0
 14 15  1  0
 14 16  1  0
 16 17  2  0
 16 18  1  0
 18 19  1  0
 19 20  1  0
 20 21  1  0
 21 22  2  0
 21 23  1  0
 22 24  1  0
 23 25  2  0
 24 26  2  0
 25 26  1  0
M  END
>  <ref_url>  (73) 
https://fakepage.com

>  <submitter_name>  (73) 
Steph Wills

>  <submitter_email>  (73) 
stephanie.wills@dtc.ox.ac.uk

>  <submitter_institution>  (73) 
University of Oxford

>  <generation_date>  (73) 
2020-06-04

>  <method>  (73) 
Fragment network

>  <ref_mols>  (73) 
x0176_0B,x0212_0B

>  <ref_pdb>  (73) 
references/x0176-0B-x0212-0B-82094.holo_minimised_nolig.pdb

>  <original SMILES>  (73) 
Cc1ccc(S(=O)(=O)NCCN(C)C(=O)NCCc2ccccc2)cc1

>  <synthon>  (73) 
[Xe]c1ccccc1

>  <original_name>  (73) 
x0176-0B-x0212-0B-82094

>  <comRMSD_score>  (73) 
0.997052089695025

>  <IF_score>  (73) 
0.55

>  <SuCOS_score>  (73) 
0.4527009882001795

>  <compound_ID>  (73) 
REAL:Z1287321616

$$$$

     RDKit          3D

 22 23  0  0  0  0  0  0  0  0999 V2000
  -15.1680    5.6830  -76.2450 C   0  0  0  0  0  0  0  0  0  0  0  0
  -13.6380    5.7760  -76.3650 C   0  0  0  0  0  0  0  0  0  0  0  0
  -13.0570    6.5280  -75.3000 O   0  0  0  0  0  0  0  0  0  0  0  0
  -12.9200    5.1890  -77.4090 C   0  0  0  0  0  0  0  0  0  0  0  0
  -11.7140    4.4120  -76.9570 C   0  0  0  0  0  0  0  0  0  0  0  0
  -10.4850    4.6240  -77.5720 C   0  0  0  0  0  0  0  0  0  0  0  0
  -11.7940    3.4670  -75.9210 C   0  0  0  0  0  0  0  0  0  0  0  0
   -9.3790    3.8950  -77.1570 C   0  0  0  0  0  0  0  0  0  0  0  0
  -10.6650    2.7450  -75.5150 C   0  0  0  0  0  0  0  0  0  0  0  0
   -9.4450    2.9590  -76.1380 C   0  0  0  0  0  0  0  0  0  0  0  0
   -8.3860    2.4130  -75.9010 O   0  0  0  0  0  0  0  0  0  0  0  0
   -7.3250    2.7960  -76.7630 C   0  0  0  0  0  0  0  0  0  0  0  0
   -6.2200    1.9760  -76.4760 C   0  0  0  0  0  0  0  0  0  0  0  0
   -5.8780    0.9510  -77.5170 C   0  0  0  0  0  0  0  0  0  0  0  0
   -5.3910    1.5990  -78.6720 O   0  0  0  0  0  0  0  0  0  0  0  0
   -6.3380    2.0190  -79.5540 C   0  0  0  0  0  0  0  0  0  0  0  0
   -7.0900    1.1340  -80.3300 C   0  0  0  0  0  0  0  0  0  0  0  0
   -7.4310   -0.2250  -79.8440 C   0  0  0  0  0  0  0  0  0  0  0  0
   -7.5500    1.5010  -81.5940 C   0  0  0  0  0  0  0  0  0  0  0  0
   -8.1800   -1.0880  -80.6420 C   0  0  0  0  0  0  0  0  0  0  0  0
   -8.2980    0.6140  -82.3780 C   0  0  0  0  0  0  0  0  0  0  0  0
   -8.6080   -0.6630  -81.9080 C   0  0  0  0  0  0  0  0  0  0  0  0
  1  2  1  0
  2  3  2  0
  2  4  1  0
  4  5  1  0
  5  6  2  0
  5  7  1  0
  6  8  1  0
  7  9  2  0
  8 10  2  0
  9 10  1  0
 10 11  1  0
 11 12  1  0
 12 13  1  0
 13 14  1  0
 14 15  1  0
 15 16  1  0
 16 17  1  0
 17 18  2  0
 17 19  1  0
 18 20  1  0
 19 21  2  0
 20 22  2  0
 21 22  1  0
M  END
>  <ref_url>  (74) 
https://fakepage.com

>  <submitter_name>  (74) 
Steph Wills

>  <submitter_email>  (74) 
stephanie.wills@dtc.ox.ac.uk

>  <submitter_institution>  (74) 
University of Oxford

>  <generation_date>  (74) 
2020-06-04

>  <method>  (74) 
Fragment network

>  <ref_mols>  (74) 
x0176_0B,x0212_0B

>  <ref_pdb>  (74) 
references/x0176-0B-x0212-0B-82525.holo_minimised_nolig.pdb

>  <original SMILES>  (74) 
CC(=O)Cc1ccc(OCCCOCc2ccccc2)cc1

>  <synthon>  (74) 
[Xe]c1ccccc1

>  <original_name>  (74) 
x0176-0B-x0212-0B-82525

>  <comRMSD_score>  (74) 
0.845900343601033

>  <IF_score>  (74) 
0.55

>  <SuCOS_score>  (74) 
0.4207438776687223

>  <compound_ID>  (74) 
CHEMSPACE-BB:CSMB00015068833

$$$$

     RDKit          3D

 22 23  0  0  0  0  0  0  0  0999 V2000
  -12.5660    6.4840  -73.7010 C   0  0  0  0  0  0  0  0  0  0  0  0
  -12.7980    7.0580  -75.3690 S   0  0  0  0  0  0  0  0  0  0  0  0
  -13.5250    5.5780  -76.1460 C   0  0  0  0  0  0  0  0  0  0  0  0
  -12.7780    5.1470  -77.4070 C   0  0  0  0  0  0  0  0  0  0  0  0
  -11.6410    4.2260  -77.1540 C   0  0  0  0  0  0  0  0  0  0  0  0
  -11.6740    3.3380  -76.0870 C   0  0  0  0  0  0  0  0  0  0  0  0
  -10.5140    4.2190  -77.9700 C   0  0  0  0  0  0  0  0  0  0  0  0
  -10.6550    2.4440  -75.7950 C   0  0  0  0  0  0  0  0  0  0  0  0
   -9.4640    3.3320  -77.7110 C   0  0  0  0  0  0  0  0  0  0  0  0
   -9.5330    2.4350  -76.6180 C   0  0  0  0  0  0  0  0  0  0  0  0
   -8.5310    1.4290  -76.1950 N   0  0  0  0  0  0  0  0  0  0  0  0
   -7.3830    1.2760  -77.0960 C   0  0  0  0  0  0  0  0  0  0  0  0
   -6.6100    0.3260  -77.0390 O   0  0  0  0  0  0  0  0  0  0  0  0
   -7.2660    2.3070  -77.9980 N   0  0  0  0  0  0  0  0  0  0  0  0
   -7.6900    3.6090  -77.5270 C   0  0  0  0  0  0  0  0  0  0  0  0
   -6.5380    2.1340  -79.1490 C   0  0  0  0  0  0  0  0  0  0  0  0
   -7.1250    1.2240  -80.0330 C   0  0  0  0  0  0  0  0  0  0  0  0
   -7.5010   -0.0470  -79.5820 C   0  0  0  0  0  0  0  0  0  0  0  0
   -7.3510    1.5870  -81.3750 C   0  0  0  0  0  0  0  0  0  0  0  0
   -8.1010   -0.9570  -80.4620 C   0  0  0  0  0  0  0  0  0  0  0  0
   -7.9490    0.6650  -82.2510 C   0  0  0  0  0  0  0  0  0  0  0  0
   -8.3210   -0.6010  -81.7910 C   0  0  0  0  0  0  0  0  0  0  0  0
  1  2  1  0
  2  3  1  0
  3  4  1  0
  4  5  1  0
  5  6  2  0
  5  7  1  0
  6  8  1  0
  7  9  2  0
  8 10  2  0
  9 10  1  0
 10 11  1  0
 11 12  1  0
 12 13  2  0
 12 14  1  0
 14 15  1  0
 14 16  1  0
 16 17  1  0
 17 18  2  0
 17 19  1  0
 18 20  1  0
 19 21  2  0
 20 22  2  0
 21 22  1  0
M  END
>  <ref_url>  (75) 
https://fakepage.com

>  <submitter_name>  (75) 
Steph Wills

>  <submitter_email>  (75) 
stephanie.wills@dtc.ox.ac.uk

>  <submitter_institution>  (75) 
University of Oxford

>  <generation_date>  (75) 
2020-06-04

>  <method>  (75) 
Fragment network

>  <ref_mols>  (75) 
x0176_0B,x0212_0B

>  <ref_pdb>  (75) 
references/x0176-0B-x0212-0B-83622.holo_minimised_nolig.pdb

>  <original SMILES>  (75) 
CSCCc1ccc(NC(=O)N(C)Cc2ccccc2)cc1

>  <synthon>  (75) 
[Xe]c1ccccc1

>  <original_name>  (75) 
x0176-0B-x0212-0B-83622

>  <comRMSD_score>  (75) 
0.7684428699938884

>  <IF_score>  (75) 
0.375

>  <SuCOS_score>  (75) 
0.518520926948904

>  <compound_ID>  (75) 
REAL:Z1088414510

$$$$

     RDKit          3D

 21 22  0  0  0  0  0  0  0  0999 V2000
  -13.9160    3.6950  -77.6800 C   0  0  0  0  0  0  0  0  0  0  0  0
  -12.8170    4.6630  -77.2330 C   0  0  0  0  0  0  0  0  0  0  0  0
  -12.5320    5.6830  -78.1170 C   0  0  0  0  0  0  0  0  0  0  0  0
  -13.2690    5.3230  -75.9430 C   0  0  0  0  0  0  0  0  0  0  0  0
  -11.5070    3.9060  -76.9180 C   0  0  0  0  0  0  0  0  0  0  0  0
  -11.4480    3.0250  -75.8470 C   0  0  0  0  0  0  0  0  0  0  0  0
  -10.3140    4.0290  -77.6430 C   0  0  0  0  0  0  0  0  0  0  0  0
  -10.3100    2.3130  -75.5010 C   0  0  0  0  0  0  0  0  0  0  0  0
   -9.1490    3.3490  -77.3310 C   0  0  0  0  0  0  0  0  0  0  0  0
  -10.1410    4.8490  -78.7750 O   0  0  0  0  0  0  0  0  0  0  0  0
   -9.1430    2.4800  -76.2500 C   0  0  0  0  0  0  0  0  0  0  0  0
   -9.1110    4.5260  -79.7240 C   0  0  0  0  0  0  0  0  0  0  0  0
   -8.6470    3.2650  -79.9360 C   0  0  0  0  0  0  0  0  0  0  0  0
   -7.2680    3.2570  -79.5290 O   0  0  0  0  0  0  0  0  0  0  0  0
   -6.8370    1.9430  -79.2830 C   0  0  0  0  0  0  0  0  0  0  0  0
   -7.7780    1.1880  -79.9620 C   0  0  0  0  0  0  0  0  0  0  0  0
   -8.2910    0.0050  -79.4030 C   0  0  0  0  0  0  0  0  0  0  0  0
   -8.2160    1.6400  -81.2240 C   0  0  0  0  0  0  0  0  0  0  0  0
   -9.2500   -0.7320  -80.1070 C   0  0  0  0  0  0  0  0  0  0  0  0
   -9.1620    0.9310  -81.9420 C   0  0  0  0  0  0  0  0  0  0  0  0
   -9.6650   -0.2310  -81.3830 C   0  0  0  0  0  0  0  0  0  0  0  0
  2  1  1  0
  2  3  1  0
  2  4  1  0
  2  5  1  0
  5  6  2  0
  5  7  1  0
  6  8  1  0
  7  9  2  0
  7 10  1  0
  8 11  2  0
  9 11  1  0
 10 12  1  0
 12 13  1  0
 13 14  1  0
 14 15  1  0
 15 16  1  0
 16 17  2  0
 16 18  1  0
 17 19  1  0
 18 20  2  0
 19 21  2  0
 20 21  1  0
M  END
>  <ref_url>  (76) 
https://fakepage.com

>  <submitter_name>  (76) 
Steph Wills

>  <submitter_email>  (76) 
stephanie.wills@dtc.ox.ac.uk

>  <submitter_institution>  (76) 
University of Oxford

>  <generation_date>  (76) 
2020-06-04

>  <method>  (76) 
Fragment network

>  <ref_mols>  (76) 
x0176_0B,x0212_0B

>  <ref_pdb>  (76) 
references/x0176-0B-x0212-0B-83785.holo_minimised_nolig.pdb

>  <original SMILES>  (76) 
CC(C)(C)c1ccccc1OCCOCc1ccccc1

>  <synthon>  (76) 
[Xe]c1ccccc1

>  <original_name>  (76) 
x0176-0B-x0212-0B-83785

>  <comRMSD_score>  (76) 
0.5668835859327727

>  <IF_score>  (76) 
0.25

>  <SuCOS_score>  (76) 
0.4910395774054052

>  <compound_ID>  (76) 
CHEMSPACE-BB:CSMB00014808769

$$$$

     RDKit          3D

 20 21  0  0  0  0  0  0  0  0999 V2000
  -12.7300    6.4620  -75.2910 N   0  0  0  0  0  0  0  0  0  0  0  0
  -13.3910    5.4210  -75.8710 C   0  0  0  0  0  0  0  0  0  0  0  0
  -14.3220    4.8720  -75.2890 O   0  0  0  0  0  0  0  0  0  0  0  0
  -12.8980    5.0100  -77.2360 C   0  0  0  0  0  0  0  0  0  0  0  0
  -11.6060    4.2320  -77.2080 C   0  0  0  0  0  0  0  0  0  0  0  0
  -10.5870    4.5880  -78.0710 C   0  0  0  0  0  0  0  0  0  0  0  0
  -11.4070    3.1510  -76.3340 C   0  0  0  0  0  0  0  0  0  0  0  0
   -9.3860    3.9000  -78.0980 C   0  0  0  0  0  0  0  0  0  0  0  0
  -10.1930    2.4520  -76.3580 C   0  0  0  0  0  0  0  0  0  0  0  0
   -9.1800    2.8270  -77.2510 C   0  0  0  0  0  0  0  0  0  0  0  0
   -7.9910    2.1020  -77.2640 N   0  0  0  0  0  0  0  0  0  0  0  0
   -6.7480    2.5470  -77.6630 C   0  0  0  0  0  0  0  0  0  0  0  0
   -5.8860    2.9830  -76.9050 O   0  0  0  0  0  0  0  0  0  0  0  0
   -6.4440    2.4920  -79.1690 C   0  0  0  0  0  0  0  0  0  0  0  0
   -7.0450    1.3820  -80.0060 C   0  0  0  0  0  0  0  0  0  0  0  0
   -7.2740    1.6090  -81.3860 C   0  0  0  0  0  0  0  0  0  0  0  0
   -7.4040    0.1280  -79.4670 C   0  0  0  0  0  0  0  0  0  0  0  0
   -7.8400    0.6130  -82.1970 C   0  0  0  0  0  0  0  0  0  0  0  0
   -7.9760   -0.8620  -80.2850 C   0  0  0  0  0  0  0  0  0  0  0  0
   -8.1920   -0.6190  -81.6460 C   0  0  0  0  0  0  0  0  0  0  0  0
  1  2  1  0
  2  3  2  0
  2  4  1  0
  4  5  1  0
  5  6  2  0
  5  7  1  0
  6  8  1  0
  7  9  2  0
  8 10  2  0
  9 10  1  0
 10 11  1  0
 11 12  1  0
 12 13  2  0
 12 14  1  0
 14 15  1  0
 15 16  2  0
 15 17  1  0
 16 18  1  0
 17 19  2  0
 18 20  2  0
 19 20  1  0
M  END
>  <ref_url>  (77) 
https://fakepage.com

>  <submitter_name>  (77) 
Steph Wills

>  <submitter_email>  (77) 
stephanie.wills@dtc.ox.ac.uk

>  <submitter_institution>  (77) 
University of Oxford

>  <generation_date>  (77) 
2020-06-04

>  <method>  (77) 
Fragment network

>  <ref_mols>  (77) 
x0176_0B,x0212_0B

>  <ref_pdb>  (77) 
references/x0176-0B-x0212-0B-86091.holo_minimised_nolig.pdb

>  <original SMILES>  (77) 
NC(=O)Cc1ccc(NC(=O)Cc2ccccc2)cc1

>  <synthon>  (77) 
[Xe]c1ccccc1

>  <original_name>  (77) 
x0176-0B-x0212-0B-86091

>  <comRMSD_score>  (77) 
0.853484548776368

>  <IF_score>  (77) 
0.3333333333333333

>  <SuCOS_score>  (77) 
0.504491673622413

>  <compound_ID>  (77) 
REAL:Z364995968

$$$$

     RDKit          3D

 23 24  0  0  0  0  0  0  0  0999 V2000
  -13.6530    5.6470  -76.2470 C   0  0  0  0  0  0  0  0  0  0  0  0
  -12.9930    5.1970  -77.5510 C   0  0  0  0  0  0  0  0  0  0  0  0
  -13.7740    4.4880  -78.4770 C   0  0  0  0  0  0  0  0  0  0  0  0
  -11.7600    4.4090  -77.2060 C   0  0  0  0  0  0  0  0  0  0  0  0
  -10.6250    4.5460  -78.0010 C   0  0  0  0  0  0  0  0  0  0  0  0
  -11.7240    3.5390  -76.0990 C   0  0  0  0  0  0  0  0  0  0  0  0
   -9.4720    3.8530  -77.7240 C   0  0  0  0  0  0  0  0  0  0  0  0
  -10.5430    2.8370  -75.8250 C   0  0  0  0  0  0  0  0  0  0  0  0
   -9.4380    3.0060  -76.6380 C   0  0  0  0  0  0  0  0  0  0  0  0
   -8.2560    2.3430  -76.3990 N   0  0  0  0  0  0  0  0  0  0  0  0
   -7.0610    2.7050  -76.9510 C   0  0  0  0  0  0  0  0  0  0  0  0
   -6.3910    3.6930  -76.6880 O   0  0  0  0  0  0  0  0  0  0  0  0
   -6.7040    1.8340  -77.8190 N   0  0  0  0  0  0  0  0  0  0  0  0
   -6.3740    2.1860  -79.2160 C   0  0  1  0  0  0  0  0  0  0  0  0
   -4.8870    2.1380  -79.5230 C   0  0  0  0  0  0  0  0  0  0  0  0
   -7.0860    1.1590  -80.1160 C   0  0  0  0  0  0  0  0  0  0  0  0
   -3.9870    3.1560  -79.3770 O   0  0  0  0  0  0  0  0  0  0  0  0
   -4.4900    0.8610  -80.0180 O   0  0  0  0  0  0  0  0  0  0  0  0
   -7.3350    1.5640  -81.4330 C   0  0  0  0  0  0  0  0  0  0  0  0
   -7.4840   -0.1110  -79.6750 C   0  0  0  0  0  0  0  0  0  0  0  0
   -8.0260    0.5970  -82.3330 C   0  0  0  0  0  0  0  0  0  0  0  0
   -8.1370   -1.0170  -80.5180 C   0  0  0  0  0  0  0  0  0  0  0  0
   -8.4080   -0.6660  -81.8500 C   0  0  0  0  0  0  0  0  0  0  0  0
  1  2  1  0
  2  3  1  0
  2  4  1  0
  4  5  2  0
  4  6  1  0
  5  7  1  0
  6  8  2  0
  7  9  2  0
  8  9  1  0
  9 10  1  0
 10 11  1  0
 11 12  2  0
 11 13  1  0
 14 13  1  1
 14 15  1  0
 14 16  1  0
 15 17  2  0
 15 18  1  0
 16 19  2  0
 16 20  1  0
 19 21  1  0
 20 22  2  0
 21 23  2  0
 22 23  1  0
M  END
>  <ref_url>  (78) 
https://fakepage.com

>  <submitter_name>  (78) 
Steph Wills

>  <submitter_email>  (78) 
stephanie.wills@dtc.ox.ac.uk

>  <submitter_institution>  (78) 
University of Oxford

>  <generation_date>  (78) 
2020-06-04

>  <method>  (78) 
Fragment network

>  <ref_mols>  (78) 
x0176_0B,x0212_0B

>  <ref_pdb>  (78) 
references/x0176-0B-x0212-0B-86776.holo_minimised_nolig.pdb

>  <original SMILES>  (78) 
CC(C)c1ccc(NC(=O)NC(C(=O)O)c2ccccc2)cc1

>  <synthon>  (78) 
[Xe]c1ccccc1

>  <original_name>  (78) 
x0176-0B-x0212-0B-86776

>  <comRMSD_score>  (78) 
0.8747061618424883

>  <IF_score>  (78) 
0.375

>  <SuCOS_score>  (78) 
0.4464778902242429

>  <compound_ID>  (78) 
REAL:Z1629257271, REAL:Z1629257292

$$$$

     RDKit          3D

 24 25  0  0  0  0  0  0  0  0999 V2000
   -5.2430    5.0340  -79.8220 C   0  0  0  0  0  0  0  0  0  0  0  0
   -5.8540    4.2250  -78.6820 C   0  0  2  0  0  0  0  0  0  0  0  0
   -5.1870    3.3390  -78.1640 O   0  0  0  0  0  0  0  0  0  0  0  0
   -7.3260    3.8060  -79.0300 C   0  0  0  0  0  0  0  0  0  0  0  0
   -5.8680    2.5880  -77.2650 C   0  0  0  0  0  0  0  0  0  0  0  0
   -7.6450    3.2610  -80.0840 O   0  0  0  0  0  0  0  0  0  0  0  0
   -8.2040    4.1910  -77.9290 N   0  0  0  0  0  0  0  0  0  0  0  0
   -5.7790    2.6090  -76.0450 O   0  0  0  0  0  0  0  0  0  0  0  0
   -6.7040    1.7610  -77.9920 C   0  0  0  0  0  0  0  0  0  0  0  0
   -9.3990    3.7340  -77.4010 C   0  0  0  0  0  0  0  0  0  0  0  0
   -6.4120    1.6800  -79.3510 C   0  0  0  0  0  0  0  0  0  0  0  0
   -9.4540    2.6170  -76.5690 C   0  0  0  0  0  0  0  0  0  0  0  0
  -10.5770    4.4180  -77.6860 C   0  0  0  0  0  0  0  0  0  0  0  0
   -7.1460    0.8960  -80.2190 C   0  0  0  0  0  0  0  0  0  0  0  0
  -10.6570    2.1910  -76.0290 C   0  0  0  0  0  0  0  0  0  0  0  0
  -11.7870    4.0090  -77.1510 C   0  0  0  0  0  0  0  0  0  0  0  0
   -7.3960    1.3650  -81.5030 C   0  0  0  0  0  0  0  0  0  0  0  0
   -7.6280   -0.3570  -79.7940 C   0  0  0  0  0  0  0  0  0  0  0  0
  -11.8320    2.8880  -76.3190 C   0  0  0  0  0  0  0  0  0  0  0  0
  -12.9410    4.7370  -77.4570 C   0  0  0  0  0  0  0  0  0  0  0  0
   -8.1940    0.5050  -82.4690 C   0  0  0  0  0  0  0  0  0  0  0  0
   -8.3750   -1.1940  -80.6300 C   0  0  0  0  0  0  0  0  0  0  0  0
  -13.8780    5.3740  -77.7000 N   0  0  0  0  0  0  0  0  0  0  0  0
   -8.6920   -0.8440  -81.9550 C   0  0  0  0  0  0  0  0  0  0  0  0
  2  1  1  6
  2  3  1  0
  2  4  1  0
  3  5  1  0
  4  6  2  0
  4  7  1  0
  5  8  2  0
  5  9  1  0
  7 10  1  0
  9 11  2  3
 10 12  2  0
 10 13  1  0
 11 14  1  0
 12 15  1  0
 13 16  2  0
 14 17  2  0
 14 18  1  0
 15 19  2  0
 16 19  1  0
 16 20  1  0
 17 21  1  0
 18 22  2  0
 20 23  3  0
 21 24  2  0
 22 24  1  0
M  END
>  <ref_url>  (79) 
https://fakepage.com

>  <submitter_name>  (79) 
Steph Wills

>  <submitter_email>  (79) 
stephanie.wills@dtc.ox.ac.uk

>  <submitter_institution>  (79) 
University of Oxford

>  <generation_date>  (79) 
2020-06-04

>  <method>  (79) 
Fragment network

>  <ref_mols>  (79) 
x0176_0B,x0212_0B

>  <ref_pdb>  (79) 
references/x0176-0B-x0212-0B-89360.holo_minimised_nolig.pdb

>  <original SMILES>  (79) 
CC(OC(=O)C=Cc1ccccc1)C(=O)Nc1cccc(C#N)c1

>  <synthon>  (79) 
[Xe]c1ccccc1

>  <original_name>  (79) 
x0176-0B-x0212-0B-89360

>  <comRMSD_score>  (79) 
0.9505898169031688

>  <IF_score>  (79) 
0.25

>  <SuCOS_score>  (79) 
0.3936125439415447

>  <compound_ID>  (79) 
MOLPORT:004-673-427

$$$$

     RDKit          3D

 23 24  0  0  0  0  0  0  0  0999 V2000
  -13.5010    5.5780  -75.8430 C   0  0  0  0  0  0  0  0  0  0  0  0
  -12.5160    5.5980  -77.0160 C   0  0  0  0  0  0  0  0  0  0  0  0
  -11.6390    4.3210  -77.0740 C   0  0  0  0  0  0  0  0  0  0  0  0
  -11.0290    4.0360  -78.4190 C   0  0  0  0  0  0  0  0  0  0  0  0
  -11.4010    3.4630  -76.0010 C   0  0  0  0  0  0  0  0  0  0  0  0
  -10.1900    2.7720  -78.4890 C   0  0  0  0  0  0  0  0  0  0  0  0
  -10.5990    2.3260  -76.1550 C   0  0  0  0  0  0  0  0  0  0  0  0
  -10.0050    1.9710  -77.3620 C   0  0  0  0  0  0  0  0  0  0  0  0
   -9.1970    0.8130  -77.4710 N   0  0  0  0  0  0  0  0  0  0  0  0
   -7.7390    1.0140  -77.3660 C   0  0  0  0  0  0  0  0  0  0  0  0
   -6.8780    0.1420  -76.7640 O   0  0  0  0  0  0  0  0  0  0  0  0
   -7.3230    2.1880  -77.9700 N   0  0  0  0  0  0  0  0  0  0  0  0
   -6.7850    2.1810  -79.3220 C   0  0  0  0  0  0  0  0  0  0  0  0
   -7.9180    3.4080  -77.6200 C   0  0  1  0  0  0  0  0  0  0  0  0
   -7.6820    1.4470  -80.0720 C   0  0  0  0  0  0  0  0  0  0  0  0
   -8.9050    3.9780  -78.4150 C   0  0  0  0  0  0  0  0  0  0  0  0
   -8.4000    3.3060  -76.1850 C   0  0  0  0  0  0  0  0  0  0  0  0
   -8.2140    1.9520  -81.2270 C   0  0  0  0  0  0  0  0  0  0  0  0
   -8.0680    0.1610  -79.6530 C   0  0  0  0  0  0  0  0  0  0  0  0
   -7.4030    3.8660  -75.3490 O   0  0  0  0  0  0  0  0  0  0  0  0
   -9.1740    1.1930  -82.0380 C   0  0  0  0  0  0  0  0  0  0  0  0
   -8.9800   -0.6230  -80.3670 C   0  0  0  0  0  0  0  0  0  0  0  0
   -9.5830   -0.2070  -81.5540 C   0  0  0  0  0  0  0  0  0  0  0  0
  1  2  1  0
  2  3  1  0
  3  4  2  0
  3  5  1  0
  4  6  1  0
  5  7  2  0
  6  8  2  0
  7  8  1  0
  8  9  1  0
  9 10  1  0
 10 11  2  0
 10 12  1  0
 12 13  1  0
 12 14  1  0
 13 15  1  0
 14 16  1  6
 14 17  1  0
 15 18  2  0
 15 19  1  0
 17 20  1  0
 18 21  1  0
 19 22  2  0
 21 23  2  0
 22 23  1  0
M  END
>  <ref_url>  (80) 
https://fakepage.com

>  <submitter_name>  (80) 
Steph Wills

>  <submitter_email>  (80) 
stephanie.wills@dtc.ox.ac.uk

>  <submitter_institution>  (80) 
University of Oxford

>  <generation_date>  (80) 
2020-06-04

>  <method>  (80) 
Fragment network

>  <ref_mols>  (80) 
x0176_0B,x0212_0B

>  <ref_pdb>  (80) 
references/x0176-0B-x0212-0B-89465.holo_minimised_nolig.pdb

>  <original SMILES>  (80) 
CCc1ccc(NC(=O)N(Cc2ccccc2)C(C)CO)cc1

>  <synthon>  (80) 
[Xe]c1ccccc1

>  <original_name>  (80) 
x0176-0B-x0212-0B-89465

>  <comRMSD_score>  (80) 
0.870317158581709

>  <IF_score>  (80) 
0.4166666666666667

>  <SuCOS_score>  (80) 
0.5184852934865974

>  <compound_ID>  (80) 
REAL:Z1745453399

$$$$

     RDKit          3D

 22 23  0  0  0  0  0  0  0  0999 V2000
  -13.4450    6.0650  -76.1750 C   0  0  0  0  0  0  0  0  0  0  0  0
  -13.3510    4.9230  -77.1890 C   0  0  0  0  0  0  0  0  0  0  0  0
  -13.6130    5.3910  -78.6270 C   0  0  0  0  0  0  0  0  0  0  0  0
  -12.0140    4.2500  -77.0070 C   0  0  0  0  0  0  0  0  0  0  0  0
  -10.9550    4.4410  -77.8960 C   0  0  0  0  0  0  0  0  0  0  0  0
  -11.8630    3.4120  -75.8910 C   0  0  0  0  0  0  0  0  0  0  0  0
   -9.7480    3.8020  -77.6680 C   0  0  0  0  0  0  0  0  0  0  0  0
  -10.6650    2.7480  -75.6270 C   0  0  0  0  0  0  0  0  0  0  0  0
   -9.6000    2.9150  -76.4740 C   0  0  0  0  0  0  0  0  0  0  0  0
   -8.3670    2.3210  -76.3050 N   0  0  0  0  0  0  0  0  0  0  0  0
   -7.2320    2.7740  -76.8930 C   0  0  0  0  0  0  0  0  0  0  0  0
   -6.5910    3.7780  -76.5970 O   0  0  0  0  0  0  0  0  0  0  0  0
   -6.8730    1.9090  -77.8970 N   0  0  0  0  0  0  0  0  0  0  0  0
   -6.7070    2.3990  -79.2500 C   0  0  2  0  0  0  0  0  0  0  0  0
   -7.0170    3.8320  -79.5920 C   0  0  0  0  0  0  0  0  0  0  0  0
   -7.6740    1.5510  -80.0690 C   0  0  0  0  0  0  0  0  0  0  0  0
   -5.9690    4.7940  -79.4210 O   0  0  0  0  0  0  0  0  0  0  0  0
   -8.0900    0.2030  -79.5830 C   0  0  0  0  0  0  0  0  0  0  0  0
   -8.2140    1.9580  -81.2830 C   0  0  0  0  0  0  0  0  0  0  0  0
   -8.9560   -0.6210  -80.2760 C   0  0  0  0  0  0  0  0  0  0  0  0
   -9.0830    1.1170  -81.9740 C   0  0  0  0  0  0  0  0  0  0  0  0
   -9.4520   -0.1530  -81.4850 C   0  0  0  0  0  0  0  0  0  0  0  0
  1  2  1  0
  2  3  1  0
  2  4  1  0
  4  5  2  0
  4  6  1  0
  5  7  1  0
  6  8  2  0
  7  9  2  0
  8  9  1  0
  9 10  1  0
 10 11  1  0
 11 12  2  0
 11 13  1  0
 13 14  1  0
 14 15  1  1
 14 16  1  0
 15 17  1  0
 16 18  2  0
 16 19  1  0
 18 20  1  0
 19 21  2  0
 20 22  2  0
 21 22  1  0
M  END
>  <ref_url>  (81) 
https://fakepage.com

>  <submitter_name>  (81) 
Steph Wills

>  <submitter_email>  (81) 
stephanie.wills@dtc.ox.ac.uk

>  <submitter_institution>  (81) 
University of Oxford

>  <generation_date>  (81) 
2020-06-04

>  <method>  (81) 
Fragment network

>  <ref_mols>  (81) 
x0176_0B,x0212_0B

>  <ref_pdb>  (81) 
references/x0176-0B-x0212-0B-89801.holo_minimised_nolig.pdb

>  <original SMILES>  (81) 
CC(C)c1ccc(NC(=O)NC(CO)c2ccccc2)cc1

>  <synthon>  (81) 
[Xe]c1ccccc1

>  <original_name>  (81) 
x0176-0B-x0212-0B-89801

>  <comRMSD_score>  (81) 
0.6342780558823642

>  <IF_score>  (81) 
0.4166666666666667

>  <SuCOS_score>  (81) 
0.50490698677683

>  <compound_ID>  (81) 
REAL:Z1132071408, REAL:Z1423804227

$$$$

     RDKit          3D

 25 26  0  0  0  0  0  0  0  0999 V2000
  -12.4750    6.4150  -73.6660 C   0  0  0  0  0  0  0  0  0  0  0  0
  -12.5510    6.6190  -75.0670 O   0  0  0  0  0  0  0  0  0  0  0  0
  -13.5570    5.8310  -75.6820 C   0  0  0  0  0  0  0  0  0  0  0  0
  -13.0680    5.2630  -76.9940 C   0  0  0  0  0  0  0  0  0  0  0  0
  -11.7510    4.5250  -76.8660 C   0  0  0  0  0  0  0  0  0  0  0  0
  -10.7490    4.7900  -77.7900 C   0  0  0  0  0  0  0  0  0  0  0  0
  -11.5030    3.5830  -75.8560 C   0  0  0  0  0  0  0  0  0  0  0  0
   -9.5250    4.1550  -77.7300 C   0  0  0  0  0  0  0  0  0  0  0  0
  -10.2590    2.9430  -75.7970 C   0  0  0  0  0  0  0  0  0  0  0  0
   -9.2680    3.2370  -76.7360 C   0  0  0  0  0  0  0  0  0  0  0  0
   -8.0930    2.5900  -76.5930 O   0  0  0  0  0  0  0  0  0  0  0  0
   -6.9260    3.4380  -76.4910 C   0  0  0  0  0  0  0  0  0  0  0  0
   -5.6540    2.6370  -76.7990 C   0  0  2  0  0  0  0  0  0  0  0  0
   -4.8350    2.5700  -75.6290 O   0  0  0  0  0  0  0  0  0  0  0  0
   -4.7990    3.1080  -77.9680 C   0  0  0  0  0  0  0  0  0  0  0  0
   -5.4380    2.6250  -79.5450 S   0  0  0  0  0  0  0  0  0  0  0  0
   -4.9730    1.2870  -79.8500 O   0  0  0  0  0  0  0  0  0  0  0  0
   -5.1650    3.7460  -80.4170 O   0  0  0  0  0  0  0  0  0  0  0  0
   -7.1750    2.5730  -79.0920 C   0  0  0  0  0  0  0  0  0  0  0  0
   -8.0080    1.6680  -79.9460 C   0  0  0  0  0  0  0  0  0  0  0  0
   -8.4390    2.0720  -81.2070 C   0  0  0  0  0  0  0  0  0  0  0  0
   -8.3710    0.3990  -79.4660 C   0  0  0  0  0  0  0  0  0  0  0  0
   -9.2210    1.2260  -81.9730 C   0  0  0  0  0  0  0  0  0  0  0  0
   -9.1570   -0.4450  -80.2410 C   0  0  0  0  0  0  0  0  0  0  0  0
   -9.5820   -0.0290  -81.4930 C   0  0  0  0  0  0  0  0  0  0  0  0
  1  2  1  0
  2  3  1  0
  3  4  1  0
  4  5  1  0
  5  6  2  0
  5  7  1  0
  6  8  1  0
  7  9  2  0
  8 10  2  0
  9 10  1  0
 10 11  1  0
 11 12  1  0
 12 13  1  0
 13 14  1  1
 13 15  1  0
 16 15  1  0
 16 17  2  0
 16 18  2  0
 16 19  1  0
 19 20  1  0
 20 21  2  0
 20 22  1  0
 21 23  1  0
 22 24  2  0
 23 25  2  0
 24 25  1  0
M  END
>  <ref_url>  (82) 
https://fakepage.com

>  <submitter_name>  (82) 
Steph Wills

>  <submitter_email>  (82) 
stephanie.wills@dtc.ox.ac.uk

>  <submitter_institution>  (82) 
University of Oxford

>  <generation_date>  (82) 
2020-06-04

>  <method>  (82) 
Fragment network

>  <ref_mols>  (82) 
x0176_0B,x0212_0B

>  <ref_pdb>  (82) 
references/x0176-0B-x0212-0B-92912.holo_minimised_nolig.pdb

>  <original SMILES>  (82) 
COCCc1ccc(OCC(O)CS(=O)(=O)Cc2ccccc2)cc1

>  <synthon>  (82) 
[Xe]c1ccccc1

>  <original_name>  (82) 
x0176-0B-x0212-0B-92912

>  <comRMSD_score>  (82) 
0.6110808578370083

>  <IF_score>  (82) 
0.8

>  <SuCOS_score>  (82) 
0.5199156137535423

>  <compound_ID>  (82) 
REAL:Z2352306557

$$$$

     RDKit          3D

 21 22  0  0  0  0  0  0  0  0999 V2000
  -13.7200    5.9960  -76.0290 C   0  0  0  0  0  0  0  0  0  0  0  0
  -12.9220    5.6050  -77.2230 C   0  0  0  0  0  0  0  0  0  0  0  0
  -11.8410    4.6520  -76.8330 C   0  0  0  0  0  0  0  0  0  0  0  0
  -10.6020    4.6770  -77.4590 C   0  0  0  0  0  0  0  0  0  0  0  0
  -12.0700    3.7180  -75.8140 C   0  0  0  0  0  0  0  0  0  0  0  0
   -9.5980    3.8140  -77.0820 C   0  0  0  0  0  0  0  0  0  0  0  0
  -11.0750    2.8410  -75.4280 C   0  0  0  0  0  0  0  0  0  0  0  0
   -9.8510    2.8960  -76.0570 C   0  0  0  0  0  0  0  0  0  0  0  0
   -9.0230    2.1110  -75.6770 O   0  0  0  0  0  0  0  0  0  0  0  0
   -8.2900    1.6070  -76.7310 C   0  0  0  0  0  0  0  0  0  0  0  0
   -8.2770    2.4350  -77.8490 C   0  0  0  0  0  0  0  0  0  0  0  0
   -9.2430    2.8510  -78.4780 O   0  0  0  0  0  0  0  0  0  0  0  0
   -6.9110    2.7550  -78.1890 N   0  0  0  0  0  0  0  0  0  0  0  0
   -6.2290    3.8060  -77.5190 C   0  0  0  0  0  0  0  0  0  0  0  0
   -6.6560    2.4700  -79.5920 C   0  0  0  0  0  0  0  0  0  0  0  0
   -7.6630    1.6440  -80.1510 C   0  0  0  0  0  0  0  0  0  0  0  0
   -8.3250    2.0630  -81.2930 C   0  0  0  0  0  0  0  0  0  0  0  0
   -8.0120    0.4070  -79.5870 C   0  0  0  0  0  0  0  0  0  0  0  0
   -9.3090    1.3080  -81.8970 C   0  0  0  0  0  0  0  0  0  0  0  0
   -9.0080   -0.4070  -80.1540 C   0  0  0  0  0  0  0  0  0  0  0  0
   -9.7000   -0.0280  -81.3080 C   0  0  0  0  0  0  0  0  0  0  0  0
  1  2  1  0
  2  3  1  0
  3  4  2  0
  3  5  1  0
  4  6  1  0
  5  7  2  0
  6  8  2  0
  7  8  1  0
  8  9  1  0
  9 10  1  0
 10 11  1  0
 11 12  2  0
 11 13  1  0
 13 14  1  0
 13 15  1  0
 15 16  1  0
 16 17  2  0
 16 18  1  0
 17 19  1  0
 18 20  2  0
 19 21  2  0
 20 21  1  0
M  END
>  <ref_url>  (83) 
https://fakepage.com

>  <submitter_name>  (83) 
Steph Wills

>  <submitter_email>  (83) 
stephanie.wills@dtc.ox.ac.uk

>  <submitter_institution>  (83) 
University of Oxford

>  <generation_date>  (83) 
2020-06-04

>  <method>  (83) 
Fragment network

>  <ref_mols>  (83) 
x0176_0B,x0212_0B

>  <ref_pdb>  (83) 
references/x0176-0B-x0212-0B-93778.holo_minimised_nolig.pdb

>  <original SMILES>  (83) 
CCc1ccc(OCC(=O)N(C)Cc2ccccc2)cc1

>  <synthon>  (83) 
[Xe]c1ccccc1

>  <original_name>  (83) 
x0176-0B-x0212-0B-93778

>  <comRMSD_score>  (83) 
0.9356914110253808

>  <IF_score>  (83) 
0.775

>  <SuCOS_score>  (83) 
0.4879874162159367

>  <compound_ID>  (83) 
MOLPORT:001-634-016, REAL:Z18838747

$$$$

     RDKit          3D

 21 22  0  0  0  0  0  0  0  0999 V2000
  -13.5580    6.0360  -76.2890 C   0  0  0  0  0  0  0  0  0  0  0  0
  -12.8240    5.5560  -77.5290 C   0  0  0  0  0  0  0  0  0  0  0  0
  -13.7960    4.8790  -78.4940 C   0  0  0  0  0  0  0  0  0  0  0  0
  -11.7080    4.6390  -77.1000 C   0  0  0  0  0  0  0  0  0  0  0  0
  -10.5780    4.4390  -77.8760 C   0  0  0  0  0  0  0  0  0  0  0  0
  -11.7870    3.9620  -75.8850 C   0  0  0  0  0  0  0  0  0  0  0  0
   -9.5350    3.6090  -77.5040 C   0  0  0  0  0  0  0  0  0  0  0  0
  -10.7640    3.1260  -75.4840 C   0  0  0  0  0  0  0  0  0  0  0  0
   -9.6380    2.9390  -76.2790 C   0  0  0  0  0  0  0  0  0  0  0  0
   -8.5760    2.0120  -75.7820 C   0  0  0  0  0  0  0  0  0  0  0  0
   -7.7970    1.0810  -77.0650 S   0  0  0  0  0  0  0  0  0  0  0  0
   -6.7490    2.4440  -77.4010 C   0  0  0  0  0  0  0  0  0  0  0  0
   -6.1870    3.2150  -76.2880 N   0  0  0  0  0  0  0  0  0  0  0  0
   -6.4760    2.7600  -78.7050 N   0  0  0  0  0  0  0  0  0  0  0  0
   -7.3920    3.0100  -79.6440 C   0  0  0  0  0  0  0  0  0  0  0  0
   -7.9040    1.8570  -80.2310 C   0  0  0  0  0  0  0  0  0  0  0  0
   -8.3680    2.0160  -81.4950 C   0  0  0  0  0  0  0  0  0  0  0  0
   -7.9590    0.5990  -79.6140 C   0  0  0  0  0  0  0  0  0  0  0  0
   -8.8910    0.9520  -82.1840 C   0  0  0  0  0  0  0  0  0  0  0  0
   -8.4970   -0.4860  -80.3090 C   0  0  0  0  0  0  0  0  0  0  0  0
   -8.9650   -0.3070  -81.6050 C   0  0  0  0  0  0  0  0  0  0  0  0
  1  2  1  0
  2  3  1  0
  2  4  1  0
  4  5  2  0
  4  6  1  0
  5  7  1  0
  6  8  2  0
  7  9  2  0
  8  9  1  0
  9 10  1  0
 10 11  1  0
 11 12  1  0
 12 13  2  3
 12 14  1  0
 14 15  1  0
 15 16  1  0
 16 17  2  0
 16 18  1  0
 17 19  1  0
 18 20  2  0
 19 21  2  0
 20 21  1  0
M  END
>  <ref_url>  (84) 
https://fakepage.com

>  <submitter_name>  (84) 
Steph Wills

>  <submitter_email>  (84) 
stephanie.wills@dtc.ox.ac.uk

>  <submitter_institution>  (84) 
University of Oxford

>  <generation_date>  (84) 
2020-06-04

>  <method>  (84) 
Fragment network

>  <ref_mols>  (84) 
x0176_0B,x0212_0B

>  <ref_pdb>  (84) 
references/x0176-0B-x0212-0B-94529.holo_minimised_nolig.pdb

>  <original SMILES>  (84) 
CC(C)c1ccc(CSC(=N)NCc2ccccc2)cc1

>  <synthon>  (84) 
[Xe]c1ccccc1

>  <original_name>  (84) 
x0176-0B-x0212-0B-94529

>  <comRMSD_score>  (84) 
0.80479557220668

>  <IF_score>  (84) 
0.5

>  <SuCOS_score>  (84) 
0.4697322437583625

>  <compound_ID>  (84) 
CHEMSPACE-BB:CSMB00024923434

$$$$

     RDKit          3D

 19 20  0  0  0  0  0  0  0  0999 V2000
  -12.7440    5.3790  -77.2550 C   0  0  0  0  0  0  0  0  0  0  0  0
  -11.5670    4.4090  -77.1400 C   0  0  0  0  0  0  0  0  0  0  0  0
  -11.5750    3.4510  -75.9250 C   0  0  0  0  0  0  0  0  0  0  0  0
  -10.5390    4.3620  -78.0630 C   0  0  0  0  0  0  0  0  0  0  0  0
  -10.4310    2.4460  -75.7900 C   0  0  0  0  0  0  0  0  0  0  0  0
   -9.4910    3.4700  -77.9660 C   0  0  0  0  0  0  0  0  0  0  0  0
   -9.4050    2.5420  -76.9180 C   0  0  0  0  0  0  0  0  0  0  0  0
   -8.0190    1.4590  -76.9700 S   0  0  0  0  0  0  0  0  0  0  0  0
   -8.4360    0.1070  -77.8310 O   0  0  0  0  0  0  0  0  0  0  0  0
   -7.4300    1.3690  -75.6740 O   0  0  0  0  0  0  0  0  0  0  0  0
   -7.0330    2.4870  -77.8340 N   0  0  0  0  0  0  0  0  0  0  0  0
   -6.9410    2.5720  -79.2030 C   0  0  0  0  0  0  0  0  0  0  0  0
   -5.9070    3.7110  -80.0440 S   0  0  0  0  0  0  0  0  0  0  0  0
   -7.7950    1.6400  -80.0260 C   0  0  0  0  0  0  0  0  0  0  0  0
   -8.0480    0.3060  -79.6050 C   0  0  0  0  0  0  0  0  0  0  0  0
   -8.3580    2.0720  -81.2290 C   0  0  0  0  0  0  0  0  0  0  0  0
   -8.8500   -0.5630  -80.3630 C   0  0  0  0  0  0  0  0  0  0  0  0
   -9.1360    1.2060  -81.9580 C   0  0  0  0  0  0  0  0  0  0  0  0
   -9.3790   -0.0770  -81.5340 C   0  0  0  0  0  0  0  0  0  0  0  0
  1  2  1  0
  2  3  2  0
  2  4  1  0
  3  5  1  0
  4  6  2  0
  5  7  2  0
  6  7  1  0
  7  8  1  0
  8  9  2  0
  8 10  2  0
  8 11  1  0
 11 12  2  3
 12 13  1  0
 12 14  1  0
 14 15  2  0
 14 16  1  0
 15 17  1  0
 16 18  2  0
 17 19  2  0
 18 19  1  0
M  END
>  <ref_url>  (85) 
https://fakepage.com

>  <submitter_name>  (85) 
Steph Wills

>  <submitter_email>  (85) 
stephanie.wills@dtc.ox.ac.uk

>  <submitter_institution>  (85) 
University of Oxford

>  <generation_date>  (85) 
2020-06-04

>  <method>  (85) 
Fragment network

>  <ref_mols>  (85) 
x0176_0B,x0212_0B

>  <ref_pdb>  (85) 
references/x0176-0B-x0212-0B-98563.holo_minimised_nolig.pdb

>  <original SMILES>  (85) 
Cc1ccc(S(=O)(=O)N=C(S)c2ccccc2)cc1

>  <synthon>  (85) 
[Xe]c1ccccc1

>  <original_name>  (85) 
x0176-0B-x0212-0B-98563

>  <comRMSD_score>  (85) 
0.6132459255611832

>  <IF_score>  (85) 
0.5833333333333334

>  <SuCOS_score>  (85) 
0.4518363811284224

>  <compound_ID>  (85) 
MOLPORT:002-212-425

$$$$

     RDKit          3D

 21 22  0  0  0  0  0  0  0  0999 V2000
  -13.6680    5.8700  -76.2100 C   0  0  0  0  0  0  0  0  0  0  0  0
  -13.1110    4.8750  -77.1980 C   0  0  0  0  0  0  0  0  0  0  0  0
  -13.8330    4.5700  -78.3980 O   0  0  0  0  0  0  0  0  0  0  0  0
  -11.7820    4.2040  -76.8860 C   0  0  0  0  0  0  0  0  0  0  0  0
  -10.6270    4.6830  -77.7720 C   0  0  0  0  0  0  0  0  0  0  0  0
  -11.5890    3.2430  -75.8870 C   0  0  0  0  0  0  0  0  0  0  0  0
   -9.3090    4.0410  -77.4740 C   0  0  0  0  0  0  0  0  0  0  0  0
  -10.3230    2.7000  -75.6780 C   0  0  0  0  0  0  0  0  0  0  0  0
   -9.2350    3.1050  -76.4570 C   0  0  0  0  0  0  0  0  0  0  0  0
   -8.1410    2.6380  -76.2620 O   0  0  0  0  0  0  0  0  0  0  0  0
   -7.2960    2.3740  -77.3730 C   0  0  0  0  0  0  0  0  0  0  0  0
   -6.4190    3.3930  -77.7430 C   0  0  0  0  0  0  0  0  0  0  0  0
   -6.5110    3.9890  -79.1450 C   0  0  0  0  0  0  0  0  0  0  0  0
   -5.9010    3.0580  -80.0310 O   0  0  0  0  0  0  0  0  0  0  0  0
   -6.0820    1.7050  -79.6330 C   0  0  0  0  0  0  0  0  0  0  0  0
   -6.9760    0.9090  -80.3540 C   0  0  0  0  0  0  0  0  0  0  0  0
   -7.5450   -0.3650  -79.7940 C   0  0  0  0  0  0  0  0  0  0  0  0
   -7.3630    1.3020  -81.6300 C   0  0  0  0  0  0  0  0  0  0  0  0
   -8.4340   -1.1070  -80.5760 C   0  0  0  0  0  0  0  0  0  0  0  0
   -8.2510    0.5230  -82.3720 C   0  0  0  0  0  0  0  0  0  0  0  0
   -8.7800   -0.6660  -81.8530 C   0  0  0  0  0  0  0  0  0  0  0  0
  1  2  1  0
  2  3  2  0
  2  4  1  0
  4  5  2  0
  4  6  1  0
  5  7  1  0
  6  8  2  0
  7  9  2  0
  8  9  1  0
  9 10  1  0
 10 11  1  0
 11 12  1  0
 12 13  1  0
 13 14  1  0
 14 15  1  0
 15 16  1  0
 16 17  2  0
 16 18  1  0
 17 19  1  0
 18 20  2  0
 19 21  2  0
 20 21  1  0
M  END
>  <ref_url>  (86) 
https://fakepage.com

>  <submitter_name>  (86) 
Steph Wills

>  <submitter_email>  (86) 
stephanie.wills@dtc.ox.ac.uk

>  <submitter_institution>  (86) 
University of Oxford

>  <generation_date>  (86) 
2020-06-04

>  <method>  (86) 
Fragment network

>  <ref_mols>  (86) 
x0176_0B,x0212_0B

>  <ref_pdb>  (86) 
references/x0176-0B-x0212-0B-98801.holo_minimised_nolig.pdb

>  <original SMILES>  (86) 
CC(=O)c1ccc(OCCCOCc2ccccc2)cc1

>  <synthon>  (86) 
[Xe]c1ccccc1

>  <original_name>  (86) 
x0176-0B-x0212-0B-98801

>  <comRMSD_score>  (86) 
0.9246128449483472

>  <IF_score>  (86) 
0.3809523809523809

>  <SuCOS_score>  (86) 
0.3908072114941602

>  <compound_ID>  (86) 
CHEMSPACE-BB:CSMB00013374833

$$$$

     RDKit          3D

 22 23  0  0  0  0  0  0  0  0999 V2000
  -14.1320    5.6210  -79.4390 C   0  0  0  0  0  0  0  0  0  0  0  0
  -13.3150    5.8760  -78.1610 C   0  0  0  0  0  0  0  0  0  0  0  0
  -13.3780    4.6870  -77.1890 C   0  0  0  0  0  0  0  0  0  0  0  0
  -14.3780    3.6060  -77.6260 C   0  0  0  0  0  0  0  0  0  0  0  0
  -13.7370    5.3050  -75.8390 C   0  0  0  0  0  0  0  0  0  0  0  0
  -11.9950    4.0870  -76.9910 C   0  0  0  0  0  0  0  0  0  0  0  0
  -10.7930    4.4480  -77.8160 C   0  0  0  0  0  0  0  0  0  0  0  0
  -11.8340    3.1350  -75.9740 C   0  0  0  0  0  0  0  0  0  0  0  0
   -9.6000    3.8220  -77.5260 C   0  0  0  0  0  0  0  0  0  0  0  0
  -10.5960    2.5370  -75.7300 C   0  0  0  0  0  0  0  0  0  0  0  0
   -9.5010    2.8900  -76.5090 C   0  0  0  0  0  0  0  0  0  0  0  0
   -8.2210    2.3070  -76.2950 N   0  0  0  0  0  0  0  0  0  0  0  0
   -7.1600    2.8520  -76.9370 C   0  0  0  0  0  0  0  0  0  0  0  0
   -6.6670    3.9630  -76.7460 O   0  0  0  0  0  0  0  0  0  0  0  0
   -6.6470    1.9590  -77.8860 N   0  0  0  0  0  0  0  0  0  0  0  0
   -6.4580    2.3270  -79.2990 C   0  0  0  0  0  0  0  0  0  0  0  0
   -7.1150    1.3160  -80.2550 C   0  0  0  0  0  0  0  0  0  0  0  0
   -7.4570   -0.0630  -79.6600 C   0  0  0  0  0  0  0  0  0  0  0  0
   -7.4230    1.5780  -81.5880 C   0  0  0  0  0  0  0  0  0  0  0  0
   -8.0760   -1.0010  -80.5110 C   0  0  0  0  0  0  0  0  0  0  0  0
   -8.0350    0.5930  -82.3820 C   0  0  0  0  0  0  0  0  0  0  0  0
   -8.3560   -0.6710  -81.8510 C   0  0  0  0  0  0  0  0  0  0  0  0
  1  2  1  0
  3  2  1  0
  3  4  1  0
  3  5  1  0
  3  6  1  0
  6  7  2  0
  6  8  1  0
  7  9  1  0
  8 10  2  0
  9 11  2  0
 10 11  1  0
 11 12  1  0
 12 13  1  0
 13 14  2  0
 13 15  1  0
 15 16  1  0
 16 17  1  0
 17 18  2  0
 17 19  1  0
 18 20  1  0
 19 21  2  0
 20 22  2  0
 21 22  1  0
M  END
>  <ref_url>  (87) 
https://fakepage.com

>  <submitter_name>  (87) 
Steph Wills

>  <submitter_email>  (87) 
stephanie.wills@dtc.ox.ac.uk

>  <submitter_institution>  (87) 
University of Oxford

>  <generation_date>  (87) 
2020-06-04

>  <method>  (87) 
Fragment network

>  <ref_mols>  (87) 
x0176_0B,x0212_0B

>  <ref_pdb>  (87) 
references/x0176-0B-x0212-0B-100445.holo_minimised_nolig.pdb

>  <original SMILES>  (87) 
CCC(C)(C)c1ccc(NC(=O)NCc2ccccc2)cc1

>  <synthon>  (87) 
[Xe]c1ccccc1

>  <original_name>  (87) 
x0176-0B-x0212-0B-100445

>  <comRMSD_score>  (87) 
0.8839367722814246

>  <IF_score>  (87) 
0.2857142857142857

>  <SuCOS_score>  (87) 
0.4425132765811402

>  <compound_ID>  (87) 
REAL:PV-001946627224

$$$$

     RDKit          3D

 21 22  0  0  0  0  0  0  0  0999 V2000
   -6.4310    3.8180  -76.9230 C   0  0  0  0  0  0  0  0  0  0  0  0
   -7.4770    3.2450  -77.7820 N   0  0  0  0  0  0  0  0  0  0  0  0
   -6.9070    2.5240  -78.9430 C   0  0  0  0  0  0  0  0  0  0  0  0
   -8.4060    2.4260  -77.0060 C   0  0  0  0  0  0  0  0  0  0  0  0
   -7.8780    1.6330  -79.7580 C   0  0  0  0  0  0  0  0  0  0  0  0
   -9.6020    3.0780  -76.8660 C   0  0  0  0  0  0  0  0  0  0  0  0
   -8.3310    2.1090  -81.0860 C   0  0  0  0  0  0  0  0  0  0  0  0
   -8.3620    0.3800  -79.3230 C   0  0  0  0  0  0  0  0  0  0  0  0
  -10.5860    2.6690  -75.9640 C   0  0  0  0  0  0  0  0  0  0  0  0
   -9.8350    4.1660  -77.6630 C   0  0  0  0  0  0  0  0  0  0  0  0
   -9.1910    1.3280  -81.8330 C   0  0  0  0  0  0  0  0  0  0  0  0
   -9.2410   -0.3730  -80.1290 C   0  0  0  0  0  0  0  0  0  0  0  0
  -11.8030    3.3610  -75.8940 C   0  0  0  0  0  0  0  0  0  0  0  0
  -11.0250    4.8440  -77.5930 C   0  0  0  0  0  0  0  0  0  0  0  0
   -9.6590    0.0950  -81.3820 C   0  0  0  0  0  0  0  0  0  0  0  0
  -12.0350    4.4690  -76.7310 C   0  0  0  0  0  0  0  0  0  0  0  0
  -13.2370    5.1930  -76.7440 C   0  0  0  0  0  0  0  0  0  0  0  0
  -13.5880    5.7190  -75.5100 C   0  0  0  0  0  0  0  0  0  0  0  0
  -12.6330    6.4360  -74.8700 N   0  0  0  0  0  0  0  0  0  0  0  0
  -14.7590    5.5820  -74.9280 N   0  0  0  0  0  0  0  0  0  0  0  0
  -15.6450    4.8050  -75.6760 O   0  0  0  0  0  0  0  0  0  0  0  0
  1  2  1  0
  2  3  1  0
  2  4  1  0
  3  5  1  0
  4  6  1  0
  5  7  2  0
  5  8  1  0
  6  9  2  0
  6 10  1  0
  7 11  1  0
  8 12  2  0
  9 13  1  0
 10 14  2  0
 11 15  2  0
 12 15  1  0
 13 16  2  0
 14 16  1  0
 16 17  1  0
 17 18  1  0
 18 19  1  0
 18 20  2  3
 20 21  1  0
M  END
>  <ref_url>  (88) 
https://fakepage.com

>  <submitter_name>  (88) 
Steph Wills

>  <submitter_email>  (88) 
stephanie.wills@dtc.ox.ac.uk

>  <submitter_institution>  (88) 
University of Oxford

>  <generation_date>  (88) 
2020-06-04

>  <method>  (88) 
Fragment network

>  <ref_mols>  (88) 
x0176_0B,x0212_0B

>  <ref_pdb>  (88) 
references/x0176-0B-x0212-0B-100523.holo_minimised_nolig.pdb

>  <original SMILES>  (88) 
CN(Cc1ccccc1)Cc1ccc(CC(N)=NO)cc1

>  <synthon>  (88) 
[Xe]c1ccccc1

>  <original_name>  (88) 
x0176-0B-x0212-0B-100523

>  <comRMSD_score>  (88) 
0.9467653264317052

>  <IF_score>  (88) 
0.55

>  <SuCOS_score>  (88) 
0.5533075374430731

>  <compound_ID>  (88) 
CHEMSPACE-BB:CSMB00016980174

$$$$

     RDKit          3D

 24 25  0  0  0  0  0  0  0  0999 V2000
  -13.6600    6.2010  -75.7860 C   0  0  0  0  0  0  0  0  0  0  0  0
  -13.5750    4.8090  -76.4000 C   0  0  0  0  0  0  0  0  0  0  0  0
  -12.1090    4.4820  -76.7170 C   0  0  0  0  0  0  0  0  0  0  0  0
  -11.3800    3.4980  -75.8200 C   0  0  0  0  0  0  0  0  0  0  0  0
  -11.4900    5.0700  -77.7910 C   0  0  0  0  0  0  0  0  0  0  0  0
   -9.9500    3.2820  -76.2630 C   0  0  0  0  0  0  0  0  0  0  0  0
  -10.2030    4.7940  -78.1110 C   0  0  0  0  0  0  0  0  0  0  0  0
   -9.4490    3.9520  -77.3870 C   0  0  0  0  0  0  0  0  0  0  0  0
   -8.1700    3.7210  -77.7060 O   0  0  0  0  0  0  0  0  0  0  0  0
   -7.1760    3.7400  -76.6890 C   0  0  0  0  0  0  0  0  0  0  0  0
   -6.5270    2.5440  -76.7690 C   0  0  0  0  0  0  0  0  0  0  0  0
   -5.5700    2.2200  -76.0710 O   0  0  0  0  0  0  0  0  0  0  0  0
   -7.1130    1.7510  -77.7320 N   0  0  0  0  0  0  0  0  0  0  0  0
   -8.5630    1.5330  -77.5850 C   0  0  0  0  0  0  0  0  0  0  0  0
   -6.7280    1.9200  -79.1420 C   0  0  2  0  0  0  0  0  0  0  0  0
   -9.0570    1.7480  -76.2990 C   0  0  0  0  0  0  0  0  0  0  0  0
   -6.3480    3.3600  -79.5830 C   0  0  0  0  0  0  0  0  0  0  0  0
   -7.8050    1.2950  -80.0140 C   0  0  0  0  0  0  0  0  0  0  0  0
   -5.2190    3.7210  -79.8860 O   0  0  0  0  0  0  0  0  0  0  0  0
   -8.3240    0.0310  -79.6920 C   0  0  0  0  0  0  0  0  0  0  0  0
   -8.3200    1.9430  -81.1520 C   0  0  0  0  0  0  0  0  0  0  0  0
   -9.3130   -0.5660  -80.4570 C   0  0  0  0  0  0  0  0  0  0  0  0
   -9.3050    1.3380  -81.9130 C   0  0  0  0  0  0  0  0  0  0  0  0
   -9.8030    0.0910  -81.5650 C   0  0  0  0  0  0  0  0  0  0  0  0
  1  2  1  0
  2  3  1  0
  3  4  2  0
  3  5  1  0
  4  6  1  0
  5  7  2  0
  6  8  2  0
  7  8  1  0
  8  9  1  0
  9 10  1  0
 10 11  1  0
 11 12  2  0
 11 13  1  0
 13 14  1  0
 13 15  1  0
 14 16  1  0
 15 17  1  6
 15 18  1  0
 17 19  1  0
 18 20  2  0
 18 21  1  0
 20 22  1  0
 21 23  2  0
 22 24  2  0
 23 24  1  0
M  END
>  <ref_url>  (89) 
https://fakepage.com

>  <submitter_name>  (89) 
Steph Wills

>  <submitter_email>  (89) 
stephanie.wills@dtc.ox.ac.uk

>  <submitter_institution>  (89) 
University of Oxford

>  <generation_date>  (89) 
2020-06-04

>  <method>  (89) 
Fragment network

>  <ref_mols>  (89) 
x0176_0B,x0212_0B

>  <ref_pdb>  (89) 
references/x0176-0B-x0212-0B-103272.holo_minimised_nolig.pdb

>  <original SMILES>  (89) 
CCc1ccc(OCC(=O)N(CC)C(CO)c2ccccc2)cc1

>  <synthon>  (89) 
[Xe]c1ccccc1

>  <original_name>  (89) 
x0176-0B-x0212-0B-103272

>  <comRMSD_score>  (89) 
0.8978550284839487

>  <IF_score>  (89) 
0.675

>  <SuCOS_score>  (89) 
0.4771894422460569

>  <compound_ID>  (89) 
REAL:PV-001868237909

$$$$

     RDKit          3D

 19 20  0  0  0  0  0  0  0  0999 V2000
  -13.4100    5.7960  -75.8790 C   0  0  0  0  0  0  0  0  0  0  0  0
  -12.6300    5.5810  -77.1550 C   0  0  0  0  0  0  0  0  0  0  0  0
  -11.4940    4.5630  -76.9660 C   0  0  0  0  0  0  0  0  0  0  0  0
  -11.6680    3.5640  -75.8140 C   0  0  0  0  0  0  0  0  0  0  0  0
  -10.3660    4.5330  -77.7800 C   0  0  0  0  0  0  0  0  0  0  0  0
  -10.5340    2.5920  -75.6730 C   0  0  0  0  0  0  0  0  0  0  0  0
   -9.3540    3.5990  -77.5830 C   0  0  0  0  0  0  0  0  0  0  0  0
   -9.4430    2.6400  -76.5390 C   0  0  0  0  0  0  0  0  0  0  0  0
   -8.4340    1.7010  -76.3400 C   0  0  0  0  0  0  0  0  0  0  0  0
   -7.2450    1.6870  -77.0670 N   0  0  0  0  0  0  0  0  0  0  0  0
   -7.0740    2.6310  -78.0090 N   0  0  0  0  0  0  0  0  0  0  0  0
   -6.6780    2.2620  -79.2770 C   0  0  0  0  0  0  0  0  0  0  0  0
   -5.3830    2.4700  -79.8490 O   0  0  0  0  0  0  0  0  0  0  0  0
   -7.7560    1.5620  -80.0820 C   0  0  0  0  0  0  0  0  0  0  0  0
   -8.1990    0.2470  -79.5290 C   0  0  0  0  0  0  0  0  0  0  0  0
   -8.3320    2.0380  -81.2520 C   0  0  0  0  0  0  0  0  0  0  0  0
   -9.1680   -0.5260  -80.1410 C   0  0  0  0  0  0  0  0  0  0  0  0
   -9.3140    1.2800  -81.9000 C   0  0  0  0  0  0  0  0  0  0  0  0
   -9.7550    0.0350  -81.4040 C   0  0  0  0  0  0  0  0  0  0  0  0
  1  2  1  0
  2  3  1  0
  3  4  2  0
  3  5  1  0
  4  6  1  0
  5  7  2  0
  6  8  2  0
  7  8  1  0
  8  9  1  0
  9 10  2  3
 10 11  1  0
 11 12  1  0
 12 13  2  0
 12 14  1  0
 14 15  2  0
 14 16  1  0
 15 17  1  0
 16 18  2  0
 17 19  2  0
 18 19  1  0
M  END
>  <ref_url>  (90) 
https://fakepage.com

>  <submitter_name>  (90) 
Steph Wills

>  <submitter_email>  (90) 
stephanie.wills@dtc.ox.ac.uk

>  <submitter_institution>  (90) 
University of Oxford

>  <generation_date>  (90) 
2020-06-04

>  <method>  (90) 
Fragment network

>  <ref_mols>  (90) 
x0176_0B,x0212_0B

>  <ref_pdb>  (90) 
references/x0176-0B-x0212-0B-103597.holo_minimised_nolig.pdb

>  <original SMILES>  (90) 
CCc1ccc(C=NNC(=O)c2ccccc2)cc1

>  <synthon>  (90) 
[Xe]c1ccccc1

>  <original_name>  (90) 
x0176-0B-x0212-0B-103597

>  <comRMSD_score>  (90) 
0.5417363790145774

>  <IF_score>  (90) 
0.8

>  <SuCOS_score>  (90) 
0.5122440001201949

>  <compound_ID>  (90) 
MOLPORT:001-803-899

$$$$

     RDKit          3D

 21 22  0  0  0  0  0  0  0  0999 V2000
  -14.4900    4.0570  -75.6750 C   0  0  0  0  0  0  0  0  0  0  0  0
  -13.5470    5.2650  -75.8780 C   0  0  0  0  0  0  0  0  0  0  0  0
  -12.7830    5.1950  -77.2150 C   0  0  1  0  0  0  0  0  0  0  0  0
  -12.5810    6.5530  -77.5870 O   0  0  0  0  0  0  0  0  0  0  0  0
  -11.5630    4.2660  -77.2010 C   0  0  0  0  0  0  0  0  0  0  0  0
  -11.5220    3.1960  -76.1230 C   0  0  0  0  0  0  0  0  0  0  0  0
  -10.5310    4.3790  -78.1300 C   0  0  0  0  0  0  0  0  0  0  0  0
  -10.4280    2.3320  -76.1020 C   0  0  0  0  0  0  0  0  0  0  0  0
   -9.4420    3.5110  -78.0990 C   0  0  0  0  0  0  0  0  0  0  0  0
   -9.3430    2.5000  -77.1440 C   0  0  0  0  0  0  0  0  0  0  0  0
   -8.3290    1.6010  -77.0380 O   0  0  0  0  0  0  0  0  0  0  0  0
   -7.2140    1.9770  -76.2510 C   0  0  0  0  0  0  0  0  0  0  0  0
   -6.2550    2.5800  -77.0390 C   0  0  0  0  0  0  0  0  0  0  0  0
   -5.8610    1.8010  -78.1530 O   0  0  0  0  0  0  0  0  0  0  0  0
   -6.6590    2.2590  -79.2240 C   0  0  0  0  0  0  0  0  0  0  0  0
   -7.2590    1.2090  -80.1030 C   0  0  0  0  0  0  0  0  0  0  0  0
   -7.5390    1.5640  -81.5530 C   0  0  0  0  0  0  0  0  0  0  0  0
   -7.5810   -0.0830  -79.6540 C   0  0  0  0  0  0  0  0  0  0  0  0
   -8.1480    0.4830  -82.4430 C   0  0  0  0  0  0  0  0  0  0  0  0
   -8.1530   -1.0450  -80.5230 C   0  0  0  0  0  0  0  0  0  0  0  0
   -8.4260   -0.7740  -81.8770 C   0  0  0  0  0  0  0  0  0  0  0  0
  1  2  1  0
  2  3  1  0
  3  4  1  1
  3  5  1  0
  5  6  2  0
  5  7  1  0
  6  8  1  0
  7  9  2  0
  8 10  2  0
  9 10  1  0
 10 11  1  0
 11 12  1  0
 12 13  1  0
 13 14  1  0
 14 15  1  0
 15 16  1  0
 16 17  2  0
 16 18  1  0
 17 19  1  0
 18 20  2  0
 19 21  2  0
 20 21  1  0
M  END
>  <ref_url>  (91) 
https://fakepage.com

>  <submitter_name>  (91) 
Steph Wills

>  <submitter_email>  (91) 
stephanie.wills@dtc.ox.ac.uk

>  <submitter_institution>  (91) 
University of Oxford

>  <generation_date>  (91) 
2020-06-04

>  <method>  (91) 
Fragment network

>  <ref_mols>  (91) 
x0176_0B,x0212_0B

>  <ref_pdb>  (91) 
references/x0176-0B-x0212-0B-103621.holo_minimised_nolig.pdb

>  <original SMILES>  (91) 
CCC(O)c1ccc(OCCOCc2ccccc2)cc1

>  <synthon>  (91) 
[Xe]c1ccccc1

>  <original_name>  (91) 
x0176-0B-x0212-0B-103621

>  <comRMSD_score>  (91) 
0.929042447665992

>  <IF_score>  (91) 
0.4375

>  <SuCOS_score>  (91) 
0.4120594484500621

>  <compound_ID>  (91) 
CHEMSPACE-BB:CSMB00014805908, CHEMSPACE-BB:CSMB00014805939, CHEMSPACE-BB:CSMB00014805940

$$$$

     RDKit          3D

 21 22  0  0  0  0  0  0  0  0999 V2000
   -7.5750    1.7200  -75.1180 C   0  0  0  0  0  0  0  0  0  0  0  0
   -7.0650    1.2080  -76.4680 C   0  0  0  0  0  0  0  0  0  0  0  0
   -7.6730    1.9360  -77.5830 N   0  0  0  0  0  0  0  0  0  0  0  0
   -7.1390    1.9440  -78.8490 C   0  0  0  0  0  0  0  0  0  0  0  0
   -8.1430    3.2570  -77.3060 C   0  0  0  0  0  0  0  0  0  0  0  0
   -8.0420    1.3220  -79.8250 C   0  0  0  0  0  0  0  0  0  0  0  0
   -9.4860    3.3480  -77.0330 C   0  0  0  0  0  0  0  0  0  0  0  0
   -8.3750    1.9100  -81.0410 C   0  0  0  0  0  0  0  0  0  0  0  0
   -8.5960    0.0880  -79.5030 C   0  0  0  0  0  0  0  0  0  0  0  0
  -10.3090    2.5250  -76.2960 C   0  0  0  0  0  0  0  0  0  0  0  0
  -10.0420    4.4520  -77.5970 C   0  0  0  0  0  0  0  0  0  0  0  0
   -9.2360    1.3130  -81.9340 C   0  0  0  0  0  0  0  0  0  0  0  0
   -9.4660   -0.5350  -80.3830 C   0  0  0  0  0  0  0  0  0  0  0  0
  -11.6600    2.8410  -76.1230 C   0  0  0  0  0  0  0  0  0  0  0  0
  -11.3350    4.8070  -77.4460 C   0  0  0  0  0  0  0  0  0  0  0  0
   -9.7890    0.0710  -81.5900 C   0  0  0  0  0  0  0  0  0  0  0  0
  -12.1690    4.0200  -76.6990 C   0  0  0  0  0  0  0  0  0  0  0  0
  -13.4780    4.4390  -76.5490 C   0  0  0  0  0  0  0  0  0  0  0  0
  -13.4560    5.6960  -75.9410 C   0  0  0  0  0  0  0  0  0  0  0  0
  -14.8160    5.8630  -76.0000 N   0  0  0  0  0  0  0  0  0  0  0  0
  -13.0660    6.6680  -75.4370 N   0  0  0  0  0  0  0  0  0  0  0  0
  1  2  1  0
  2  3  1  0
  3  4  1  0
  3  5  1  0
  4  6  1  0
  5  7  1  0
  6  8  2  0
  6  9  1  0
  7 10  2  0
  7 11  1  0
  8 12  1  0
  9 13  2  0
 10 14  1  0
 11 15  2  0
 12 16  2  0
 13 16  1  0
 14 17  2  0
 15 17  1  0
 17 18  1  0
 18 19  1  0
 19 20  2  3
 19 21  1  0
M  END
>  <ref_url>  (92) 
https://fakepage.com

>  <submitter_name>  (92) 
Steph Wills

>  <submitter_email>  (92) 
stephanie.wills@dtc.ox.ac.uk

>  <submitter_institution>  (92) 
University of Oxford

>  <generation_date>  (92) 
2020-06-04

>  <method>  (92) 
Fragment network

>  <ref_mols>  (92) 
x0176_0B,x0212_0B

>  <ref_pdb>  (92) 
references/x0176-0B-x0212-0B-103813.holo_minimised_nolig.pdb

>  <original SMILES>  (92) 
CCN(Cc1ccccc1)Cc1ccc(CC(=N)N)cc1

>  <synthon>  (92) 
[Xe]c1ccccc1

>  <original_name>  (92) 
x0176-0B-x0212-0B-103813

>  <comRMSD_score>  (92) 
0.8197356535290303

>  <IF_score>  (92) 
0.75

>  <SuCOS_score>  (92) 
0.5376261383068581

>  <compound_ID>  (92) 
CHEMSPACE-BB:CSMB00016980175

$$$$

     RDKit          3D

 22 23  0  0  0  0  0  0  0  0999 V2000
   -5.7290    0.3920  -78.0540 C   0  0  0  0  0  0  0  0  0  0  0  0
   -6.6210    1.6370  -77.8750 C   0  0  1  0  0  0  0  0  0  0  0  0
   -6.9030    2.3150  -79.2350 C   0  0  0  0  0  0  0  0  0  0  0  0
   -7.9190    1.2100  -77.1450 C   0  0  0  0  0  0  0  0  0  0  0  0
   -7.8930    1.4760  -80.0220 C   0  0  0  0  0  0  0  0  0  0  0  0
   -8.5040    0.1570  -77.4050 O   0  0  0  0  0  0  0  0  0  0  0  0
   -8.2990    2.1780  -76.1590 N   0  0  0  0  0  0  0  0  0  0  0  0
   -8.4470    2.1050  -81.2780 C   0  0  0  0  0  0  0  0  0  0  0  0
   -8.3130    0.1790  -79.6530 C   0  0  0  0  0  0  0  0  0  0  0  0
   -9.4390    3.0040  -76.4500 C   0  0  0  0  0  0  0  0  0  0  0  0
   -9.3630    1.3680  -82.0200 C   0  0  0  0  0  0  0  0  0  0  0  0
   -9.2250   -0.5290  -80.4070 C   0  0  0  0  0  0  0  0  0  0  0  0
   -9.3390    3.9330  -77.6530 C   0  0  0  0  0  0  0  0  0  0  0  0
  -10.5630    2.9370  -75.6440 C   0  0  0  0  0  0  0  0  0  0  0  0
   -9.7750   -0.0120  -81.5630 C   0  0  0  0  0  0  0  0  0  0  0  0
  -10.5980    4.7830  -77.8550 C   0  0  0  0  0  0  0  0  0  0  0  0
  -11.6610    3.7470  -75.9010 C   0  0  0  0  0  0  0  0  0  0  0  0
  -11.6910    4.6530  -76.9690 C   0  0  0  0  0  0  0  0  0  0  0  0
  -12.8250    5.4510  -77.1600 C   0  0  0  0  0  0  0  0  0  0  0  0
  -13.5110    5.6110  -75.9700 C   0  0  0  0  0  0  0  0  0  0  0  0
  -12.6950    6.2850  -74.9680 N   0  0  0  0  0  0  0  0  0  0  0  0
  -14.6590    5.2430  -75.7550 O   0  0  0  0  0  0  0  0  0  0  0  0
  2  1  1  6
  2  3  1  0
  2  4  1  0
  3  5  1  0
  4  6  2  0
  4  7  1  0
  5  8  2  0
  5  9  1  0
  7 10  1  0
  8 11  1  0
  9 12  2  0
 10 13  2  0
 10 14  1  0
 11 15  2  0
 12 15  1  0
 13 16  1  0
 14 17  2  0
 16 18  2  0
 17 18  1  0
 18 19  1  0
 19 20  1  0
 20 21  1  0
 20 22  2  0
M  END
>  <ref_url>  (93) 
https://fakepage.com

>  <submitter_name>  (93) 
Steph Wills

>  <submitter_email>  (93) 
stephanie.wills@dtc.ox.ac.uk

>  <submitter_institution>  (93) 
University of Oxford

>  <generation_date>  (93) 
2020-06-04

>  <method>  (93) 
Fragment network

>  <ref_mols>  (93) 
x0176_0B,x0212_0B

>  <ref_pdb>  (93) 
references/x0176-0B-x0212-0B-103839.holo_minimised_nolig.pdb

>  <original SMILES>  (93) 
CC(Cc1ccccc1)C(=O)Nc1ccc(CC(N)=O)cc1

>  <synthon>  (93) 
[Xe]c1ccccc1

>  <original_name>  (93) 
x0176-0B-x0212-0B-103839

>  <comRMSD_score>  (93) 
0.6385936044673988

>  <IF_score>  (93) 
0.675

>  <SuCOS_score>  (93) 
0.5313507047082404

>  <compound_ID>  (93) 
REAL:Z2098088753, REAL:Z2098088815

$$$$

     RDKit          3D

 22 23  0  0  0  0  0  0  0  0999 V2000
   -6.7450    2.4630  -79.2480 C   0  0  0  0  0  0  0  0  0  0  0  0
   -7.8290    1.5950  -79.8530 C   0  0  0  0  0  0  0  0  0  0  0  0
   -8.3670    2.0470  -81.2110 C   0  0  0  0  0  0  0  0  0  0  0  0
   -8.3070    0.4570  -79.2010 C   0  0  0  0  0  0  0  0  0  0  0  0
   -9.4800    1.1560  -81.7860 C   0  0  0  0  0  0  0  0  0  0  0  0
   -9.3200   -0.3290  -79.7450 C   0  0  0  0  0  0  0  0  0  0  0  0
   -9.9180   -0.0380  -80.9650 C   0  0  0  0  0  0  0  0  0  0  0  0
  -10.9470   -0.9250  -81.3380 N   0  0  0  0  0  0  0  0  0  0  0  0
  -12.0220   -1.2970  -80.5230 C   0  0  0  0  0  0  0  0  0  0  0  0
  -12.7520   -0.1680  -80.1010 C   0  0  0  0  0  0  0  0  0  0  0  0
  -13.7680    0.0380  -80.7670 O   0  0  0  0  0  0  0  0  0  0  0  0
  -12.3680    0.6670  -79.0050 N   0  0  0  0  0  0  0  0  0  0  0  0
  -12.6450    0.3490  -77.6870 N   0  0  0  0  0  0  0  0  0  0  0  0
  -13.1670    1.1690  -76.7880 C   0  0  0  0  0  0  0  0  0  0  0  0
  -13.6520    2.6330  -76.7790 C   0  0  0  0  0  0  0  0  0  0  0  0
  -12.6190    3.7570  -76.7670 C   0  0  0  0  0  0  0  0  0  0  0  0
  -11.2610    3.4770  -76.7650 C   0  0  0  0  0  0  0  0  0  0  0  0
  -10.8020    2.3840  -75.8600 C   0  0  0  0  0  0  0  0  0  0  0  0
  -10.3210    4.1480  -77.5620 C   0  0  0  0  0  0  0  0  0  0  0  0
   -9.4630    2.0500  -75.8310 C   0  0  0  0  0  0  0  0  0  0  0  0
   -8.9810    3.7680  -77.4960 C   0  0  0  0  0  0  0  0  0  0  0  0
   -8.5800    2.7430  -76.6450 C   0  0  0  0  0  0  0  0  0  0  0  0
  1  2  1  0
  2  3  2  0
  2  4  1  0
  3  5  1  0
  4  6  2  0
  5  7  2  0
  6  7  1  0
  7  8  1  0
  8  9  1  0
  9 10  1  0
 10 11  2  0
 10 12  1  0
 12 13  1  0
 13 14  2  3
 14 15  1  0
 15 16  2  3
 16 17  1  0
 17 18  2  0
 17 19  1  0
 18 20  1  0
 19 21  2  0
 20 22  2  0
 21 22  1  0
M  END
>  <ref_url>  (94) 
https://fakepage.com

>  <submitter_name>  (94) 
Steph Wills

>  <submitter_email>  (94) 
stephanie.wills@dtc.ox.ac.uk

>  <submitter_institution>  (94) 
University of Oxford

>  <generation_date>  (94) 
2020-06-04

>  <method>  (94) 
Fragment network

>  <ref_mols>  (94) 
x0176_0B,x0212_0B

>  <ref_pdb>  (94) 
references/x0176-0B-x0212-0B-105126.holo_minimised_nolig.pdb

>  <original SMILES>  (94) 
Cc1ccc(NCC(=O)NN=CC=Cc2ccccc2)cc1

>  <synthon>  (94) 
[Xe]c1ccccc1

>  <original_name>  (94) 
x0176-0B-x0212-0B-105126

>  <comRMSD_score>  (94) 
0.7887635290515812

>  <IF_score>  (94) 
0.55

>  <SuCOS_score>  (94) 
0.4059756849874354

>  <compound_ID>  (94) 
MOLPORT:002-969-263

$$$$

     RDKit          3D

 25 26  0  0  0  0  0  0  0  0999 V2000
  -13.3700    5.8320  -76.2360 C   0  0  0  0  0  0  0  0  0  0  0  0
  -12.5340    5.4250  -77.4330 C   0  0  0  0  0  0  0  0  0  0  0  0
  -11.5360    4.3510  -77.0900 C   0  0  0  0  0  0  0  0  0  0  0  0
  -10.5520    3.9990  -78.0090 C   0  0  0  0  0  0  0  0  0  0  0  0
  -11.5780    3.6880  -75.8540 C   0  0  0  0  0  0  0  0  0  0  0  0
   -9.6260    3.0010  -77.7050 C   0  0  0  0  0  0  0  0  0  0  0  0
  -10.6450    2.6900  -75.5520 C   0  0  0  0  0  0  0  0  0  0  0  0
   -9.6630    2.3430  -76.4770 C   0  0  0  0  0  0  0  0  0  0  0  0
   -8.6300    1.2950  -76.2370 C   0  0  0  0  0  0  0  0  0  0  0  0
   -8.8030    0.3240  -75.5130 O   0  0  0  0  0  0  0  0  0  0  0  0
   -7.5010    1.5800  -76.9470 O   0  0  0  0  0  0  0  0  0  0  0  0
   -6.3580    2.0650  -76.2220 C   0  0  0  0  0  0  0  0  0  0  0  0
   -6.2970    3.6110  -76.1510 C   0  0  0  0  0  0  0  0  0  0  0  0
   -6.0320    4.2730  -75.1370 O   0  0  0  0  0  0  0  0  0  0  0  0
   -6.5230    4.2630  -77.3370 N   0  0  0  0  0  0  0  0  0  0  0  0
   -7.2210    3.6290  -78.3120 C   0  0  0  0  0  0  0  0  0  0  0  0
   -8.1680    4.1280  -78.9110 O   0  0  0  0  0  0  0  0  0  0  0  0
   -6.7200    2.3870  -78.5170 N   0  0  0  0  0  0  0  0  0  0  0  0
   -6.4270    1.9460  -79.8430 C   0  0  0  0  0  0  0  0  0  0  0  0
   -7.5810    1.1420  -80.3150 C   0  0  0  0  0  0  0  0  0  0  0  0
   -7.9030   -0.0840  -79.7180 C   0  0  0  0  0  0  0  0  0  0  0  0
   -8.3530    1.6150  -81.3600 C   0  0  0  0  0  0  0  0  0  0  0  0
   -8.9890   -0.8270  -80.1700 C   0  0  0  0  0  0  0  0  0  0  0  0
   -9.4230    0.8720  -81.7990 C   0  0  0  0  0  0  0  0  0  0  0  0
   -9.7530   -0.3430  -81.2180 C   0  0  0  0  0  0  0  0  0  0  0  0
  1  2  1  0
  2  3  1  0
  3  4  2  0
  3  5  1  0
  4  6  1  0
  5  7  2  0
  6  8  2  0
  7  8  1  0
  8  9  1  0
  9 10  2  0
  9 11  1  0
 11 12  1  0
 12 13  1  0
 13 14  2  0
 13 15  1  0
 15 16  1  0
 16 17  2  0
 16 18  1  0
 18 19  1  0
 19 20  1  0
 20 21  2  0
 20 22  1  0
 21 23  1  0
 22 24  2  0
 23 25  2  0
 24 25  1  0
M  END
>  <ref_url>  (95) 
https://fakepage.com

>  <submitter_name>  (95) 
Steph Wills

>  <submitter_email>  (95) 
stephanie.wills@dtc.ox.ac.uk

>  <submitter_institution>  (95) 
University of Oxford

>  <generation_date>  (95) 
2020-06-04

>  <method>  (95) 
Fragment network

>  <ref_mols>  (95) 
x0176_0B,x0212_0B

>  <ref_pdb>  (95) 
references/x0176-0B-x0212-0B-105478.holo_minimised_nolig.pdb

>  <original SMILES>  (95) 
CCc1ccc(C(=O)OCC(=O)NC(=O)NCc2ccccc2)cc1

>  <synthon>  (95) 
[Xe]c1ccccc1

>  <original_name>  (95) 
x0176-0B-x0212-0B-105478

>  <comRMSD_score>  (95) 
0.7914529566617939

>  <IF_score>  (95) 
0.5

>  <SuCOS_score>  (95) 
0.4791086999230056

>  <compound_ID>  (95) 
MOLPORT:004-106-750

$$$$

     RDKit          3D

 21 22  0  0  0  0  0  0  0  0999 V2000
  -13.2200    4.9850  -77.5630 C   0  0  0  0  0  0  0  0  0  0  0  0
  -11.9470    4.2250  -77.1810 C   0  0  0  0  0  0  0  0  0  0  0  0
  -10.7520    4.5220  -78.0810 C   0  0  0  0  0  0  0  0  0  0  0  0
  -11.8480    3.3390  -76.1180 C   0  0  0  0  0  0  0  0  0  0  0  0
   -9.4450    3.8390  -77.7960 C   0  0  0  0  0  0  0  0  0  0  0  0
  -10.6440    2.6920  -75.8340 C   0  0  0  0  0  0  0  0  0  0  0  0
   -9.4840    2.8970  -76.5960 C   0  0  0  0  0  0  0  0  0  0  0  0
   -8.3480    2.2150  -76.2170 N   0  0  0  0  0  0  0  0  0  0  0  0
   -8.0860    0.8570  -76.2880 C   0  0  0  0  0  0  0  0  0  0  0  0
   -8.9160   -0.2050  -76.0440 O   0  0  0  0  0  0  0  0  0  0  0  0
   -6.6760    0.4670  -76.6890 C   0  0  0  0  0  0  0  0  0  0  0  0
   -5.8830    1.3400  -78.0660 S   0  0  0  0  0  0  0  0  0  0  0  0
   -5.4790    0.3350  -79.0270 O   0  0  0  0  0  0  0  0  0  0  0  0
   -4.9550    2.3030  -77.5220 O   0  0  0  0  0  0  0  0  0  0  0  0
   -7.3500    2.2090  -78.7230 C   0  0  0  0  0  0  0  0  0  0  0  0
   -8.0050    1.4840  -79.7200 C   0  0  0  0  0  0  0  0  0  0  0  0
   -8.2510    1.9730  -80.9940 C   0  0  0  0  0  0  0  0  0  0  0  0
   -8.4380    0.1870  -79.4080 C   0  0  0  0  0  0  0  0  0  0  0  0
   -8.9530    1.1690  -82.0210 C   0  0  0  0  0  0  0  0  0  0  0  0
   -9.1090   -0.6330  -80.3240 C   0  0  0  0  0  0  0  0  0  0  0  0
   -9.4120   -0.2460  -81.6310 C   0  0  0  0  0  0  0  0  0  0  0  0
  1  2  1  0
  2  3  2  0
  2  4  1  0
  3  5  1  0
  4  6  2  0
  5  7  2  0
  6  7  1  0
  7  8  1  0
  8  9  1  0
  9 10  2  0
  9 11  1  0
 12 11  1  0
 12 13  2  0
 12 14  2  0
 12 15  1  0
 15 16  1  0
 16 17  2  0
 16 18  1  0
 17 19  1  0
 18 20  2  0
 19 21  2  0
 20 21  1  0
M  END
>  <ref_url>  (96) 
https://fakepage.com

>  <submitter_name>  (96) 
Steph Wills

>  <submitter_email>  (96) 
stephanie.wills@dtc.ox.ac.uk

>  <submitter_institution>  (96) 
University of Oxford

>  <generation_date>  (96) 
2020-06-04

>  <method>  (96) 
Fragment network

>  <ref_mols>  (96) 
x0176_0B,x0212_0B

>  <ref_pdb>  (96) 
references/x0176-0B-x0212-0B-107275.holo_minimised_nolig.pdb

>  <original SMILES>  (96) 
Cc1ccc(NC(=O)CS(=O)(=O)Cc2ccccc2)cc1

>  <synthon>  (96) 
[Xe]c1ccccc1

>  <original_name>  (96) 
x0176-0B-x0212-0B-107275

>  <comRMSD_score>  (96) 
0.7332900021633513

>  <IF_score>  (96) 
0.5

>  <SuCOS_score>  (96) 
0.4508975961511625

>  <compound_ID>  (96) 
REAL:Z339634492

$$$$

     RDKit          3D

 20 21  0  0  0  0  0  0  0  0999 V2000
  -13.6390    5.8370  -76.0620 C   0  0  0  0  0  0  0  0  0  0  0  0
  -12.8410    5.6850  -77.3450 C   0  0  0  0  0  0  0  0  0  0  0  0
  -13.5910    5.4120  -78.4960 C   0  0  0  0  0  0  0  0  0  0  0  0
  -11.7380    4.6650  -77.1210 C   0  0  0  0  0  0  0  0  0  0  0  0
  -11.6640    3.9200  -75.9280 C   0  0  0  0  0  0  0  0  0  0  0  0
  -10.7710    4.4510  -78.0920 C   0  0  0  0  0  0  0  0  0  0  0  0
  -10.6470    2.9920  -75.7290 C   0  0  0  0  0  0  0  0  0  0  0  0
   -9.7580    3.5280  -77.8940 C   0  0  0  0  0  0  0  0  0  0  0  0
   -9.6960    2.7980  -76.7120 C   0  0  0  0  0  0  0  0  0  0  0  0
   -8.7120    1.8620  -76.4470 N   0  0  0  0  0  0  0  0  0  0  0  0
   -7.4820    1.8350  -77.0360 C   0  0  0  0  0  0  0  0  0  0  0  0
   -6.5940    1.0150  -76.8540 O   0  0  0  0  0  0  0  0  0  0  0  0
   -7.3640    2.8200  -77.8400 N   0  0  0  0  0  0  0  0  0  0  0  0
   -6.9170    2.6110  -79.2250 C   0  0  0  0  0  0  0  0  0  0  0  0
   -7.7970    1.6510  -79.9920 C   0  0  0  0  0  0  0  0  0  0  0  0
   -8.2080    0.2870  -79.4630 C   0  0  0  0  0  0  0  0  0  0  0  0
   -8.2730    2.0010  -81.2610 C   0  0  0  0  0  0  0  0  0  0  0  0
   -9.0060   -0.5920  -80.1680 C   0  0  0  0  0  0  0  0  0  0  0  0
   -9.0830    1.1230  -81.9970 C   0  0  0  0  0  0  0  0  0  0  0  0
   -9.4560   -0.1340  -81.5020 C   0  0  0  0  0  0  0  0  0  0  0  0
  1  2  1  0
  2  3  1  0
  2  4  1  0
  4  5  2  0
  4  6  1  0
  5  7  1  0
  6  8  2  0
  7  9  2  0
  8  9  1  0
  9 10  1  0
 10 11  1  0
 11 12  2  0
 11 13  1  0
 13 14  1  0
 14 15  1  0
 15 16  2  0
 15 17  1  0
 16 18  1  0
 17 19  2  0
 18 20  2  0
 19 20  1  0
M  END
>  <ref_url>  (97) 
https://fakepage.com

>  <submitter_name>  (97) 
Steph Wills

>  <submitter_email>  (97) 
stephanie.wills@dtc.ox.ac.uk

>  <submitter_institution>  (97) 
University of Oxford

>  <generation_date>  (97) 
2020-06-04

>  <method>  (97) 
Fragment network

>  <ref_mols>  (97) 
x0176_0B,x0212_0B

>  <ref_pdb>  (97) 
references/x0176-0B-x0212-0B-107285.holo_minimised_nolig.pdb

>  <original SMILES>  (97) 
CC(C)c1ccc(NC(=O)NCc2ccccc2)cc1

>  <synthon>  (97) 
[Xe]c1ccccc1

>  <original_name>  (97) 
x0176-0B-x0212-0B-107285

>  <comRMSD_score>  (97) 
0.6427235865406306

>  <IF_score>  (97) 
0.5

>  <SuCOS_score>  (97) 
0.5128935998331037

>  <compound_ID>  (97) 
REAL:Z123889688, CHEMSPACE-BB:CSMB00000218061

$$$$

     RDKit          3D

 21 22  0  0  0  0  0  0  0  0999 V2000
  -13.4450    5.9310  -75.7960 C   0  0  0  0  0  0  0  0  0  0  0  0
  -12.8770    5.3080  -77.0700 C   0  0  0  0  0  0  0  0  0  0  0  0
  -11.6050    4.4840  -76.7740 C   0  0  0  0  0  0  0  0  0  0  0  0
  -10.4180    4.7840  -77.6590 C   0  0  0  0  0  0  0  0  0  0  0  0
  -11.5230    3.5110  -75.7660 C   0  0  0  0  0  0  0  0  0  0  0  0
   -9.1840    3.9380  -77.3690 C   0  0  0  0  0  0  0  0  0  0  0  0
  -10.3510    2.7780  -75.5590 C   0  0  0  0  0  0  0  0  0  0  0  0
   -9.2160    2.9880  -76.3530 C   0  0  0  0  0  0  0  0  0  0  0  0
   -7.7770    2.0110  -76.0850 S   0  0  0  0  0  0  0  0  0  0  0  0
   -8.2430    0.6200  -75.3200 O   0  0  0  0  0  0  0  0  0  0  0  0
   -6.6860    2.8630  -75.6650 O   0  0  0  0  0  0  0  0  0  0  0  0
   -7.4150    1.5490  -77.6250 N   0  0  0  0  0  0  0  0  0  0  0  0
   -6.6700    2.4970  -78.2910 N   0  0  0  0  0  0  0  0  0  0  0  0
   -6.2620    2.0080  -79.5810 C   0  0  0  0  0  0  0  0  0  0  0  0
   -5.1990    2.3790  -80.0640 O   0  0  0  0  0  0  0  0  0  0  0  0
   -7.0820    1.1050  -80.2620 C   0  0  0  0  0  0  0  0  0  0  0  0
   -7.5010   -0.0960  -79.6940 C   0  0  0  0  0  0  0  0  0  0  0  0
   -7.5260    1.4130  -81.5620 C   0  0  0  0  0  0  0  0  0  0  0  0
   -8.3190   -0.9680  -80.3660 C   0  0  0  0  0  0  0  0  0  0  0  0
   -8.3600    0.5570  -82.2960 C   0  0  0  0  0  0  0  0  0  0  0  0
   -8.7890   -0.6560  -81.7390 C   0  0  0  0  0  0  0  0  0  0  0  0
  1  2  1  0
  2  3  1  0
  3  4  2  0
  3  5  1  0
  4  6  1  0
  5  7  2  0
  6  8  2  0
  7  8  1  0
  8  9  1  0
  9 10  2  0
  9 11  2  0
  9 12  1  0
 12 13  1  0
 13 14  1  0
 14 15  2  0
 14 16  1  0
 16 17  2  0
 16 18  1  0
 17 19  1  0
 18 20  2  0
 19 21  2  0
 20 21  1  0
M  END
>  <ref_url>  (98) 
https://fakepage.com

>  <submitter_name>  (98) 
Steph Wills

>  <submitter_email>  (98) 
stephanie.wills@dtc.ox.ac.uk

>  <submitter_institution>  (98) 
University of Oxford

>  <generation_date>  (98) 
2020-06-04

>  <method>  (98) 
Fragment network

>  <ref_mols>  (98) 
x0176_0B,x0212_0B

>  <ref_pdb>  (98) 
references/x0176-0B-x0212-0B-111608.holo_minimised_nolig.pdb

>  <original SMILES>  (98) 
CCc1ccc(S(=O)(=O)NNC(=O)c2ccccc2)cc1

>  <synthon>  (98) 
[Xe]c1ccccc1

>  <original_name>  (98) 
x0176-0B-x0212-0B-111608

>  <comRMSD_score>  (98) 
0.8305866967809946

>  <IF_score>  (98) 
0.6607142857142857

>  <SuCOS_score>  (98) 
0.4500262893695168

>  <compound_ID>  (98) 
MOLPORT:002-164-471

$$$$

     RDKit          3D

 21 22  0  0  0  0  0  0  0  0999 V2000
  -13.2850    6.2290  -76.5210 C   0  0  0  0  0  0  0  0  0  0  0  0
  -13.3180    4.7030  -76.5260 C   0  0  0  0  0  0  0  0  0  0  0  0
  -14.4200    4.1580  -76.5930 O   0  0  0  0  0  0  0  0  0  0  0  0
  -11.9700    3.9970  -76.4380 C   0  0  0  0  0  0  0  0  0  0  0  0
  -11.8560    2.8810  -75.6080 C   0  0  0  0  0  0  0  0  0  0  0  0
  -10.8880    4.4440  -77.1580 C   0  0  0  0  0  0  0  0  0  0  0  0
  -10.6310    2.2160  -75.5120 C   0  0  0  0  0  0  0  0  0  0  0  0
   -9.6870    3.7880  -77.0580 C   0  0  0  0  0  0  0  0  0  0  0  0
   -9.5380    2.6780  -76.2450 C   0  0  0  0  0  0  0  0  0  0  0  0
   -8.7300    4.3900  -77.8580 O   0  0  0  0  0  0  0  0  0  0  0  0
   -9.1400    4.2170  -79.1860 C   0  0  0  0  0  0  0  0  0  0  0  0
   -9.0330    2.8670  -79.1420 C   0  0  0  0  0  0  0  0  0  0  0  0
   -9.6690    1.9440  -79.6510 O   0  0  0  0  0  0  0  0  0  0  0  0
   -7.9570    2.5250  -78.3250 O   0  0  0  0  0  0  0  0  0  0  0  0
   -6.9590    2.1230  -79.0890 C   0  0  0  0  0  0  0  0  0  0  0  0
   -7.6560    1.3010  -79.9400 C   0  0  0  0  0  0  0  0  0  0  0  0
   -7.9920   -0.0920  -79.4980 C   0  0  0  0  0  0  0  0  0  0  0  0
   -8.0770    1.7610  -81.1980 C   0  0  0  0  0  0  0  0  0  0  0  0
   -8.7150   -0.8560  -80.3800 C   0  0  0  0  0  0  0  0  0  0  0  0
   -8.8040    0.9170  -82.0250 C   0  0  0  0  0  0  0  0  0  0  0  0
   -9.1140   -0.3810  -81.6050 C   0  0  0  0  0  0  0  0  0  0  0  0
  1  2  1  0
  2  3  2  0
  2  4  1  0
  4  5  2  0
  4  6  1  0
  5  7  1  0
  6  8  2  0
  7  9  2  0
  8  9  1  0
  8 10  1  0
 10 11  1  0
 11 12  1  0
 12 13  2  0
 12 14  1  0
 14 15  1  0
 15 16  1  0
 16 17  2  0
 16 18  1  0
 17 19  1  0
 18 20  2  0
 19 21  2  0
 20 21  1  0
M  END
>  <ref_url>  (99) 
https://fakepage.com

>  <submitter_name>  (99) 
Steph Wills

>  <submitter_email>  (99) 
stephanie.wills@dtc.ox.ac.uk

>  <submitter_institution>  (99) 
University of Oxford

>  <generation_date>  (99) 
2020-06-04

>  <method>  (99) 
Fragment network

>  <ref_mols>  (99) 
x0176_0B,x0212_0B

>  <ref_pdb>  (99) 
references/x0176-0B-x0212-0B-114257.holo_minimised_nolig.pdb

>  <original SMILES>  (99) 
CC(=O)c1cccc(OCC(=O)OCc2ccccc2)c1

>  <synthon>  (99) 
[Xe]c1ccccc1

>  <original_name>  (99) 
x0176-0B-x0212-0B-114257

>  <comRMSD_score>  (99) 
0.8192993560247717

>  <IF_score>  (99) 
0.4333333333333333

>  <SuCOS_score>  (99) 
0.4256359310479611

>  <compound_ID>  (99) 
CHEMSPACE-BB:CSMB00056385285

$$$$

     RDKit          3D

 21 22  0  0  0  0  0  0  0  0999 V2000
  -13.7240    5.4800  -75.7720 C   0  0  0  0  0  0  0  0  0  0  0  0
  -13.2420    5.0350  -77.1500 C   0  0  0  0  0  0  0  0  0  0  0  0
  -12.9130    6.2750  -77.9240 C   0  0  0  0  0  0  0  0  0  0  0  0
  -14.3120    4.2450  -77.7670 N   0  0  0  0  0  0  0  0  0  0  0  0
  -11.9710    4.2550  -76.9730 C   0  0  0  0  0  0  0  0  0  0  0  0
  -11.8070    3.3720  -75.9000 C   0  0  0  0  0  0  0  0  0  0  0  0
  -10.8910    4.3860  -77.8670 C   0  0  0  0  0  0  0  0  0  0  0  0
  -10.6730    2.6330  -75.6610 C   0  0  0  0  0  0  0  0  0  0  0  0
   -9.7080    3.6800  -77.7010 C   0  0  0  0  0  0  0  0  0  0  0  0
   -9.5650    2.8100  -76.6250 C   0  0  0  0  0  0  0  0  0  0  0  0
   -8.4020    2.1390  -76.4710 N   0  0  0  0  0  0  0  0  0  0  0  0
   -7.1770    2.6650  -76.8400 C   0  0  0  0  0  0  0  0  0  0  0  0
   -6.5850    3.5140  -76.1790 O   0  0  0  0  0  0  0  0  0  0  0  0
   -6.6390    2.1960  -77.9890 N   0  0  0  0  0  0  0  0  0  0  0  0
   -7.0590    2.7400  -79.2660 C   0  0  0  0  0  0  0  0  0  0  0  0
   -7.8560    1.6750  -79.9640 C   0  0  0  0  0  0  0  0  0  0  0  0
   -8.2760    2.0290  -81.2240 C   0  0  0  0  0  0  0  0  0  0  0  0
   -8.1910    0.3960  -79.4600 C   0  0  0  0  0  0  0  0  0  0  0  0
   -9.0610    1.0760  -82.0190 C   0  0  0  0  0  0  0  0  0  0  0  0
   -8.9490   -0.5150  -80.2330 C   0  0  0  0  0  0  0  0  0  0  0  0
   -9.3890   -0.1800  -81.5220 C   0  0  0  0  0  0  0  0  0  0  0  0
  1  2  1  0
  2  3  1  0
  2  4  1  0
  2  5  1  0
  5  6  2  0
  5  7  1  0
  6  8  1  0
  7  9  2  0
  8 10  2  0
  9 10  1  0
 10 11  1  0
 11 12  1  0
 12 13  2  0
 12 14  1  0
 14 15  1  0
 15 16  1  0
 16 17  2  0
 16 18  1  0
 17 19  1  0
 18 20  2  0
 19 21  2  0
 20 21  1  0
M  END
>  <ref_url>  (100) 
https://fakepage.com

>  <submitter_name>  (100) 
Steph Wills

>  <submitter_email>  (100) 
stephanie.wills@dtc.ox.ac.uk

>  <submitter_institution>  (100) 
University of Oxford

>  <generation_date>  (100) 
2020-06-04

>  <method>  (100) 
Fragment network

>  <ref_mols>  (100) 
x0176_0B,x0212_0B

>  <ref_pdb>  (100) 
references/x0176-0B-x0212-0B-115803.holo_minimised_nolig.pdb

>  <original SMILES>  (100) 
CC(C)(N)c1ccc(NC(=O)NCc2ccccc2)cc1

>  <synthon>  (100) 
[Xe]c1ccccc1

>  <original_name>  (100) 
x0176-0B-x0212-0B-115803

>  <comRMSD_score>  (100) 
0.7083806062656807

>  <IF_score>  (100) 
0.5

>  <SuCOS_score>  (100) 
0.4868230157638412

>  <compound_ID>  (100) 
CHEMSPACE-BB:CSMB00116949729

$$$$

     RDKit          3D

 22 23  0  0  0  0  0  0  0  0999 V2000
  -13.4650    6.0810  -76.0370 C   0  0  0  0  0  0  0  0  0  0  0  0
  -13.3450    4.6040  -76.2430 C   0  0  0  0  0  0  0  0  0  0  0  0
  -14.3890    3.8150  -76.1910 N   0  0  0  0  0  0  0  0  0  0  0  0
  -11.9820    4.0500  -76.4620 C   0  0  0  0  0  0  0  0  0  0  0  0
  -14.0760    2.4610  -76.3580 O   0  0  0  0  0  0  0  0  0  0  0  0
  -11.6210    2.9370  -75.6940 C   0  0  0  0  0  0  0  0  0  0  0  0
  -11.0860    4.5990  -77.3860 C   0  0  0  0  0  0  0  0  0  0  0  0
  -10.3650    2.3680  -75.8450 C   0  0  0  0  0  0  0  0  0  0  0  0
   -9.8340    4.0180  -77.5290 C   0  0  0  0  0  0  0  0  0  0  0  0
   -9.4880    2.9150  -76.7610 C   0  0  0  0  0  0  0  0  0  0  0  0
   -8.2560    2.4760  -77.0080 O   0  0  0  0  0  0  0  0  0  0  0  0
   -7.2510    3.4650  -76.9610 C   0  0  0  0  0  0  0  0  0  0  0  0
   -5.9050    2.8050  -77.0950 C   0  0  0  0  0  0  0  0  0  0  0  0
   -6.0700    1.3750  -77.5760 C   0  0  0  0  0  0  0  0  0  0  0  0
   -5.7580    1.3280  -78.9540 O   0  0  0  0  0  0  0  0  0  0  0  0
   -6.6250    2.1860  -79.6910 C   0  0  0  0  0  0  0  0  0  0  0  0
   -7.7660    1.4200  -80.2720 C   0  0  0  0  0  0  0  0  0  0  0  0
   -8.1730    0.1970  -79.7160 C   0  0  0  0  0  0  0  0  0  0  0  0
   -8.4270    1.9240  -81.3760 C   0  0  0  0  0  0  0  0  0  0  0  0
   -9.2360   -0.5050  -80.2770 C   0  0  0  0  0  0  0  0  0  0  0  0
   -9.4760    1.2250  -81.9330 C   0  0  0  0  0  0  0  0  0  0  0  0
   -9.8880    0.0090  -81.3900 C   0  0  0  0  0  0  0  0  0  0  0  0
  1  2  1  0
  2  3  2  3
  2  4  1  0
  3  5  1  0
  4  6  2  0
  4  7  1  0
  6  8  1  0
  7  9  2  0
  8 10  2  0
  9 10  1  0
 10 11  1  0
 11 12  1  0
 12 13  1  0
 13 14  1  0
 14 15  1  0
 15 16  1  0
 16 17  1  0
 17 18  2  0
 17 19  1  0
 18 20  1  0
 19 21  2  0
 20 22  2  0
 21 22  1  0
M  END
>  <ref_url>  (101) 
https://fakepage.com

>  <submitter_name>  (101) 
Steph Wills

>  <submitter_email>  (101) 
stephanie.wills@dtc.ox.ac.uk

>  <submitter_institution>  (101) 
University of Oxford

>  <generation_date>  (101) 
2020-06-04

>  <method>  (101) 
Fragment network

>  <ref_mols>  (101) 
x0176_0B,x0212_0B

>  <ref_pdb>  (101) 
references/x0176-0B-x0212-0B-116374.holo_minimised_nolig.pdb

>  <original SMILES>  (101) 
CC(=NO)c1ccc(OCCCOCc2ccccc2)cc1

>  <synthon>  (101) 
[Xe]c1ccccc1

>  <original_name>  (101) 
x0176-0B-x0212-0B-116374

>  <comRMSD_score>  (101) 
0.9380234982842022

>  <IF_score>  (101) 
0.625

>  <SuCOS_score>  (101) 
0.4347981468182114

>  <compound_ID>  (101) 
CHEMSPACE-BB:CSMB00015069004

$$$$

     RDKit          3D

 25 26  0  0  0  0  0  0  0  0999 V2000
  -16.0370    6.5740  -73.7680 C   0  0  0  0  0  0  0  0  0  0  0  0
  -14.7660    6.2460  -73.1970 O   0  0  0  0  0  0  0  0  0  0  0  0
  -13.8640    7.2700  -73.2100 C   0  0  2  0  0  0  0  0  0  0  0  0
  -14.4040    8.5120  -73.9480 C   0  0  0  0  0  0  0  0  0  0  0  0
  -12.5420    6.8740  -73.9170 C   0  0  0  0  0  0  0  0  0  0  0  0
  -11.4590    6.7650  -73.3310 O   0  0  0  0  0  0  0  0  0  0  0  0
  -12.7220    6.6790  -75.3510 N   0  0  0  0  0  0  0  0  0  0  0  0
  -13.4310    5.5920  -75.8360 C   0  0  0  0  0  0  0  0  0  0  0  0
  -12.9100    5.1920  -77.0670 C   0  0  0  0  0  0  0  0  0  0  0  0
  -11.7700    4.3990  -76.9770 C   0  0  0  0  0  0  0  0  0  0  0  0
  -11.5440    3.5490  -75.8960 C   0  0  0  0  0  0  0  0  0  0  0  0
  -10.8560    4.4850  -78.0170 C   0  0  0  0  0  0  0  0  0  0  0  0
  -10.2890    2.7100  -75.8620 C   0  0  0  0  0  0  0  0  0  0  0  0
   -9.6860    3.7400  -78.0340 C   0  0  0  0  0  0  0  0  0  0  0  0
   -9.3390    2.8490  -77.0170 C   0  0  0  0  0  0  0  0  0  0  0  0
   -8.1510    2.1420  -77.1120 C   0  0  0  0  0  0  0  0  0  0  0  0
   -7.2670    2.9200  -77.9850 N   0  0  0  0  0  0  0  0  0  0  0  0
   -6.7440    2.2420  -79.1870 C   0  0  0  0  0  0  0  0  0  0  0  0
   -5.5690    2.3070  -79.5430 O   0  0  0  0  0  0  0  0  0  0  0  0
   -7.6550    1.4840  -79.9460 C   0  0  0  0  0  0  0  0  0  0  0  0
   -8.0670    0.2230  -79.5040 C   0  0  0  0  0  0  0  0  0  0  0  0
   -8.1610    1.9640  -81.1580 C   0  0  0  0  0  0  0  0  0  0  0  0
   -8.9590   -0.5350  -80.2620 C   0  0  0  0  0  0  0  0  0  0  0  0
   -9.0450    1.2110  -81.9190 C   0  0  0  0  0  0  0  0  0  0  0  0
   -9.4450   -0.0440  -81.4680 C   0  0  0  0  0  0  0  0  0  0  0  0
  1  2  1  0
  2  3  1  0
  3  4  1  6
  3  5  1  0
  5  6  2  0
  5  7  1  0
  7  8  1  0
  8  9  1  0
  9 10  1  0
 10 11  2  0
 10 12  1  0
 11 13  1  0
 12 14  2  0
 13 15  2  0
 14 15  1  0
 15 16  1  0
 16 17  1  0
 17 18  1  0
 18 19  2  0
 18 20  1  0
 20 21  2  0
 20 22  1  0
 21 23  1  0
 22 24  2  0
 23 25  2  0
 24 25  1  0
M  END
>  <ref_url>  (102) 
https://fakepage.com

>  <submitter_name>  (102) 
Steph Wills

>  <submitter_email>  (102) 
stephanie.wills@dtc.ox.ac.uk

>  <submitter_institution>  (102) 
University of Oxford

>  <generation_date>  (102) 
2020-06-04

>  <method>  (102) 
Fragment network

>  <ref_mols>  (102) 
x0176_0B,x0212_0B

>  <ref_pdb>  (102) 
references/x0176-0B-x0212-0B-117864.holo_minimised_nolig.pdb

>  <original SMILES>  (102) 
COC(C)C(=O)NCCc1ccc(CNC(=O)c2ccccc2)cc1

>  <synthon>  (102) 
[Xe]c1ccccc1

>  <original_name>  (102) 
x0176-0B-x0212-0B-117864

>  <comRMSD_score>  (102) 
0.5051024648524289

>  <IF_score>  (102) 
0.9

>  <SuCOS_score>  (102) 
0.6453347200456868

>  <compound_ID>  (102) 
REAL:PV-001422441979

$$$$

     RDKit          3D

 21 22  0  0  0  0  0  0  0  0999 V2000
  -14.8140    5.6240  -75.5980 O   0  0  0  0  0  0  0  0  0  0  0  0
  -13.4050    5.5020  -75.5830 C   0  0  0  0  0  0  0  0  0  0  0  0
  -12.6410    5.3810  -74.4930 O   0  0  0  0  0  0  0  0  0  0  0  0
  -12.7180    5.4820  -76.9410 C   0  0  0  0  0  0  0  0  0  0  0  0
  -11.5700    4.4920  -76.8010 C   0  0  0  0  0  0  0  0  0  0  0  0
  -10.5150    4.6230  -77.6900 C   0  0  0  0  0  0  0  0  0  0  0  0
  -11.5840    3.5020  -75.8160 C   0  0  0  0  0  0  0  0  0  0  0  0
   -9.4500    3.7490  -77.5950 C   0  0  0  0  0  0  0  0  0  0  0  0
  -10.5090    2.6260  -75.7290 C   0  0  0  0  0  0  0  0  0  0  0  0
   -9.4470    2.7500  -76.6120 C   0  0  0  0  0  0  0  0  0  0  0  0
   -8.3440    1.9840  -76.6410 O   0  0  0  0  0  0  0  0  0  0  0  0
   -7.2900    2.6350  -77.3070 C   0  0  0  0  0  0  0  0  0  0  0  0
   -6.1030    1.9200  -77.3500 C   0  0  0  0  0  0  0  0  0  0  0  0
   -5.8780    1.5720  -78.7090 O   0  0  0  0  0  0  0  0  0  0  0  0
   -6.6430    2.4110  -79.5790 C   0  0  0  0  0  0  0  0  0  0  0  0
   -7.7390    1.6020  -80.2250 C   0  0  0  0  0  0  0  0  0  0  0  0
   -8.0330    0.3810  -79.6190 C   0  0  0  0  0  0  0  0  0  0  0  0
   -8.4320    2.0090  -81.3580 C   0  0  0  0  0  0  0  0  0  0  0  0
   -9.1060   -0.4940  -80.2040 C   0  0  0  0  0  0  0  0  0  0  0  0
   -9.4240    1.1990  -81.9020 C   0  0  0  0  0  0  0  0  0  0  0  0
   -9.7670   -0.0360  -81.3450 C   0  0  0  0  0  0  0  0  0  0  0  0
  1  2  2  0
  2  3  1  0
  2  4  1  0
  4  5  1  0
  5  6  2  0
  5  7  1  0
  6  8  1  0
  7  9  2  0
  8 10  2  0
  9 10  1  0
 10 11  1  0
 11 12  1  0
 12 13  1  0
 13 14  1  0
 14 15  1  0
 15 16  1  0
 16 17  2  0
 16 18  1  0
 17 19  1  0
 18 20  2  0
 19 21  2  0
 20 21  1  0
M  END
>  <ref_url>  (103) 
https://fakepage.com

>  <submitter_name>  (103) 
Steph Wills

>  <submitter_email>  (103) 
stephanie.wills@dtc.ox.ac.uk

>  <submitter_institution>  (103) 
University of Oxford

>  <generation_date>  (103) 
2020-06-04

>  <method>  (103) 
Fragment network

>  <ref_mols>  (103) 
x0176_0B,x0212_0B

>  <ref_pdb>  (103) 
references/x0176-0B-x0212-0B-118155.holo_minimised_nolig.pdb

>  <original SMILES>  (103) 
O=C(O)Cc1ccc(OCCOCc2ccccc2)cc1

>  <synthon>  (103) 
[Xe]c1ccccc1

>  <original_name>  (103) 
x0176-0B-x0212-0B-118155

>  <comRMSD_score>  (103) 
0.7647908733765062

>  <IF_score>  (103) 
0.675

>  <SuCOS_score>  (103) 
0.5121429450923639

>  <compound_ID>  (103) 
CHEMSPACE-BB:CSMB00011803191

$$$$

     RDKit          3D

 24 25  0  0  0  0  0  0  0  0999 V2000
   -6.1350    1.1110  -76.8710 C   0  0  0  0  0  0  0  0  0  0  0  0
   -6.6830    1.9300  -77.8540 N   0  0  0  0  0  0  0  0  0  0  0  0
   -6.1780    1.8260  -79.2180 C   0  0  0  0  0  0  0  0  0  0  0  0
   -7.6840    2.9000  -77.4680 C   0  0  0  0  0  0  0  0  0  0  0  0
   -7.0820    0.9890  -80.0800 C   0  0  0  0  0  0  0  0  0  0  0  0
   -7.9470    3.8700  -78.1490 O   0  0  0  0  0  0  0  0  0  0  0  0
   -8.4100    2.6380  -76.2280 N   0  0  0  0  0  0  0  0  0  0  0  0
   -7.5880   -0.2250  -79.5900 C   0  0  0  0  0  0  0  0  0  0  0  0
   -7.4570    1.3840  -81.3760 C   0  0  0  0  0  0  0  0  0  0  0  0
   -9.6570    3.1300  -76.2370 C   0  0  0  0  0  0  0  0  0  0  0  0
   -8.4370   -1.0150  -80.3730 C   0  0  0  0  0  0  0  0  0  0  0  0
   -8.2940    0.5910  -82.1320 C   0  0  0  0  0  0  0  0  0  0  0  0
   -9.8090    4.2060  -77.2470 C   0  0  0  0  0  0  0  0  0  0  0  0
  -10.7150    2.7330  -75.4580 C   0  0  0  0  0  0  0  0  0  0  0  0
   -8.7940   -0.6070  -81.6540 C   0  0  0  0  0  0  0  0  0  0  0  0
  -11.0340    4.8140  -77.4150 C   0  0  0  0  0  0  0  0  0  0  0  0
  -11.9400    3.3840  -75.6670 C   0  0  0  0  0  0  0  0  0  0  0  0
  -12.0970    4.4070  -76.6360 C   0  0  0  0  0  0  0  0  0  0  0  0
  -13.3110    5.0220  -76.8180 C   0  0  0  0  0  0  0  0  0  0  0  0
  -13.6460    5.5330  -75.5920 C   0  0  0  0  0  0  0  0  0  0  0  0
  -15.2370    5.7880  -75.1640 S   0  0  0  0  0  0  0  0  0  0  0  0
  -15.8450    7.1410  -76.1550 C   0  0  0  0  0  0  0  0  0  0  0  0
  -15.2920    6.1150  -73.7480 O   0  0  0  0  0  0  0  0  0  0  0  0
  -16.0080    4.5990  -75.4300 O   0  0  0  0  0  0  0  0  0  0  0  0
  1  2  1  0
  2  3  1  0
  2  4  1  0
  3  5  1  0
  4  6  2  0
  4  7  1  0
  5  8  2  0
  5  9  1  0
  7 10  1  0
  8 11  1  0
  9 12  2  0
 10 13  2  0
 10 14  1  0
 11 15  2  0
 12 15  1  0
 13 16  1  0
 14 17  2  0
 16 18  2  0
 17 18  1  0
 18 19  1  0
 19 20  1  0
 21 20  1  0
 21 22  1  0
 21 23  2  0
 21 24  2  0
M  END
>  <ref_url>  (104) 
https://fakepage.com

>  <submitter_name>  (104) 
Steph Wills

>  <submitter_email>  (104) 
stephanie.wills@dtc.ox.ac.uk

>  <submitter_institution>  (104) 
University of Oxford

>  <generation_date>  (104) 
2020-06-04

>  <method>  (104) 
Fragment network

>  <ref_mols>  (104) 
x0176_0B,x0212_0B

>  <ref_pdb>  (104) 
references/x0176-0B-x0212-0B-119078.holo_minimised_nolig.pdb

>  <original SMILES>  (104) 
CN(Cc1ccccc1)C(=O)Nc1ccc(CCS(C)(=O)=O)cc1

>  <synthon>  (104) 
[Xe]c1ccccc1

>  <original_name>  (104) 
x0176-0B-x0212-0B-119078

>  <comRMSD_score>  (104) 
0.983528405792126

>  <IF_score>  (104) 
0.5

>  <SuCOS_score>  (104) 
0.420347407296894

>  <compound_ID>  (104) 
REAL:Z1482178413

$$$$

     RDKit          3D

 21 23  0  0  0  0  0  0  0  0999 V2000
  -13.1460    5.0670  -77.5710 C   0  0  0  0  0  0  0  0  0  0  0  0
  -11.8890    4.3320  -77.1160 C   0  0  0  0  0  0  0  0  0  0  0  0
  -10.6850    4.5410  -78.0090 C   0  0  0  0  0  0  0  0  0  0  0  0
  -11.8010    3.5270  -75.9830 C   0  0  0  0  0  0  0  0  0  0  0  0
   -9.5210    3.9060  -77.6390 C   0  0  0  0  0  0  0  0  0  0  0  0
  -10.5900    2.9150  -75.6700 C   0  0  0  0  0  0  0  0  0  0  0  0
   -9.4840    3.1150  -76.4900 C   0  0  0  0  0  0  0  0  0  0  0  0
   -8.2740    2.4970  -76.1540 N   0  0  0  0  0  0  0  0  0  0  0  0
   -7.2510    3.3100  -75.9060 N   0  0  0  0  0  0  0  0  0  0  0  0
   -7.7680    1.3720  -76.9910 C   0  0  0  0  0  0  0  0  0  0  0  0
   -6.4720    3.2380  -77.0390 C   0  0  0  0  0  0  0  0  0  0  0  0
   -7.0520    2.1660  -77.8490 C   0  0  0  0  0  0  0  0  0  0  0  0
   -7.9120    0.1650  -76.9560 O   0  0  0  0  0  0  0  0  0  0  0  0
   -5.3870    4.0150  -77.3440 O   0  0  0  0  0  0  0  0  0  0  0  0
   -6.8240    2.1660  -79.1960 C   0  0  0  0  0  0  0  0  0  0  0  0
   -7.3460    1.2120  -80.0760 C   0  0  0  0  0  0  0  0  0  0  0  0
   -7.6970   -0.1880  -79.5950 C   0  0  0  0  0  0  0  0  0  0  0  0
   -7.5560    1.5520  -81.4380 C   0  0  0  0  0  0  0  0  0  0  0  0
   -8.2190   -1.0760  -80.5480 C   0  0  0  0  0  0  0  0  0  0  0  0
   -8.0770    0.6120  -82.3340 C   0  0  0  0  0  0  0  0  0  0  0  0
   -8.4210   -0.6810  -81.9770 C   0  0  0  0  0  0  0  0  0  0  0  0
  1  2  1  0
  2  3  2  0
  2  4  1  0
  3  5  1  0
  4  6  2  0
  5  7  2  0
  6  7  1  0
  7  8  1  0
  8  9  1  0
  8 10  1  0
  9 11  1  0
 10 12  1  0
 11 12  1  0
 10 13  2  0
 11 14  2  0
 12 15  2  3
 15 16  1  0
 16 17  2  0
 16 18  1  0
 17 19  1  0
 18 20  2  0
 19 21  2  0
 20 21  1  0
M  END
>  <ref_url>  (105) 
https://fakepage.com

>  <submitter_name>  (105) 
Steph Wills

>  <submitter_email>  (105) 
stephanie.wills@dtc.ox.ac.uk

>  <submitter_institution>  (105) 
University of Oxford

>  <generation_date>  (105) 
2020-06-04

>  <method>  (105) 
Fragment network

>  <ref_mols>  (105) 
x0176_0B,x0212_0B

>  <ref_pdb>  (105) 
references/x0176-0B-x0212-0B-122354.holo_minimised_nolig.pdb

>  <original SMILES>  (105) 
Cc1ccc(N2NC(=O)C(=Cc3ccccc3)C2=O)cc1

>  <synthon>  (105) 
[Xe]c1ccccc1

>  <original_name>  (105) 
x0176-0B-x0212-0B-122354

>  <comRMSD_score>  (105) 
0.93598455698216

>  <IF_score>  (105) 
0.3333333333333333

>  <SuCOS_score>  (105) 
0.4011532937227977

>  <compound_ID>  (105) 
MOLPORT:001-581-064, MOLPORT:002-691-092

$$$$

     RDKit          3D

 22 23  0  0  0  0  0  0  0  0999 V2000
  -13.2680    5.8490  -78.4820 C   0  0  0  0  0  0  0  0  0  0  0  0
  -13.3900    4.7230  -77.5140 C   0  0  0  0  0  0  0  0  0  0  0  0
  -14.2170    3.6010  -78.0900 C   0  0  0  0  0  0  0  0  0  0  0  0
  -14.0180    5.2920  -76.2610 C   0  0  0  0  0  0  0  0  0  0  0  0
  -11.9960    4.2590  -77.1290 C   0  0  0  0  0  0  0  0  0  0  0  0
  -11.9530    3.4650  -75.9890 C   0  0  0  0  0  0  0  0  0  0  0  0
  -10.8210    4.5710  -77.8100 C   0  0  0  0  0  0  0  0  0  0  0  0
  -10.6490    2.9680  -75.5130 C   0  0  0  0  0  0  0  0  0  0  0  0
   -9.5960    4.1040  -77.3610 C   0  0  0  0  0  0  0  0  0  0  0  0
   -9.5120    3.3090  -76.2130 C   0  0  0  0  0  0  0  0  0  0  0  0
   -8.3470    2.7580  -75.6390 O   0  0  0  0  0  0  0  0  0  0  0  0
   -8.3330    1.4530  -76.1090 C   0  0  0  0  0  0  0  0  0  0  0  0
   -9.0160    1.7660  -77.3760 C   0  0  0  0  0  0  0  0  0  0  0  0
   -8.4180    2.8340  -78.0540 C   0  0  0  0  0  0  0  0  0  0  0  0
   -7.0840    2.5320  -78.1450 N   0  0  0  0  0  0  0  0  0  0  0  0
   -6.3900    2.1360  -79.2770 C   0  0  0  0  0  0  0  0  0  0  0  0
   -7.0420    1.2200  -80.0970 C   0  0  0  0  0  0  0  0  0  0  0  0
   -7.3830    1.5650  -81.5290 C   0  0  0  0  0  0  0  0  0  0  0  0
   -7.4270   -0.0680  -79.6580 C   0  0  0  0  0  0  0  0  0  0  0  0
   -8.0900    0.5230  -82.3770 C   0  0  0  0  0  0  0  0  0  0  0  0
   -8.0880   -0.9900  -80.4910 C   0  0  0  0  0  0  0  0  0  0  0  0
   -8.4210   -0.7180  -81.8340 C   0  0  0  0  0  0  0  0  0  0  0  0
  2  1  1  0
  2  3  1  0
  2  4  1  0
  2  5  1  0
  5  6  2  0
  5  7  1  0
  6  8  1  0
  7  9  2  0
  8 10  2  0
  9 10  1  0
 10 11  1  0
 11 12  1  0
 12 13  1  0
 13 14  1  0
 14 15  1  0
 15 16  1  0
 16 17  1  0
 17 18  2  0
 17 19  1  0
 18 20  1  0
 19 21  2  0
 20 22  2  0
 21 22  1  0
M  END
>  <ref_url>  (106) 
https://fakepage.com

>  <submitter_name>  (106) 
Steph Wills

>  <submitter_email>  (106) 
stephanie.wills@dtc.ox.ac.uk

>  <submitter_institution>  (106) 
University of Oxford

>  <generation_date>  (106) 
2020-06-04

>  <method>  (106) 
Fragment network

>  <ref_mols>  (106) 
x0176_0B,x0212_0B

>  <ref_pdb>  (106) 
references/x0176-0B-x0212-0B-122380.holo_minimised_nolig.pdb

>  <original SMILES>  (106) 
CC(C)(C)c1ccc(OCCCNCc2ccccc2)cc1

>  <synthon>  (106) 
[Xe]c1ccccc1

>  <original_name>  (106) 
x0176-0B-x0212-0B-122380

>  <comRMSD_score>  (106) 
0.990420310426007

>  <IF_score>  (106) 
0.1875

>  <SuCOS_score>  (106) 
0.476256400222341

>  <compound_ID>  (106) 
MOLPORT:002-245-112

$$$$

     RDKit          3D

 21 22  0  0  0  0  0  0  0  0999 V2000
  -13.7880    5.8200  -76.0380 C   0  0  0  0  0  0  0  0  0  0  0  0
  -13.4270    4.8790  -77.1860 C   0  0  0  0  0  0  0  0  0  0  0  0
  -13.5020    5.4030  -78.4820 C   0  0  0  0  0  0  0  0  0  0  0  0
  -12.0550    4.3170  -76.9190 C   0  0  0  0  0  0  0  0  0  0  0  0
  -10.9320    4.7130  -77.6450 C   0  0  0  0  0  0  0  0  0  0  0  0
  -11.9010    3.3620  -75.9060 C   0  0  0  0  0  0  0  0  0  0  0  0
   -9.6920    4.1630  -77.3680 C   0  0  0  0  0  0  0  0  0  0  0  0
  -10.6550    2.8200  -75.6300 C   0  0  0  0  0  0  0  0  0  0  0  0
   -9.5570    3.2250  -76.3640 C   0  0  0  0  0  0  0  0  0  0  0  0
   -8.3960    2.6530  -76.0370 O   0  0  0  0  0  0  0  0  0  0  0  0
   -7.3140    3.0240  -76.8620 C   0  0  0  0  0  0  0  0  0  0  0  0
   -6.2230    2.3760  -76.3010 C   0  0  0  0  0  0  0  0  0  0  0  0
   -5.3370    1.6800  -77.2800 C   0  0  0  0  0  0  0  0  0  0  0  0
   -5.7570    1.0910  -78.4280 O   0  0  0  0  0  0  0  0  0  0  0  0
   -6.3820    1.8660  -79.4410 C   0  0  0  0  0  0  0  0  0  0  0  0
   -7.1150    1.0300  -80.2780 C   0  0  0  0  0  0  0  0  0  0  0  0
   -7.5920   -0.2870  -79.8030 C   0  0  0  0  0  0  0  0  0  0  0  0
   -7.4620    1.3960  -81.6000 C   0  0  0  0  0  0  0  0  0  0  0  0
   -8.3380   -1.0850  -80.6510 C   0  0  0  0  0  0  0  0  0  0  0  0
   -8.2260    0.5340  -82.4170 C   0  0  0  0  0  0  0  0  0  0  0  0
   -8.6680   -0.7060  -81.9500 C   0  0  0  0  0  0  0  0  0  0  0  0
  1  2  1  0
  2  3  1  0
  2  4  1  0
  4  5  2  0
  4  6  1  0
  5  7  1  0
  6  8  2  0
  7  9  2  0
  8  9  1  0
  9 10  1  0
 10 11  1  0
 11 12  1  0
 12 13  1  0
 13 14  1  0
 14 15  1  0
 15 16  1  0
 16 17  2  0
 16 18  1  0
 17 19  1  0
 18 20  2  0
 19 21  2  0
 20 21  1  0
M  END
>  <ref_url>  (107) 
https://fakepage.com

>  <submitter_name>  (107) 
Steph Wills

>  <submitter_email>  (107) 
stephanie.wills@dtc.ox.ac.uk

>  <submitter_institution>  (107) 
University of Oxford

>  <generation_date>  (107) 
2020-06-04

>  <method>  (107) 
Fragment network

>  <ref_mols>  (107) 
x0176_0B,x0212_0B

>  <ref_pdb>  (107) 
references/x0176-0B-x0212-0B-122746.holo_minimised_nolig.pdb

>  <original SMILES>  (107) 
CC(C)c1ccc(OCCCOCc2ccccc2)cc1

>  <synthon>  (107) 
[Xe]c1ccccc1

>  <original_name>  (107) 
x0176-0B-x0212-0B-122746

>  <comRMSD_score>  (107) 
0.940083691926462

>  <IF_score>  (107) 
0.3541666666666666

>  <SuCOS_score>  (107) 
0.3968758692126308

>  <compound_ID>  (107) 
CHEMSPACE-BB:CSMB00015071374

$$$$

     RDKit          3D

 22 23  0  0  0  0  0  0  0  0999 V2000
  -12.6970    6.6020  -75.0600 N   0  0  0  0  0  0  0  0  0  0  0  0
  -13.5250    6.0730  -76.0030 C   0  0  0  0  0  0  0  0  0  0  0  0
  -12.8600    5.4930  -77.2260 C   0  0  0  0  0  0  0  0  0  0  0  0
  -14.8120    6.1060  -75.7870 N   0  0  0  0  0  0  0  0  0  0  0  0
  -11.7900    4.4900  -76.8520 C   0  0  0  0  0  0  0  0  0  0  0  0
  -15.5370    5.5310  -76.8320 O   0  0  0  0  0  0  0  0  0  0  0  0
  -12.0250    3.4650  -75.9230 C   0  0  0  0  0  0  0  0  0  0  0  0
  -10.5330    4.5800  -77.4460 C   0  0  0  0  0  0  0  0  0  0  0  0
  -11.0110    2.5610  -75.6010 C   0  0  0  0  0  0  0  0  0  0  0  0
   -9.5280    3.6800  -77.1130 C   0  0  0  0  0  0  0  0  0  0  0  0
   -9.7670    2.6750  -76.1960 C   0  0  0  0  0  0  0  0  0  0  0  0
   -8.3010    3.8250  -77.7100 N   0  0  0  0  0  0  0  0  0  0  0  0
   -7.1840    3.2260  -77.2440 C   0  0  0  0  0  0  0  0  0  0  0  0
   -6.4770    3.5690  -76.3060 O   0  0  0  0  0  0  0  0  0  0  0  0
   -6.9310    2.1230  -78.0010 N   0  0  0  0  0  0  0  0  0  0  0  0
   -6.8100    2.2880  -79.4250 C   0  0  0  0  0  0  0  0  0  0  0  0
   -7.8650    1.4970  -80.1360 C   0  0  0  0  0  0  0  0  0  0  0  0
   -8.4400    1.9910  -81.3010 C   0  0  0  0  0  0  0  0  0  0  0  0
   -8.2840    0.2580  -79.6350 C   0  0  0  0  0  0  0  0  0  0  0  0
   -9.4110    1.2580  -81.9540 C   0  0  0  0  0  0  0  0  0  0  0  0
   -9.2640   -0.4750  -80.2980 C   0  0  0  0  0  0  0  0  0  0  0  0
   -9.8280    0.0290  -81.4580 C   0  0  0  0  0  0  0  0  0  0  0  0
  1  2  1  0
  2  3  1  0
  2  4  2  3
  3  5  1  0
  4  6  1  0
  5  7  2  0
  5  8  1  0
  7  9  1  0
  8 10  2  0
  9 11  2  0
 10 11  1  0
 10 12  1  0
 12 13  1  0
 13 14  2  0
 13 15  1  0
 15 16  1  0
 16 17  1  0
 17 18  2  0
 17 19  1  0
 18 20  1  0
 19 21  2  0
 20 22  2  0
 21 22  1  0
M  END
>  <ref_url>  (108) 
https://fakepage.com

>  <submitter_name>  (108) 
Steph Wills

>  <submitter_email>  (108) 
stephanie.wills@dtc.ox.ac.uk

>  <submitter_institution>  (108) 
University of Oxford

>  <generation_date>  (108) 
2020-06-04

>  <method>  (108) 
Fragment network

>  <ref_mols>  (108) 
x0176_0B,x0212_0B

>  <ref_pdb>  (108) 
references/x0176-0B-x0212-0B-126422.holo_minimised_nolig.pdb

>  <original SMILES>  (108) 
NC(Cc1cccc(NC(=O)NCc2ccccc2)c1)=NO

>  <synthon>  (108) 
[Xe]c1ccccc1

>  <original_name>  (108) 
x0176-0B-x0212-0B-126422

>  <comRMSD_score>  (108) 
0.713222762068999

>  <IF_score>  (108) 
0.675

>  <SuCOS_score>  (108) 
0.5444468073427843

>  <compound_ID>  (108) 
CHEMSPACE-BB:CSMB00019202804

$$$$

     RDKit          3D

 23 24  0  0  0  0  0  0  0  0999 V2000
  -13.7300    5.8890  -76.1200 C   0  0  0  0  0  0  0  0  0  0  0  0
  -12.9030    5.5760  -77.3450 C   0  0  0  0  0  0  0  0  0  0  0  0
  -13.7280    5.0120  -78.4740 C   0  0  0  0  0  0  0  0  0  0  0  0
  -11.8130    4.6340  -76.9170 C   0  0  0  0  0  0  0  0  0  0  0  0
  -10.6080    4.5950  -77.5630 C   0  0  0  0  0  0  0  0  0  0  0  0
  -11.9850    3.7610  -75.8320 C   0  0  0  0  0  0  0  0  0  0  0  0
   -9.5740    3.7630  -77.2070 C   0  0  0  0  0  0  0  0  0  0  0  0
  -10.9560    2.8960  -75.4460 C   0  0  0  0  0  0  0  0  0  0  0  0
   -9.7410    2.8920  -76.1340 C   0  0  0  0  0  0  0  0  0  0  0  0
   -8.7870    2.1830  -75.9020 O   0  0  0  0  0  0  0  0  0  0  0  0
   -8.5560    1.5330  -77.1350 C   0  0  0  0  0  0  0  0  0  0  0  0
   -9.2050    2.1890  -78.3540 C   0  0  2  0  0  0  0  0  0  0  0  0
   -9.4880    1.2740  -79.4010 O   0  0  0  0  0  0  0  0  0  0  0  0
   -8.2740    3.2810  -78.8340 C   0  0  0  0  0  0  0  0  0  0  0  0
   -6.8790    2.9210  -78.6170 N   0  0  0  0  0  0  0  0  0  0  0  0
   -6.3060    1.9970  -79.4270 C   0  0  2  0  0  0  0  0  0  0  0  0
   -5.3450    2.4210  -80.3520 C   0  0  0  0  0  0  0  0  0  0  0  0
   -7.4010    1.1960  -80.0820 C   0  0  0  0  0  0  0  0  0  0  0  0
   -8.0850    1.7460  -81.1650 C   0  0  0  0  0  0  0  0  0  0  0  0
   -7.7550   -0.0830  -79.6210 C   0  0  0  0  0  0  0  0  0  0  0  0
   -9.0990    1.0370  -81.7690 C   0  0  0  0  0  0  0  0  0  0  0  0
   -8.7840   -0.7920  -80.2380 C   0  0  0  0  0  0  0  0  0  0  0  0
   -9.4570   -0.2290  -81.3110 C   0  0  0  0  0  0  0  0  0  0  0  0
  1  2  1  0
  2  3  1  0
  2  4  1  0
  4  5  2  0
  4  6  1  0
  5  7  1  0
  6  8  2  0
  7  9  2  0
  8  9  1  0
  9 10  1  0
 10 11  1  0
 11 12  1  0
 12 13  1  6
 12 14  1  0
 14 15  1  0
 15 16  1  0
 16 17  1  6
 16 18  1  0
 18 19  2  0
 18 20  1  0
 19 21  1  0
 20 22  2  0
 21 23  2  0
 22 23  1  0
M  END
>  <ref_url>  (109) 
https://fakepage.com

>  <submitter_name>  (109) 
Steph Wills

>  <submitter_email>  (109) 
stephanie.wills@dtc.ox.ac.uk

>  <submitter_institution>  (109) 
University of Oxford

>  <generation_date>  (109) 
2020-06-04

>  <method>  (109) 
Fragment network

>  <ref_mols>  (109) 
x0176_0B,x0212_0B

>  <ref_pdb>  (109) 
references/x0176-0B-x0212-0B-126428.holo_minimised_nolig.pdb

>  <original SMILES>  (109) 
CC(C)c1ccc(OCC(O)CNC(C)c2ccccc2)cc1

>  <synthon>  (109) 
[Xe]c1ccccc1

>  <original_name>  (109) 
x0176-0B-x0212-0B-126428

>  <comRMSD_score>  (109) 
0.9872359140549958

>  <IF_score>  (109) 
0.25

>  <SuCOS_score>  (109) 
0.4787833821952472

>  <compound_ID>  (109) 
MOLPORT:003-184-039

$$$$

     RDKit          3D

 22 23  0  0  0  0  0  0  0  0999 V2000
  -14.3440    4.6110  -75.7770 C   0  0  0  0  0  0  0  0  0  0  0  0
  -13.4530    5.8420  -75.8850 C   0  0  0  0  0  0  0  0  0  0  0  0
  -12.5570    6.0890  -74.6590 C   0  0  0  0  0  0  0  0  0  0  0  0
  -12.4920    5.6070  -77.0530 C   0  0  0  0  0  0  0  0  0  0  0  0
  -11.4830    4.4970  -76.9020 C   0  0  0  0  0  0  0  0  0  0  0  0
  -10.4170    4.3920  -77.7920 C   0  0  0  0  0  0  0  0  0  0  0  0
  -11.6190    3.5700  -75.8700 C   0  0  0  0  0  0  0  0  0  0  0  0
   -9.5020    3.3530  -77.6480 C   0  0  0  0  0  0  0  0  0  0  0  0
  -10.7050    2.5350  -75.7210 C   0  0  0  0  0  0  0  0  0  0  0  0
   -9.6530    2.4240  -76.6080 C   0  0  0  0  0  0  0  0  0  0  0  0
   -8.7670    1.3600  -76.4170 N   0  0  0  0  0  0  0  0  0  0  0  0
   -7.4980    1.1960  -77.0980 C   0  0  0  0  0  0  0  0  0  0  0  0
   -6.7620    0.0430  -77.1580 O   0  0  0  0  0  0  0  0  0  0  0  0
   -7.0330    2.4380  -77.7520 N   0  0  0  0  0  0  0  0  0  0  0  0
   -7.6580    3.5370  -77.2930 C   0  0  0  0  0  0  0  0  0  0  0  0
   -6.8560    2.4360  -79.2350 C   0  0  0  0  0  0  0  0  0  0  0  0
   -7.8630    1.5830  -79.9770 C   0  0  0  0  0  0  0  0  0  0  0  0
   -8.2910    0.3330  -79.4980 C   0  0  0  0  0  0  0  0  0  0  0  0
   -8.3880    2.0500  -81.1870 C   0  0  0  0  0  0  0  0  0  0  0  0
   -9.2180   -0.4210  -80.2150 C   0  0  0  0  0  0  0  0  0  0  0  0
   -9.3090    1.2930  -81.8960 C   0  0  0  0  0  0  0  0  0  0  0  0
   -9.7260    0.0600  -81.4140 C   0  0  0  0  0  0  0  0  0  0  0  0
  1  2  1  0
  2  3  1  0
  2  4  1  0
  4  5  1  0
  5  6  2  0
  5  7  1  0
  6  8  1  0
  7  9  2  0
  8 10  2  0
  9 10  1  0
 10 11  1  0
 11 12  1  0
 12 13  2  0
 12 14  1  0
 14 15  1  0
 14 16  1  0
 16 17  1  0
 17 18  2  0
 17 19  1  0
 18 20  1  0
 19 21  2  0
 20 22  2  0
 21 22  1  0
M  END
>  <ref_url>  (110) 
https://fakepage.com

>  <submitter_name>  (110) 
Steph Wills

>  <submitter_email>  (110) 
stephanie.wills@dtc.ox.ac.uk

>  <submitter_institution>  (110) 
University of Oxford

>  <generation_date>  (110) 
2020-06-04

>  <method>  (110) 
Fragment network

>  <ref_mols>  (110) 
x0176_0B,x0212_0B

>  <ref_pdb>  (110) 
references/x0176-0B-x0212-0B-129208.holo_minimised_nolig.pdb

>  <original SMILES>  (110) 
CC(C)Cc1ccc(NC(=O)N(C)Cc2ccccc2)cc1

>  <synthon>  (110) 
[Xe]c1ccccc1

>  <original_name>  (110) 
x0176-0B-x0212-0B-129208

>  <comRMSD_score>  (110) 
0.6445191385831758

>  <IF_score>  (110) 
0.675

>  <SuCOS_score>  (110) 
0.5395727806924251

>  <compound_ID>  (110) 
REAL:PV-001944393286

$$$$

     RDKit          3D

 20 21  0  0  0  0  0  0  0  0999 V2000
   -6.0820    4.1500  -77.8900 C   0  0  0  0  0  0  0  0  0  0  0  0
   -7.0050    3.1360  -78.0610 N   0  0  0  0  0  0  0  0  0  0  0  0
   -6.5140    2.2530  -79.0710 C   0  0  0  0  0  0  0  0  0  0  0  0
   -7.6510    2.5500  -76.9740 C   0  0  0  0  0  0  0  0  0  0  0  0
   -7.3140    1.2400  -79.9250 C   0  0  0  0  0  0  0  0  0  0  0  0
   -9.0480    3.0420  -76.6280 C   0  0  0  0  0  0  0  0  0  0  0  0
   -7.6330    1.6380  -81.2450 C   0  0  0  0  0  0  0  0  0  0  0  0
   -7.7370   -0.0160  -79.4930 C   0  0  0  0  0  0  0  0  0  0  0  0
   -9.5890    2.2250  -75.6790 C   0  0  0  0  0  0  0  0  0  0  0  0
   -9.8300    4.1160  -77.0960 C   0  0  0  0  0  0  0  0  0  0  0  0
   -8.3540    0.7870  -82.0900 C   0  0  0  0  0  0  0  0  0  0  0  0
   -8.4520   -0.8680  -80.3250 C   0  0  0  0  0  0  0  0  0  0  0  0
  -10.9560    2.4230  -75.1270 C   0  0  0  0  0  0  0  0  0  0  0  0
  -11.1690    4.3280  -76.6140 C   0  0  0  0  0  0  0  0  0  0  0  0
   -8.7600   -0.4680  -81.6220 C   0  0  0  0  0  0  0  0  0  0  0  0
  -11.7090    3.4860  -75.6300 C   0  0  0  0  0  0  0  0  0  0  0  0
  -11.9740    5.3610  -77.1220 C   0  0  0  0  0  0  0  0  0  0  0  0
  -13.1040    5.7020  -76.1760 C   0  0  0  0  0  0  0  0  0  0  0  0
  -12.8840    6.7360  -75.3170 N   0  0  0  0  0  0  0  0  0  0  0  0
  -14.6780    4.8240  -76.1630 S   0  0  0  0  0  0  0  0  0  0  0  0
  1  2  1  0
  2  3  1  0
  2  4  1  0
  3  5  1  0
  4  6  1  0
  5  7  2  0
  5  8  1  0
  6  9  2  0
  6 10  1  0
  7 11  1  0
  8 12  2  0
  9 13  1  0
 10 14  2  0
 11 15  2  0
 12 15  1  0
 13 16  2  0
 14 16  1  0
 14 17  1  0
 17 18  1  0
 18 19  1  0
 18 20  2  0
M  END
>  <ref_url>  (111) 
https://fakepage.com

>  <submitter_name>  (111) 
Steph Wills

>  <submitter_email>  (111) 
stephanie.wills@dtc.ox.ac.uk

>  <submitter_institution>  (111) 
University of Oxford

>  <generation_date>  (111) 
2020-06-04

>  <method>  (111) 
Fragment network

>  <ref_mols>  (111) 
x0176_0B,x0212_0B

>  <ref_pdb>  (111) 
references/x0176-0B-x0212-0B-129774.holo_minimised_nolig.pdb

>  <original SMILES>  (111) 
CN(Cc1ccccc1)Cc1cccc(CC(N)=S)c1

>  <synthon>  (111) 
[Xe]c1ccccc1

>  <original_name>  (111) 
x0176-0B-x0212-0B-129774

>  <comRMSD_score>  (111) 
0.9610920645399884

>  <IF_score>  (111) 
0.4857142857142857

>  <SuCOS_score>  (111) 
0.4645703343334811

>  <compound_ID>  (111) 
CHEMSPACE-BB:CSMB00053239001

$$$$

     RDKit          3D

 22 23  0  0  0  0  0  0  0  0999 V2000
  -12.6050    6.4960  -73.7490 C   0  0  0  0  0  0  0  0  0  0  0  0
  -12.9890    6.9510  -75.1520 C   0  0  0  0  0  0  0  0  0  0  0  0
  -13.3690    5.8400  -76.0260 N   0  0  0  0  0  0  0  0  0  0  0  0
  -12.5970    5.6210  -77.1650 C   0  0  0  0  0  0  0  0  0  0  0  0
  -11.7840    4.4980  -77.2180 C   0  0  0  0  0  0  0  0  0  0  0  0
  -11.6120    3.6770  -76.1160 C   0  0  0  0  0  0  0  0  0  0  0  0
  -11.1120    4.1570  -78.3890 C   0  0  0  0  0  0  0  0  0  0  0  0
  -10.8200    2.5530  -76.1610 C   0  0  0  0  0  0  0  0  0  0  0  0
  -10.3070    3.0090  -78.4500 C   0  0  0  0  0  0  0  0  0  0  0  0
  -10.1860    2.2180  -77.3190 C   0  0  0  0  0  0  0  0  0  0  0  0
   -9.2210    0.7230  -77.1550 S   0  0  0  0  0  0  0  0  0  0  0  0
   -8.2550    1.7830  -76.2320 C   0  0  0  0  0  0  0  0  0  0  0  0
   -8.0490    2.9570  -77.1580 C   0  0  0  0  0  0  0  0  0  0  0  0
   -8.7220    3.9650  -77.2700 O   0  0  0  0  0  0  0  0  0  0  0  0
   -6.8680    2.6490  -77.9770 N   0  0  0  0  0  0  0  0  0  0  0  0
   -6.7770    2.7110  -79.3490 C   0  0  0  0  0  0  0  0  0  0  0  0
   -7.6390    1.6910  -80.0530 C   0  0  0  0  0  0  0  0  0  0  0  0
   -7.9210    0.4360  -79.4890 C   0  0  0  0  0  0  0  0  0  0  0  0
   -8.1660    2.0010  -81.2990 C   0  0  0  0  0  0  0  0  0  0  0  0
   -8.7200   -0.4850  -80.1770 C   0  0  0  0  0  0  0  0  0  0  0  0
   -8.9480    1.0910  -81.9800 C   0  0  0  0  0  0  0  0  0  0  0  0
   -9.2290   -0.1550  -81.4220 C   0  0  0  0  0  0  0  0  0  0  0  0
  1  2  1  0
  2  3  1  0
  3  4  1  0
  4  5  1  0
  5  6  2  0
  5  7  1  0
  6  8  1  0
  7  9  2  0
  8 10  2  0
  9 10  1  0
 10 11  1  0
 11 12  1  0
 12 13  1  0
 13 14  2  0
 13 15  1  0
 15 16  1  0
 16 17  1  0
 17 18  2  0
 17 19  1  0
 18 20  1  0
 19 21  2  0
 20 22  2  0
 21 22  1  0
M  END
>  <ref_url>  (112) 
https://fakepage.com

>  <submitter_name>  (112) 
Steph Wills

>  <submitter_email>  (112) 
stephanie.wills@dtc.ox.ac.uk

>  <submitter_institution>  (112) 
University of Oxford

>  <generation_date>  (112) 
2020-06-04

>  <method>  (112) 
Fragment network

>  <ref_mols>  (112) 
x0176_0B,x0212_0B

>  <ref_pdb>  (112) 
references/x0176-0B-x0212-0B-130607.holo_minimised_nolig.pdb

>  <original SMILES>  (112) 
CCNCc1ccc(SCC(=O)NCc2ccccc2)cc1

>  <synthon>  (112) 
[Xe]c1ccccc1

>  <original_name>  (112) 
x0176-0B-x0212-0B-130607

>  <comRMSD_score>  (112) 
0.8530743096458699

>  <IF_score>  (112) 
0.3333333333333333

>  <SuCOS_score>  (112) 
0.5100818663294842

>  <compound_ID>  (112) 
CHEMSPACE-BB:CSMB00013310157

$$$$

     RDKit          3D

 21 22  0  0  0  0  0  0  0  0999 V2000
  -13.7010    5.8440  -75.7410 C   0  0  0  0  0  0  0  0  0  0  0  0
  -13.1060    5.2230  -76.9610 C   0  0  0  0  0  0  0  0  0  0  0  0
  -13.7520    5.4480  -78.2120 O   0  0  0  0  0  0  0  0  0  0  0  0
  -11.8420    4.3740  -76.8060 C   0  0  0  0  0  0  0  0  0  0  0  0
  -10.7090    4.6950  -77.7680 C   0  0  0  0  0  0  0  0  0  0  0  0
  -11.7320    3.3800  -75.8450 C   0  0  0  0  0  0  0  0  0  0  0  0
   -9.5030    3.8480  -77.5680 C   0  0  0  0  0  0  0  0  0  0  0  0
  -10.5600    2.6370  -75.7320 C   0  0  0  0  0  0  0  0  0  0  0  0
   -9.4630    2.8610  -76.5690 C   0  0  0  0  0  0  0  0  0  0  0  0
   -8.3140    2.1060  -76.4140 N   0  0  0  0  0  0  0  0  0  0  0  0
   -7.1050    2.4810  -76.9130 C   0  0  0  0  0  0  0  0  0  0  0  0
   -5.8430    2.4420  -76.2410 O   0  0  0  0  0  0  0  0  0  0  0  0
   -7.2570    2.9350  -78.2260 N   0  0  0  0  0  0  0  0  0  0  0  0
   -6.7440    2.3880  -79.3770 C   0  0  1  0  0  0  0  0  0  0  0  0
   -5.5500    1.4900  -79.1150 C   0  0  0  0  0  0  0  0  0  0  0  0
   -7.8210    1.5540  -80.0890 C   0  0  0  0  0  0  0  0  0  0  0  0
   -8.2250    0.3200  -79.5570 C   0  0  0  0  0  0  0  0  0  0  0  0
   -8.4060    2.0120  -81.2750 C   0  0  0  0  0  0  0  0  0  0  0  0
   -9.2780   -0.4860  -80.2700 C   0  0  0  0  0  0  0  0  0  0  0  0
   -9.3760    1.2480  -81.9150 C   0  0  0  0  0  0  0  0  0  0  0  0
   -9.8210    0.0220  -81.4440 C   0  0  0  0  0  0  0  0  0  0  0  0
  1  2  1  0
  2  3  2  0
  2  4  1  0
  4  5  2  0
  4  6  1  0
  5  7  1  0
  6  8  2  0
  7  9  2  0
  8  9  1  0
  9 10  1  0
 10 11  1  0
 11 12  2  0
 11 13  1  0
 13 14  1  0
 14 15  1  1
 14 16  1  0
 16 17  2  0
 16 18  1  0
 17 19  1  0
 18 20  2  0
 19 21  2  0
 20 21  1  0
M  END
>  <ref_url>  (113) 
https://fakepage.com

>  <submitter_name>  (113) 
Steph Wills

>  <submitter_email>  (113) 
stephanie.wills@dtc.ox.ac.uk

>  <submitter_institution>  (113) 
University of Oxford

>  <generation_date>  (113) 
2020-06-04

>  <method>  (113) 
Fragment network

>  <ref_mols>  (113) 
x0176_0B,x0212_0B

>  <ref_pdb>  (113) 
references/x0176-0B-x0212-0B-136387.holo_minimised_nolig.pdb

>  <original SMILES>  (113) 
CC(=O)c1ccc(NC(=O)NC(C)c2ccccc2)cc1

>  <synthon>  (113) 
[Xe]c1ccccc1

>  <original_name>  (113) 
x0176-0B-x0212-0B-136387

>  <comRMSD_score>  (113) 
0.7059357560477206

>  <IF_score>  (113) 
0.675

>  <SuCOS_score>  (113) 
0.4969231641590466

>  <compound_ID>  (113) 
REAL:Z1149170517

$$$$

     RDKit          3D

 22 23  0  0  0  0  0  0  0  0999 V2000
  -13.0650    5.9360  -74.9010 O   0  0  0  0  0  0  0  0  0  0  0  0
  -13.5320    6.0290  -76.0240 C   0  0  0  0  0  0  0  0  0  0  0  0
  -14.3940    7.0280  -76.3160 O   0  0  0  0  0  0  0  0  0  0  0  0
  -13.2710    5.1460  -77.2080 C   0  0  0  0  0  0  0  0  0  0  0  0
  -12.0360    4.3190  -77.0360 C   0  0  0  0  0  0  0  0  0  0  0  0
  -10.9550    4.5560  -77.8660 C   0  0  0  0  0  0  0  0  0  0  0  0
  -11.9670    3.3200  -76.0520 C   0  0  0  0  0  0  0  0  0  0  0  0
   -9.8170    3.8060  -77.7250 C   0  0  0  0  0  0  0  0  0  0  0  0
  -10.8060    2.5590  -75.9120 C   0  0  0  0  0  0  0  0  0  0  0  0
   -9.7390    2.8110  -76.7570 C   0  0  0  0  0  0  0  0  0  0  0  0
   -8.2420    1.9140  -76.6800 S   0  0  0  0  0  0  0  0  0  0  0  0
   -8.3860    0.8450  -77.6430 O   0  0  0  0  0  0  0  0  0  0  0  0
   -7.4360    3.2520  -77.5000 C   0  0  0  0  0  0  0  0  0  0  0  0
   -7.8410    3.5400  -78.8150 C   0  0  0  0  0  0  0  0  0  0  0  0
   -6.8600    3.2200  -79.6550 O   0  0  0  0  0  0  0  0  0  0  0  0
   -6.3920    1.9080  -79.4210 C   0  0  0  0  0  0  0  0  0  0  0  0
   -7.1560    0.9800  -80.3030 C   0  0  0  0  0  0  0  0  0  0  0  0
   -7.5380   -0.2930  -79.8420 C   0  0  0  0  0  0  0  0  0  0  0  0
   -7.4850    1.4000  -81.6090 C   0  0  0  0  0  0  0  0  0  0  0  0
   -8.2380   -1.1440  -80.6950 C   0  0  0  0  0  0  0  0  0  0  0  0
   -8.1800    0.5340  -82.4630 C   0  0  0  0  0  0  0  0  0  0  0  0
   -8.5340   -0.7140  -81.9750 C   0  0  0  0  0  0  0  0  0  0  0  0
  1  2  2  0
  2  3  1  0
  2  4  1  0
  4  5  1  0
  5  6  2  0
  5  7  1  0
  6  8  1  0
  7  9  2  0
  8 10  2  0
  9 10  1  0
 10 11  1  0
 11 12  1  6
 11 13  1  0
 13 14  1  0
 14 15  1  0
 15 16  1  0
 16 17  1  0
 17 18  2  0
 17 19  1  0
 18 20  1  0
 19 21  2  0
 20 22  2  0
 21 22  1  0
M  CHG  2  11   1  12  -1
M  END
>  <ref_url>  (114) 
https://fakepage.com

>  <submitter_name>  (114) 
Steph Wills

>  <submitter_email>  (114) 
stephanie.wills@dtc.ox.ac.uk

>  <submitter_institution>  (114) 
University of Oxford

>  <generation_date>  (114) 
2020-06-04

>  <method>  (114) 
Fragment network

>  <ref_mols>  (114) 
x0176_0B,x0212_0B

>  <ref_pdb>  (114) 
references/x0176-0B-x0212-0B-136631.holo_minimised_nolig.pdb

>  <original SMILES>  (114) 
O=C(O)Cc1ccc([S+]([O-])CCOCc2ccccc2)cc1

>  <synthon>  (114) 
[Xe]c1ccccc1

>  <original_name>  (114) 
x0176-0B-x0212-0B-136631

>  <comRMSD_score>  (114) 
0.9167521830993316

>  <IF_score>  (114) 
0.2142857142857142

>  <SuCOS_score>  (114) 
0.4428811347973299

>  <compound_ID>  (114) 
CHEMSPACE-BB:CSMB00014807070

$$$$

     RDKit          3D

 24 25  0  0  0  0  0  0  0  0999 V2000
  -12.0160    4.3510  -74.7450 C   0  0  0  0  0  0  0  0  0  0  0  0
  -12.4470    5.7430  -74.9580 N   0  0  0  0  0  0  0  0  0  0  0  0
  -12.5900    6.3990  -73.7000 C   0  0  0  0  0  0  0  0  0  0  0  0
  -13.2990    6.0090  -76.1410 C   0  0  0  0  0  0  0  0  0  0  0  0
  -12.4970    5.6050  -77.4070 C   0  0  0  0  0  0  0  0  0  0  0  0
  -11.5860    4.4140  -77.2030 C   0  0  0  0  0  0  0  0  0  0  0  0
  -10.4350    4.2380  -77.9720 C   0  0  0  0  0  0  0  0  0  0  0  0
  -11.8730    3.4470  -76.2270 C   0  0  0  0  0  0  0  0  0  0  0  0
   -9.6080    3.1340  -77.7640 C   0  0  0  0  0  0  0  0  0  0  0  0
  -11.0430    2.3480  -76.0190 C   0  0  0  0  0  0  0  0  0  0  0  0
   -9.9080    2.1790  -76.7800 C   0  0  0  0  0  0  0  0  0  0  0  0
   -9.0380    0.9690  -76.5220 C   0  0  0  0  0  0  0  0  0  0  0  0
   -7.6610    1.4080  -76.2500 N   0  0  0  0  0  0  0  0  0  0  0  0
   -7.4690    2.6330  -76.7540 C   0  0  0  0  0  0  0  0  0  0  0  0
   -7.8020    3.6690  -76.1990 O   0  0  0  0  0  0  0  0  0  0  0  0
   -6.7920    2.6140  -78.0530 N   0  0  0  0  0  0  0  0  0  0  0  0
   -5.5730    2.0150  -78.1090 C   0  0  0  0  0  0  0  0  0  0  0  0
   -7.3730    2.9160  -79.2760 C   0  0  0  0  0  0  0  0  0  0  0  0
   -7.9650    1.8600  -79.9800 C   0  0  0  0  0  0  0  0  0  0  0  0
   -8.2770    2.0170  -81.3060 C   0  0  0  0  0  0  0  0  0  0  0  0
   -8.2640    0.6200  -79.3940 C   0  0  0  0  0  0  0  0  0  0  0  0
   -8.8520    1.0530  -82.0920 C   0  0  0  0  0  0  0  0  0  0  0  0
   -8.8600   -0.3960  -80.1660 C   0  0  0  0  0  0  0  0  0  0  0  0
   -9.1520   -0.1760  -81.5140 C   0  0  0  0  0  0  0  0  0  0  0  0
  1  2  1  0
  2  3  1  0
  2  4  1  0
  4  5  1  0
  5  6  1  0
  6  7  2  0
  6  8  1  0
  7  9  1  0
  8 10  2  0
  9 11  2  0
 10 11  1  0
 11 12  1  0
 12 13  1  0
 13 14  1  0
 14 15  2  0
 14 16  1  0
 16 17  1  0
 16 18  1  0
 18 19  1  0
 19 20  2  0
 19 21  1  0
 20 22  1  0
 21 23  2  0
 22 24  2  0
 23 24  1  0
M  END
>  <ref_url>  (115) 
https://fakepage.com

>  <submitter_name>  (115) 
Steph Wills

>  <submitter_email>  (115) 
stephanie.wills@dtc.ox.ac.uk

>  <submitter_institution>  (115) 
University of Oxford

>  <generation_date>  (115) 
2020-06-04

>  <method>  (115) 
Fragment network

>  <ref_mols>  (115) 
x0176_0B,x0212_0B

>  <ref_pdb>  (115) 
references/x0176-0B-x0212-0B-136745.holo_minimised_nolig.pdb

>  <original SMILES>  (115) 
CN(C)CCc1ccc(CNC(=O)N(C)Cc2ccccc2)cc1

>  <synthon>  (115) 
[Xe]c1ccccc1

>  <original_name>  (115) 
x0176-0B-x0212-0B-136745

>  <comRMSD_score>  (115) 
0.6845822732797626

>  <IF_score>  (115) 
0.5

>  <SuCOS_score>  (115) 
0.5518638466422855

>  <compound_ID>  (115) 
REAL:Z1801944131

$$$$

     RDKit          3D

 26 27  0  0  0  0  0  0  0  0999 V2000
  -12.5690    6.3940  -73.7090 C   0  0  0  0  0  0  0  0  0  0  0  0
  -12.5590    6.7530  -75.0900 O   0  0  0  0  0  0  0  0  0  0  0  0
  -13.4800    6.0280  -75.9040 C   0  0  0  0  0  0  0  0  0  0  0  0
  -12.9420    5.3960  -77.1890 C   0  0  0  0  0  0  0  0  0  0  0  0
  -11.9050    4.5200  -76.8830 C   0  0  0  0  0  0  0  0  0  0  0  0
  -10.6580    4.6220  -77.5040 C   0  0  0  0  0  0  0  0  0  0  0  0
  -12.1380    3.5200  -75.9240 C   0  0  0  0  0  0  0  0  0  0  0  0
   -9.6350    3.7370  -77.1690 C   0  0  0  0  0  0  0  0  0  0  0  0
  -11.1520    2.6100  -75.5600 C   0  0  0  0  0  0  0  0  0  0  0  0
   -9.9060    2.6720  -76.1430 C   0  0  0  0  0  0  0  0  0  0  0  0
   -9.0430    1.6650  -75.6500 O   0  0  0  0  0  0  0  0  0  0  0  0
   -9.7540    0.4320  -75.4800 C   0  0  0  0  0  0  0  0  0  0  0  0
   -8.8680   -0.5690  -75.8690 C   0  0  1  0  0  0  0  0  0  0  0  0
   -9.3460   -1.6760  -76.1220 O   0  0  0  0  0  0  0  0  0  0  0  0
   -8.0890    0.0240  -77.0050 C   0  0  0  0  0  0  0  0  0  0  0  0
   -8.8240    0.8520  -77.8230 N   0  0  0  0  0  0  0  0  0  0  0  0
   -8.4590    2.2380  -78.1700 C   0  0  0  0  0  0  0  0  0  0  0  0
   -9.2910    3.0930  -78.4540 O   0  0  0  0  0  0  0  0  0  0  0  0
   -7.1380    2.4380  -78.1690 N   0  0  0  0  0  0  0  0  0  0  0  0
   -6.6470    2.2580  -79.5340 C   0  0  0  0  0  0  0  0  0  0  0  0
   -7.6140    1.4920  -80.1960 C   0  0  0  0  0  0  0  0  0  0  0  0
   -7.8790    0.1770  -79.7890 C   0  0  0  0  0  0  0  0  0  0  0  0
   -8.3340    2.0360  -81.2760 C   0  0  0  0  0  0  0  0  0  0  0  0
   -8.8410   -0.5900  -80.4220 C   0  0  0  0  0  0  0  0  0  0  0  0
   -9.3090    1.3020  -81.9500 C   0  0  0  0  0  0  0  0  0  0  0  0
   -9.6100    0.0020  -81.5730 C   0  0  0  0  0  0  0  0  0  0  0  0
  1  2  1  0
  2  3  1  0
  3  4  1  0
  4  5  1  0
  5  6  2  0
  5  7  1  0
  6  8  1  0
  7  9  2  0
  8 10  2  0
  9 10  1  0
 10 11  1  0
 11 12  1  0
 12 13  1  0
 13 14  1  6
 13 15  1  0
 15 16  1  0
 16 17  1  0
 17 18  2  0
 17 19  1  0
 19 20  1  0
 20 21  1  0
 21 22  2  0
 21 23  1  0
 22 24  1  0
 23 25  2  0
 24 26  2  0
 25 26  1  0
M  END
>  <ref_url>  (116) 
https://fakepage.com

>  <submitter_name>  (116) 
Steph Wills

>  <submitter_email>  (116) 
stephanie.wills@dtc.ox.ac.uk

>  <submitter_institution>  (116) 
University of Oxford

>  <generation_date>  (116) 
2020-06-04

>  <method>  (116) 
Fragment network

>  <ref_mols>  (116) 
x0176_0B,x0212_0B

>  <ref_pdb>  (116) 
references/x0176-0B-x0212-0B-136770.holo_minimised_nolig.pdb

>  <original SMILES>  (116) 
COCCc1ccc(OCC(O)CNC(=O)NCc2ccccc2)cc1

>  <synthon>  (116) 
[Xe]c1ccccc1

>  <original_name>  (116) 
x0176-0B-x0212-0B-136770

>  <comRMSD_score>  (116) 
0.6515176584400908

>  <IF_score>  (116) 
0.9

>  <SuCOS_score>  (116) 
0.5425962756819942

>  <compound_ID>  (116) 
REAL:Z2568519574

$$$$

     RDKit          3D

 18 19  0  0  0  0  0  0  0  0999 V2000
  -13.8720    6.5730  -74.4750 N   0  0  0  0  0  0  0  0  0  0  0  0
  -13.6640    5.7060  -75.4970 C   0  0  0  0  0  0  0  0  0  0  0  0
  -13.4490    4.7270  -76.6130 C   0  0  0  0  0  0  0  0  0  0  0  0
  -12.0460    4.2070  -76.6290 C   0  0  0  0  0  0  0  0  0  0  0  0
  -11.1470    4.7750  -77.4930 C   0  0  0  0  0  0  0  0  0  0  0  0
  -11.6520    3.1540  -75.7880 C   0  0  0  0  0  0  0  0  0  0  0  0
   -9.8680    4.3030  -77.5210 C   0  0  0  0  0  0  0  0  0  0  0  0
  -10.3320    2.6850  -75.8220 C   0  0  0  0  0  0  0  0  0  0  0  0
   -9.4400    3.2880  -76.7100 C   0  0  0  0  0  0  0  0  0  0  0  0
   -8.1150    2.9870  -76.8740 C   0  0  0  0  0  0  0  0  0  0  0  0
   -7.6470    2.0120  -77.7510 N   0  0  0  0  0  0  0  0  0  0  0  0
   -7.0970    2.2550  -78.9860 C   0  0  0  0  0  0  0  0  0  0  0  0
   -8.0110    1.5530  -79.9520 C   0  0  0  0  0  0  0  0  0  0  0  0
   -8.4600    0.2310  -79.4100 C   0  0  0  0  0  0  0  0  0  0  0  0
   -8.4190    2.0290  -81.1890 C   0  0  0  0  0  0  0  0  0  0  0  0
   -9.3810   -0.5370  -80.2940 C   0  0  0  0  0  0  0  0  0  0  0  0
   -9.2770    1.2580  -81.9570 C   0  0  0  0  0  0  0  0  0  0  0  0
   -9.7480    0.0090  -81.5210 C   0  0  0  0  0  0  0  0  0  0  0  0
  1  2  3  0
  2  3  1  0
  3  4  1  0
  4  5  2  0
  4  6  1  0
  5  7  1  0
  6  8  2  0
  7  9  2  0
  8  9  1  0
  9 10  1  0
 10 11  1  0
 11 12  1  0
 12 13  1  0
 13 14  2  0
 13 15  1  0
 14 16  1  0
 15 17  2  0
 16 18  2  0
 17 18  1  0
M  END
>  <ref_url>  (117) 
https://fakepage.com

>  <submitter_name>  (117) 
Steph Wills

>  <submitter_email>  (117) 
stephanie.wills@dtc.ox.ac.uk

>  <submitter_institution>  (117) 
University of Oxford

>  <generation_date>  (117) 
2020-06-04

>  <method>  (117) 
Fragment network

>  <ref_mols>  (117) 
x0176_0B,x0212_0B

>  <ref_pdb>  (117) 
references/x0176-0B-x0212-0B-136799.holo_minimised_nolig.pdb

>  <original SMILES>  (117) 
N#CCc1ccc(CNCc2ccccc2)cc1

>  <synthon>  (117) 
[Xe]c1ccccc1

>  <original_name>  (117) 
x0176-0B-x0212-0B-136799

>  <comRMSD_score>  (117) 
0.8870274001944087

>  <IF_score>  (117) 
0.675

>  <SuCOS_score>  (117) 
0.5378906802984791

>  <compound_ID>  (117) 
CHEMSPACE-BB:CSMB00016979151, REAL:PV-001926102311

$$$$

     RDKit          3D

 23 24  0  0  0  0  0  0  0  0999 V2000
  -13.0970    5.8640  -75.7230 C   0  0  0  0  0  0  0  0  0  0  0  0
  -12.9780    5.1940  -77.0700 C   0  0  0  0  0  0  0  0  0  0  0  0
  -13.5940    5.5490  -78.0710 O   0  0  0  0  0  0  0  0  0  0  0  0
  -12.0140    4.0210  -77.0490 C   0  0  0  0  0  0  0  0  0  0  0  0
  -11.1140    3.9680  -78.2050 C   0  0  0  0  0  0  0  0  0  0  0  0
  -11.9500    3.0530  -76.0480 C   0  0  0  0  0  0  0  0  0  0  0  0
  -10.2020    2.9150  -78.2890 C   0  0  0  0  0  0  0  0  0  0  0  0
  -11.0180    2.0200  -76.1550 C   0  0  0  0  0  0  0  0  0  0  0  0
  -10.1690    1.9630  -77.2590 C   0  0  0  0  0  0  0  0  0  0  0  0
   -9.1510    0.9620  -77.5030 N   0  0  0  0  0  0  0  0  0  0  0  0
   -7.8240    1.0890  -77.2550 C   0  0  0  0  0  0  0  0  0  0  0  0
   -7.2270    0.0500  -76.6260 O   0  0  0  0  0  0  0  0  0  0  0  0
   -7.3060    2.2720  -77.6910 N   0  0  0  0  0  0  0  0  0  0  0  0
   -6.8750    2.3990  -79.1220 C   0  0  0  0  0  0  0  0  0  0  0  0
   -7.8540    3.4860  -77.0810 C   0  0  0  0  0  0  0  0  0  0  0  0
   -7.7890    1.5180  -79.9770 C   0  0  0  0  0  0  0  0  0  0  0  0
   -8.9080    3.3020  -76.1660 C   0  0  0  0  0  0  0  0  0  0  0  0
   -9.1800    3.9690  -77.6100 C   0  0  0  0  0  0  0  0  0  0  0  0
   -8.1490    0.2450  -79.5340 C   0  0  0  0  0  0  0  0  0  0  0  0
   -8.2730    1.9760  -81.2040 C   0  0  0  0  0  0  0  0  0  0  0  0
   -8.9850   -0.5630  -80.2940 C   0  0  0  0  0  0  0  0  0  0  0  0
   -9.1020    1.1590  -81.9590 C   0  0  0  0  0  0  0  0  0  0  0  0
   -9.4600   -0.1000  -81.5060 C   0  0  0  0  0  0  0  0  0  0  0  0
  1  2  1  0
  2  3  2  0
  2  4  1  0
  4  5  2  0
  4  6  1  0
  5  7  1  0
  6  8  2  0
  7  9  2  0
  8  9  1  0
  9 10  1  0
 10 11  1  0
 11 12  2  0
 11 13  1  0
 13 14  1  0
 13 15  1  0
 14 16  1  0
 15 17  1  0
 15 18  1  0
 16 19  2  0
 16 20  1  0
 19 21  1  0
 20 22  2  0
 21 23  2  0
 22 23  1  0
M  END
>  <ref_url>  (118) 
https://fakepage.com

>  <submitter_name>  (118) 
Steph Wills

>  <submitter_email>  (118) 
stephanie.wills@dtc.ox.ac.uk

>  <submitter_institution>  (118) 
University of Oxford

>  <generation_date>  (118) 
2020-06-04

>  <method>  (118) 
Fragment network

>  <ref_mols>  (118) 
x0176_0B,x0212_0B

>  <ref_pdb>  (118) 
references/x0176-0B-x0212-0B-140423.holo_minimised_nolig.pdb

>  <original SMILES>  (118) 
CC(=O)c1ccc(NC(=O)N(Cc2ccccc2)C(C)C)cc1

>  <synthon>  (118) 
[Xe]c1ccccc1

>  <original_name>  (118) 
x0176-0B-x0212-0B-140423

>  <comRMSD_score>  (118) 
0.8276923656612482

>  <IF_score>  (118) 
0.375

>  <SuCOS_score>  (118) 
0.4971250058444759

>  <compound_ID>  (118) 
REAL:Z744000142

$$$$

     RDKit          3D

 19 20  0  0  0  0  0  0  0  0999 V2000
  -12.7790    5.2510  -76.8600 C   0  0  0  0  0  0  0  0  0  0  0  0
  -11.4260    4.5180  -76.8280 C   0  0  0  0  0  0  0  0  0  0  0  0
  -11.1970    3.5070  -75.7030 C   0  0  0  0  0  0  0  0  0  0  0  0
  -10.4240    4.7340  -77.7530 C   0  0  0  0  0  0  0  0  0  0  0  0
   -9.9520    2.8590  -75.6710 C   0  0  0  0  0  0  0  0  0  0  0  0
   -9.2200    4.0540  -77.6460 C   0  0  0  0  0  0  0  0  0  0  0  0
   -8.9640    3.1380  -76.6270 C   0  0  0  0  0  0  0  0  0  0  0  0
   -7.3610    2.3740  -76.6210 S   0  0  0  0  0  0  0  0  0  0  0  0
   -7.2280    1.4380  -75.5540 O   0  0  0  0  0  0  0  0  0  0  0  0
   -6.3590    3.3750  -76.9310 O   0  0  0  0  0  0  0  0  0  0  0  0
   -7.5580    1.3660  -77.9800 C   0  0  0  0  0  0  0  0  0  0  0  0
   -7.2500    0.0490  -78.0050 F   0  0  0  0  0  0  0  0  0  0  0  0
   -8.1630    2.1250  -79.0900 C   0  0  0  0  0  0  0  0  0  0  0  0
   -8.4410    1.3600  -80.1510 C   0  0  0  0  0  0  0  0  0  0  0  0
   -8.3330    1.7830  -81.4560 C   0  0  0  0  0  0  0  0  0  0  0  0
   -8.8640    0.0680  -79.8640 C   0  0  0  0  0  0  0  0  0  0  0  0
   -8.6670    0.8320  -82.5530 C   0  0  0  0  0  0  0  0  0  0  0  0
   -9.1880   -0.8440  -80.8380 C   0  0  0  0  0  0  0  0  0  0  0  0
   -9.0800   -0.4420  -82.1500 C   0  0  0  0  0  0  0  0  0  0  0  0
  1  2  1  0
  2  3  2  0
  2  4  1  0
  3  5  1  0
  4  6  2  0
  5  7  2  0
  6  7  1  0
  7  8  1  0
  8  9  2  0
  8 10  2  0
  8 11  1  0
 11 12  1  0
 11 13  2  3
 13 14  1  0
 14 15  2  0
 14 16  1  0
 15 17  1  0
 16 18  2  0
 17 19  2  0
 18 19  1  0
M  END
>  <ref_url>  (119) 
https://fakepage.com

>  <submitter_name>  (119) 
Steph Wills

>  <submitter_email>  (119) 
stephanie.wills@dtc.ox.ac.uk

>  <submitter_institution>  (119) 
University of Oxford

>  <generation_date>  (119) 
2020-06-04

>  <method>  (119) 
Fragment network

>  <ref_mols>  (119) 
x0176_0B,x0212_0B

>  <ref_pdb>  (119) 
references/x0176-0B-x0212-0B-140432.holo_minimised_nolig.pdb

>  <original SMILES>  (119) 
Cc1ccc(S(=O)(=O)C(F)=Cc2ccccc2)cc1

>  <synthon>  (119) 
[Xe]c1ccccc1

>  <original_name>  (119) 
x0176-0B-x0212-0B-140432

>  <comRMSD_score>  (119) 
0.742488108261062

>  <IF_score>  (119) 
0.8333333333333333

>  <SuCOS_score>  (119) 
0.4215292938225569

>  <compound_ID>  (119) 
MOLPORT:003-802-673

$$$$

     RDKit          3D

 28 29  0  0  0  0  0  0  0  0999 V2000
  -12.5390    6.3610  -73.2390 C   0  0  0  0  0  0  0  0  0  0  0  0
  -13.2500    6.9400  -74.4300 C   0  0  0  0  0  0  0  0  0  0  0  0
  -14.5940    7.5790  -74.0410 C   0  0  0  0  0  0  0  0  0  0  0  0
  -12.3750    8.1320  -74.9050 C   0  0  0  0  0  0  0  0  0  0  0  0
  -13.5290    5.7840  -75.3990 C   0  0  0  0  0  0  0  0  0  0  0  0
  -12.9910    5.8450  -76.6520 C   0  0  0  0  0  0  0  0  0  0  0  0
  -13.8930    5.8020  -77.7140 C   0  0  0  0  0  0  0  0  0  0  0  0
  -12.5050    7.2830  -76.8300 C   0  0  0  0  0  0  0  0  0  0  0  0
  -11.8180    4.8130  -76.7620 C   0  0  0  0  0  0  0  0  0  0  0  0
  -10.7270    5.0150  -77.7560 C   0  0  0  0  0  0  0  0  0  0  0  0
  -11.6950    3.6570  -75.9540 C   0  0  0  0  0  0  0  0  0  0  0  0
   -9.6500    4.1520  -77.9090 C   0  0  0  0  0  0  0  0  0  0  0  0
  -10.6100    2.7510  -76.0860 C   0  0  0  0  0  0  0  0  0  0  0  0
   -9.5980    2.9520  -77.0260 C   0  0  0  0  0  0  0  0  0  0  0  0
   -8.6190    2.0240  -77.0810 O   0  0  0  0  0  0  0  0  0  0  0  0
   -7.8040    1.8990  -75.9410 C   0  0  0  0  0  0  0  0  0  0  0  0
   -6.4510    1.7640  -76.2330 C   0  0  0  0  0  0  0  0  0  0  0  0
   -5.6530    1.6250  -75.3180 O   0  0  0  0  0  0  0  0  0  0  0  0
   -6.0880    1.8190  -77.5240 N   0  0  0  0  0  0  0  0  0  0  0  0
   -6.8100    2.6100  -78.3240 N   0  0  0  0  0  0  0  0  0  0  0  0
   -6.8080    2.3560  -79.6630 C   0  0  0  0  0  0  0  0  0  0  0  0
   -5.7760    2.8800  -80.4910 O   0  0  0  0  0  0  0  0  0  0  0  0
   -7.8020    1.5610  -80.2130 C   0  0  0  0  0  0  0  0  0  0  0  0
   -8.4400    1.9980  -81.3540 C   0  0  0  0  0  0  0  0  0  0  0  0
   -8.1620    0.3310  -79.6400 C   0  0  0  0  0  0  0  0  0  0  0  0
   -9.4320    1.2210  -81.9360 C   0  0  0  0  0  0  0  0  0  0  0  0
   -9.1630   -0.4500  -80.2270 C   0  0  0  0  0  0  0  0  0  0  0  0
   -9.7960    0.0020  -81.3790 C   0  0  0  0  0  0  0  0  0  0  0  0
  2  1  1  0
  2  3  1  0
  2  4  1  0
  2  5  1  0
  6  5  1  0
  6  7  1  0
  6  8  1  0
  6  9  1  0
  9 10  2  0
  9 11  1  0
 10 12  1  0
 11 13  2  0
 12 14  2  0
 13 14  1  0
 14 15  1  0
 15 16  1  0
 16 17  1  0
 17 18  2  0
 17 19  1  0
 19 20  1  0
 20 21  1  0
 21 22  2  0
 21 23  1  0
 23 24  2  0
 23 25  1  0
 24 26  1  0
 25 27  2  0
 26 28  2  0
 27 28  1  0
M  END
>  <ref_url>  (120) 
https://fakepage.com

>  <submitter_name>  (120) 
Steph Wills

>  <submitter_email>  (120) 
stephanie.wills@dtc.ox.ac.uk

>  <submitter_institution>  (120) 
University of Oxford

>  <generation_date>  (120) 
2020-06-04

>  <method>  (120) 
Fragment network

>  <ref_mols>  (120) 
x0176_0B,x0212_0B

>  <ref_pdb>  (120) 
references/x0176-0B-x0212-0B-140711.holo_minimised_nolig.pdb

>  <original SMILES>  (120) 
CC(C)(C)CC(C)(C)c1ccc(OCC(=O)NNC(=O)c2ccccc2)cc1

>  <synthon>  (120) 
[Xe]c1ccccc1

>  <original_name>  (120) 
x0176-0B-x0212-0B-140711

>  <comRMSD_score>  (120) 
0.7184554936085419

>  <IF_score>  (120) 
0.8

>  <SuCOS_score>  (120) 
0.5270241610833175

>  <compound_ID>  (120) 
MOLPORT:000-649-413

$$$$

     RDKit          3D

 24 25  0  0  0  0  0  0  0  0999 V2000
  -13.8530    4.5030  -78.4720 C   0  0  0  0  0  0  0  0  0  0  0  0
  -12.9500    5.2680  -77.5090 C   0  0  0  0  0  0  0  0  0  0  0  0
  -13.6720    5.6410  -76.2170 C   0  0  0  0  0  0  0  0  0  0  0  0
  -11.7080    4.4840  -77.1840 C   0  0  0  0  0  0  0  0  0  0  0  0
  -11.6420    3.6190  -76.0910 C   0  0  0  0  0  0  0  0  0  0  0  0
  -10.5860    4.6130  -77.9850 C   0  0  0  0  0  0  0  0  0  0  0  0
  -10.5150    2.8920  -75.7710 C   0  0  0  0  0  0  0  0  0  0  0  0
   -9.4380    3.9020  -77.6970 C   0  0  0  0  0  0  0  0  0  0  0  0
   -9.4060    3.0480  -76.5940 C   0  0  0  0  0  0  0  0  0  0  0  0
   -8.2360    2.2780  -76.2530 N   0  0  0  0  0  0  0  0  0  0  0  0
   -7.8930    1.6390  -77.5050 C   0  0  0  0  0  0  0  0  0  0  0  0
   -8.6470    0.8890  -78.1090 O   0  0  0  0  0  0  0  0  0  0  0  0
   -6.6320    1.9830  -77.9400 N   0  0  0  0  0  0  0  0  0  0  0  0
   -6.3290    2.1900  -79.3520 C   0  0  1  0  0  0  0  0  0  0  0  0
   -6.6440    3.4940  -79.7570 C   0  0  0  0  0  0  0  0  0  0  0  0
   -4.8450    1.9030  -79.6390 C   0  0  0  0  0  0  0  0  0  0  0  0
   -7.0630    1.1690  -80.2250 C   0  0  0  0  0  0  0  0  0  0  0  0
   -3.8020    2.8700  -79.5020 O   0  0  0  0  0  0  0  0  0  0  0  0
   -4.5800    0.7530  -80.0290 O   0  0  0  0  0  0  0  0  0  0  0  0
   -7.4210   -0.0960  -79.7280 C   0  0  0  0  0  0  0  0  0  0  0  0
   -7.3890    1.4930  -81.5530 C   0  0  0  0  0  0  0  0  0  0  0  0
   -8.0930   -1.0210  -80.5420 C   0  0  0  0  0  0  0  0  0  0  0  0
   -8.0570    0.5630  -82.3750 C   0  0  0  0  0  0  0  0  0  0  0  0
   -8.4050   -0.6860  -81.8600 C   0  0  0  0  0  0  0  0  0  0  0  0
  1  2  1  0
  2  3  1  0
  2  4  1  0
  4  5  2  0
  4  6  1  0
  5  7  1  0
  6  8  2  0
  7  9  2  0
  8  9  1  0
  9 10  1  0
 10 11  1  0
 11 12  2  0
 11 13  1  0
 13 14  1  0
 14 15  1  6
 14 16  1  0
 14 17  1  0
 16 18  2  0
 16 19  1  0
 17 20  2  0
 17 21  1  0
 20 22  1  0
 21 23  2  0
 22 24  2  0
 23 24  1  0
M  END
>  <ref_url>  (121) 
https://fakepage.com

>  <submitter_name>  (121) 
Steph Wills

>  <submitter_email>  (121) 
stephanie.wills@dtc.ox.ac.uk

>  <submitter_institution>  (121) 
University of Oxford

>  <generation_date>  (121) 
2020-06-04

>  <method>  (121) 
Fragment network

>  <ref_mols>  (121) 
x0176_0B,x0212_0B

>  <ref_pdb>  (121) 
references/x0176-0B-x0212-0B-140982.holo_minimised_nolig.pdb

>  <original SMILES>  (121) 
CC(C)c1ccc(NC(=O)NC(C)(C(=O)O)c2ccccc2)cc1

>  <synthon>  (121) 
[Xe]c1ccccc1

>  <original_name>  (121) 
x0176-0B-x0212-0B-140982

>  <comRMSD_score>  (121) 
0.9756378469152028

>  <IF_score>  (121) 
0.3125

>  <SuCOS_score>  (121) 
0.4498988150661948

>  <compound_ID>  (121) 
REAL:Z1972462035

$$$$

     RDKit          3D

 19 20  0  0  0  0  0  0  0  0999 V2000
  -12.5690    6.2950  -73.8640 C   0  0  0  0  0  0  0  0  0  0  0  0
  -12.5640    6.3170  -75.2930 O   0  0  0  0  0  0  0  0  0  0  0  0
  -13.6620    5.7560  -75.8610 C   0  0  0  0  0  0  0  0  0  0  0  0
  -13.3550    4.3810  -76.3960 C   0  0  0  0  0  0  0  0  0  0  0  0
  -12.0190    4.0110  -76.4910 C   0  0  0  0  0  0  0  0  0  0  0  0
  -11.2360    4.7180  -77.3570 C   0  0  0  0  0  0  0  0  0  0  0  0
  -11.4670    2.9440  -75.7300 C   0  0  0  0  0  0  0  0  0  0  0  0
   -9.9180    4.3870  -77.4840 C   0  0  0  0  0  0  0  0  0  0  0  0
  -10.1040    2.5790  -75.8420 C   0  0  0  0  0  0  0  0  0  0  0  0
   -9.2980    3.2960  -76.7240 C   0  0  0  0  0  0  0  0  0  0  0  0
   -7.9380    3.1380  -77.0060 C   0  0  0  0  0  0  0  0  0  0  0  0
   -7.5590    1.8590  -77.6310 N   0  0  0  0  0  0  0  0  0  0  0  0
   -6.8100    1.7840  -78.8500 C   0  0  0  0  0  0  0  0  0  0  0  0
   -7.3650    0.9450  -79.9770 C   0  0  0  0  0  0  0  0  0  0  0  0
   -7.7720   -0.3550  -79.7180 C   0  0  0  0  0  0  0  0  0  0  0  0
   -7.5320    1.4170  -81.3140 C   0  0  0  0  0  0  0  0  0  0  0  0
   -8.3160   -1.1630  -80.6860 C   0  0  0  0  0  0  0  0  0  0  0  0
   -8.0960    0.5730  -82.3020 C   0  0  0  0  0  0  0  0  0  0  0  0
   -8.4930   -0.7290  -81.9840 C   0  0  0  0  0  0  0  0  0  0  0  0
  1  2  1  0
  2  3  1  0
  3  4  1  0
  4  5  1  0
  5  6  2  0
  5  7  1  0
  6  8  1  0
  7  9  2  0
  8 10  2  0
  9 10  1  0
 10 11  1  0
 11 12  1  0
 12 13  1  0
 13 14  1  0
 14 15  2  0
 14 16  1  0
 15 17  1  0
 16 18  2  0
 17 19  2  0
 18 19  1  0
M  END
>  <ref_url>  (122) 
https://fakepage.com

>  <submitter_name>  (122) 
Steph Wills

>  <submitter_email>  (122) 
stephanie.wills@dtc.ox.ac.uk

>  <submitter_institution>  (122) 
University of Oxford

>  <generation_date>  (122) 
2020-06-04

>  <method>  (122) 
Fragment network

>  <ref_mols>  (122) 
x0176_0B,x0212_0B

>  <ref_pdb>  (122) 
references/x0176-0B-x0212-0B-144344.holo_minimised_nolig.pdb

>  <original SMILES>  (122) 
COCCc1ccc(CNCc2ccccc2)cc1

>  <synthon>  (122) 
[Xe]c1ccccc1

>  <original_name>  (122) 
x0176-0B-x0212-0B-144344

>  <comRMSD_score>  (122) 
0.9451894773790852

>  <IF_score>  (122) 
0.5

>  <SuCOS_score>  (122) 
0.4766484645525985

>  <compound_ID>  (122) 
CHEMSPACE-BB:CSMB00114106514

$$$$

     RDKit          3D

 23 24  0  0  0  0  0  0  0  0999 V2000
  -12.6950    5.6940  -77.4990 C   0  0  0  0  0  0  0  0  0  0  0  0
  -13.3340    5.4510  -76.1470 C   0  0  0  0  0  0  0  0  0  0  0  0
  -12.2520    5.2610  -75.1770 N   0  0  0  0  0  0  0  0  0  0  0  0
  -11.5380    3.9540  -75.3130 C   0  0  0  0  0  0  0  0  0  0  0  0
  -12.3600    6.0090  -73.6720 S   0  0  0  0  0  0  0  0  0  0  0  0
  -11.9570    3.1690  -76.4740 C   0  0  0  0  0  0  0  0  0  0  0  0
  -10.1970    4.0380  -75.5520 C   0  0  0  0  0  0  0  0  0  0  0  0
  -13.5730    7.2660  -73.9810 C   0  0  0  0  0  0  0  0  0  0  0  0
  -12.9180    5.0340  -72.7660 O   0  0  0  0  0  0  0  0  0  0  0  0
  -11.1400    6.7300  -73.3720 O   0  0  0  0  0  0  0  0  0  0  0  0
  -11.1810    1.9980  -76.6350 C   0  0  0  0  0  0  0  0  0  0  0  0
   -9.5060    2.8500  -75.5440 C   0  0  0  0  0  0  0  0  0  0  0  0
   -9.8470    2.2630  -76.7500 N   0  0  0  0  0  0  0  0  0  0  0  0
   -9.0930    2.8120  -77.7990 C   0  0  0  0  0  0  0  0  0  0  0  0
   -9.6510    3.6450  -78.7190 O   0  0  0  0  0  0  0  0  0  0  0  0
   -7.7210    2.4980  -77.8090 C   0  0  0  0  0  0  0  0  0  0  0  0
   -7.2770    2.4720  -78.9590 O   0  0  0  0  0  0  0  0  0  0  0  0
   -8.0620    1.7190  -79.8740 C   0  0  0  0  0  0  0  0  0  0  0  0
   -8.4110    0.4720  -79.2970 C   0  0  0  0  0  0  0  0  0  0  0  0
   -8.4670    2.1060  -81.1710 C   0  0  0  0  0  0  0  0  0  0  0  0
   -9.2550   -0.4860  -80.0870 C   0  0  0  0  0  0  0  0  0  0  0  0
   -9.2470    1.2260  -81.9050 C   0  0  0  0  0  0  0  0  0  0  0  0
   -9.6550   -0.0060  -81.4560 C   0  0  0  0  0  0  0  0  0  0  0  0
  1  2  1  0
  2  3  1  0
  3  4  1  0
  5  3  1  0
  4  6  1  0
  4  7  1  0
  5  8  1  0
  5  9  2  0
  5 10  2  0
  6 11  1  0
  7 12  1  0
 11 13  1  0
 12 13  1  0
 13 14  1  0
 14 15  2  0
 14 16  1  0
 16 17  1  0
 17 18  1  0
 18 19  2  0
 18 20  1  0
 19 21  1  0
 20 22  2  0
 21 23  2  0
 22 23  1  0
M  END
>  <ref_url>  (123) 
https://fakepage.com

>  <submitter_name>  (123) 
Steph Wills

>  <submitter_email>  (123) 
stephanie.wills@dtc.ox.ac.uk

>  <submitter_institution>  (123) 
University of Oxford

>  <generation_date>  (123) 
2020-06-04

>  <method>  (123) 
Fragment network

>  <ref_mols>  (123) 
x0176_0B,x0212_0B

>  <ref_pdb>  (123) 
references/x0176-0B-x0212-0B-144453.holo_minimised_nolig.pdb

>  <original SMILES>  (123) 
CCN(C1CCN(C(=O)COc2ccccc2)CC1)S(C)(=O)=O

>  <synthon>  (123) 
[Xe]c1ccccc1

>  <original_name>  (123) 
x0176-0B-x0212-0B-144453

>  <comRMSD_score>  (123) 
0.9815664917761696

>  <IF_score>  (123) 
0.875

>  <SuCOS_score>  (123) 
0.4689369675044634

>  <compound_ID>  (123) 
REAL:Z1161322711

$$$$

     RDKit          3D

 25 26  0  0  0  0  0  0  0  0999 V2000
   -8.5150    3.3530  -75.9480 C   0  0  0  0  0  0  0  0  0  0  0  0
   -8.1370    3.4110  -77.4290 C   0  0  0  0  0  0  0  0  0  0  0  0
   -8.8820    4.3810  -78.1560 O   0  0  0  0  0  0  0  0  0  0  0  0
   -7.1000    2.4700  -77.8710 N   0  0  0  0  0  0  0  0  0  0  0  0
   -6.4580    1.7070  -76.8020 C   0  0  0  0  0  0  0  0  0  0  0  0
   -6.8930    2.2940  -79.2700 C   0  0  0  0  0  0  0  0  0  0  0  0
   -7.2950    0.4970  -76.4240 C   0  0  0  0  0  0  0  0  0  0  0  0
   -7.8160    1.5520  -80.0080 C   0  0  0  0  0  0  0  0  0  0  0  0
   -8.6930    0.4910  -76.5470 C   0  0  0  0  0  0  0  0  0  0  0  0
   -8.3640    2.0580  -81.1900 C   0  0  0  0  0  0  0  0  0  0  0  0
   -8.2140    0.2680  -79.5630 C   0  0  0  0  0  0  0  0  0  0  0  0
   -9.4690   -0.2310  -75.9130 O   0  0  0  0  0  0  0  0  0  0  0  0
   -9.0480    1.3880  -77.4800 N   0  0  0  0  0  0  0  0  0  0  0  0
   -9.3070    1.2400  -81.8900 C   0  0  0  0  0  0  0  0  0  0  0  0
   -9.1430   -0.5060  -80.2730 C   0  0  0  0  0  0  0  0  0  0  0  0
   -9.8950    2.4760  -77.2900 C   0  0  0  0  0  0  0  0  0  0  0  0
   -9.7020   -0.0260  -81.4490 C   0  0  0  0  0  0  0  0  0  0  0  0
   -9.8260    3.5650  -78.1500 C   0  0  0  0  0  0  0  0  0  0  0  0
  -10.7950    2.4560  -76.2540 C   0  0  0  0  0  0  0  0  0  0  0  0
  -10.6970    4.6360  -77.9630 C   0  0  0  0  0  0  0  0  0  0  0  0
  -11.6650    3.5150  -76.0720 C   0  0  0  0  0  0  0  0  0  0  0  0
  -11.6310    4.6170  -76.9360 C   0  0  0  0  0  0  0  0  0  0  0  0
  -12.5890    5.7620  -76.7650 C   0  0  2  0  0  0  0  0  0  0  0  0
  -13.4400    5.7390  -75.5110 C   0  0  0  0  0  0  0  0  0  0  0  0
  -13.5850    5.8200  -77.8580 N   0  0  0  0  0  0  0  0  0  0  0  0
  1  2  1  0
  2  3  2  0
  2  4  1  0
  4  5  1  0
  4  6  1  0
  5  7  1  0
  6  8  1  0
  7  9  1  0
  8 10  2  0
  8 11  1  0
  9 12  2  0
  9 13  1  0
 10 14  1  0
 11 15  2  0
 13 16  1  0
 14 17  2  0
 15 17  1  0
 16 18  2  0
 16 19  1  0
 18 20  1  0
 19 21  2  0
 20 22  2  0
 21 22  1  0
 22 23  1  0
 23 24  1  1
 23 25  1  0
M  END
>  <ref_url>  (124) 
https://fakepage.com

>  <submitter_name>  (124) 
Steph Wills

>  <submitter_email>  (124) 
stephanie.wills@dtc.ox.ac.uk

>  <submitter_institution>  (124) 
University of Oxford

>  <generation_date>  (124) 
2020-06-04

>  <method>  (124) 
Fragment network

>  <ref_mols>  (124) 
x0176_0B,x0212_0B

>  <ref_pdb>  (124) 
references/x0176-0B-x0212-0B-145917.holo_minimised_nolig.pdb

>  <original SMILES>  (124) 
CC(=O)N(CCC(=O)Nc1ccc(C(C)N)cc1)Cc1ccccc1

>  <synthon>  (124) 
[Xe]c1ccccc1

>  <original_name>  (124) 
x0176-0B-x0212-0B-145917

>  <comRMSD_score>  (124) 
0.828337885270204

>  <IF_score>  (124) 
0.675

>  <SuCOS_score>  (124) 
0.513797138595917

>  <compound_ID>  (124) 
REAL:Z2392729418

$$$$

     RDKit          3D

 30 31  0  0  0  0  0  0  0  0999 V2000
  -12.9190    6.9150  -73.6980 C   0  0  0  0  0  0  0  0  0  0  0  0
  -13.0800    7.0800  -75.1990 C   0  0  0  0  0  0  0  0  0  0  0  0
  -13.5470    5.8800  -75.9030 N   0  0  0  0  0  0  0  0  0  0  0  0
  -14.9600    5.5780  -75.6680 C   0  0  0  0  0  0  0  0  0  0  0  0
  -13.0770    5.5230  -77.2710 C   0  0  0  0  0  0  0  0  0  0  0  0
  -15.1530    4.3180  -75.0920 C   0  0  0  0  0  0  0  0  0  0  0  0
  -13.3700    6.0930  -78.3120 O   0  0  0  0  0  0  0  0  0  0  0  0
  -12.2400    4.3990  -77.2960 C   0  0  0  0  0  0  0  0  0  0  0  0
  -11.0240    4.3540  -78.1560 C   0  0  0  0  0  0  0  0  0  0  0  0
  -12.5450    3.3000  -76.5140 C   0  0  0  0  0  0  0  0  0  0  0  0
  -10.2380    3.2040  -78.1480 C   0  0  0  0  0  0  0  0  0  0  0  0
  -11.7250    2.1770  -76.5360 C   0  0  0  0  0  0  0  0  0  0  0  0
  -10.5890    2.1210  -77.3380 C   0  0  0  0  0  0  0  0  0  0  0  0
   -9.7770    1.0330  -77.3610 N   0  0  0  0  0  0  0  0  0  0  0  0
   -9.6860    0.1240  -76.3210 C   0  0  0  0  0  0  0  0  0  0  0  0
  -10.1580   -1.2310  -76.2990 O   0  0  0  0  0  0  0  0  0  0  0  0
   -9.0500    0.7120  -75.2250 C   0  0  0  0  0  0  0  0  0  0  0  0
   -9.2700    2.1380  -75.4820 N   0  0  0  0  0  0  0  0  0  0  0  0
   -8.0200    2.8390  -75.8140 C   0  0  0  0  0  0  0  0  0  0  0  0
   -7.1110    3.0900  -75.0120 O   0  0  0  0  0  0  0  0  0  0  0  0
   -7.8910    3.2160  -77.1440 C   0  0  0  0  0  0  0  0  0  0  0  0
   -8.6250    4.0660  -77.6060 O   0  0  0  0  0  0  0  0  0  0  0  0
   -6.8890    2.5400  -77.7980 N   0  0  0  0  0  0  0  0  0  0  0  0
   -6.6680    2.6650  -79.2130 C   0  0  0  0  0  0  0  0  0  0  0  0
   -7.6320    1.7070  -79.9030 C   0  0  0  0  0  0  0  0  0  0  0  0
   -7.9330    0.4720  -79.3070 C   0  0  0  0  0  0  0  0  0  0  0  0
   -8.2180    2.0550  -81.1290 C   0  0  0  0  0  0  0  0  0  0  0  0
   -8.8130   -0.4230  -79.9140 C   0  0  0  0  0  0  0  0  0  0  0  0
   -9.0910    1.1870  -81.7530 C   0  0  0  0  0  0  0  0  0  0  0  0
   -9.4270   -0.0360  -81.2160 C   0  0  0  0  0  0  0  0  0  0  0  0
  1  2  1  0
  2  3  1  0
  3  4  1  0
  3  5  1  0
  4  6  1  0
  5  7  2  0
  5  8  1  0
  8  9  2  0
  8 10  1  0
  9 11  1  0
 10 12  2  0
 11 13  2  0
 12 13  1  0
 13 14  1  0
 14 15  1  0
 15 16  2  0
 15 17  1  0
 17 18  1  0
 18 19  1  0
 19 20  2  0
 19 21  1  0
 21 22  2  0
 21 23  1  0
 23 24  1  0
 24 25  1  0
 25 26  2  0
 25 27  1  0
 26 28  1  0
 27 29  2  0
 28 30  2  0
 29 30  1  0
M  END
>  <ref_url>  (125) 
https://fakepage.com

>  <submitter_name>  (125) 
Steph Wills

>  <submitter_email>  (125) 
stephanie.wills@dtc.ox.ac.uk

>  <submitter_institution>  (125) 
University of Oxford

>  <generation_date>  (125) 
2020-06-04

>  <method>  (125) 
Fragment network

>  <ref_mols>  (125) 
x0176_0B,x0212_0B

>  <ref_pdb>  (125) 
references/x0176-0B-x0212-0B-146180.holo_minimised_nolig.pdb

>  <original SMILES>  (125) 
CCN(CC)C(=O)c1ccc(NC(=O)CNC(=O)C(=O)NCc2ccccc2)cc1

>  <synthon>  (125) 
[Xe]c1ccccc1

>  <original_name>  (125) 
x0176-0B-x0212-0B-146180

>  <comRMSD_score>  (125) 
0.9654626409712144

>  <IF_score>  (125) 
0.25

>  <SuCOS_score>  (125) 
0.4970689543793077

>  <compound_ID>  (125) 
MOLPORT:005-721-743

$$$$

     RDKit          3D

 23 24  0  0  0  0  0  0  0  0999 V2000
  -12.5320    6.3830  -73.8130 C   0  0  0  0  0  0  0  0  0  0  0  0
  -12.5610    6.5660  -75.2330 O   0  0  0  0  0  0  0  0  0  0  0  0
  -13.3270    5.6720  -75.9100 C   0  0  0  0  0  0  0  0  0  0  0  0
  -14.3720    5.1800  -75.5110 O   0  0  0  0  0  0  0  0  0  0  0  0
  -12.6920    5.3580  -77.2760 C   0  0  0  0  0  0  0  0  0  0  0  0
  -11.6240    4.2900  -76.9570 C   0  0  0  0  0  0  0  0  0  0  0  0
  -10.4870    4.1440  -77.9130 C   0  0  0  0  0  0  0  0  0  0  0  0
  -11.6930    3.4780  -75.8290 C   0  0  0  0  0  0  0  0  0  0  0  0
   -9.5210    3.1790  -77.6440 C   0  0  0  0  0  0  0  0  0  0  0  0
  -10.6880    2.5260  -75.6130 C   0  0  0  0  0  0  0  0  0  0  0  0
   -9.6170    2.3700  -76.5000 C   0  0  0  0  0  0  0  0  0  0  0  0
   -8.6760    1.3740  -76.1770 N   0  0  0  0  0  0  0  0  0  0  0  0
   -7.4310    1.3350  -76.9370 C   0  0  0  0  0  0  0  0  0  0  0  0
   -6.5400    0.5130  -76.7570 O   0  0  0  0  0  0  0  0  0  0  0  0
   -7.3040    2.3590  -77.9520 N   0  0  0  0  0  0  0  0  0  0  0  0
   -7.4990    3.6840  -77.6180 C   0  0  0  0  0  0  0  0  0  0  0  0
   -6.5400    2.2080  -79.0600 C   0  0  0  0  0  0  0  0  0  0  0  0
   -7.1000    1.2820  -79.9570 C   0  0  0  0  0  0  0  0  0  0  0  0
   -7.3600    1.6260  -81.4060 C   0  0  0  0  0  0  0  0  0  0  0  0
   -7.4510    0.0010  -79.5160 C   0  0  0  0  0  0  0  0  0  0  0  0
   -7.9360    0.6590  -82.2470 C   0  0  0  0  0  0  0  0  0  0  0  0
   -8.0270   -0.9210  -80.3990 C   0  0  0  0  0  0  0  0  0  0  0  0
   -8.2640   -0.6000  -81.7420 C   0  0  0  0  0  0  0  0  0  0  0  0
  1  2  1  0
  2  3  1  0
  3  4  2  0
  3  5  1  0
  5  6  1  0
  6  7  2  0
  6  8  1  0
  7  9  1  0
  8 10  2  0
  9 11  2  0
 10 11  1  0
 11 12  1  0
 12 13  1  0
 13 14  2  0
 13 15  1  0
 15 16  1  0
 15 17  1  0
 17 18  1  0
 18 19  2  0
 18 20  1  0
 19 21  1  0
 20 22  2  0
 21 23  2  0
 22 23  1  0
M  END
>  <ref_url>  (126) 
https://fakepage.com

>  <submitter_name>  (126) 
Steph Wills

>  <submitter_email>  (126) 
stephanie.wills@dtc.ox.ac.uk

>  <submitter_institution>  (126) 
University of Oxford

>  <generation_date>  (126) 
2020-06-04

>  <method>  (126) 
Fragment network

>  <ref_mols>  (126) 
x0176_0B,x0212_0B

>  <ref_pdb>  (126) 
references/x0176-0B-x0212-0B-148151.holo_minimised_nolig.pdb

>  <original SMILES>  (126) 
COC(=O)Cc1ccc(NC(=O)N(C)Cc2ccccc2)cc1

>  <synthon>  (126) 
[Xe]c1ccccc1

>  <original_name>  (126) 
x0176-0B-x0212-0B-148151

>  <comRMSD_score>  (126) 
0.7969490898745362

>  <IF_score>  (126) 
0.25

>  <SuCOS_score>  (126) 
0.5048436088588053

>  <compound_ID>  (126) 
REAL:Z851567740

$$$$

     RDKit          3D

 22 23  0  0  0  0  0  0  0  0999 V2000
  -13.6190    5.6950  -75.9660 C   0  0  0  0  0  0  0  0  0  0  0  0
  -13.0900    5.0880  -77.2620 C   0  0  0  0  0  0  0  0  0  0  0  0
  -11.7920    4.3450  -76.9940 C   0  0  0  0  0  0  0  0  0  0  0  0
  -11.8460    3.2560  -76.1160 C   0  0  0  0  0  0  0  0  0  0  0  0
  -10.6010    4.7020  -77.5730 C   0  0  0  0  0  0  0  0  0  0  0  0
  -10.6940    2.5230  -75.8300 C   0  0  0  0  0  0  0  0  0  0  0  0
   -9.4520    3.9690  -77.2880 C   0  0  0  0  0  0  0  0  0  0  0  0
   -9.4840    2.8740  -76.4190 C   0  0  0  0  0  0  0  0  0  0  0  0
   -8.2730    2.1630  -76.1740 N   0  0  0  0  0  0  0  0  0  0  0  0
   -7.1400    2.7300  -76.9020 C   0  0  0  0  0  0  0  0  0  0  0  0
   -6.6550    3.8190  -76.6010 O   0  0  0  0  0  0  0  0  0  0  0  0
   -6.6850    1.9300  -77.9310 N   0  0  0  0  0  0  0  0  0  0  0  0
   -6.4070    2.2640  -79.2700 C   0  0  1  0  0  0  0  0  0  0  0  0
   -6.6840    3.5410  -79.8160 C   0  0  0  0  0  0  0  0  0  0  0  0
   -4.9120    1.9690  -79.4470 C   0  0  0  0  0  0  0  0  0  0  0  0
   -7.1400    1.2020  -80.1310 C   0  0  0  0  0  0  0  0  0  0  0  0
   -4.1500    2.8840  -78.6490 O   0  0  0  0  0  0  0  0  0  0  0  0
   -7.5270    1.4430  -81.5450 C   0  0  0  0  0  0  0  0  0  0  0  0
   -7.5010   -0.0490  -79.6170 C   0  0  0  0  0  0  0  0  0  0  0  0
   -8.1910    0.5250  -82.3330 C   0  0  0  0  0  0  0  0  0  0  0  0
   -8.1830   -0.9830  -80.4270 C   0  0  0  0  0  0  0  0  0  0  0  0
   -8.5220   -0.7000  -81.7640 C   0  0  0  0  0  0  0  0  0  0  0  0
  1  2  1  0
  2  3  1  0
  3  4  2  0
  3  5  1  0
  4  6  1  0
  5  7  2  0
  6  8  2  0
  7  8  1  0
  8  9  1  0
  9 10  1  0
 10 11  2  0
 10 12  1  0
 13 12  1  0
 13 14  1  6
 13 15  1  0
 13 16  1  0
 15 17  1  0
 16 18  2  0
 16 19  1  0
 18 20  1  0
 19 21  2  0
 20 22  2  0
 21 22  1  0
M  END
>  <ref_url>  (127) 
https://fakepage.com

>  <submitter_name>  (127) 
Steph Wills

>  <submitter_email>  (127) 
stephanie.wills@dtc.ox.ac.uk

>  <submitter_institution>  (127) 
University of Oxford

>  <generation_date>  (127) 
2020-06-04

>  <method>  (127) 
Fragment network

>  <ref_mols>  (127) 
x0176_0B,x0212_0B

>  <ref_pdb>  (127) 
references/x0176-0B-x0212-0B-148694.holo_minimised_nolig.pdb

>  <original SMILES>  (127) 
CCc1ccc(NC(=O)NC(C)(CO)c2ccccc2)cc1

>  <synthon>  (127) 
[Xe]c1ccccc1

>  <original_name>  (127) 
x0176-0B-x0212-0B-148694

>  <comRMSD_score>  (127) 
0.9225148824454448

>  <IF_score>  (127) 
0.4375

>  <SuCOS_score>  (127) 
0.4495707008405558

>  <compound_ID>  (127) 
REAL:Z1230257464

$$$$

     RDKit          3D

 25 26  0  0  0  0  0  0  0  0999 V2000
  -13.2840    6.8600  -77.1300 N   0  0  0  0  0  0  0  0  0  0  0  0
  -12.8530    5.8000  -76.9610 C   0  0  0  0  0  0  0  0  0  0  0  0
  -14.0470    5.1160  -76.5910 O   0  0  0  0  0  0  0  0  0  0  0  0
  -11.7960    4.7300  -76.8930 C   0  0  0  0  0  0  0  0  0  0  0  0
  -12.0530    3.6500  -75.8360 C   0  0  0  0  0  0  0  0  0  0  0  0
  -10.6930    4.7380  -77.7370 C   0  0  0  0  0  0  0  0  0  0  0  0
  -10.9940    2.5550  -75.7730 C   0  0  0  0  0  0  0  0  0  0  0  0
   -9.7400    3.7370  -77.6680 C   0  0  0  0  0  0  0  0  0  0  0  0
   -9.8760    2.6950  -76.7460 C   0  0  0  0  0  0  0  0  0  0  0  0
   -8.9200    1.7110  -76.7190 N   0  0  0  0  0  0  0  0  0  0  0  0
   -8.9950    0.4520  -76.1190 C   0  0  0  0  0  0  0  0  0  0  0  0
   -9.9090    0.0030  -75.4340 O   0  0  0  0  0  0  0  0  0  0  0  0
   -7.8620   -0.3160  -76.3850 C   0  0  0  0  0  0  0  0  0  0  0  0
   -6.7330    0.4230  -76.7800 C   0  0  0  0  0  0  0  0  0  0  0  0
   -6.7890    1.8120  -76.2090 N   0  0  0  0  0  0  0  0  0  0  0  0
   -6.8460    2.9400  -76.9690 C   0  0  0  0  0  0  0  0  0  0  0  0
   -6.2580    4.1730  -76.5530 O   0  0  0  0  0  0  0  0  0  0  0  0
   -7.5100    2.7690  -78.1510 N   0  0  0  0  0  0  0  0  0  0  0  0
   -6.8710    2.3120  -79.3590 C   0  0  0  0  0  0  0  0  0  0  0  0
   -7.8250    1.5710  -80.0780 C   0  0  0  0  0  0  0  0  0  0  0  0
   -8.2780    0.2150  -79.6060 C   0  0  0  0  0  0  0  0  0  0  0  0
   -8.3760    2.0770  -81.2480 C   0  0  0  0  0  0  0  0  0  0  0  0
   -9.2300   -0.4840  -80.3490 C   0  0  0  0  0  0  0  0  0  0  0  0
   -9.3210    1.3360  -81.9510 C   0  0  0  0  0  0  0  0  0  0  0  0
   -9.7450    0.0760  -81.5110 C   0  0  0  0  0  0  0  0  0  0  0  0
  1  2  1  0
  2  3  2  0
  2  4  1  0
  4  5  2  0
  4  6  1  0
  5  7  1  0
  6  8  2  0
  7  9  2  0
  8  9  1  0
  9 10  1  0
 10 11  1  0
 11 12  2  0
 11 13  1  0
 13 14  1  0
 14 15  1  0
 15 16  1  0
 16 17  2  0
 16 18  1  0
 18 19  1  0
 19 20  1  0
 20 21  2  0
 20 22  1  0
 21 23  1  0
 22 24  2  0
 23 25  2  0
 24 25  1  0
M  END
>  <ref_url>  (128) 
https://fakepage.com

>  <submitter_name>  (128) 
Steph Wills

>  <submitter_email>  (128) 
stephanie.wills@dtc.ox.ac.uk

>  <submitter_institution>  (128) 
University of Oxford

>  <generation_date>  (128) 
2020-06-04

>  <method>  (128) 
Fragment network

>  <ref_mols>  (128) 
x0176_0B,x0212_0B

>  <ref_pdb>  (128) 
references/x0176-0B-x0212-0B-150146.holo_minimised_nolig.pdb

>  <original SMILES>  (128) 
NC(=O)c1ccc(NC(=O)CCNC(=O)NCc2ccccc2)cc1

>  <synthon>  (128) 
[Xe]c1ccccc1

>  <original_name>  (128) 
x0176-0B-x0212-0B-150146

>  <comRMSD_score>  (128) 
0.8533886197762628

>  <IF_score>  (128) 
0.675

>  <SuCOS_score>  (128) 
0.4849367788200962

>  <compound_ID>  (128) 
MOLPORT:005-766-038

$$$$

     RDKit          3D

 26 27  0  0  0  0  0  0  0  0999 V2000
  -13.9720    5.3790  -76.3410 C   0  0  0  0  0  0  0  0  0  0  0  0
  -13.3500    4.5280  -77.4380 C   0  0  0  0  0  0  0  0  0  0  0  0
  -13.3110    5.3300  -78.7240 C   0  0  0  0  0  0  0  0  0  0  0  0
  -11.9720    4.0890  -76.9880 C   0  0  0  0  0  0  0  0  0  0  0  0
  -10.8110    4.4990  -77.5360 C   0  0  0  0  0  0  0  0  0  0  0  0
  -11.7780    3.2300  -75.9660 C   0  0  0  0  0  0  0  0  0  0  0  0
   -9.5590    4.1090  -77.0900 C   0  0  0  0  0  0  0  0  0  0  0  0
  -10.4980    2.8600  -75.5500 C   0  0  0  0  0  0  0  0  0  0  0  0
   -9.1830    3.2280  -75.9970 C   0  0  0  0  0  0  0  0  0  0  0  0
   -7.9380    3.7590  -76.6330 N   0  0  0  0  0  0  0  0  0  0  0  0
   -6.9690    2.7160  -76.8760 C   0  0  0  0  0  0  0  0  0  0  0  0
   -5.8950    2.5390  -76.3110 O   0  0  0  0  0  0  0  0  0  0  0  0
   -7.5310    2.0000  -77.8430 N   0  0  0  0  0  0  0  0  0  0  0  0
   -6.9240    2.0010  -79.1570 C   0  0  0  0  0  0  0  0  0  0  0  0
   -8.9980    2.2330  -77.7990 C   0  0  1  0  0  0  0  0  0  0  0  0
   -7.7940    1.3020  -79.9450 C   0  0  0  0  0  0  0  0  0  0  0  0
   -9.4980    2.7640  -78.9810 C   0  0  0  0  0  0  0  0  0  0  0  0
   -9.7640    0.9610  -77.4350 C   0  0  0  0  0  0  0  0  0  0  0  0
   -8.2770    1.8270  -81.1330 C   0  0  0  0  0  0  0  0  0  0  0  0
   -8.1970    0.0440  -79.5070 C   0  0  0  0  0  0  0  0  0  0  0  0
  -10.0940    1.6610  -79.7050 O   0  0  0  0  0  0  0  0  0  0  0  0
   -9.5370    0.5690  -76.1180 C   0  0  0  0  0  0  0  0  0  0  0  0
  -11.2760    1.1790  -77.6150 C   0  0  0  0  0  0  0  0  0  0  0  0
   -9.1730    1.0850  -81.8650 C   0  0  0  0  0  0  0  0  0  0  0  0
   -9.0970   -0.6990  -80.2420 C   0  0  0  0  0  0  0  0  0  0  0  0
   -9.5870   -0.1740  -81.4170 C   0  0  0  0  0  0  0  0  0  0  0  0
  1  2  1  0
  2  3  1  0
  2  4  1  0
  4  5  2  0
  4  6  1  0
  5  7  1  0
  6  8  2  0
  7  9  2  0
  8  9  1  0
  9 10  1  0
 10 11  1  0
 11 12  2  0
 11 13  1  0
 13 14  1  0
 13 15  1  0
 14 16  1  0
 15 17  1  6
 15 18  1  0
 16 19  2  0
 16 20  1  0
 17 21  1  0
 18 22  1  0
 18 23  1  0
 19 24  1  0
 20 25  2  0
 24 26  2  0
 25 26  1  0
M  END
>  <ref_url>  (129) 
https://fakepage.com

>  <submitter_name>  (129) 
Steph Wills

>  <submitter_email>  (129) 
stephanie.wills@dtc.ox.ac.uk

>  <submitter_institution>  (129) 
University of Oxford

>  <generation_date>  (129) 
2020-06-04

>  <method>  (129) 
Fragment network

>  <ref_mols>  (129) 
x0176_0B,x0212_0B

>  <ref_pdb>  (129) 
references/x0176-0B-x0212-0B-151026.holo_minimised_nolig.pdb

>  <original SMILES>  (129) 
CC(C)c1ccc(NC(=O)N(Cc2ccccc2)C(CO)C(C)C)cc1

>  <synthon>  (129) 
[Xe]c1ccccc1

>  <original_name>  (129) 
x0176-0B-x0212-0B-151026

>  <comRMSD_score>  (129) 
0.991453610044144

>  <IF_score>  (129) 
0.375

>  <SuCOS_score>  (129) 
0.5162625874869566

>  <compound_ID>  (129) 
REAL:PV-001940565317

$$$$

     RDKit          3D

 20 21  0  0  0  0  0  0  0  0999 V2000
  -13.4060    5.7960  -75.6480 C   0  0  0  0  0  0  0  0  0  0  0  0
  -12.9540    5.2720  -76.9820 C   0  0  0  0  0  0  0  0  0  0  0  0
  -13.6010    5.4340  -78.0120 O   0  0  0  0  0  0  0  0  0  0  0  0
  -11.6420    4.5390  -76.9090 C   0  0  0  0  0  0  0  0  0  0  0  0
  -11.4080    3.5770  -75.9140 C   0  0  0  0  0  0  0  0  0  0  0  0
  -10.6390    4.8110  -77.8330 C   0  0  0  0  0  0  0  0  0  0  0  0
  -10.1830    2.9050  -75.8550 C   0  0  0  0  0  0  0  0  0  0  0  0
   -9.4370    4.1390  -77.7600 C   0  0  0  0  0  0  0  0  0  0  0  0
   -9.1860    3.1990  -76.7870 C   0  0  0  0  0  0  0  0  0  0  0  0
   -7.6030    2.4260  -76.7880 S   0  0  0  0  0  0  0  0  0  0  0  0
   -6.4550    3.8340  -77.0520 C   0  0  0  0  0  0  0  0  0  0  0  0
   -6.0990    3.9680  -78.3480 C   0  0  0  0  0  0  0  0  0  0  0  0
   -6.9540    3.5040  -79.1000 O   0  0  0  0  0  0  0  0  0  0  0  0
   -6.8200    2.0980  -79.2140 C   0  0  0  0  0  0  0  0  0  0  0  0
   -7.8730    1.4680  -80.0480 C   0  0  0  0  0  0  0  0  0  0  0  0
   -8.3710    2.0250  -81.2300 C   0  0  0  0  0  0  0  0  0  0  0  0
   -8.3730    0.2380  -79.6000 C   0  0  0  0  0  0  0  0  0  0  0  0
   -9.3540    1.3510  -81.9440 C   0  0  0  0  0  0  0  0  0  0  0  0
   -9.3570   -0.4270  -80.3210 C   0  0  0  0  0  0  0  0  0  0  0  0
   -9.8460    0.1290  -81.4930 C   0  0  0  0  0  0  0  0  0  0  0  0
  1  2  1  0
  2  3  2  0
  2  4  1  0
  4  5  2  0
  4  6  1  0
  5  7  1  0
  6  8  2  0
  7  9  2  0
  8  9  1  0
  9 10  1  0
 10 11  1  0
 11 12  1  0
 12 13  1  0
 13 14  1  0
 14 15  1  0
 15 16  2  0
 15 17  1  0
 16 18  1  0
 17 19  2  0
 18 20  2  0
 19 20  1  0
M  END
>  <ref_url>  (130) 
https://fakepage.com

>  <submitter_name>  (130) 
Steph Wills

>  <submitter_email>  (130) 
stephanie.wills@dtc.ox.ac.uk

>  <submitter_institution>  (130) 
University of Oxford

>  <generation_date>  (130) 
2020-06-04

>  <method>  (130) 
Fragment network

>  <ref_mols>  (130) 
x0176_0B,x0212_0B

>  <ref_pdb>  (130) 
references/x0176-0B-x0212-0B-152320.holo_minimised_nolig.pdb

>  <original SMILES>  (130) 
CC(=O)c1ccc(SCCOCc2ccccc2)cc1

>  <synthon>  (130) 
[Xe]c1ccccc1

>  <original_name>  (130) 
x0176-0B-x0212-0B-152320

>  <comRMSD_score>  (130) 
0.6443930410117316

>  <IF_score>  (130) 
0.8

>  <SuCOS_score>  (130) 
0.462393316717317

>  <compound_ID>  (130) 
CHEMSPACE-BB:CSMB00014808462

$$$$

     RDKit          3D

 23 24  0  0  0  0  0  0  0  0999 V2000
  -10.6460   -0.2140  -77.4490 C   0  0  0  0  0  0  0  0  0  0  0  0
  -11.6510    0.3160  -78.4830 C   0  0  2  0  0  0  0  0  0  0  0  0
  -12.9380    0.7400  -77.6890 C   0  0  0  0  0  0  0  0  0  0  0  0
  -11.8890   -0.7130  -79.6700 C   0  0  0  0  0  0  0  0  0  0  0  0
  -13.9000    2.2530  -78.1890 S   0  0  0  0  0  0  0  0  0  0  0  0
  -12.9130   -1.3860  -79.6430 O   0  0  0  0  0  0  0  0  0  0  0  0
  -10.8720   -0.7960  -80.7660 N   0  0  0  0  0  0  0  0  0  0  0  0
  -12.9300    3.7170  -77.7890 C   0  0  0  0  0  0  0  0  0  0  0  0
   -9.7710   -0.0190  -80.4390 C   0  0  0  0  0  0  0  0  0  0  0  0
  -11.6180    3.5170  -77.3760 C   0  0  0  0  0  0  0  0  0  0  0  0
   -9.4030    1.0490  -81.2650 C   0  0  0  0  0  0  0  0  0  0  0  0
   -9.0710   -0.3000  -79.3070 C   0  0  0  0  0  0  0  0  0  0  0  0
  -10.5510    4.1230  -78.0320 C   0  0  0  0  0  0  0  0  0  0  0  0
  -11.3620    2.6830  -76.2800 C   0  0  0  0  0  0  0  0  0  0  0  0
   -8.3400    1.8730  -80.9290 C   0  0  0  0  0  0  0  0  0  0  0  0
   -8.0180    0.5220  -78.9830 C   0  0  0  0  0  0  0  0  0  0  0  0
   -9.1600    3.8650  -77.5550 C   0  0  0  0  0  0  0  0  0  0  0  0
  -10.0660    2.4420  -75.8340 C   0  0  0  0  0  0  0  0  0  0  0  0
   -7.6390    1.6140  -79.7580 C   0  0  0  0  0  0  0  0  0  0  0  0
   -8.9630    3.0290  -76.4650 C   0  0  0  0  0  0  0  0  0  0  0  0
   -6.4950    2.4480  -79.2670 C   0  0  0  0  0  0  0  0  0  0  0  0
   -6.6050    3.0530  -78.0440 N   0  0  0  0  0  0  0  0  0  0  0  0
   -5.4180    2.4430  -80.2360 O   0  0  0  0  0  0  0  0  0  0  0  0
  2  1  1  1
  2  3  1  0
  2  4  1  0
  3  5  1  0
  4  6  2  0
  4  7  1  0
  5  8  1  0
  7  9  1  0
  8 10  1  0
  9 11  2  0
  9 12  1  0
 10 13  2  0
 10 14  1  0
 11 15  1  0
 12 16  2  0
 13 17  1  0
 14 18  2  0
 15 19  2  0
 16 19  1  0
 17 20  2  0
 18 20  1  0
 19 21  1  0
 21 22  1  0
 21 23  2  0
M  END
>  <ref_url>  (131) 
https://fakepage.com

>  <submitter_name>  (131) 
Steph Wills

>  <submitter_email>  (131) 
stephanie.wills@dtc.ox.ac.uk

>  <submitter_institution>  (131) 
University of Oxford

>  <generation_date>  (131) 
2020-06-04

>  <method>  (131) 
Fragment network

>  <ref_mols>  (131) 
x0176_0B,x0212_0B

>  <ref_pdb>  (131) 
references/x0176-0B-x0212-0B-153331.holo_minimised_nolig.pdb

>  <original SMILES>  (131) 
CC(CSCc1ccccc1)C(=O)Nc1ccc(C(N)=O)cc1

>  <synthon>  (131) 
[Xe]c1ccccc1

>  <original_name>  (131) 
x0176-0B-x0212-0B-153331

>  <comRMSD_score>  (131) 
0.8364044530554031

>  <IF_score>  (131) 
0.25

>  <SuCOS_score>  (131) 
0.4071737085407635

>  <compound_ID>  (131) 
REAL:Z1478449352

$$$$

     RDKit          3D

 21 22  0  0  0  0  0  0  0  0999 V2000
  -14.0820    4.7660  -75.3600 O   0  0  0  0  0  0  0  0  0  0  0  0
  -13.3700    5.4320  -76.1020 C   0  0  0  0  0  0  0  0  0  0  0  0
  -13.0310    6.7020  -75.8030 O   0  0  0  0  0  0  0  0  0  0  0  0
  -12.7960    4.9280  -77.4230 C   0  0  0  0  0  0  0  0  0  0  0  0
  -11.4760    4.2070  -77.1160 C   0  0  0  0  0  0  0  0  0  0  0  0
  -10.3730    4.5160  -78.0510 C   0  0  0  0  0  0  0  0  0  0  0  0
  -11.2480    3.3180  -76.0620 C   0  0  0  0  0  0  0  0  0  0  0  0
   -9.1350    3.9110  -77.8490 C   0  0  0  0  0  0  0  0  0  0  0  0
   -9.9770    2.7330  -75.9050 C   0  0  0  0  0  0  0  0  0  0  0  0
   -8.9320    3.0350  -76.7910 C   0  0  0  0  0  0  0  0  0  0  0  0
   -7.4040    2.3430  -76.5970 S   0  0  0  0  0  0  0  0  0  0  0  0
   -6.3190    3.7190  -76.9300 C   0  0  0  0  0  0  0  0  0  0  0  0
   -5.7280    3.9180  -78.3320 C   0  0  0  0  0  0  0  0  0  0  0  0
   -6.4960    3.2040  -79.3240 O   0  0  0  0  0  0  0  0  0  0  0  0
   -6.4410    1.8030  -79.0860 C   0  0  0  0  0  0  0  0  0  0  0  0
   -7.0790    1.0500  -80.0680 C   0  0  0  0  0  0  0  0  0  0  0  0
   -7.5390   -0.2210  -79.6900 C   0  0  0  0  0  0  0  0  0  0  0  0
   -7.2930    1.5010  -81.3920 C   0  0  0  0  0  0  0  0  0  0  0  0
   -8.2020   -1.0370  -80.6040 C   0  0  0  0  0  0  0  0  0  0  0  0
   -7.9630    0.6650  -82.3110 C   0  0  0  0  0  0  0  0  0  0  0  0
   -8.4100   -0.5920  -81.9060 C   0  0  0  0  0  0  0  0  0  0  0  0
  1  2  2  0
  2  3  1  0
  2  4  1  0
  4  5  1  0
  5  6  2  0
  5  7  1  0
  6  8  1  0
  7  9  2  0
  8 10  2  0
  9 10  1  0
 10 11  1  0
 11 12  1  0
 12 13  1  0
 13 14  1  0
 14 15  1  0
 15 16  1  0
 16 17  2  0
 16 18  1  0
 17 19  1  0
 18 20  2  0
 19 21  2  0
 20 21  1  0
M  END
>  <ref_url>  (132) 
https://fakepage.com

>  <submitter_name>  (132) 
Steph Wills

>  <submitter_email>  (132) 
stephanie.wills@dtc.ox.ac.uk

>  <submitter_institution>  (132) 
University of Oxford

>  <generation_date>  (132) 
2020-06-04

>  <method>  (132) 
Fragment network

>  <ref_mols>  (132) 
x0176_0B,x0212_0B

>  <ref_pdb>  (132) 
references/x0176-0B-x0212-0B-153449.holo_minimised_nolig.pdb

>  <original SMILES>  (132) 
O=C(O)Cc1ccc(SCCOCc2ccccc2)cc1

>  <synthon>  (132) 
[Xe]c1ccccc1

>  <original_name>  (132) 
x0176-0B-x0212-0B-153449

>  <comRMSD_score>  (132) 
0.9588054199540872

>  <IF_score>  (132) 
0.25

>  <SuCOS_score>  (132) 
0.4673608028561197

>  <compound_ID>  (132) 
CHEMSPACE-BB:CSMB00014804047

$$$$

     RDKit          3D

 26 27  0  0  0  0  0  0  0  0999 V2000
  -14.3800    7.5490  -72.3670 C   0  0  0  0  0  0  0  0  0  0  0  0
  -13.0810    7.4090  -73.0710 N   0  0  0  0  0  0  0  0  0  0  0  0
  -12.5960    8.6510  -73.6200 C   0  0  0  0  0  0  0  0  0  0  0  0
  -12.8080    6.1510  -73.7880 C   0  0  0  0  0  0  0  0  0  0  0  0
  -12.5890    5.0830  -73.2160 O   0  0  0  0  0  0  0  0  0  0  0  0
  -12.8340    6.3270  -75.1660 N   0  0  0  0  0  0  0  0  0  0  0  0
  -13.6630    5.6220  -75.9900 C   0  0  0  0  0  0  0  0  0  0  0  0
  -12.9600    5.2290  -77.2540 C   0  0  0  0  0  0  0  0  0  0  0  0
  -11.8390    4.4120  -77.1480 C   0  0  0  0  0  0  0  0  0  0  0  0
  -10.9290    4.4300  -78.1920 C   0  0  0  0  0  0  0  0  0  0  0  0
  -11.6340    3.5850  -76.0160 C   0  0  0  0  0  0  0  0  0  0  0  0
   -9.8090    3.6450  -78.1640 C   0  0  0  0  0  0  0  0  0  0  0  0
  -10.5110    2.7580  -75.9250 C   0  0  0  0  0  0  0  0  0  0  0  0
   -9.6120    2.7790  -76.9730 C   0  0  0  0  0  0  0  0  0  0  0  0
   -8.4230    2.0200  -77.0610 N   0  0  0  0  0  0  0  0  0  0  0  0
   -7.3730    2.7250  -77.5840 C   0  0  0  0  0  0  0  0  0  0  0  0
   -6.5490    3.6690  -76.8960 O   0  0  0  0  0  0  0  0  0  0  0  0
   -7.0110    2.5410  -78.9230 C   0  0  0  0  0  0  0  0  0  0  0  0
   -5.6110    2.0630  -78.9880 C   0  0  0  0  0  0  0  0  0  0  0  0
   -7.1150    3.9110  -79.5970 C   0  0  0  0  0  0  0  0  0  0  0  0
   -7.8770    1.6040  -79.8030 C   0  0  0  0  0  0  0  0  0  0  0  0
   -8.2470    2.0170  -81.0970 C   0  0  0  0  0  0  0  0  0  0  0  0
   -8.2990    0.3420  -79.3460 C   0  0  0  0  0  0  0  0  0  0  0  0
   -9.0120    1.1900  -81.9100 C   0  0  0  0  0  0  0  0  0  0  0  0
   -9.0680   -0.4850  -80.1610 C   0  0  0  0  0  0  0  0  0  0  0  0
   -9.4130   -0.0500  -81.4320 C   0  0  0  0  0  0  0  0  0  0  0  0
  1  2  1  0
  2  3  1  0
  2  4  1  0
  4  5  2  0
  4  6  1  0
  6  7  1  0
  7  8  1  0
  8  9  1  0
  9 10  2  0
  9 11  1  0
 10 12  1  0
 11 13  2  0
 12 14  2  0
 13 14  1  0
 14 15  1  0
 15 16  1  0
 16 17  2  0
 18 16  1  0
 18 19  1  0
 18 20  1  0
 18 21  1  0
 21 22  2  0
 21 23  1  0
 22 24  1  0
 23 25  2  0
 24 26  2  0
 25 26  1  0
M  END
>  <ref_url>  (133) 
https://fakepage.com

>  <submitter_name>  (133) 
Steph Wills

>  <submitter_email>  (133) 
stephanie.wills@dtc.ox.ac.uk

>  <submitter_institution>  (133) 
University of Oxford

>  <generation_date>  (133) 
2020-06-04

>  <method>  (133) 
Fragment network

>  <ref_mols>  (133) 
x0176_0B,x0212_0B

>  <ref_pdb>  (133) 
references/x0176-0B-x0212-0B-154362.holo_minimised_nolig.pdb

>  <original SMILES>  (133) 
CN(C)C(=O)NCCc1ccc(NC(=O)C(C)(C)c2ccccc2)cc1

>  <synthon>  (133) 
[Xe]c1ccccc1

>  <original_name>  (133) 
x0176-0B-x0212-0B-154362

>  <comRMSD_score>  (133) 
0.7102070933077295

>  <IF_score>  (133) 
0.4

>  <SuCOS_score>  (133) 
0.628297824137235

>  <compound_ID>  (133) 
REAL:Z2783468183

$$$$

     RDKit          3D

 22 23  0  0  0  0  0  0  0  0999 V2000
  -12.5370    6.4680  -73.4940 C   0  0  0  0  0  0  0  0  0  0  0  0
  -13.0110    6.4760  -74.9210 C   0  0  0  0  0  0  0  0  0  0  0  0
  -13.0040    5.1370  -75.3940 O   0  0  0  0  0  0  0  0  0  0  0  0
  -12.6520    5.0600  -76.6710 C   0  0  0  0  0  0  0  0  0  0  0  0
  -13.3020    5.5360  -77.5860 O   0  0  0  0  0  0  0  0  0  0  0  0
  -11.3570    4.3440  -76.8770 C   0  0  0  0  0  0  0  0  0  0  0  0
  -10.4840    4.8430  -77.8340 C   0  0  0  0  0  0  0  0  0  0  0  0
  -10.9830    3.1720  -76.1610 C   0  0  0  0  0  0  0  0  0  0  0  0
   -9.2740    4.2260  -78.0910 C   0  0  0  0  0  0  0  0  0  0  0  0
   -9.7360    2.5790  -76.4690 C   0  0  0  0  0  0  0  0  0  0  0  0
   -8.9250    3.1130  -77.4010 C   0  0  0  0  0  0  0  0  0  0  0  0
   -9.2600    1.4640  -75.8940 O   0  0  0  0  0  0  0  0  0  0  0  0
   -7.9520    0.7660  -76.6540 S   0  0  0  0  0  0  0  0  0  0  0  0
   -6.7800    0.9490  -75.8280 O   0  0  0  0  0  0  0  0  0  0  0  0
   -8.3290   -0.5790  -77.0450 O   0  0  0  0  0  0  0  0  0  0  0  0
   -7.6690    1.7670  -78.1840 C   0  0  0  0  0  0  0  0  0  0  0  0
   -8.3260    1.2130  -79.4420 C   0  0  0  0  0  0  0  0  0  0  0  0
   -8.8830   -0.0650  -79.3880 C   0  0  0  0  0  0  0  0  0  0  0  0
   -8.4080    1.9250  -80.6800 C   0  0  0  0  0  0  0  0  0  0  0  0
   -9.4980   -0.6290  -80.4900 C   0  0  0  0  0  0  0  0  0  0  0  0
   -9.0310    1.3420  -81.7820 C   0  0  0  0  0  0  0  0  0  0  0  0
   -9.5730    0.0700  -81.6810 C   0  0  0  0  0  0  0  0  0  0  0  0
  1  2  1  0
  2  3  1  0
  3  4  1  0
  4  5  2  0
  4  6  1  0
  6  7  2  0
  6  8  1  0
  7  9  1  0
  8 10  2  0
  9 11  2  0
 10 11  1  0
 10 12  1  0
 13 12  1  0
 13 14  2  0
 13 15  2  0
 13 16  1  0
 16 17  1  0
 17 18  2  0
 17 19  1  0
 18 20  1  0
 19 21  2  0
 20 22  2  0
 21 22  1  0
M  END
>  <ref_url>  (134) 
https://fakepage.com

>  <submitter_name>  (134) 
Steph Wills

>  <submitter_email>  (134) 
stephanie.wills@dtc.ox.ac.uk

>  <submitter_institution>  (134) 
University of Oxford

>  <generation_date>  (134) 
2020-06-04

>  <method>  (134) 
Fragment network

>  <ref_mols>  (134) 
x0176_0B,x0212_0B

>  <ref_pdb>  (134) 
references/x0176-0B-x0212-0B-156064.holo_minimised_nolig.pdb

>  <original SMILES>  (134) 
CCOC(=O)c1cccc(OS(=O)(=O)Cc2ccccc2)c1

>  <synthon>  (134) 
[Xe]c1ccccc1

>  <original_name>  (134) 
x0176-0B-x0212-0B-156064

>  <comRMSD_score>  (134) 
0.7990492266854801

>  <IF_score>  (134) 
0.7333333333333334

>  <SuCOS_score>  (134) 
0.461001549028219

>  <compound_ID>  (134) 
MOLPORT:002-821-091

$$$$

     RDKit          3D

 24 25  0  0  0  0  0  0  0  0999 V2000
  -14.3480    7.0340  -72.1310 C   0  0  0  0  0  0  0  0  0  0  0  0
  -13.7270    7.7980  -73.3110 C   0  0  0  0  0  0  0  0  0  0  0  0
  -13.4210    9.2640  -72.9600 C   0  0  0  0  0  0  0  0  0  0  0  0
  -12.4940    7.1080  -73.8720 C   0  0  0  0  0  0  0  0  0  0  0  0
  -11.4430    6.9770  -73.2180 O   0  0  0  0  0  0  0  0  0  0  0  0
  -12.6950    6.6600  -75.2400 N   0  0  0  0  0  0  0  0  0  0  0  0
  -13.6390    5.7000  -75.5420 C   0  0  0  0  0  0  0  0  0  0  0  0
  -13.3720    4.9190  -76.6420 C   0  0  0  0  0  0  0  0  0  0  0  0
  -12.0340    4.2490  -76.7020 C   0  0  0  0  0  0  0  0  0  0  0  0
  -11.7330    3.1210  -75.9270 C   0  0  0  0  0  0  0  0  0  0  0  0
  -11.0950    4.7940  -77.5860 C   0  0  0  0  0  0  0  0  0  0  0  0
  -10.4720    2.5330  -76.0590 C   0  0  0  0  0  0  0  0  0  0  0  0
   -9.8470    4.2320  -77.7410 C   0  0  0  0  0  0  0  0  0  0  0  0
   -9.5010    3.1280  -77.0220 C   0  0  0  0  0  0  0  0  0  0  0  0
   -8.2860    2.4960  -77.1380 C   0  0  0  0  0  0  0  0  0  0  0  0
   -7.4430    3.1710  -77.9310 N   0  0  0  0  0  0  0  0  0  0  0  0
   -6.9570    2.4060  -79.0980 C   0  0  0  0  0  0  0  0  0  0  0  0
   -5.7860    2.3460  -79.4820 O   0  0  0  0  0  0  0  0  0  0  0  0
   -7.8720    1.6560  -79.8720 C   0  0  0  0  0  0  0  0  0  0  0  0
   -8.3280    2.1210  -81.1100 C   0  0  0  0  0  0  0  0  0  0  0  0
   -8.3410    0.4070  -79.4100 C   0  0  0  0  0  0  0  0  0  0  0  0
   -9.2190    1.3770  -81.8680 C   0  0  0  0  0  0  0  0  0  0  0  0
   -9.2410   -0.3710  -80.1460 C   0  0  0  0  0  0  0  0  0  0  0  0
   -9.7310    0.0350  -81.3800 C   0  0  0  0  0  0  0  0  0  0  0  0
  1  2  1  0
  2  3  1  0
  2  4  1  0
  4  5  2  0
  4  6  1  0
  6  7  1  0
  7  8  1  0
  8  9  1  0
  9 10  2  0
  9 11  1  0
 10 12  1  0
 11 13  2  0
 12 14  2  0
 13 14  1  0
 14 15  1  0
 15 16  1  0
 16 17  1  0
 17 18  2  0
 17 19  1  0
 19 20  2  0
 19 21  1  0
 20 22  1  0
 21 23  2  0
 22 24  2  0
 23 24  1  0
M  END
>  <ref_url>  (135) 
https://fakepage.com

>  <submitter_name>  (135) 
Steph Wills

>  <submitter_email>  (135) 
stephanie.wills@dtc.ox.ac.uk

>  <submitter_institution>  (135) 
University of Oxford

>  <generation_date>  (135) 
2020-06-04

>  <method>  (135) 
Fragment network

>  <ref_mols>  (135) 
x0176_0B,x0212_0B

>  <ref_pdb>  (135) 
references/x0176-0B-x0212-0B-161605.holo_minimised_nolig.pdb

>  <original SMILES>  (135) 
CC(C)C(=O)NCCc1ccc(CNC(=O)c2ccccc2)cc1

>  <synthon>  (135) 
[Xe]c1ccccc1

>  <original_name>  (135) 
x0176-0B-x0212-0B-161605

>  <comRMSD_score>  (135) 
0.9393044071177192

>  <IF_score>  (135) 
1.0

>  <SuCOS_score>  (135) 
0.612532681865669

>  <compound_ID>  (135) 
REAL:PV-001422441941

$$$$

     RDKit          3D

 19 20  0  0  0  0  0  0  0  0999 V2000
  -13.4550    5.5670  -75.6800 C   0  0  0  0  0  0  0  0  0  0  0  0
  -12.5310    5.6390  -76.8880 C   0  0  0  0  0  0  0  0  0  0  0  0
  -12.7060    6.5770  -77.6560 O   0  0  0  0  0  0  0  0  0  0  0  0
  -11.4820    4.5350  -77.0100 C   0  0  0  0  0  0  0  0  0  0  0  0
  -10.5100    4.7070  -77.9870 C   0  0  0  0  0  0  0  0  0  0  0  0
  -11.4960    3.4010  -76.1990 C   0  0  0  0  0  0  0  0  0  0  0  0
   -9.5400    3.7390  -78.1770 C   0  0  0  0  0  0  0  0  0  0  0  0
  -10.5230    2.4280  -76.3920 C   0  0  0  0  0  0  0  0  0  0  0  0
   -9.5530    2.5930  -77.3860 C   0  0  0  0  0  0  0  0  0  0  0  0
   -8.6950    1.5630  -77.4880 O   0  0  0  0  0  0  0  0  0  0  0  0
   -7.3390    1.7180  -77.1710 C   0  0  0  0  0  0  0  0  0  0  0  0
   -6.7210    2.6470  -77.9970 C   0  0  0  0  0  0  0  0  0  0  0  0
   -6.9640    2.6430  -79.3810 C   0  0  0  0  0  0  0  0  0  0  0  0
   -7.9000    1.6430  -80.0290 C   0  0  0  0  0  0  0  0  0  0  0  0
   -8.4260    2.1210  -81.2370 C   0  0  0  0  0  0  0  0  0  0  0  0
   -8.2390    0.3670  -79.5290 C   0  0  0  0  0  0  0  0  0  0  0  0
   -9.3700    1.2400  -81.9970 C   0  0  0  0  0  0  0  0  0  0  0  0
   -9.1260   -0.4430  -80.2520 C   0  0  0  0  0  0  0  0  0  0  0  0
   -9.6640    0.0010  -81.4490 C   0  0  0  0  0  0  0  0  0  0  0  0
  1  2  1  0
  2  3  2  0
  2  4  1  0
  4  5  2  0
  4  6  1  0
  5  7  1  0
  6  8  2  0
  7  9  2  0
  8  9  1  0
  9 10  1  0
 10 11  1  0
 11 12  1  0
 12 13  2  3
 13 14  1  0
 14 15  2  0
 14 16  1  0
 15 17  1  0
 16 18  2  0
 17 19  2  0
 18 19  1  0
M  END
>  <ref_url>  (136) 
https://fakepage.com

>  <submitter_name>  (136) 
Steph Wills

>  <submitter_email>  (136) 
stephanie.wills@dtc.ox.ac.uk

>  <submitter_institution>  (136) 
University of Oxford

>  <generation_date>  (136) 
2020-06-04

>  <method>  (136) 
Fragment network

>  <ref_mols>  (136) 
x0176_0B,x0212_0B

>  <ref_pdb>  (136) 
references/x0176-0B-x0212-0B-163352.holo_minimised_nolig.pdb

>  <original SMILES>  (136) 
CC(=O)c1ccc(OCC=Cc2ccccc2)cc1

>  <synthon>  (136) 
[Xe]c1ccccc1

>  <original_name>  (136) 
x0176-0B-x0212-0B-163352

>  <comRMSD_score>  (136) 
0.7179019552775316

>  <IF_score>  (136) 
0.8

>  <SuCOS_score>  (136) 
0.4577785519868175

>  <compound_ID>  (136) 
REAL:Z54485022

$$$$

     RDKit          3D

 19 20  0  0  0  0  0  0  0  0999 V2000
  -12.6980    6.4440  -75.1480 N   0  0  0  0  0  0  0  0  0  0  0  0
  -13.0050    5.5060  -76.0750 C   0  0  0  0  0  0  0  0  0  0  0  0
  -14.0450    4.8660  -75.9810 O   0  0  0  0  0  0  0  0  0  0  0  0
  -12.0020    5.3180  -77.1990 C   0  0  0  0  0  0  0  0  0  0  0  0
  -11.0810    4.1250  -76.8390 C   0  0  0  0  0  0  0  0  0  0  0  0
  -11.4640    3.3660  -75.6320 C   0  0  0  0  0  0  0  0  0  0  0  0
   -9.9150    3.6460  -77.5030 C   0  0  0  0  0  0  0  0  0  0  0  0
  -10.7430    2.2650  -75.1730 C   0  0  0  0  0  0  0  0  0  0  0  0
   -9.2430    2.5590  -76.9990 C   0  0  0  0  0  0  0  0  0  0  0  0
   -9.4280    4.1070  -78.5140 O   0  0  0  0  0  0  0  0  0  0  0  0
   -9.6100    1.8610  -75.8730 C   0  0  0  0  0  0  0  0  0  0  0  0
   -8.0030    3.8930  -78.8260 C   0  0  0  0  0  0  0  0  0  0  0  0
   -7.4680    2.6070  -79.0360 C   0  0  0  0  0  0  0  0  0  0  0  0
   -8.1980    1.7440  -79.8420 C   0  0  0  0  0  0  0  0  0  0  0  0
   -8.6110    0.5190  -79.3240 C   0  0  0  0  0  0  0  0  0  0  0  0
   -8.5050    2.1040  -81.1480 C   0  0  0  0  0  0  0  0  0  0  0  0
   -9.3460   -0.3500  -80.1220 C   0  0  0  0  0  0  0  0  0  0  0  0
   -9.2370    1.2320  -81.9350 C   0  0  0  0  0  0  0  0  0  0  0  0
   -9.6620    0.0030  -81.4250 C   0  0  0  0  0  0  0  0  0  0  0  0
  1  2  1  0
  2  3  2  0
  2  4  1  0
  4  5  1  0
  5  6  2  0
  5  7  1  0
  6  8  1  0
  7  9  2  0
  7 10  1  0
  8 11  2  0
  9 11  1  0
 10 12  1  0
 12 13  1  0
 13 14  1  0
 14 15  2  0
 14 16  1  0
 15 17  1  0
 16 18  2  0
 17 19  2  0
 18 19  1  0
M  END
>  <ref_url>  (137) 
https://fakepage.com

>  <submitter_name>  (137) 
Steph Wills

>  <submitter_email>  (137) 
stephanie.wills@dtc.ox.ac.uk

>  <submitter_institution>  (137) 
University of Oxford

>  <generation_date>  (137) 
2020-06-04

>  <method>  (137) 
Fragment network

>  <ref_mols>  (137) 
x0176_0B,x0212_0B

>  <ref_pdb>  (137) 
references/x0176-0B-x0212-0B-164258.holo_minimised_nolig.pdb

>  <original SMILES>  (137) 
NC(=O)Cc1ccccc1OCCc1ccccc1

>  <synthon>  (137) 
[Xe]c1ccccc1

>  <original_name>  (137) 
x0176-0B-x0212-0B-164258

>  <comRMSD_score>  (137) 
0.8674023480100407

>  <IF_score>  (137) 
0.625

>  <SuCOS_score>  (137) 
0.4889893057126976

>  <compound_ID>  (137) 
REAL:Z1560610876

$$$$

     RDKit          3D

 22 23  0  0  0  0  0  0  0  0999 V2000
  -14.0690    4.8070  -76.1270 C   0  0  0  0  0  0  0  0  0  0  0  0
  -12.9770    5.4530  -76.9220 C   0  0  1  0  0  0  0  0  0  0  0  0
  -12.7740    6.8340  -76.3460 C   0  0  0  0  0  0  0  0  0  0  0  0
  -11.7030    4.6350  -76.7170 C   0  0  0  0  0  0  0  0  0  0  0  0
  -12.1240    7.8320  -77.1180 O   0  0  0  0  0  0  0  0  0  0  0  0
  -13.2870    7.0030  -75.0190 O   0  0  0  0  0  0  0  0  0  0  0  0
  -10.6080    4.8590  -77.5360 C   0  0  0  0  0  0  0  0  0  0  0  0
  -11.6190    3.6610  -75.7060 C   0  0  0  0  0  0  0  0  0  0  0  0
   -9.4210    4.1310  -77.3610 C   0  0  0  0  0  0  0  0  0  0  0  0
  -10.4510    2.9280  -75.5240 C   0  0  0  0  0  0  0  0  0  0  0  0
   -9.3430    3.1330  -76.3190 C   0  0  0  0  0  0  0  0  0  0  0  0
   -8.1570    2.4850  -76.2430 N   0  0  0  0  0  0  0  0  0  0  0  0
   -7.7850    1.7360  -77.4180 C   0  0  0  0  0  0  0  0  0  0  0  0
   -8.2390    0.4260  -77.7370 O   0  0  0  0  0  0  0  0  0  0  0  0
   -6.9340    2.4730  -78.2130 N   0  0  0  0  0  0  0  0  0  0  0  0
   -6.2190    1.8700  -79.3300 C   0  0  0  0  0  0  0  0  0  0  0  0
   -7.1050    0.9930  -80.1590 C   0  0  0  0  0  0  0  0  0  0  0  0
   -7.5850   -0.2320  -79.6890 C   0  0  0  0  0  0  0  0  0  0  0  0
   -7.4760    1.4260  -81.4470 C   0  0  0  0  0  0  0  0  0  0  0  0
   -8.4230   -1.0090  -80.4790 C   0  0  0  0  0  0  0  0  0  0  0  0
   -8.3140    0.6410  -82.2330 C   0  0  0  0  0  0  0  0  0  0  0  0
   -8.7860   -0.5760  -81.7420 C   0  0  0  0  0  0  0  0  0  0  0  0
  2  1  1  1
  2  3  1  0
  2  4  1  0
  3  5  2  0
  3  6  1  0
  4  7  2  0
  4  8  1  0
  7  9  1  0
  8 10  2  0
  9 11  2  0
 10 11  1  0
 11 12  1  0
 12 13  1  0
 13 14  2  0
 13 15  1  0
 15 16  1  0
 16 17  1  0
 17 18  2  0
 17 19  1  0
 18 20  1  0
 19 21  2  0
 20 22  2  0
 21 22  1  0
M  END
>  <ref_url>  (138) 
https://fakepage.com

>  <submitter_name>  (138) 
Steph Wills

>  <submitter_email>  (138) 
stephanie.wills@dtc.ox.ac.uk

>  <submitter_institution>  (138) 
University of Oxford

>  <generation_date>  (138) 
2020-06-04

>  <method>  (138) 
Fragment network

>  <ref_mols>  (138) 
x0176_0B,x0212_0B

>  <ref_pdb>  (138) 
references/x0176-0B-x0212-0B-164857.holo_minimised_nolig.pdb

>  <original SMILES>  (138) 
CC(C(=O)O)c1ccc(NC(=O)NCc2ccccc2)cc1

>  <synthon>  (138) 
[Xe]c1ccccc1

>  <original_name>  (138) 
x0176-0B-x0212-0B-164857

>  <comRMSD_score>  (138) 
0.9693785100012128

>  <IF_score>  (138) 
0.5833333333333333

>  <SuCOS_score>  (138) 
0.4480176651384931

>  <compound_ID>  (138) 
CHEMSPACE-BB:CSMB00016478678

$$$$

     RDKit          3D

 21 22  0  0  0  0  0  0  0  0999 V2000
  -12.6950    6.5310  -74.7610 C   0  0  0  0  0  0  0  0  0  0  0  0
  -13.2840    5.7240  -75.9030 C   0  0  0  0  0  0  0  0  0  0  0  0
  -12.2000    5.4090  -76.9270 C   0  0  0  0  0  0  0  0  0  0  0  0
  -12.0050    6.0200  -77.9540 O   0  0  0  0  0  0  0  0  0  0  0  0
  -11.2650    4.2140  -76.6240 C   0  0  0  0  0  0  0  0  0  0  0  0
  -11.7420    3.2680  -75.5510 C   0  0  0  0  0  0  0  0  0  0  0  0
  -10.0410    3.9500  -77.2680 C   0  0  0  0  0  0  0  0  0  0  0  0
  -10.9550    2.1610  -75.2290 C   0  0  0  0  0  0  0  0  0  0  0  0
   -9.3530    2.8330  -76.8670 C   0  0  0  0  0  0  0  0  0  0  0  0
   -9.5200    4.6990  -78.2420 O   0  0  0  0  0  0  0  0  0  0  0  0
   -9.7630    1.9610  -75.8990 C   0  0  0  0  0  0  0  0  0  0  0  0
   -8.5310    3.9200  -78.9360 C   0  0  0  0  0  0  0  0  0  0  0  0
   -7.4730    3.6440  -78.0350 C   0  0  0  0  0  0  0  0  0  0  0  0
   -7.1050    2.4930  -78.1820 O   0  0  0  0  0  0  0  0  0  0  0  0
   -6.8160    2.1970  -79.4660 C   0  0  0  0  0  0  0  0  0  0  0  0
   -7.8150    1.4740  -80.1220 C   0  0  0  0  0  0  0  0  0  0  0  0
   -8.2470    0.2440  -79.6190 C   0  0  0  0  0  0  0  0  0  0  0  0
   -8.3890    1.9840  -81.2840 C   0  0  0  0  0  0  0  0  0  0  0  0
   -9.2440   -0.4720  -80.2780 C   0  0  0  0  0  0  0  0  0  0  0  0
   -9.3800    1.2630  -81.9320 C   0  0  0  0  0  0  0  0  0  0  0  0
   -9.8100    0.0400  -81.4350 C   0  0  0  0  0  0  0  0  0  0  0  0
  1  2  1  0
  2  3  1  0
  3  4  2  0
  3  5  1  0
  5  6  2  0
  5  7  1  0
  6  8  1  0
  7  9  2  0
  7 10  1  0
  8 11  2  0
  9 11  1  0
 10 12  1  0
 12 13  1  0
 13 14  1  0
 14 15  1  0
 15 16  1  0
 16 17  2  0
 16 18  1  0
 17 19  1  0
 18 20  2  0
 19 21  2  0
 20 21  1  0
M  END
>  <ref_url>  (139) 
https://fakepage.com

>  <submitter_name>  (139) 
Steph Wills

>  <submitter_email>  (139) 
stephanie.wills@dtc.ox.ac.uk

>  <submitter_institution>  (139) 
University of Oxford

>  <generation_date>  (139) 
2020-06-04

>  <method>  (139) 
Fragment network

>  <ref_mols>  (139) 
x0176_0B,x0212_0B

>  <ref_pdb>  (139) 
references/x0176-0B-x0212-0B-165651.holo_minimised_nolig.pdb

>  <original SMILES>  (139) 
CCC(=O)c1ccccc1OCCOCc1ccccc1

>  <synthon>  (139) 
[Xe]c1ccccc1

>  <original_name>  (139) 
x0176-0B-x0212-0B-165651

>  <comRMSD_score>  (139) 
0.8966877475836642

>  <IF_score>  (139) 
0.575

>  <SuCOS_score>  (139) 
0.4642790158730134

>  <compound_ID>  (139) 
CHEMSPACE-BB:CSMB00014805436

$$$$

     RDKit          3D

 26 27  0  0  0  0  0  0  0  0999 V2000
  -13.3580    5.7360  -76.0800 C   0  0  0  0  0  0  0  0  0  0  0  0
  -12.5930    5.3510  -77.3290 C   0  0  0  0  0  0  0  0  0  0  0  0
  -13.5500    5.1480  -78.4800 C   0  0  0  0  0  0  0  0  0  0  0  0
  -11.8140    4.0570  -77.0860 C   0  0  0  0  0  0  0  0  0  0  0  0
  -10.6910    3.7360  -77.8410 C   0  0  0  0  0  0  0  0  0  0  0  0
  -12.2490    3.1770  -76.0800 C   0  0  0  0  0  0  0  0  0  0  0  0
  -10.0060    2.5300  -77.5980 C   0  0  0  0  0  0  0  0  0  0  0  0
  -11.5930    1.9730  -75.8170 C   0  0  0  0  0  0  0  0  0  0  0  0
  -10.4860    1.6160  -76.5520 C   0  0  0  0  0  0  0  0  0  0  0  0
   -9.7110    0.0630  -76.1980 S   0  0  0  0  0  0  0  0  0  0  0  0
  -10.4230   -0.5360  -75.0830 O   0  0  0  0  0  0  0  0  0  0  0  0
   -9.6350   -0.6670  -77.4510 O   0  0  0  0  0  0  0  0  0  0  0  0
   -8.1320    0.4510  -75.6470 N   0  0  0  0  0  0  0  0  0  0  0  0
   -7.3960    1.5950  -76.1680 C   0  0  0  0  0  0  0  0  0  0  0  0
   -8.3270    2.7620  -76.2180 C   0  0  0  0  0  0  0  0  0  0  0  0
   -8.0910    3.3550  -77.5490 C   0  0  0  0  0  0  0  0  0  0  0  0
   -8.8510    4.1550  -78.0610 O   0  0  0  0  0  0  0  0  0  0  0  0
   -6.8680    2.9090  -78.1870 N   0  0  0  0  0  0  0  0  0  0  0  0
   -5.6440    3.2270  -77.4640 C   0  0  0  0  0  0  0  0  0  0  0  0
   -6.9110    2.7530  -79.5620 C   0  0  0  0  0  0  0  0  0  0  0  0
   -7.7070    1.7500  -80.1170 C   0  0  0  0  0  0  0  0  0  0  0  0
   -7.9230    0.4970  -79.5340 C   0  0  0  0  0  0  0  0  0  0  0  0
   -8.3050    2.0400  -81.3290 C   0  0  0  0  0  0  0  0  0  0  0  0
   -8.7270   -0.4660  -80.1500 C   0  0  0  0  0  0  0  0  0  0  0  0
   -9.1010    1.0810  -81.9380 C   0  0  0  0  0  0  0  0  0  0  0  0
   -9.2860   -0.1540  -81.3220 C   0  0  0  0  0  0  0  0  0  0  0  0
  1  2  1  0
  2  3  1  0
  2  4  1  0
  4  5  2  0
  4  6  1  0
  5  7  1  0
  6  8  2  0
  7  9  2  0
  8  9  1  0
  9 10  1  0
 10 11  2  0
 10 12  2  0
 10 13  1  0
 13 14  1  0
 14 15  1  0
 15 16  1  0
 16 17  2  0
 16 18  1  0
 18 19  1  0
 18 20  1  0
 20 21  1  0
 21 22  2  0
 21 23  1  0
 22 24  1  0
 23 25  2  0
 24 26  2  0
 25 26  1  0
M  END
>  <ref_url>  (140) 
https://fakepage.com

>  <submitter_name>  (140) 
Steph Wills

>  <submitter_email>  (140) 
stephanie.wills@dtc.ox.ac.uk

>  <submitter_institution>  (140) 
University of Oxford

>  <generation_date>  (140) 
2020-06-04

>  <method>  (140) 
Fragment network

>  <ref_mols>  (140) 
x0176_0B,x0212_0B

>  <ref_pdb>  (140) 
references/x0176-0B-x0212-0B-165771.holo_minimised_nolig.pdb

>  <original SMILES>  (140) 
CC(C)c1ccc(S(=O)(=O)NCCC(=O)N(C)Cc2ccccc2)cc1

>  <synthon>  (140) 
[Xe]c1ccccc1

>  <original_name>  (140) 
x0176-0B-x0212-0B-165771

>  <comRMSD_score>  (140) 
0.9092834404078852

>  <IF_score>  (140) 
0.3333333333333333

>  <SuCOS_score>  (140) 
0.4852070190312127

>  <compound_ID>  (140) 
REAL:Z31473823

$$$$

     RDKit          3D

 22 23  0  0  0  0  0  0  0  0999 V2000
  -13.8680    5.7780  -76.3810 C   0  0  0  0  0  0  0  0  0  0  0  0
  -13.2840    5.0420  -77.5830 C   0  0  0  0  0  0  0  0  0  0  0  0
  -14.2630    4.0310  -78.1800 C   0  0  0  0  0  0  0  0  0  0  0  0
  -11.9840    4.4390  -77.1450 C   0  0  0  0  0  0  0  0  0  0  0  0
  -10.8180    4.6740  -77.8460 C   0  0  0  0  0  0  0  0  0  0  0  0
  -11.9490    3.6340  -76.0010 C   0  0  0  0  0  0  0  0  0  0  0  0
   -9.6300    4.1290  -77.4080 C   0  0  0  0  0  0  0  0  0  0  0  0
  -10.7550    3.0870  -75.5600 C   0  0  0  0  0  0  0  0  0  0  0  0
   -9.5970    3.3420  -76.2580 C   0  0  0  0  0  0  0  0  0  0  0  0
   -8.3560    2.8430  -75.8800 N   0  0  0  0  0  0  0  0  0  0  0  0
   -7.9850    1.5810  -76.2100 C   0  0  0  0  0  0  0  0  0  0  0  0
   -7.0360    0.9050  -75.8450 O   0  0  0  0  0  0  0  0  0  0  0  0
   -9.0180    1.1790  -77.1950 C   0  0  0  0  0  0  0  0  0  0  0  0
   -8.9300    2.2160  -78.2950 C   0  0  0  0  0  0  0  0  0  0  0  0
   -7.5860    2.8100  -78.2230 N   0  0  0  0  0  0  0  0  0  0  0  0
   -6.8190    2.3410  -79.3610 C   0  0  0  0  0  0  0  0  0  0  0  0
   -7.7260    1.4380  -80.1440 C   0  0  0  0  0  0  0  0  0  0  0  0
   -8.3040    1.8840  -81.3250 C   0  0  0  0  0  0  0  0  0  0  0  0
   -8.0010    0.1410  -79.6840 C   0  0  0  0  0  0  0  0  0  0  0  0
   -9.1470    1.0480  -82.0380 C   0  0  0  0  0  0  0  0  0  0  0  0
   -8.8510   -0.6950  -80.4040 C   0  0  0  0  0  0  0  0  0  0  0  0
   -9.4210   -0.2380  -81.5770 C   0  0  0  0  0  0  0  0  0  0  0  0
  1  2  1  0
  2  3  1  0
  2  4  1  0
  4  5  2  0
  4  6  1  0
  5  7  1  0
  6  8  2  0
  7  9  2  0
  8  9  1  0
  9 10  1  0
 10 11  1  0
 11 12  2  0
 11 13  1  0
 13 14  1  0
 14 15  1  0
 15 16  1  0
 16 17  1  0
 17 18  2  0
 17 19  1  0
 18 20  1  0
 19 21  2  0
 20 22  2  0
 21 22  1  0
M  END
>  <ref_url>  (141) 
https://fakepage.com

>  <submitter_name>  (141) 
Steph Wills

>  <submitter_email>  (141) 
stephanie.wills@dtc.ox.ac.uk

>  <submitter_institution>  (141) 
University of Oxford

>  <generation_date>  (141) 
2020-06-04

>  <method>  (141) 
Fragment network

>  <ref_mols>  (141) 
x0176_0B,x0212_0B

>  <ref_pdb>  (141) 
references/x0176-0B-x0212-0B-168468.holo_minimised_nolig.pdb

>  <original SMILES>  (141) 
CC(C)c1ccc(NC(=O)CCNCc2ccccc2)cc1

>  <synthon>  (141) 
[Xe]c1ccccc1

>  <original_name>  (141) 
x0176-0B-x0212-0B-168468

>  <comRMSD_score>  (141) 
0.7549620203519594

>  <IF_score>  (141) 
0.75

>  <SuCOS_score>  (141) 
0.5400560607794693

>  <compound_ID>  (141) 
CHEMSPACE-BB:CSMB00022141654

$$$$

     RDKit          3D

 22 23  0  0  0  0  0  0  0  0999 V2000
  -14.1140    3.7640  -77.8990 C   0  0  0  0  0  0  0  0  0  0  0  0
  -13.1990    4.7980  -77.2560 C   0  0  0  0  0  0  0  0  0  0  0  0
  -13.0740    5.9690  -78.1990 C   0  0  0  0  0  0  0  0  0  0  0  0
  -13.7320    5.3130  -75.9360 C   0  0  0  0  0  0  0  0  0  0  0  0
  -11.8440    4.1350  -76.9890 C   0  0  0  0  0  0  0  0  0  0  0  0
  -12.8010    6.2960  -75.3630 N   0  0  0  0  0  0  0  0  0  0  0  0
  -11.7630    3.1730  -75.9770 C   0  0  0  0  0  0  0  0  0  0  0  0
  -10.7140    4.4780  -77.7350 C   0  0  0  0  0  0  0  0  0  0  0  0
  -10.5790    2.5210  -75.6730 C   0  0  0  0  0  0  0  0  0  0  0  0
   -9.4920    3.8710  -77.4890 C   0  0  0  0  0  0  0  0  0  0  0  0
   -9.3830    2.9050  -76.4860 C   0  0  0  0  0  0  0  0  0  0  0  0
   -8.1810    2.3140  -76.2540 N   0  0  0  0  0  0  0  0  0  0  0  0
   -7.0590    2.7850  -77.0130 C   0  0  0  0  0  0  0  0  0  0  0  0
   -6.0130    3.2100  -76.5140 O   0  0  0  0  0  0  0  0  0  0  0  0
   -7.1920    2.7480  -78.4540 N   0  0  0  0  0  0  0  0  0  0  0  0
   -6.3310    2.0620  -79.2830 C   0  0  0  0  0  0  0  0  0  0  0  0
   -7.0050    1.1680  -80.1110 C   0  0  0  0  0  0  0  0  0  0  0  0
   -7.4320   -0.0630  -79.6160 C   0  0  0  0  0  0  0  0  0  0  0  0
   -7.2850    1.4910  -81.4600 C   0  0  0  0  0  0  0  0  0  0  0  0
   -8.1230   -0.9590  -80.4250 C   0  0  0  0  0  0  0  0  0  0  0  0
   -7.9840    0.5750  -82.2760 C   0  0  0  0  0  0  0  0  0  0  0  0
   -8.4060   -0.6560  -81.7520 C   0  0  0  0  0  0  0  0  0  0  0  0
  2  1  1  0
  2  3  1  0
  2  4  1  0
  2  5  1  0
  4  6  1  0
  5  7  2  0
  5  8  1  0
  7  9  1  0
  8 10  2  0
  9 11  2  0
 10 11  1  0
 11 12  1  0
 12 13  1  0
 13 14  2  0
 13 15  1  0
 15 16  1  0
 16 17  1  0
 17 18  2  0
 17 19  1  0
 18 20  1  0
 19 21  2  0
 20 22  2  0
 21 22  1  0
M  END
>  <ref_url>  (142) 
https://fakepage.com

>  <submitter_name>  (142) 
Steph Wills

>  <submitter_email>  (142) 
stephanie.wills@dtc.ox.ac.uk

>  <submitter_institution>  (142) 
University of Oxford

>  <generation_date>  (142) 
2020-06-04

>  <method>  (142) 
Fragment network

>  <ref_mols>  (142) 
x0176_0B,x0212_0B

>  <ref_pdb>  (142) 
references/x0176-0B-x0212-0B-168800.holo_minimised_nolig.pdb

>  <original SMILES>  (142) 
CC(C)(CN)c1ccc(NC(=O)NCc2ccccc2)cc1

>  <synthon>  (142) 
[Xe]c1ccccc1

>  <original_name>  (142) 
x0176-0B-x0212-0B-168800

>  <comRMSD_score>  (142) 
0.877872190773424

>  <IF_score>  (142) 
0.1875

>  <SuCOS_score>  (142) 
0.4937318051260652

>  <compound_ID>  (142) 
CHEMSPACE-BB:CSMB00014267016

$$$$

     RDKit          3D

 20 21  0  0  0  0  0  0  0  0999 V2000
  -14.5790    5.1180  -75.0720 C   0  0  0  0  0  0  0  0  0  0  0  0
  -13.3370    5.6430  -75.7690 C   0  0  0  0  0  0  0  0  0  0  0  0
  -13.0360    4.9890  -77.1100 C   0  0  0  0  0  0  0  0  0  0  0  0
  -11.7440    4.2740  -76.9620 C   0  0  0  0  0  0  0  0  0  0  0  0
  -11.6310    3.2770  -75.9920 C   0  0  0  0  0  0  0  0  0  0  0  0
  -10.6570    4.5960  -77.7600 C   0  0  0  0  0  0  0  0  0  0  0  0
  -10.4310    2.6080  -75.8190 C   0  0  0  0  0  0  0  0  0  0  0  0
   -9.4570    3.9260  -77.5840 C   0  0  0  0  0  0  0  0  0  0  0  0
   -9.3480    2.9410  -76.6160 C   0  0  0  0  0  0  0  0  0  0  0  0
   -8.1700    2.2610  -76.4050 N   0  0  0  0  0  0  0  0  0  0  0  0
   -7.0040    2.6130  -76.9690 C   0  0  0  0  0  0  0  0  0  0  0  0
   -6.3040    3.5860  -76.6960 O   0  0  0  0  0  0  0  0  0  0  0  0
   -6.5760    1.7700  -77.9410 N   0  0  0  0  0  0  0  0  0  0  0  0
   -6.3230    2.0560  -79.3360 C   0  0  0  0  0  0  0  0  0  0  0  0
   -7.0450    1.1020  -80.2440 C   0  0  0  0  0  0  0  0  0  0  0  0
   -7.4280   -0.1630  -79.7690 C   0  0  0  0  0  0  0  0  0  0  0  0
   -7.3730    1.4500  -81.5650 C   0  0  0  0  0  0  0  0  0  0  0  0
   -8.1170   -1.0520  -80.5940 C   0  0  0  0  0  0  0  0  0  0  0  0
   -8.0590    0.5570  -82.3890 C   0  0  0  0  0  0  0  0  0  0  0  0
   -8.4280   -0.6910  -81.9020 C   0  0  0  0  0  0  0  0  0  0  0  0
  1  2  1  0
  2  3  1  0
  3  4  1  0
  4  5  2  0
  4  6  1  0
  5  7  1  0
  6  8  2  0
  7  9  2  0
  8  9  1  0
  9 10  1  0
 10 11  1  0
 11 12  2  0
 11 13  1  0
 13 14  1  0
 14 15  1  0
 15 16  2  0
 15 17  1  0
 16 18  1  0
 17 19  2  0
 18 20  2  0
 19 20  1  0
M  END
>  <ref_url>  (143) 
https://fakepage.com

>  <submitter_name>  (143) 
Steph Wills

>  <submitter_email>  (143) 
stephanie.wills@dtc.ox.ac.uk

>  <submitter_institution>  (143) 
University of Oxford

>  <generation_date>  (143) 
2020-06-04

>  <method>  (143) 
Fragment network

>  <ref_mols>  (143) 
x0176_0B,x0212_0B

>  <ref_pdb>  (143) 
references/x0176-0B-x0212-0B-171061.holo_minimised_nolig.pdb

>  <original SMILES>  (143) 
CCCc1ccc(NC(=O)NCc2ccccc2)cc1

>  <synthon>  (143) 
[Xe]c1ccccc1

>  <original_name>  (143) 
x0176-0B-x0212-0B-171061

>  <comRMSD_score>  (143) 
0.9629008256305523

>  <IF_score>  (143) 
0.3095238095238095

>  <SuCOS_score>  (143) 
0.4462292850463359

>  <compound_ID>  (143) 
CHEMSPACE-BB:CSMB00000218612, REAL:Z125581978

$$$$

     RDKit          3D

 24 25  0  0  0  0  0  0  0  0999 V2000
  -12.4140    5.3900  -73.3050 C   0  0  0  0  0  0  0  0  0  0  0  0
  -13.7400    5.4280  -73.8230 O   0  0  0  0  0  0  0  0  0  0  0  0
  -13.8390    4.9090  -75.0740 C   0  0  0  0  0  0  0  0  0  0  0  0
  -14.3440    3.8350  -75.3610 O   0  0  0  0  0  0  0  0  0  0  0  0
  -13.2210    5.8690  -76.1110 C   0  0  2  0  0  0  0  0  0  0  0  0
  -14.3610    6.7820  -76.6350 C   0  0  0  0  0  0  0  0  0  0  0  0
  -12.7400    5.0980  -77.3270 C   0  0  0  0  0  0  0  0  0  0  0  0
  -11.6510    4.2420  -77.1060 C   0  0  0  0  0  0  0  0  0  0  0  0
  -11.6530    3.2860  -76.0980 C   0  0  0  0  0  0  0  0  0  0  0  0
  -10.5120    4.3420  -77.9280 C   0  0  0  0  0  0  0  0  0  0  0  0
  -10.5980    2.4240  -75.8680 C   0  0  0  0  0  0  0  0  0  0  0  0
   -9.3990    3.4960  -77.7510 C   0  0  0  0  0  0  0  0  0  0  0  0
   -9.3830    2.5140  -76.7440 C   0  0  0  0  0  0  0  0  0  0  0  0
   -8.3390    1.7680  -76.6470 N   0  0  0  0  0  0  0  0  0  0  0  0
   -7.3060    2.5790  -77.0130 C   0  0  0  0  0  0  0  0  0  0  0  0
   -7.1030    3.9290  -76.6220 O   0  0  0  0  0  0  0  0  0  0  0  0
   -6.4090    1.9210  -77.8460 N   0  0  0  0  0  0  0  0  0  0  0  0
   -6.4720    2.4070  -79.2470 C   0  0  0  0  0  0  0  0  0  0  0  0
   -7.1000    1.3380  -80.1130 C   0  0  0  0  0  0  0  0  0  0  0  0
   -7.4410    0.0590  -79.6280 C   0  0  0  0  0  0  0  0  0  0  0  0
   -7.3880    1.6110  -81.4770 C   0  0  0  0  0  0  0  0  0  0  0  0
   -8.0360   -0.8960  -80.4440 C   0  0  0  0  0  0  0  0  0  0  0  0
   -7.9910    0.6320  -82.3100 C   0  0  0  0  0  0  0  0  0  0  0  0
   -8.3050   -0.6100  -81.7690 C   0  0  0  0  0  0  0  0  0  0  0  0
  1  2  1  0
  2  3  1  0
  3  4  2  0
  3  5  1  0
  5  6  1  6
  5  7  1  0
  7  8  1  0
  8  9  2  0
  8 10  1  0
  9 11  1  0
 10 12  2  0
 11 13  2  0
 12 13  1  0
 13 14  1  0
 14 15  1  0
 15 16  2  0
 15 17  1  0
 17 18  1  0
 18 19  1  0
 19 20  2  0
 19 21  1  0
 20 22  1  0
 21 23  2  0
 22 24  2  0
 23 24  1  0
M  END
>  <ref_url>  (144) 
https://fakepage.com

>  <submitter_name>  (144) 
Steph Wills

>  <submitter_email>  (144) 
stephanie.wills@dtc.ox.ac.uk

>  <submitter_institution>  (144) 
University of Oxford

>  <generation_date>  (144) 
2020-06-04

>  <method>  (144) 
Fragment network

>  <ref_mols>  (144) 
x0176_0B,x0212_0B

>  <ref_pdb>  (144) 
references/x0176-0B-x0212-0B-171842.holo_minimised_nolig.pdb

>  <original SMILES>  (144) 
COC(=O)C(C)Cc1ccc(NC(=O)NCc2ccccc2)cc1

>  <synthon>  (144) 
[Xe]c1ccccc1

>  <original_name>  (144) 
x0176-0B-x0212-0B-171842

>  <comRMSD_score>  (144) 
0.9329895944400092

>  <IF_score>  (144) 
0.2142857142857142

>  <SuCOS_score>  (144) 
0.503784717483377

>  <compound_ID>  (144) 
REAL:Z1676023982

$$$$

     RDKit          3D

 20 21  0  0  0  0  0  0  0  0999 V2000
  -13.4970    5.5890  -76.1080 C   0  0  0  0  0  0  0  0  0  0  0  0
  -13.0050    4.8400  -77.3300 C   0  0  0  0  0  0  0  0  0  0  0  0
  -13.6320    4.7600  -78.3800 O   0  0  0  0  0  0  0  0  0  0  0  0
  -11.6650    4.1970  -77.1200 C   0  0  0  0  0  0  0  0  0  0  0  0
  -11.4720    3.2880  -76.0650 C   0  0  0  0  0  0  0  0  0  0  0  0
  -10.6010    4.4990  -77.9670 C   0  0  0  0  0  0  0  0  0  0  0  0
  -10.2250    2.6920  -75.8610 C   0  0  0  0  0  0  0  0  0  0  0  0
   -9.3700    3.9030  -77.7550 C   0  0  0  0  0  0  0  0  0  0  0  0
   -9.1700    3.0080  -76.7140 C   0  0  0  0  0  0  0  0  0  0  0  0
   -8.0560    2.5260  -76.5890 O   0  0  0  0  0  0  0  0  0  0  0  0
   -6.8960    3.3430  -76.7660 C   0  0  0  0  0  0  0  0  0  0  0  0
   -5.7920    2.6990  -77.1850 C   0  0  0  0  0  0  0  0  0  0  0  0
   -5.9600    2.0740  -78.4630 O   0  0  0  0  0  0  0  0  0  0  0  0
   -7.0980    2.4080  -79.1130 C   0  0  0  0  0  0  0  0  0  0  0  0
   -7.4730    1.3410  -80.0710 C   0  0  0  0  0  0  0  0  0  0  0  0
   -7.6040    1.6000  -81.4370 C   0  0  0  0  0  0  0  0  0  0  0  0
   -7.7090    0.0430  -79.5900 C   0  0  0  0  0  0  0  0  0  0  0  0
   -7.9640    0.5790  -82.3210 C   0  0  0  0  0  0  0  0  0  0  0  0
   -8.0700   -0.9800  -80.4740 C   0  0  0  0  0  0  0  0  0  0  0  0
   -8.1970   -0.7110  -81.8420 C   0  0  0  0  0  0  0  0  0  0  0  0
  1  2  1  0
  2  3  2  0
  2  4  1  0
  4  5  2  0
  4  6  1  0
  5  7  1  0
  6  8  2  0
  7  9  2  0
  8  9  1  0
  9 10  1  0
 10 11  1  0
 11 12  1  0
 12 13  1  0
 13 14  1  0
 14 15  1  0
 15 16  2  0
 15 17  1  0
 16 18  1  0
 17 19  2  0
 18 20  2  0
 19 20  1  0
M  END
>  <ref_url>  (145) 
https://fakepage.com

>  <submitter_name>  (145) 
Steph Wills

>  <submitter_email>  (145) 
stephanie.wills@dtc.ox.ac.uk

>  <submitter_institution>  (145) 
University of Oxford

>  <generation_date>  (145) 
2020-06-04

>  <method>  (145) 
Fragment network

>  <ref_mols>  (145) 
x0176_0B,x0212_0B

>  <ref_pdb>  (145) 
references/x0176-0B-x0212-0B-175264.holo_minimised_nolig.pdb

>  <original SMILES>  (145) 
CC(=O)c1ccc(OCCOCc2ccccc2)cc1

>  <synthon>  (145) 
[Xe]c1ccccc1

>  <original_name>  (145) 
x0176-0B-x0212-0B-175264

>  <comRMSD_score>  (145) 
0.8216069873526308

>  <IF_score>  (145) 
0.25

>  <SuCOS_score>  (145) 
0.429784252337631

>  <compound_ID>  (145) 
CHEMSPACE-BB:CSMB00014805431

$$$$

     RDKit          3D

 19 20  0  0  0  0  0  0  0  0999 V2000
  -13.3990    5.6550  -75.9510 C   0  0  0  0  0  0  0  0  0  0  0  0
  -12.8710    5.0580  -77.2570 C   0  0  0  0  0  0  0  0  0  0  0  0
  -13.5020    5.3140  -78.2730 O   0  0  0  0  0  0  0  0  0  0  0  0
  -11.6140    4.1800  -77.1690 C   0  0  0  0  0  0  0  0  0  0  0  0
  -10.5900    4.4870  -78.0480 C   0  0  0  0  0  0  0  0  0  0  0  0
  -11.4770    3.1210  -76.2710 C   0  0  0  0  0  0  0  0  0  0  0  0
   -9.4220    3.7310  -78.0450 C   0  0  0  0  0  0  0  0  0  0  0  0
  -10.3040    2.3720  -76.2790 C   0  0  0  0  0  0  0  0  0  0  0  0
   -9.2550    2.6530  -77.1690 C   0  0  0  0  0  0  0  0  0  0  0  0
   -8.1290    1.8970  -77.1750 O   0  0  0  0  0  0  0  0  0  0  0  0
   -6.8920    2.3960  -77.6510 C   0  0  0  0  0  0  0  0  0  0  0  0
   -5.8220    2.6960  -76.8600 O   0  0  0  0  0  0  0  0  0  0  0  0
   -6.8030    2.5920  -79.0260 C   0  0  0  0  0  0  0  0  0  0  0  0
   -7.2030    1.5080  -79.8460 C   0  0  0  0  0  0  0  0  0  0  0  0
   -7.3510    1.7460  -81.3490 C   0  0  0  0  0  0  0  0  0  0  0  0
   -7.4940    0.2030  -79.3370 C   0  0  0  0  0  0  0  0  0  0  0  0
   -7.7710    0.6670  -82.1580 C   0  0  0  0  0  0  0  0  0  0  0  0
   -7.9140   -0.8260  -80.2020 C   0  0  0  0  0  0  0  0  0  0  0  0
   -8.0750   -0.6820  -81.5780 C   0  0  0  0  0  0  0  0  0  0  0  0
  1  2  1  0
  2  3  2  0
  2  4  1  0
  4  5  2  0
  4  6  1  0
  5  7  1  0
  6  8  2  0
  7  9  2  0
  8  9  1  0
  9 10  1  0
 10 11  1  0
 11 12  2  0
 11 13  1  0
 13 14  1  0
 14 15  2  0
 14 16  1  0
 15 17  1  0
 16 18  2  0
 17 19  2  0
 18 19  1  0
M  END
>  <ref_url>  (146) 
https://fakepage.com

>  <submitter_name>  (146) 
Steph Wills

>  <submitter_email>  (146) 
stephanie.wills@dtc.ox.ac.uk

>  <submitter_institution>  (146) 
University of Oxford

>  <generation_date>  (146) 
2020-06-04

>  <method>  (146) 
Fragment network

>  <ref_mols>  (146) 
x0176_0B,x0212_0B

>  <ref_pdb>  (146) 
references/x0176-0B-x0212-0B-177215.holo_minimised_nolig.pdb

>  <original SMILES>  (146) 
CC(=O)c1ccc(OC(=O)Cc2ccccc2)cc1

>  <synthon>  (146) 
[Xe]c1ccccc1

>  <original_name>  (146) 
x0176-0B-x0212-0B-177215

>  <comRMSD_score>  (146) 
0.960629220875568

>  <IF_score>  (146) 
0.3888888888888889

>  <SuCOS_score>  (146) 
0.412651294111177

>  <compound_ID>  (146) 
MOLPORT:002-132-430

$$$$

     RDKit          3D

 24 25  0  0  0  0  0  0  0  0999 V2000
  -12.7560    6.4330  -75.2250 N   0  0  0  0  0  0  0  0  0  0  0  0
  -13.5240    5.4460  -75.7600 C   0  0  0  0  0  0  0  0  0  0  0  0
  -14.4520    4.9600  -75.1230 O   0  0  0  0  0  0  0  0  0  0  0  0
  -13.1460    5.0100  -77.1600 C   0  0  0  0  0  0  0  0  0  0  0  0
  -11.9040    4.1630  -77.1850 C   0  0  0  0  0  0  0  0  0  0  0  0
  -10.8730    4.5320  -78.0320 C   0  0  0  0  0  0  0  0  0  0  0  0
  -11.7600    3.0170  -76.3850 C   0  0  0  0  0  0  0  0  0  0  0  0
   -9.7210    3.7870  -78.1040 C   0  0  0  0  0  0  0  0  0  0  0  0
  -10.5860    2.2560  -76.4560 C   0  0  0  0  0  0  0  0  0  0  0  0
   -9.5660    2.6430  -77.3260 C   0  0  0  0  0  0  0  0  0  0  0  0
   -8.4040    1.9050  -77.4210 N   0  0  0  0  0  0  0  0  0  0  0  0
   -7.2510    2.5900  -77.6710 C   0  0  0  0  0  0  0  0  0  0  0  0
   -6.5780    3.3200  -76.6660 O   0  0  0  0  0  0  0  0  0  0  0  0
   -6.7680    2.5900  -79.1330 C   0  0  1  0  0  0  0  0  0  0  0  0
   -5.2390    2.7400  -79.3720 C   0  0  0  0  0  0  0  0  0  0  0  0
   -7.2960    1.4310  -79.9920 C   0  0  0  0  0  0  0  0  0  0  0  0
   -4.6180    3.9530  -78.6530 C   0  0  0  0  0  0  0  0  0  0  0  0
   -7.5100    1.6720  -81.3540 C   0  0  0  0  0  0  0  0  0  0  0  0
   -7.5730    0.1440  -79.4760 C   0  0  0  0  0  0  0  0  0  0  0  0
   -3.2960    4.3140  -78.9340 C   0  0  0  0  0  0  0  0  0  0  0  0
   -7.9900    0.6520  -82.2020 C   0  0  0  0  0  0  0  0  0  0  0  0
   -8.0560   -0.8690  -80.3240 C   0  0  0  0  0  0  0  0  0  0  0  0
   -3.1880    4.4260  -80.3510 O   0  0  0  0  0  0  0  0  0  0  0  0
   -8.2610   -0.6160  -81.6820 C   0  0  0  0  0  0  0  0  0  0  0  0
  1  2  1  0
  2  3  2  0
  2  4  1  0
  4  5  1  0
  5  6  2  0
  5  7  1  0
  6  8  1  0
  7  9  2  0
  8 10  2  0
  9 10  1  0
 10 11  1  0
 11 12  1  0
 12 13  2  0
 12 14  1  0
 14 15  1  1
 14 16  1  0
 15 17  1  0
 16 18  2  0
 16 19  1  0
 17 20  1  0
 18 21  1  0
 19 22  2  0
 20 23  1  0
 21 24  2  0
 22 24  1  0
M  END
>  <ref_url>  (147) 
https://fakepage.com

>  <submitter_name>  (147) 
Steph Wills

>  <submitter_email>  (147) 
stephanie.wills@dtc.ox.ac.uk

>  <submitter_institution>  (147) 
University of Oxford

>  <generation_date>  (147) 
2020-06-04

>  <method>  (147) 
Fragment network

>  <ref_mols>  (147) 
x0176_0B,x0212_0B

>  <ref_pdb>  (147) 
references/x0176-0B-x0212-0B-177345.holo_minimised_nolig.pdb

>  <original SMILES>  (147) 
NC(=O)Cc1ccc(NC(=O)C(CCCO)c2ccccc2)cc1

>  <synthon>  (147) 
[Xe]c1ccccc1

>  <original_name>  (147) 
x0176-0B-x0212-0B-177345

>  <comRMSD_score>  (147) 
0.9324759827112614

>  <IF_score>  (147) 
0.4375

>  <SuCOS_score>  (147) 
0.4891994345496413

>  <compound_ID>  (147) 
REAL:Z3185505945

$$$$

     RDKit          3D

 30 31  0  0  0  0  0  0  0  0999 V2000
   -6.8390    2.7800  -79.5250 C   0  0  0  0  0  0  0  0  0  0  0  0
   -7.8680    1.7550  -79.9900 C   0  0  0  0  0  0  0  0  0  0  0  0
   -8.0910    0.6640  -79.1630 C   0  0  0  0  0  0  0  0  0  0  0  0
   -8.5860    1.8740  -81.1990 C   0  0  0  0  0  0  0  0  0  0  0  0
   -9.1000   -0.3200  -79.5990 C   0  0  0  0  0  0  0  0  0  0  0  0
   -9.5500    0.9050  -81.5930 C   0  0  0  0  0  0  0  0  0  0  0  0
   -9.8160   -0.2140  -80.7640 C   0  0  0  0  0  0  0  0  0  0  0  0
  -10.9950   -1.5020  -81.0550 S   0  0  0  0  0  0  0  0  0  0  0  0
  -12.2670   -0.8740  -81.3330 O   0  0  0  0  0  0  0  0  0  0  0  0
  -10.4190   -2.5040  -81.9300 O   0  0  0  0  0  0  0  0  0  0  0  0
  -11.0910   -2.2230  -79.5240 N   0  0  0  0  0  0  0  0  0  0  0  0
  -12.0780   -1.8250  -78.5030 C   0  0  2  0  0  0  0  0  0  0  0  0
  -11.5380   -0.7800  -77.7310 C   0  0  0  0  0  0  0  0  0  0  0  0
  -12.5680   -2.9200  -77.7660 C   0  0  0  0  0  0  0  0  0  0  0  0
  -12.2200   -0.4520  -76.5340 C   0  0  0  0  0  0  0  0  0  0  0  0
  -11.8740   -3.5880  -77.0060 O   0  0  0  0  0  0  0  0  0  0  0  0
  -13.8790   -3.1910  -77.9580 O   0  0  0  0  0  0  0  0  0  0  0  0
  -12.5660    0.9150  -76.4920 C   0  0  0  0  0  0  0  0  0  0  0  0
  -13.0490    1.4090  -75.1410 C   0  0  0  0  0  0  0  0  0  0  0  0
  -12.8700    2.8560  -74.9290 N   0  0  0  0  0  0  0  0  0  0  0  0
  -13.6900    3.8750  -75.6230 C   0  0  0  0  0  0  0  0  0  0  0  0
  -14.9700    3.6110  -76.2070 O   0  0  0  0  0  0  0  0  0  0  0  0
  -13.1270    4.9680  -75.6270 O   0  0  0  0  0  0  0  0  0  0  0  0
  -12.3420    5.1620  -76.8010 C   0  0  0  0  0  0  0  0  0  0  0  0
  -11.1190    4.3250  -76.8840 C   0  0  0  0  0  0  0  0  0  0  0  0
  -10.8300    3.3320  -75.9540 C   0  0  0  0  0  0  0  0  0  0  0  0
  -10.1990    4.5140  -77.9170 C   0  0  0  0  0  0  0  0  0  0  0  0
   -9.7060    2.5270  -75.9830 C   0  0  0  0  0  0  0  0  0  0  0  0
   -9.0400    3.7200  -77.9770 C   0  0  0  0  0  0  0  0  0  0  0  0
   -8.7950    2.7300  -77.0130 C   0  0  0  0  0  0  0  0  0  0  0  0
  1  2  1  0
  2  3  2  0
  2  4  1  0
  3  5  1  0
  4  6  2  0
  5  7  2  0
  6  7  1  0
  7  8  1  0
  8  9  2  0
  8 10  2  0
  8 11  1  0
 11 12  1  0
 12 13  1  1
 12 14  1  0
 13 15  1  0
 14 16  2  0
 14 17  1  0
 15 18  1  0
 18 19  1  0
 19 20  1  0
 20 21  1  0
 21 22  2  0
 21 23  1  0
 23 24  1  0
 24 25  1  0
 25 26  2  0
 25 27  1  0
 26 28  1  0
 27 29  2  0
 28 30  2  0
 29 30  1  0
M  END
>  <ref_url>  (148) 
https://fakepage.com

>  <submitter_name>  (148) 
Steph Wills

>  <submitter_email>  (148) 
stephanie.wills@dtc.ox.ac.uk

>  <submitter_institution>  (148) 
University of Oxford

>  <generation_date>  (148) 
2020-06-04

>  <method>  (148) 
Fragment network

>  <ref_mols>  (148) 
x0176_0B,x0212_0B

>  <ref_pdb>  (148) 
references/x0176-0B-x0212-0B-177707.holo_minimised_nolig.pdb

>  <original SMILES>  (148) 
Cc1ccc(S(=O)(=O)NC(CCCCNC(=O)OCc2ccccc2)C(=O)O)cc1

>  <synthon>  (148) 
[Xe]c1ccccc1

>  <original_name>  (148) 
x0176-0B-x0212-0B-177707

>  <comRMSD_score>  (148) 
0.9100955516007536

>  <IF_score>  (148) 
0.55

>  <SuCOS_score>  (148) 
0.438270789063614

>  <compound_ID>  (148) 
MOLPORT:035-785-201

$$$$

     RDKit          3D

 21 22  0  0  0  0  0  0  0  0999 V2000
  -13.1910    6.6720  -74.6420 N   0  0  0  0  0  0  0  0  0  0  0  0
  -13.3100    6.1660  -75.8840 C   0  0  0  0  0  0  0  0  0  0  0  0
  -14.7130    5.9690  -75.9660 O   0  0  0  0  0  0  0  0  0  0  0  0
  -12.8740    5.6840  -77.2280 C   0  0  0  0  0  0  0  0  0  0  0  0
  -11.8270    4.6440  -77.0300 C   0  0  0  0  0  0  0  0  0  0  0  0
  -12.0190    3.6220  -76.0900 C   0  0  0  0  0  0  0  0  0  0  0  0
  -10.6700    4.7070  -77.7960 C   0  0  0  0  0  0  0  0  0  0  0  0
  -11.0460    2.6560  -75.9270 C   0  0  0  0  0  0  0  0  0  0  0  0
   -9.7060    3.7470  -77.6340 C   0  0  0  0  0  0  0  0  0  0  0  0
   -9.9200    2.7410  -76.7030 C   0  0  0  0  0  0  0  0  0  0  0  0
   -8.9810    1.8220  -76.5540 O   0  0  0  0  0  0  0  0  0  0  0  0
   -7.8270    2.4460  -76.0940 C   0  0  0  0  0  0  0  0  0  0  0  0
   -7.3030    3.2360  -77.2640 C   0  0  0  0  0  0  0  0  0  0  0  0
   -6.7620    2.4120  -78.1610 N   0  0  0  0  0  0  0  0  0  0  0  0
   -6.8290    2.5780  -79.5790 C   0  0  0  0  0  0  0  0  0  0  0  0
   -7.8350    1.6560  -80.1960 C   0  0  0  0  0  0  0  0  0  0  0  0
   -8.1740    0.3170  -79.5980 C   0  0  0  0  0  0  0  0  0  0  0  0
   -8.4900    2.0270  -81.3580 C   0  0  0  0  0  0  0  0  0  0  0  0
   -9.1250   -0.4900  -80.2350 C   0  0  0  0  0  0  0  0  0  0  0  0
   -9.4210    1.1930  -81.9500 C   0  0  0  0  0  0  0  0  0  0  0  0
   -9.7400   -0.0480  -81.4040 C   0  0  0  0  0  0  0  0  0  0  0  0
  1  2  1  0
  2  3  2  0
  2  4  1  0
  4  5  1  0
  5  6  2  0
  5  7  1  0
  6  8  1  0
  7  9  2  0
  8 10  2  0
  9 10  1  0
 10 11  1  0
 11 12  1  0
 12 13  1  0
 13 14  1  0
 14 15  1  0
 15 16  1  0
 16 17  2  0
 16 18  1  0
 17 19  1  0
 18 20  2  0
 19 21  2  0
 20 21  1  0
M  END
>  <ref_url>  (149) 
https://fakepage.com

>  <submitter_name>  (149) 
Steph Wills

>  <submitter_email>  (149) 
stephanie.wills@dtc.ox.ac.uk

>  <submitter_institution>  (149) 
University of Oxford

>  <generation_date>  (149) 
2020-06-04

>  <method>  (149) 
Fragment network

>  <ref_mols>  (149) 
x0176_0B,x0212_0B

>  <ref_pdb>  (149) 
references/x0176-0B-x0212-0B-178065.holo_minimised_nolig.pdb

>  <original SMILES>  (149) 
NC(=O)Cc1ccc(OCCNCc2ccccc2)cc1

>  <synthon>  (149) 
[Xe]c1ccccc1

>  <original_name>  (149) 
x0176-0B-x0212-0B-178065

>  <comRMSD_score>  (149) 
0.8125206212767779

>  <IF_score>  (149) 
0.8

>  <SuCOS_score>  (149) 
0.5415744567478729

>  <compound_ID>  (149) 
MOLPORT:039-033-066

$$$$

     RDKit          3D

 20 21  0  0  0  0  0  0  0  0999 V2000
  -13.5290    5.9910  -76.1840 C   0  0  0  0  0  0  0  0  0  0  0  0
  -13.0760    5.1150  -77.3570 C   0  0  0  0  0  0  0  0  0  0  0  0
  -13.7750    5.1210  -78.3630 O   0  0  0  0  0  0  0  0  0  0  0  0
  -11.7890    4.3260  -77.1320 C   0  0  0  0  0  0  0  0  0  0  0  0
  -11.8120    3.4130  -76.0720 C   0  0  0  0  0  0  0  0  0  0  0  0
  -10.6480    4.4880  -77.9120 C   0  0  0  0  0  0  0  0  0  0  0  0
  -10.6760    2.6540  -75.7930 C   0  0  0  0  0  0  0  0  0  0  0  0
   -9.5240    3.7350  -77.6320 C   0  0  0  0  0  0  0  0  0  0  0  0
   -9.5430    2.8230  -76.5750 C   0  0  0  0  0  0  0  0  0  0  0  0
   -8.3450    2.0860  -76.3470 N   0  0  0  0  0  0  0  0  0  0  0  0
   -7.1600    2.7500  -76.8790 C   0  0  0  0  0  0  0  0  0  0  0  0
   -6.6480    4.0020  -76.4290 O   0  0  0  0  0  0  0  0  0  0  0  0
   -6.5660    2.0170  -77.8780 N   0  0  0  0  0  0  0  0  0  0  0  0
   -6.5110    2.2780  -79.2560 C   0  0  0  0  0  0  0  0  0  0  0  0
   -7.1010    1.3080  -80.0740 C   0  0  0  0  0  0  0  0  0  0  0  0
   -7.4950   -0.0460  -79.5050 C   0  0  0  0  0  0  0  0  0  0  0  0
   -7.3630    1.5680  -81.4390 C   0  0  0  0  0  0  0  0  0  0  0  0
   -8.1020   -0.9610  -80.3820 C   0  0  0  0  0  0  0  0  0  0  0  0
   -7.9650    0.6480  -82.3070 C   0  0  0  0  0  0  0  0  0  0  0  0
   -8.3420   -0.6020  -81.8240 C   0  0  0  0  0  0  0  0  0  0  0  0
  1  2  1  0
  2  3  2  0
  2  4  1  0
  4  5  2  0
  4  6  1  0
  5  7  1  0
  6  8  2  0
  7  9  2  0
  8  9  1  0
  9 10  1  0
 10 11  1  0
 11 12  2  0
 11 13  1  0
 13 14  1  0
 14 15  1  0
 15 16  2  0
 15 17  1  0
 16 18  1  0
 17 19  2  0
 18 20  2  0
 19 20  1  0
M  END
>  <ref_url>  (150) 
https://fakepage.com

>  <submitter_name>  (150) 
Steph Wills

>  <submitter_email>  (150) 
stephanie.wills@dtc.ox.ac.uk

>  <submitter_institution>  (150) 
University of Oxford

>  <generation_date>  (150) 
2020-06-04

>  <method>  (150) 
Fragment network

>  <ref_mols>  (150) 
x0176_0B,x0212_0B

>  <ref_pdb>  (150) 
references/x0176-0B-x0212-0B-178103.holo_minimised_nolig.pdb

>  <original SMILES>  (150) 
CC(=O)c1ccc(NC(=O)NCc2ccccc2)cc1

>  <synthon>  (150) 
[Xe]c1ccccc1

>  <original_name>  (150) 
x0176-0B-x0212-0B-178103

>  <comRMSD_score>  (150) 
0.8627787010331909

>  <IF_score>  (150) 
0.25

>  <SuCOS_score>  (150) 
0.4220636761312547

>  <compound_ID>  (150) 
MOLPORT:008-935-370, CHEMSPACE-BB:CSMB00000217722, REAL:Z123644510

$$$$

     RDKit          3D

 21 22  0  0  0  0  0  0  0  0999 V2000
   -6.8660    2.6100  -79.3250 C   0  0  0  0  0  0  0  0  0  0  0  0
   -7.8530    1.6650  -79.9720 C   0  0  0  0  0  0  0  0  0  0  0  0
   -8.2040    0.4610  -79.1730 C   0  0  0  0  0  0  0  0  0  0  0  0
   -8.4420    1.8340  -81.2170 C   0  0  0  0  0  0  0  0  0  0  0  0
   -9.1090   -0.4590  -79.6610 C   0  0  0  0  0  0  0  0  0  0  0  0
   -9.3550    0.8710  -81.6740 C   0  0  0  0  0  0  0  0  0  0  0  0
   -9.6970   -0.2620  -80.9040 C   0  0  0  0  0  0  0  0  0  0  0  0
  -10.6140   -1.2660  -81.2520 N   0  0  0  0  0  0  0  0  0  0  0  0
  -11.7330   -1.6670  -80.5110 C   0  0  0  0  0  0  0  0  0  0  0  0
  -12.6440   -2.6070  -80.9060 O   0  0  0  0  0  0  0  0  0  0  0  0
  -11.9460   -1.0000  -79.1380 C   0  0  0  0  0  0  0  0  0  0  0  0
  -11.2390    0.6730  -78.9600 S   0  0  0  0  0  0  0  0  0  0  0  0
  -11.9550    1.4370  -77.4500 C   0  0  0  0  0  0  0  0  0  0  0  0
  -13.1050    2.5280  -77.5290 C   0  0  0  0  0  0  0  0  0  0  0  0
  -12.4940    3.9160  -77.3680 C   0  0  0  0  0  0  0  0  0  0  0  0
  -11.1510    3.7790  -77.2280 C   0  0  0  0  0  0  0  0  0  0  0  0
  -10.7730    3.0240  -76.1290 C   0  0  0  0  0  0  0  0  0  0  0  0
  -10.1900    4.2790  -78.0970 C   0  0  0  0  0  0  0  0  0  0  0  0
   -9.4610    2.7450  -75.8870 C   0  0  0  0  0  0  0  0  0  0  0  0
   -8.8490    3.9990  -77.8530 C   0  0  0  0  0  0  0  0  0  0  0  0
   -8.4860    3.2300  -76.7460 C   0  0  0  0  0  0  0  0  0  0  0  0
  1  2  1  0
  2  3  2  0
  2  4  1  0
  3  5  1  0
  4  6  2  0
  5  7  2  0
  6  7  1  0
  7  8  1  0
  8  9  1  0
  9 10  2  0
  9 11  1  0
 11 12  1  0
 12 13  1  0
 13 14  1  0
 14 15  2  3
 15 16  1  0
 16 17  2  0
 16 18  1  0
 17 19  1  0
 18 20  2  0
 19 21  2  0
 20 21  1  0
M  END
>  <ref_url>  (151) 
https://fakepage.com

>  <submitter_name>  (151) 
Steph Wills

>  <submitter_email>  (151) 
stephanie.wills@dtc.ox.ac.uk

>  <submitter_institution>  (151) 
University of Oxford

>  <generation_date>  (151) 
2020-06-04

>  <method>  (151) 
Fragment network

>  <ref_mols>  (151) 
x0176_0B,x0212_0B

>  <ref_pdb>  (151) 
references/x0176-0B-x0212-0B-178543.holo_minimised_nolig.pdb

>  <original SMILES>  (151) 
Cc1ccc(NC(=O)CSCC=Cc2ccccc2)cc1

>  <synthon>  (151) 
[Xe]c1ccccc1

>  <original_name>  (151) 
x0176-0B-x0212-0B-178543

>  <comRMSD_score>  (151) 
0.9444432944140342

>  <IF_score>  (151) 
0.25

>  <SuCOS_score>  (151) 
0.4250533451117275

>  <compound_ID>  (151) 
MOLPORT:044-248-555

$$$$

     RDKit          3D

 22 23  0  0  0  0  0  0  0  0999 V2000
  -12.7980    6.1000  -74.2340 N   0  0  0  0  0  0  0  0  0  0  0  0
  -13.1020    6.1150  -75.3710 C   0  0  0  0  0  0  0  0  0  0  0  0
  -12.6170    7.1970  -75.6810 O   0  0  0  0  0  0  0  0  0  0  0  0
  -13.7720    5.5960  -76.6710 C   0  0  0  0  0  0  0  0  0  0  0  0
  -13.1510    4.6130  -77.4830 C   0  0  0  0  0  0  0  0  0  0  0  0
  -11.7710    4.1820  -77.0990 C   0  0  0  0  0  0  0  0  0  0  0  0
  -11.5610    3.4650  -75.9230 C   0  0  0  0  0  0  0  0  0  0  0  0
  -10.6860    4.5040  -77.9100 C   0  0  0  0  0  0  0  0  0  0  0  0
  -10.2930    3.0970  -75.5390 C   0  0  0  0  0  0  0  0  0  0  0  0
   -9.4080    4.1270  -77.5070 C   0  0  0  0  0  0  0  0  0  0  0  0
   -9.1980    3.4420  -76.3110 C   0  0  0  0  0  0  0  0  0  0  0  0
   -7.8610    3.1780  -75.9820 N   0  0  0  0  0  0  0  0  0  0  0  0
   -6.8580    2.7840  -76.8150 C   0  0  0  0  0  0  0  0  0  0  0  0
   -5.6060    3.4480  -76.7140 O   0  0  0  0  0  0  0  0  0  0  0  0
   -6.9740    1.8180  -77.7470 C   0  0  0  0  0  0  0  0  0  0  0  0
   -6.7780    2.2120  -79.1650 C   0  0  0  0  0  0  0  0  0  0  0  0
   -7.7720    1.4400  -79.9800 C   0  0  0  0  0  0  0  0  0  0  0  0
   -8.2140    0.2200  -79.4760 C   0  0  0  0  0  0  0  0  0  0  0  0
   -8.2530    1.9060  -81.1820 C   0  0  0  0  0  0  0  0  0  0  0  0
   -9.2030   -0.5540  -80.2380 C   0  0  0  0  0  0  0  0  0  0  0  0
   -9.1770    1.1810  -81.8980 C   0  0  0  0  0  0  0  0  0  0  0  0
   -9.6620   -0.0450  -81.4330 C   0  0  0  0  0  0  0  0  0  0  0  0
  1  2  1  0
  2  3  2  0
  2  4  1  0
  4  5  1  0
  5  6  1  0
  6  7  2  0
  6  8  1  0
  7  9  1  0
  8 10  2  0
  9 11  2  0
 10 11  1  0
 11 12  1  0
 12 13  1  0
 13 14  2  0
 13 15  1  0
 15 16  1  0
 16 17  1  0
 17 18  2  0
 17 19  1  0
 18 20  1  0
 19 21  2  0
 20 22  2  0
 21 22  1  0
M  END
>  <ref_url>  (152) 
https://fakepage.com

>  <submitter_name>  (152) 
Steph Wills

>  <submitter_email>  (152) 
stephanie.wills@dtc.ox.ac.uk

>  <submitter_institution>  (152) 
University of Oxford

>  <generation_date>  (152) 
2020-06-04

>  <method>  (152) 
Fragment network

>  <ref_mols>  (152) 
x0176_0B,x0212_0B

>  <ref_pdb>  (152) 
references/x0176-0B-x0212-0B-181811.holo_minimised_nolig.pdb

>  <original SMILES>  (152) 
NC(=O)CCc1ccc(NC(=O)CCc2ccccc2)cc1

>  <synthon>  (152) 
[Xe]c1ccccc1

>  <original_name>  (152) 
x0176-0B-x0212-0B-181811

>  <comRMSD_score>  (152) 
0.6591920754284685

>  <IF_score>  (152) 
0.375

>  <SuCOS_score>  (152) 
0.5252747514674787

>  <compound_ID>  (152) 
REAL:Z1090797934

$$$$

     RDKit          3D

 20 21  0  0  0  0  0  0  0  0999 V2000
  -12.5010    6.4840  -73.6020 C   0  0  0  0  0  0  0  0  0  0  0  0
  -12.6210    6.7440  -74.9850 O   0  0  0  0  0  0  0  0  0  0  0  0
  -13.1800    5.6400  -75.6730 C   0  0  0  0  0  0  0  0  0  0  0  0
  -14.1630    4.8420  -75.0880 O   0  0  0  0  0  0  0  0  0  0  0  0
  -12.6230    5.4020  -77.0680 C   0  0  0  0  0  0  0  0  0  0  0  0
  -11.5350    4.5200  -77.0530 C   0  0  0  0  0  0  0  0  0  0  0  0
  -10.5070    4.7030  -77.9890 C   0  0  0  0  0  0  0  0  0  0  0  0
  -11.4450    3.4400  -76.1250 C   0  0  0  0  0  0  0  0  0  0  0  0
   -9.4350    3.8500  -78.0170 C   0  0  0  0  0  0  0  0  0  0  0  0
  -10.3590    2.5460  -76.1260 C   0  0  0  0  0  0  0  0  0  0  0  0
   -9.3520    2.7310  -77.0640 C   0  0  0  0  0  0  0  0  0  0  0  0
   -8.2670    1.9320  -77.1790 O   0  0  0  0  0  0  0  0  0  0  0  0
   -7.1030    2.5120  -77.7660 C   0  0  0  0  0  0  0  0  0  0  0  0
   -7.0350    2.5350  -79.1720 C   0  0  0  0  0  0  0  0  0  0  0  0
   -7.9610    1.5900  -79.8900 C   0  0  0  0  0  0  0  0  0  0  0  0
   -8.3900    2.0530  -81.1290 C   0  0  0  0  0  0  0  0  0  0  0  0
   -8.3920    0.3410  -79.4120 C   0  0  0  0  0  0  0  0  0  0  0  0
   -9.3100    1.2150  -81.9410 C   0  0  0  0  0  0  0  0  0  0  0  0
   -9.2600   -0.4460  -80.1800 C   0  0  0  0  0  0  0  0  0  0  0  0
   -9.7170   -0.0190  -81.4290 C   0  0  0  0  0  0  0  0  0  0  0  0
  1  2  1  0
  2  3  1  0
  3  4  2  0
  3  5  1  0
  5  6  1  0
  6  7  2  0
  6  8  1  0
  7  9  1  0
  8 10  2  0
  9 11  2  0
 10 11  1  0
 11 12  1  0
 12 13  1  0
 13 14  1  0
 14 15  1  0
 15 16  2  0
 15 17  1  0
 16 18  1  0
 17 19  2  0
 18 20  2  0
 19 20  1  0
M  END
>  <ref_url>  (153) 
https://fakepage.com

>  <submitter_name>  (153) 
Steph Wills

>  <submitter_email>  (153) 
stephanie.wills@dtc.ox.ac.uk

>  <submitter_institution>  (153) 
University of Oxford

>  <generation_date>  (153) 
2020-06-04

>  <method>  (153) 
Fragment network

>  <ref_mols>  (153) 
x0176_0B,x0212_0B

>  <ref_pdb>  (153) 
references/x0176-0B-x0212-0B-183779.holo_minimised_nolig.pdb

>  <original SMILES>  (153) 
COC(=O)Cc1ccc(OCCc2ccccc2)cc1

>  <synthon>  (153) 
[Xe]c1ccccc1

>  <original_name>  (153) 
x0176-0B-x0212-0B-183779

>  <comRMSD_score>  (153) 
0.4988837911147605

>  <IF_score>  (153) 
0.8

>  <SuCOS_score>  (153) 
0.5329003225166841

>  <compound_ID>  (153) 
REAL:Z1478405509

$$$$

     RDKit          3D

 23 24  0  0  0  0  0  0  0  0999 V2000
  -10.5610   -1.0030  -78.0050 C   0  0  0  0  0  0  0  0  0  0  0  0
  -11.4740   -1.1700  -79.2110 C   0  0  2  0  0  0  0  0  0  0  0  0
  -10.9030   -0.8720  -80.3070 O   0  0  0  0  0  0  0  0  0  0  0  0
  -12.7410   -0.3070  -78.9480 C   0  0  0  0  0  0  0  0  0  0  0  0
   -9.8120   -0.0260  -80.3230 C   0  0  0  0  0  0  0  0  0  0  0  0
  -13.8410   -0.5730  -79.4300 O   0  0  0  0  0  0  0  0  0  0  0  0
  -12.5300    0.8800  -78.0650 N   0  0  0  0  0  0  0  0  0  0  0  0
   -8.9810   -0.2160  -79.2360 C   0  0  0  0  0  0  0  0  0  0  0  0
   -9.4540    0.9620  -81.2440 C   0  0  0  0  0  0  0  0  0  0  0  0
  -13.6090    1.5110  -77.3260 C   0  0  0  0  0  0  0  0  0  0  0  0
   -7.8510    0.5640  -79.0540 C   0  0  0  0  0  0  0  0  0  0  0  0
   -8.3280    1.7540  -81.0710 C   0  0  0  0  0  0  0  0  0  0  0  0
  -13.8240    2.8510  -77.7560 C   0  0  0  0  0  0  0  0  0  0  0  0
   -7.5180    1.5630  -79.9660 C   0  0  0  0  0  0  0  0  0  0  0  0
  -12.8260    3.8470  -77.7430 C   0  0  0  0  0  0  0  0  0  0  0  0
   -6.2940    2.4280  -79.7550 C   0  0  0  0  0  0  0  0  0  0  0  0
  -11.5360    3.5330  -77.3090 C   0  0  0  0  0  0  0  0  0  0  0  0
   -6.3750    3.0910  -78.4580 N   0  0  0  0  0  0  0  0  0  0  0  0
  -10.4210    4.0270  -77.9930 C   0  0  0  0  0  0  0  0  0  0  0  0
  -11.3070    2.7180  -76.1940 C   0  0  0  0  0  0  0  0  0  0  0  0
   -9.1250    3.7270  -77.6020 C   0  0  0  0  0  0  0  0  0  0  0  0
  -10.0110    2.4100  -75.7890 C   0  0  0  0  0  0  0  0  0  0  0  0
   -8.9130    2.9130  -76.4930 C   0  0  0  0  0  0  0  0  0  0  0  0
  2  1  1  1
  2  3  1  0
  2  4  1  0
  3  5  1  0
  4  6  2  0
  4  7  1  0
  5  8  2  0
  5  9  1  0
  7 10  1  0
  8 11  1  0
  9 12  2  0
 10 13  1  0
 11 14  2  0
 12 14  1  0
 13 15  2  3
 14 16  1  0
 15 17  1  0
 16 18  3  0
 17 19  2  0
 17 20  1  0
 19 21  1  0
 20 22  2  0
 21 23  2  0
 22 23  1  0
M  END
>  <ref_url>  (154) 
https://fakepage.com

>  <submitter_name>  (154) 
Steph Wills

>  <submitter_email>  (154) 
stephanie.wills@dtc.ox.ac.uk

>  <submitter_institution>  (154) 
University of Oxford

>  <generation_date>  (154) 
2020-06-04

>  <method>  (154) 
Fragment network

>  <ref_mols>  (154) 
x0176_0B,x0212_0B

>  <ref_pdb>  (154) 
references/x0176-0B-x0212-0B-185783.holo_minimised_nolig.pdb

>  <original SMILES>  (154) 
CC(Oc1ccc(C#N)cc1)C(=O)NCC=Cc1ccccc1

>  <synthon>  (154) 
[Xe]c1ccccc1

>  <original_name>  (154) 
x0176-0B-x0212-0B-185783

>  <comRMSD_score>  (154) 
0.8568211459753288

>  <IF_score>  (154) 
0.375

>  <SuCOS_score>  (154) 
0.3960194531150205

>  <compound_ID>  (154) 
REAL:Z1188556705

$$$$

     RDKit          3D

 24 25  0  0  0  0  0  0  0  0999 V2000
  -12.5690    6.6570  -77.0420 C   0  0  0  0  0  0  0  0  0  0  0  0
  -12.9110    5.1810  -77.0550 C   0  0  0  0  0  0  0  0  0  0  0  0
  -13.8550    4.8500  -75.9070 C   0  0  0  0  0  0  0  0  0  0  0  0
  -13.6630    4.9280  -78.3830 C   0  0  0  0  0  0  0  0  0  0  0  0
  -11.6190    4.3760  -76.8630 C   0  0  0  0  0  0  0  0  0  0  0  0
  -11.5690    3.3010  -75.9550 C   0  0  0  0  0  0  0  0  0  0  0  0
  -10.4890    4.7000  -77.5780 C   0  0  0  0  0  0  0  0  0  0  0  0
  -10.3860    2.5760  -75.7860 C   0  0  0  0  0  0  0  0  0  0  0  0
   -9.3100    3.9840  -77.4120 C   0  0  0  0  0  0  0  0  0  0  0  0
   -9.2580    2.9280  -76.5220 C   0  0  0  0  0  0  0  0  0  0  0  0
   -8.0430    2.2670  -76.4150 N   0  0  0  0  0  0  0  0  0  0  0  0
   -7.8460    0.8500  -76.1590 C   0  0  0  0  0  0  0  0  0  0  0  0
   -8.7380   -0.1700  -75.9510 O   0  0  0  0  0  0  0  0  0  0  0  0
   -6.3690    0.5090  -76.1250 C   0  0  0  0  0  0  0  0  0  0  0  0
   -5.4880    0.9150  -77.1750 O   0  0  0  0  0  0  0  0  0  0  0  0
   -6.0460    0.4320  -78.3350 N   0  0  0  0  0  0  0  0  0  0  0  0
   -6.7560    1.5160  -79.0270 C   0  0  0  0  0  0  0  0  0  0  0  0
   -6.8080    2.8780  -78.5300 N   0  0  0  0  0  0  0  0  0  0  0  0
   -7.3830    0.8140  -80.1780 C   0  0  0  0  0  0  0  0  0  0  0  0
   -7.8310   -0.4720  -79.8810 C   0  0  0  0  0  0  0  0  0  0  0  0
   -7.5550    1.3490  -81.4670 C   0  0  0  0  0  0  0  0  0  0  0  0
   -8.4490   -1.2350  -80.8450 C   0  0  0  0  0  0  0  0  0  0  0  0
   -8.1820    0.5640  -82.4310 C   0  0  0  0  0  0  0  0  0  0  0  0
   -8.6210   -0.7170  -82.1120 C   0  0  0  0  0  0  0  0  0  0  0  0
  2  1  1  0
  2  3  1  0
  2  4  1  0
  2  5  1  0
  5  6  2  0
  5  7  1  0
  6  8  1  0
  7  9  2  0
  8 10  2  0
  9 10  1  0
 10 11  1  0
 11 12  1  0
 12 13  2  0
 12 14  1  0
 14 15  1  0
 15 16  1  0
 16 17  2  3
 17 18  1  0
 17 19  1  0
 19 20  2  0
 19 21  1  0
 20 22  1  0
 21 23  2  0
 22 24  2  0
 23 24  1  0
M  END
>  <ref_url>  (155) 
https://fakepage.com

>  <submitter_name>  (155) 
Steph Wills

>  <submitter_email>  (155) 
stephanie.wills@dtc.ox.ac.uk

>  <submitter_institution>  (155) 
University of Oxford

>  <generation_date>  (155) 
2020-06-04

>  <method>  (155) 
Fragment network

>  <ref_mols>  (155) 
x0176_0B,x0212_0B

>  <ref_pdb>  (155) 
references/x0176-0B-x0212-0B-186825.holo_minimised_nolig.pdb

>  <original SMILES>  (155) 
CC(C)(C)c1ccc(NC(=O)CON=C(N)c2ccccc2)cc1

>  <synthon>  (155) 
[Xe]c1ccccc1

>  <original_name>  (155) 
x0176-0B-x0212-0B-186825

>  <comRMSD_score>  (155) 
0.8989069691188476

>  <IF_score>  (155) 
0.5357142857142857

>  <SuCOS_score>  (155) 
0.4456156116177332

>  <compound_ID>  (155) 
MOLPORT:044-276-712

$$$$

     RDKit          3D

 26 27  0  0  0  0  0  0  0  0999 V2000
   -9.2920    2.6430  -77.7540 C   0  0  0  0  0  0  0  0  0  0  0  0
   -7.8900    3.1070  -77.4070 C   0  0  0  0  0  0  0  0  0  0  0  0
   -6.9340    2.1220  -77.8710 N   0  0  0  0  0  0  0  0  0  0  0  0
   -6.7220    0.9520  -76.9790 C   0  0  0  0  0  0  0  0  0  0  0  0
   -6.7030    1.9390  -79.2370 C   0  0  0  0  0  0  0  0  0  0  0  0
   -7.9280   -0.0090  -76.7970 C   0  0  1  0  0  0  0  0  0  0  0  0
   -5.6560    2.2590  -79.8030 O   0  0  0  0  0  0  0  0  0  0  0  0
   -7.7620    1.3200  -80.0560 C   0  0  0  0  0  0  0  0  0  0  0  0
   -7.4940   -1.2900  -76.3030 O   0  0  0  0  0  0  0  0  0  0  0  0
   -9.0660    0.5240  -75.9260 C   0  0  0  0  0  0  0  0  0  0  0  0
   -8.2770    1.9820  -81.1760 C   0  0  0  0  0  0  0  0  0  0  0  0
   -8.2410    0.0620  -79.6930 C   0  0  0  0  0  0  0  0  0  0  0  0
   -8.8470    1.9210  -75.6840 O   0  0  0  0  0  0  0  0  0  0  0  0
   -9.2730    1.3650  -81.9200 C   0  0  0  0  0  0  0  0  0  0  0  0
   -9.2420   -0.5430  -80.4450 C   0  0  0  0  0  0  0  0  0  0  0  0
   -9.8000    2.8020  -76.0970 C   0  0  0  0  0  0  0  0  0  0  0  0
   -9.7550    0.1090  -81.5540 C   0  0  0  0  0  0  0  0  0  0  0  0
  -10.9920    2.6960  -75.4250 C   0  0  0  0  0  0  0  0  0  0  0  0
   -9.6510    3.7480  -77.1040 C   0  0  0  0  0  0  0  0  0  0  0  0
  -12.0390    3.5390  -75.7510 C   0  0  0  0  0  0  0  0  0  0  0  0
  -10.6970    4.6000  -77.4410 C   0  0  0  0  0  0  0  0  0  0  0  0
  -11.8980    4.4960  -76.7560 C   0  0  0  0  0  0  0  0  0  0  0  0
  -13.0450    5.4050  -77.0810 C   0  0  0  0  0  0  0  0  0  0  0  0
  -13.4060    6.2470  -75.8700 C   0  0  0  0  0  0  0  0  0  0  0  0
  -12.5660    5.9270  -74.7610 O   0  0  0  0  0  0  0  0  0  0  0  0
  -12.2200    7.0870  -73.9980 C   0  0  0  0  0  0  0  0  0  0  0  0
  1  2  1  0
  2  3  1  0
  3  4  1  0
  3  5  1  0
  4  6  1  0
  5  7  2  0
  5  8  1  0
  6  9  1  1
  6 10  1  0
  8 11  2  0
  8 12  1  0
 10 13  1  0
 11 14  1  0
 12 15  2  0
 13 16  1  0
 14 17  2  0
 15 17  1  0
 16 18  2  0
 16 19  1  0
 18 20  1  0
 19 21  2  0
 20 22  2  0
 21 22  1  0
 22 23  1  0
 23 24  1  0
 24 25  1  0
 25 26  1  0
M  END
>  <ref_url>  (156) 
https://fakepage.com

>  <submitter_name>  (156) 
Steph Wills

>  <submitter_email>  (156) 
stephanie.wills@dtc.ox.ac.uk

>  <submitter_institution>  (156) 
University of Oxford

>  <generation_date>  (156) 
2020-06-04

>  <method>  (156) 
Fragment network

>  <ref_mols>  (156) 
x0176_0B,x0212_0B

>  <ref_pdb>  (156) 
references/x0176-0B-x0212-0B-187179.holo_minimised_nolig.pdb

>  <original SMILES>  (156) 
CCN(CC(O)COc1ccc(CCOC)cc1)C(=O)c1ccccc1

>  <synthon>  (156) 
[Xe]c1ccccc1

>  <original_name>  (156) 
x0176-0B-x0212-0B-187179

>  <comRMSD_score>  (156) 
0.9723471396574364

>  <IF_score>  (156) 
0.9

>  <SuCOS_score>  (156) 
0.5307350322856977

>  <compound_ID>  (156) 
REAL:Z2231848752

$$$$

     RDKit          3D

 22 23  0  0  0  0  0  0  0  0999 V2000
  -13.4470    6.0530  -76.0430 C   0  0  0  0  0  0  0  0  0  0  0  0
  -13.2170    5.0260  -77.1310 C   0  0  0  0  0  0  0  0  0  0  0  0
  -11.8400    4.4070  -76.9470 C   0  0  0  0  0  0  0  0  0  0  0  0
  -11.6880    3.3520  -75.9160 C   0  0  0  0  0  0  0  0  0  0  0  0
  -10.7250    4.7710  -77.6860 C   0  0  0  0  0  0  0  0  0  0  0  0
  -10.4540    2.7590  -75.7230 C   0  0  0  0  0  0  0  0  0  0  0  0
   -9.4990    4.1320  -77.4500 C   0  0  0  0  0  0  0  0  0  0  0  0
   -9.3640    3.1440  -76.4880 C   0  0  0  0  0  0  0  0  0  0  0  0
   -8.1400    2.4470  -76.2010 N   0  0  0  0  0  0  0  0  0  0  0  0
   -7.0070    2.7030  -76.8840 C   0  0  0  0  0  0  0  0  0  0  0  0
   -6.1820    3.5670  -76.6330 O   0  0  0  0  0  0  0  0  0  0  0  0
   -6.8920    1.8210  -77.9340 N   0  0  0  0  0  0  0  0  0  0  0  0
   -6.3980    2.1550  -79.3190 C   0  0  1  0  0  0  0  0  0  0  0  0
   -6.7310    3.6150  -79.6680 C   0  0  0  0  0  0  0  0  0  0  0  0
   -4.9010    1.9050  -79.4660 C   0  0  0  0  0  0  0  0  0  0  0  0
   -7.1310    1.1540  -80.1860 C   0  0  0  0  0  0  0  0  0  0  0  0
   -4.4090    1.9540  -80.7730 C   0  0  0  0  0  0  0  0  0  0  0  0
   -7.4900    1.4610  -81.4920 C   0  0  0  0  0  0  0  0  0  0  0  0
   -7.4870   -0.1060  -79.6840 C   0  0  0  0  0  0  0  0  0  0  0  0
   -8.1710    0.5810  -82.3110 C   0  0  0  0  0  0  0  0  0  0  0  0
   -8.1800   -1.0120  -80.4970 C   0  0  0  0  0  0  0  0  0  0  0  0
   -8.5190   -0.6680  -81.8020 C   0  0  0  0  0  0  0  0  0  0  0  0
  1  2  1  0
  2  3  1  0
  3  4  2  0
  3  5  1  0
  4  6  1  0
  5  7  2  0
  6  8  2  0
  7  8  1  0
  8  9  1  0
  9 10  1  0
 10 11  2  0
 10 12  1  0
 13 12  1  0
 13 14  1  6
 13 15  1  0
 13 16  1  0
 15 17  1  0
 16 18  2  0
 16 19  1  0
 18 20  1  0
 19 21  2  0
 20 22  2  0
 21 22  1  0
M  END
>  <ref_url>  (157) 
https://fakepage.com

>  <submitter_name>  (157) 
Steph Wills

>  <submitter_email>  (157) 
stephanie.wills@dtc.ox.ac.uk

>  <submitter_institution>  (157) 
University of Oxford

>  <generation_date>  (157) 
2020-06-04

>  <method>  (157) 
Fragment network

>  <ref_mols>  (157) 
x0176_0B,x0212_0B

>  <ref_pdb>  (157) 
references/x0176-0B-x0212-0B-192803.holo_minimised_nolig.pdb

>  <original SMILES>  (157) 
CCc1ccc(NC(=O)NC(C)(CC)c2ccccc2)cc1

>  <synthon>  (157) 
[Xe]c1ccccc1

>  <original_name>  (157) 
x0176-0B-x0212-0B-192803

>  <comRMSD_score>  (157) 
0.8730033617147283

>  <IF_score>  (157) 
0.5

>  <SuCOS_score>  (157) 
0.4436829794767939

>  <compound_ID>  (157) 
REAL:PV-001941292203

$$$$

     RDKit          3D

 24 25  0  0  0  0  0  0  0  0999 V2000
   -8.9430    4.0350  -78.8200 C   0  0  0  0  0  0  0  0  0  0  0  0
   -8.1130    3.6440  -77.5560 C   0  0  0  0  0  0  0  0  0  0  0  0
   -7.2830    2.4890  -77.8560 N   0  0  0  0  0  0  0  0  0  0  0  0
   -7.4470    1.3530  -77.0590 C   0  0  0  0  0  0  0  0  0  0  0  0
   -6.7270    2.3040  -79.1500 C   0  0  2  0  0  0  0  0  0  0  0  0
   -6.5800    0.2170  -77.1030 O   0  0  0  0  0  0  0  0  0  0  0  0
   -8.6120    1.4520  -76.1800 N   0  0  0  0  0  0  0  0  0  0  0  0
   -6.2460    3.4250  -79.8460 C   0  0  0  0  0  0  0  0  0  0  0  0
   -7.7870    1.5710  -80.0330 C   0  0  0  0  0  0  0  0  0  0  0  0
   -9.6860    2.3510  -76.3380 C   0  0  0  0  0  0  0  0  0  0  0  0
   -5.7160    4.3700  -79.2690 O   0  0  0  0  0  0  0  0  0  0  0  0
   -8.2260    0.2250  -79.5000 C   0  0  0  0  0  0  0  0  0  0  0  0
   -8.3320    2.0540  -81.2230 C   0  0  0  0  0  0  0  0  0  0  0  0
  -10.8580    2.2000  -75.5910 C   0  0  0  0  0  0  0  0  0  0  0  0
   -9.6320    3.4190  -77.2410 C   0  0  0  0  0  0  0  0  0  0  0  0
   -9.2600   -0.5200  -80.3230 C   0  0  0  0  0  0  0  0  0  0  0  0
   -9.2810    1.3090  -81.9300 C   0  0  0  0  0  0  0  0  0  0  0  0
  -11.9410    3.0760  -75.7400 C   0  0  0  0  0  0  0  0  0  0  0  0
  -10.6790    4.3040  -77.4160 C   0  0  0  0  0  0  0  0  0  0  0  0
   -9.7370    0.0590  -81.4970 C   0  0  0  0  0  0  0  0  0  0  0  0
  -11.8620    4.2070  -76.7170 C   0  0  0  0  0  0  0  0  0  0  0  0
  -12.9200    5.0890  -76.9070 C   0  0  0  0  0  0  0  0  0  0  0  0
  -12.5810    6.2250  -77.6290 C   0  0  0  0  0  0  0  0  0  0  0  0
  -13.3640    5.6030  -75.5520 C   0  0  0  0  0  0  0  0  0  0  0  0
  1  2  1  0
  2  3  1  0
  3  4  1  0
  3  5  1  0
  4  6  2  0
  4  7  1  0
  5  8  1  6
  5  9  1  0
  7 10  1  0
  8 11  1  0
  9 12  2  0
  9 13  1  0
 10 14  2  0
 10 15  1  0
 12 16  1  0
 13 17  2  0
 14 18  1  0
 15 19  2  0
 16 20  2  0
 17 20  1  0
 18 21  2  0
 19 21  1  0
 21 22  1  0
 22 23  1  0
 22 24  1  0
M  END
>  <ref_url>  (158) 
https://fakepage.com

>  <submitter_name>  (158) 
Steph Wills

>  <submitter_email>  (158) 
stephanie.wills@dtc.ox.ac.uk

>  <submitter_institution>  (158) 
University of Oxford

>  <generation_date>  (158) 
2020-06-04

>  <method>  (158) 
Fragment network

>  <ref_mols>  (158) 
x0176_0B,x0212_0B

>  <ref_pdb>  (158) 
references/x0176-0B-x0212-0B-193922.holo_minimised_nolig.pdb

>  <original SMILES>  (158) 
CCN(C(=O)Nc1ccc(C(C)C)cc1)C(CO)c1ccccc1

>  <synthon>  (158) 
[Xe]c1ccccc1

>  <original_name>  (158) 
x0176-0B-x0212-0B-193922

>  <comRMSD_score>  (158) 
0.6694390686736675

>  <IF_score>  (158) 
0.675

>  <SuCOS_score>  (158) 
0.5377603004494425

>  <compound_ID>  (158) 
REAL:PV-001940566784

$$$$

     RDKit          3D

 18 19  0  0  0  0  0  0  0  0999 V2000
  -14.0170    4.7080  -76.8170 O   0  0  0  0  0  0  0  0  0  0  0  0
  -12.8720    5.1280  -76.8840 C   0  0  0  0  0  0  0  0  0  0  0  0
  -12.6150    6.4270  -77.1050 O   0  0  0  0  0  0  0  0  0  0  0  0
  -11.6300    4.2580  -76.7180 C   0  0  0  0  0  0  0  0  0  0  0  0
  -11.7530    3.1770  -75.6920 C   0  0  0  0  0  0  0  0  0  0  0  0
  -10.4450    4.3990  -77.4330 C   0  0  0  0  0  0  0  0  0  0  0  0
  -10.6610    2.3380  -75.4790 C   0  0  0  0  0  0  0  0  0  0  0  0
   -9.3760    3.5290  -77.1750 C   0  0  0  0  0  0  0  0  0  0  0  0
   -9.4910    2.5180  -76.2110 C   0  0  0  0  0  0  0  0  0  0  0  0
   -8.0830    3.6730  -77.9250 C   0  0  0  0  0  0  0  0  0  0  0  0
   -7.4070    2.4320  -77.9240 O   0  0  0  0  0  0  0  0  0  0  0  0
   -6.8130    2.1960  -79.1880 C   0  0  0  0  0  0  0  0  0  0  0  0
   -7.8680    1.3990  -79.9740 C   0  0  0  0  0  0  0  0  0  0  0  0
   -8.3920    2.0230  -81.2650 C   0  0  0  0  0  0  0  0  0  0  0  0
   -8.3580    0.1510  -79.5560 C   0  0  0  0  0  0  0  0  0  0  0  0
   -9.3430    1.2940  -81.9560 C   0  0  0  0  0  0  0  0  0  0  0  0
   -9.3170   -0.4750  -80.3490 C   0  0  0  0  0  0  0  0  0  0  0  0
   -9.8160    0.0590  -81.5250 C   0  0  0  0  0  0  0  0  0  0  0  0
  1  2  2  0
  2  3  1  0
  2  4  1  0
  4  5  2  0
  4  6  1  0
  5  7  1  0
  6  8  2  0
  7  9  2  0
  8  9  1  0
  8 10  1  0
 10 11  1  0
 11 12  1  0
 12 13  1  0
 13 14  2  0
 13 15  1  0
 14 16  1  0
 15 17  2  0
 16 18  2  0
 17 18  1  0
M  END
>  <ref_url>  (159) 
https://fakepage.com

>  <submitter_name>  (159) 
Steph Wills

>  <submitter_email>  (159) 
stephanie.wills@dtc.ox.ac.uk

>  <submitter_institution>  (159) 
University of Oxford

>  <generation_date>  (159) 
2020-06-04

>  <method>  (159) 
Fragment network

>  <ref_mols>  (159) 
x0176_0B,x0212_0B

>  <ref_pdb>  (159) 
references/x0176-0B-x0212-0B-195934.holo_minimised_nolig.pdb

>  <original SMILES>  (159) 
O=C(O)c1cccc(COCc2ccccc2)c1

>  <synthon>  (159) 
[Xe]c1ccccc1

>  <original_name>  (159) 
x0176-0B-x0212-0B-195934

>  <comRMSD_score>  (159) 
0.7656498234662592

>  <IF_score>  (159) 
0.625

>  <SuCOS_score>  (159) 
0.4502568013277712

>  <compound_ID>  (159) 
CHEMSPACE-BB:CSMB00011223735

$$$$

     RDKit          3D

 23 24  0  0  0  0  0  0  0  0999 V2000
  -13.3750    6.1290  -76.3380 C   0  0  0  0  0  0  0  0  0  0  0  0
  -12.9160    5.1750  -77.4320 C   0  0  0  0  0  0  0  0  0  0  0  0
  -11.8370    4.3640  -77.1060 C   0  0  0  0  0  0  0  0  0  0  0  0
  -10.5640    4.4360  -77.8620 C   0  0  0  0  0  0  0  0  0  0  0  0
  -11.8940    3.4480  -76.0570 C   0  0  0  0  0  0  0  0  0  0  0  0
   -9.4750    3.6460  -77.5660 C   0  0  0  0  0  0  0  0  0  0  0  0
  -10.7790    2.6480  -75.7660 C   0  0  0  0  0  0  0  0  0  0  0  0
   -9.5960    2.7430  -76.5060 C   0  0  0  0  0  0  0  0  0  0  0  0
   -8.5120    1.9350  -76.1950 N   0  0  0  0  0  0  0  0  0  0  0  0
   -7.4030    1.7670  -76.9560 C   0  0  0  0  0  0  0  0  0  0  0  0
   -6.5080    0.7550  -76.7250 O   0  0  0  0  0  0  0  0  0  0  0  0
   -7.2240    2.6850  -77.9930 N   0  0  0  0  0  0  0  0  0  0  0  0
   -6.4140    2.6290  -79.1240 C   0  0  2  0  0  0  0  0  0  0  0  0
   -6.3820    3.7810  -79.9420 C   0  0  0  0  0  0  0  0  0  0  0  0
   -7.0430    1.5230  -80.0280 C   0  0  0  0  0  0  0  0  0  0  0  0
   -4.6960    4.5170  -80.0500 S   0  0  0  0  0  0  0  0  0  0  0  0
   -7.3400    1.7160  -81.3750 C   0  0  0  0  0  0  0  0  0  0  0  0
   -7.3660    0.2390  -79.5150 C   0  0  0  0  0  0  0  0  0  0  0  0
   -4.4190    4.5660  -78.2930 C   0  0  0  0  0  0  0  0  0  0  0  0
   -4.7420    5.8830  -80.5770 O   0  0  0  0  0  0  0  0  0  0  0  0
   -7.9480    0.6890  -82.2510 C   0  0  0  0  0  0  0  0  0  0  0  0
   -7.9550   -0.7680  -80.3320 C   0  0  0  0  0  0  0  0  0  0  0  0
   -8.2470   -0.5510  -81.6920 C   0  0  0  0  0  0  0  0  0  0  0  0
  1  2  1  0
  2  3  1  0
  3  4  2  0
  3  5  1  0
  4  6  1  0
  5  7  2  0
  6  8  2  0
  7  8  1  0
  8  9  1  0
  9 10  1  0
 10 11  2  0
 10 12  1  0
 12 13  1  0
 13 14  1  6
 13 15  1  0
 14 16  1  0
 15 17  2  0
 15 18  1  0
 16 19  1  1
 16 20  1  0
 17 21  1  0
 18 22  2  0
 21 23  2  0
 22 23  1  0
M  CHG  2  16   1  20  -1
M  END
>  <ref_url>  (160) 
https://fakepage.com

>  <submitter_name>  (160) 
Steph Wills

>  <submitter_email>  (160) 
stephanie.wills@dtc.ox.ac.uk

>  <submitter_institution>  (160) 
University of Oxford

>  <generation_date>  (160) 
2020-06-04

>  <method>  (160) 
Fragment network

>  <ref_mols>  (160) 
x0176_0B,x0212_0B

>  <ref_pdb>  (160) 
references/x0176-0B-x0212-0B-197117.holo_minimised_nolig.pdb

>  <original SMILES>  (160) 
CCc1ccc(NC(=O)NC(C[S+](C)[O-])c2ccccc2)cc1

>  <synthon>  (160) 
[Xe]c1ccccc1

>  <original_name>  (160) 
x0176-0B-x0212-0B-197117

>  <comRMSD_score>  (160) 
0.9867650044022852

>  <IF_score>  (160) 
0.25

>  <SuCOS_score>  (160) 
0.4708392793246756

>  <compound_ID>  (160) 
REAL:Z1341993439

$$$$

     RDKit          3D

 22 23  0  0  0  0  0  0  0  0999 V2000
  -12.7680    6.2890  -74.0140 N   0  0  0  0  0  0  0  0  0  0  0  0
  -12.8850    6.5800  -75.1450 C   0  0  0  0  0  0  0  0  0  0  0  0
  -12.4280    7.8380  -75.6480 O   0  0  0  0  0  0  0  0  0  0  0  0
  -13.5100    5.6130  -75.9170 N   0  0  0  0  0  0  0  0  0  0  0  0
  -12.9880    5.2260  -77.2120 C   0  0  0  0  0  0  0  0  0  0  0  0
  -11.7270    4.3760  -77.0410 C   0  0  0  0  0  0  0  0  0  0  0  0
  -11.7550    3.3670  -75.8810 C   0  0  0  0  0  0  0  0  0  0  0  0
  -10.6200    4.5040  -77.8750 C   0  0  0  0  0  0  0  0  0  0  0  0
  -10.5020    2.5640  -75.7460 C   0  0  0  0  0  0  0  0  0  0  0  0
   -9.4930    3.7170  -77.6780 C   0  0  0  0  0  0  0  0  0  0  0  0
   -9.4440    2.7690  -76.6300 C   0  0  0  0  0  0  0  0  0  0  0  0
   -8.2810    2.0690  -76.5480 N   0  0  0  0  0  0  0  0  0  0  0  0
   -7.1270    2.7040  -76.8750 C   0  0  0  0  0  0  0  0  0  0  0  0
   -6.3620    4.1960  -76.1530 S   0  0  0  0  0  0  0  0  0  0  0  0
   -6.4260    2.1060  -77.8760 N   0  0  0  0  0  0  0  0  0  0  0  0
   -6.4910    2.3320  -79.2780 C   0  0  0  0  0  0  0  0  0  0  0  0
   -7.1240    1.2270  -80.0890 C   0  0  0  0  0  0  0  0  0  0  0  0
   -7.3940    1.5770  -81.5240 C   0  0  0  0  0  0  0  0  0  0  0  0
   -7.4770   -0.0400  -79.5960 C   0  0  0  0  0  0  0  0  0  0  0  0
   -7.9930    0.6510  -82.3780 C   0  0  0  0  0  0  0  0  0  0  0  0
   -8.0880   -0.9830  -80.4470 C   0  0  0  0  0  0  0  0  0  0  0  0
   -8.3580   -0.6930  -81.8020 C   0  0  0  0  0  0  0  0  0  0  0  0
  1  2  1  0
  2  3  2  0
  2  4  1  0
  4  5  1  0
  5  6  1  0
  6  7  2  0
  6  8  1  0
  7  9  1  0
  8 10  2  0
  9 11  2  0
 10 11  1  0
 11 12  1  0
 12 13  1  0
 13 14  2  0
 13 15  1  0
 15 16  1  0
 16 17  1  0
 17 18  2  0
 17 19  1  0
 18 20  1  0
 19 21  2  0
 20 22  2  0
 21 22  1  0
M  END
>  <ref_url>  (161) 
https://fakepage.com

>  <submitter_name>  (161) 
Steph Wills

>  <submitter_email>  (161) 
stephanie.wills@dtc.ox.ac.uk

>  <submitter_institution>  (161) 
University of Oxford

>  <generation_date>  (161) 
2020-06-04

>  <method>  (161) 
Fragment network

>  <ref_mols>  (161) 
x0176_0B,x0212_0B

>  <ref_pdb>  (161) 
references/x0176-0B-x0212-0B-197510.holo_minimised_nolig.pdb

>  <original SMILES>  (161) 
NC(=O)NCc1ccc(NC(=S)NCc2ccccc2)cc1

>  <synthon>  (161) 
[Xe]c1ccccc1

>  <original_name>  (161) 
x0176-0B-x0212-0B-197510

>  <comRMSD_score>  (161) 
0.8351696741473461

>  <IF_score>  (161) 
0.1428571428571428

>  <SuCOS_score>  (161) 
0.4699942144778549

>  <compound_ID>  (161) 
MOLPORT:046-438-860

$$$$

     RDKit          3D

 21 22  0  0  0  0  0  0  0  0999 V2000
  -13.6360    5.6840  -76.1200 C   0  0  0  0  0  0  0  0  0  0  0  0
  -13.1370    4.9520  -77.3440 C   0  0  0  0  0  0  0  0  0  0  0  0
  -13.7350    4.8910  -78.4120 O   0  0  0  0  0  0  0  0  0  0  0  0
  -11.8180    4.2970  -77.0910 C   0  0  0  0  0  0  0  0  0  0  0  0
  -10.7330    4.5460  -77.9190 C   0  0  0  0  0  0  0  0  0  0  0  0
  -11.6890    3.4330  -76.0010 C   0  0  0  0  0  0  0  0  0  0  0  0
   -9.5160    3.9380  -77.6600 C   0  0  0  0  0  0  0  0  0  0  0  0
  -10.4670    2.8240  -75.7450 C   0  0  0  0  0  0  0  0  0  0  0  0
   -9.3860    3.0820  -76.5740 C   0  0  0  0  0  0  0  0  0  0  0  0
   -8.2020    2.4480  -76.2570 N   0  0  0  0  0  0  0  0  0  0  0  0
   -7.4130    1.8380  -77.1680 C   0  0  0  0  0  0  0  0  0  0  0  0
   -6.9860    0.6920  -77.1040 O   0  0  0  0  0  0  0  0  0  0  0  0
   -7.1340    2.6850  -78.2050 N   0  0  0  0  0  0  0  0  0  0  0  0
   -6.3550    2.2410  -79.3460 C   0  0  0  0  0  0  0  0  0  0  0  0
   -5.0240    2.6570  -79.6570 O   0  0  0  0  0  0  0  0  0  0  0  0
   -7.0420    1.2590  -80.2240 C   0  0  0  0  0  0  0  0  0  0  0  0
   -7.4080   -0.0830  -79.6980 C   0  0  0  0  0  0  0  0  0  0  0  0
   -7.3780    1.5570  -81.5590 C   0  0  0  0  0  0  0  0  0  0  0  0
   -8.0580   -0.9750  -80.5510 C   0  0  0  0  0  0  0  0  0  0  0  0
   -8.0320    0.6090  -82.3750 C   0  0  0  0  0  0  0  0  0  0  0  0
   -8.3740   -0.6580  -81.8700 C   0  0  0  0  0  0  0  0  0  0  0  0
  1  2  1  0
  2  3  2  0
  2  4  1  0
  4  5  2  0
  4  6  1  0
  5  7  1  0
  6  8  2  0
  7  9  2  0
  8  9  1  0
  9 10  1  0
 10 11  1  0
 11 12  2  0
 11 13  1  0
 13 14  1  0
 14 15  2  0
 14 16  1  0
 16 17  2  0
 16 18  1  0
 17 19  1  0
 18 20  2  0
 19 21  2  0
 20 21  1  0
M  END
>  <ref_url>  (162) 
https://fakepage.com

>  <submitter_name>  (162) 
Steph Wills

>  <submitter_email>  (162) 
stephanie.wills@dtc.ox.ac.uk

>  <submitter_institution>  (162) 
University of Oxford

>  <generation_date>  (162) 
2020-06-04

>  <method>  (162) 
Fragment network

>  <ref_mols>  (162) 
x0176_0B,x0212_0B

>  <ref_pdb>  (162) 
references/x0176-0B-x0212-0B-198159.holo_minimised_nolig.pdb

>  <original SMILES>  (162) 
CC(=O)c1ccc(NC(=O)NC(=O)c2ccccc2)cc1

>  <synthon>  (162) 
[Xe]c1ccccc1

>  <original_name>  (162) 
x0176-0B-x0212-0B-198159

>  <comRMSD_score>  (162) 
0.9589027366387752

>  <IF_score>  (162) 
0.1428571428571428

>  <SuCOS_score>  (162) 
0.4323055557244271

>  <compound_ID>  (162) 
MOLPORT:009-309-891

$$$$

     RDKit          3D

 23 24  0  0  0  0  0  0  0  0999 V2000
  -13.7540    5.7870  -76.6200 C   0  0  0  0  0  0  0  0  0  0  0  0
  -13.1640    4.8680  -77.6860 C   0  0  0  0  0  0  0  0  0  0  0  0
  -14.1360    3.7270  -77.9890 C   0  0  0  0  0  0  0  0  0  0  0  0
  -11.8320    4.3640  -77.1920 C   0  0  0  0  0  0  0  0  0  0  0  0
  -10.6710    4.5660  -77.9140 C   0  0  0  0  0  0  0  0  0  0  0  0
  -11.7420    3.6850  -75.9800 C   0  0  0  0  0  0  0  0  0  0  0  0
   -9.4260    4.1490  -77.4930 C   0  0  0  0  0  0  0  0  0  0  0  0
  -10.5030    3.2490  -75.5170 C   0  0  0  0  0  0  0  0  0  0  0  0
   -9.3390    3.4890  -76.2620 C   0  0  0  0  0  0  0  0  0  0  0  0
   -7.9860    3.0970  -75.8420 N   0  0  0  0  0  0  0  0  0  0  0  0
   -7.0650    3.1820  -76.9510 C   0  0  0  0  0  0  0  0  0  0  0  0
   -6.0440    3.8610  -76.9880 O   0  0  0  0  0  0  0  0  0  0  0  0
   -7.5300    2.3710  -77.9400 N   0  0  0  0  0  0  0  0  0  0  0  0
   -8.9620    2.0600  -78.0190 C   0  0  0  0  0  0  0  0  0  0  0  0
   -6.9140    2.2470  -79.2490 C   0  0  0  0  0  0  0  0  0  0  0  0
   -9.5220    1.5830  -76.8230 C   0  0  0  0  0  0  0  0  0  0  0  0
   -7.7520    1.4730  -80.0100 C   0  0  0  0  0  0  0  0  0  0  0  0
  -10.1950    0.3570  -77.1220 O   0  0  0  0  0  0  0  0  0  0  0  0
   -8.0990    0.1970  -79.5700 C   0  0  0  0  0  0  0  0  0  0  0  0
   -8.2790    1.9340  -81.2090 C   0  0  0  0  0  0  0  0  0  0  0  0
   -8.9530   -0.6270  -80.2770 C   0  0  0  0  0  0  0  0  0  0  0  0
   -9.1350    1.1140  -81.9300 C   0  0  0  0  0  0  0  0  0  0  0  0
   -9.4740   -0.1590  -81.4620 C   0  0  0  0  0  0  0  0  0  0  0  0
  1  2  1  0
  2  3  1  0
  2  4  1  0
  4  5  2  0
  4  6  1  0
  5  7  1  0
  6  8  2  0
  7  9  2  0
  8  9  1  0
  9 10  1  0
 10 11  1  0
 11 12  2  0
 11 13  1  0
 13 14  1  0
 13 15  1  0
 14 16  1  0
 15 17  1  0
 16 18  1  0
 17 19  2  0
 17 20  1  0
 19 21  1  0
 20 22  2  0
 21 23  2  0
 22 23  1  0
M  END
>  <ref_url>  (163) 
https://fakepage.com

>  <submitter_name>  (163) 
Steph Wills

>  <submitter_email>  (163) 
stephanie.wills@dtc.ox.ac.uk

>  <submitter_institution>  (163) 
University of Oxford

>  <generation_date>  (163) 
2020-06-04

>  <method>  (163) 
Fragment network

>  <ref_mols>  (163) 
x0176_0B,x0212_0B

>  <ref_pdb>  (163) 
references/x0176-0B-x0212-0B-199368.holo_minimised_nolig.pdb

>  <original SMILES>  (163) 
CC(C)c1ccc(NC(=O)N(CCO)Cc2ccccc2)cc1

>  <synthon>  (163) 
[Xe]c1ccccc1

>  <original_name>  (163) 
x0176-0B-x0212-0B-199368

>  <comRMSD_score>  (163) 
0.6770337477941366

>  <IF_score>  (163) 
0.375

>  <SuCOS_score>  (163) 
0.5295422714971201

>  <compound_ID>  (163) 
REAL:Z594343014

$$$$

     RDKit          3D

 24 25  0  0  0  0  0  0  0  0999 V2000
  -13.7110    5.8050  -75.9890 C   0  0  0  0  0  0  0  0  0  0  0  0
  -12.7560    5.5480  -77.1180 C   0  0  0  0  0  0  0  0  0  0  0  0
  -12.9260    6.1230  -78.1770 O   0  0  0  0  0  0  0  0  0  0  0  0
  -11.6300    4.5910  -76.8840 C   0  0  0  0  0  0  0  0  0  0  0  0
  -11.7520    3.6890  -75.8360 C   0  0  0  0  0  0  0  0  0  0  0  0
  -10.4830    4.5930  -77.6760 C   0  0  0  0  0  0  0  0  0  0  0  0
  -10.7400    2.7890  -75.5740 C   0  0  0  0  0  0  0  0  0  0  0  0
   -9.4570    3.6850  -77.4080 C   0  0  0  0  0  0  0  0  0  0  0  0
   -9.5890    2.7790  -76.3470 C   0  0  0  0  0  0  0  0  0  0  0  0
   -8.6690    1.8400  -75.9720 N   0  0  0  0  0  0  0  0  0  0  0  0
   -7.7420    1.2850  -76.9260 C   0  0  0  0  0  0  0  0  0  0  0  0
   -7.3450   -0.0840  -77.0110 O   0  0  0  0  0  0  0  0  0  0  0  0
   -7.2710    2.2730  -77.7760 N   0  0  0  0  0  0  0  0  0  0  0  0
   -6.6960    2.1730  -78.9950 C   0  0  1  0  0  0  0  0  0  0  0  0
   -7.7550    1.5600  -79.9730 C   0  0  0  0  0  0  0  0  0  0  0  0
   -6.0020    3.5340  -79.3540 C   0  0  0  0  0  0  0  0  0  0  0  0
   -8.2960    0.1850  -79.5600 C   0  0  0  0  0  0  0  0  0  0  0  0
   -8.2460    2.1350  -81.1680 C   0  0  0  0  0  0  0  0  0  0  0  0
   -4.9210    3.3330  -80.2090 C   0  0  0  0  0  0  0  0  0  0  0  0
   -6.9740    4.4730  -80.0210 C   0  0  0  0  0  0  0  0  0  0  0  0
   -5.4680    4.2440  -78.0820 C   0  0  0  0  0  0  0  0  0  0  0  0
   -9.2380   -0.4110  -80.3830 C   0  0  0  0  0  0  0  0  0  0  0  0
   -9.1930    1.4220  -81.9030 C   0  0  0  0  0  0  0  0  0  0  0  0
   -9.6970    0.1790  -81.5460 C   0  0  0  0  0  0  0  0  0  0  0  0
  1  2  1  0
  2  3  2  0
  2  4  1  0
  4  5  2  0
  4  6  1  0
  5  7  1  0
  6  8  2  0
  7  9  2  0
  8  9  1  0
  9 10  1  0
 10 11  1  0
 11 12  2  0
 11 13  1  0
 14 13  1  1
 14 15  1  0
 14 16  1  0
 15 17  2  0
 15 18  1  0
 16 19  1  0
 16 20  1  0
 16 21  1  0
 17 22  1  0
 18 23  2  0
 22 24  2  0
 23 24  1  0
M  END
>  <ref_url>  (164) 
https://fakepage.com

>  <submitter_name>  (164) 
Steph Wills

>  <submitter_email>  (164) 
stephanie.wills@dtc.ox.ac.uk

>  <submitter_institution>  (164) 
University of Oxford

>  <generation_date>  (164) 
2020-06-04

>  <method>  (164) 
Fragment network

>  <ref_mols>  (164) 
x0176_0B,x0212_0B

>  <ref_pdb>  (164) 
references/x0176-0B-x0212-0B-201467.holo_minimised_nolig.pdb

>  <original SMILES>  (164) 
CC(=O)c1ccc(NC(=O)NC(c2ccccc2)C(C)(C)C)cc1

>  <synthon>  (164) 
[Xe]c1ccccc1

>  <original_name>  (164) 
x0176-0B-x0212-0B-201467

>  <comRMSD_score>  (164) 
0.681258043430776

>  <IF_score>  (164) 
0.8

>  <SuCOS_score>  (164) 
0.4935154843768025

>  <compound_ID>  (164) 
REAL:Z513353108

$$$$

     RDKit          3D

 25 26  0  0  0  0  0  0  0  0999 V2000
  -13.7380    5.6590  -78.4330 C   0  0  0  0  0  0  0  0  0  0  0  0
  -12.7360    5.6970  -77.2770 C   0  0  0  0  0  0  0  0  0  0  0  0
  -13.4020    5.7850  -75.8990 C   0  0  0  0  0  0  0  0  0  0  0  0
  -11.9480    4.3820  -77.3290 C   0  0  0  0  0  0  0  0  0  0  0  0
  -10.8820    4.1700  -78.3500 C   0  0  0  0  0  0  0  0  0  0  0  0
  -12.2070    3.3420  -76.4310 C   0  0  0  0  0  0  0  0  0  0  0  0
  -10.2000    2.9680  -78.4030 C   0  0  0  0  0  0  0  0  0  0  0  0
  -11.4910    2.1550  -76.5190 C   0  0  0  0  0  0  0  0  0  0  0  0
  -10.5100    1.9710  -77.4950 C   0  0  0  0  0  0  0  0  0  0  0  0
   -9.8570    0.7520  -77.4950 N   0  0  0  0  0  0  0  0  0  0  0  0
   -9.1260    0.7730  -76.2640 C   0  0  0  0  0  0  0  0  0  0  0  0
   -8.2960   -0.2830  -75.7840 O   0  0  0  0  0  0  0  0  0  0  0  0
   -9.3840    2.0300  -75.5720 N   0  0  0  0  0  0  0  0  0  0  0  0
   -8.9130    3.2530  -76.0050 C   0  0  0  0  0  0  0  0  0  0  0  0
   -8.3870    3.3630  -77.4060 C   0  0  0  0  0  0  0  0  0  0  0  0
   -8.8860    4.3080  -78.3420 O   0  0  0  0  0  0  0  0  0  0  0  0
   -7.3070    2.4310  -77.7270 N   0  0  0  0  0  0  0  0  0  0  0  0
   -6.4480    2.0720  -76.7190 C   0  0  0  0  0  0  0  0  0  0  0  0
   -6.8750    2.2190  -79.0400 C   0  0  0  0  0  0  0  0  0  0  0  0
   -7.7510    1.4710  -79.8290 C   0  0  0  0  0  0  0  0  0  0  0  0
   -8.2080    1.9540  -81.0530 C   0  0  0  0  0  0  0  0  0  0  0  0
   -8.1770    0.2210  -79.3750 C   0  0  0  0  0  0  0  0  0  0  0  0
   -9.0830    1.1890  -81.8000 C   0  0  0  0  0  0  0  0  0  0  0  0
   -9.0590   -0.5390  -80.1340 C   0  0  0  0  0  0  0  0  0  0  0  0
   -9.5140   -0.0540  -81.3420 C   0  0  0  0  0  0  0  0  0  0  0  0
  1  2  1  0
  2  3  1  0
  2  4  1  0
  4  5  2  0
  4  6  1  0
  5  7  1  0
  6  8  2  0
  7  9  2  0
  8  9  1  0
  9 10  1  0
 10 11  1  0
 11 12  2  0
 11 13  1  0
 13 14  1  0
 14 15  1  0
 15 16  2  0
 15 17  1  0
 17 18  1  0
 17 19  1  0
 19 20  1  0
 20 21  2  0
 20 22  1  0
 21 23  1  0
 22 24  2  0
 23 25  2  0
 24 25  1  0
M  END
>  <ref_url>  (165) 
https://fakepage.com

>  <submitter_name>  (165) 
Steph Wills

>  <submitter_email>  (165) 
stephanie.wills@dtc.ox.ac.uk

>  <submitter_institution>  (165) 
University of Oxford

>  <generation_date>  (165) 
2020-06-04

>  <method>  (165) 
Fragment network

>  <ref_mols>  (165) 
x0176_0B,x0212_0B

>  <ref_pdb>  (165) 
references/x0176-0B-x0212-0B-201510.holo_minimised_nolig.pdb

>  <original SMILES>  (165) 
CC(C)c1ccc(NC(=O)NCC(=O)N(C)Cc2ccccc2)cc1

>  <synthon>  (165) 
[Xe]c1ccccc1

>  <original_name>  (165) 
x0176-0B-x0212-0B-201510

>  <comRMSD_score>  (165) 
0.801824170251808

>  <IF_score>  (165) 
0.625

>  <SuCOS_score>  (165) 
0.5099344316955798

>  <compound_ID>  (165) 
REAL:Z603232640

$$$$

     RDKit          3D

 23 24  0  0  0  0  0  0  0  0999 V2000
  -12.5550    6.5100  -73.7340 C   0  0  0  0  0  0  0  0  0  0  0  0
  -13.2170    7.1270  -75.2710 S   0  0  0  0  0  0  0  0  0  0  0  0
  -14.3780    7.9340  -74.9660 O   0  0  0  0  0  0  0  0  0  0  0  0
  -12.1650    7.6690  -76.0960 O   0  0  0  0  0  0  0  0  0  0  0  0
  -13.8080    5.5760  -76.0320 C   0  0  0  0  0  0  0  0  0  0  0  0
  -13.0120    5.1540  -77.2580 C   0  0  0  0  0  0  0  0  0  0  0  0
  -11.7760    4.4200  -76.9160 C   0  0  0  0  0  0  0  0  0  0  0  0
  -10.6140    4.6840  -77.6000 C   0  0  0  0  0  0  0  0  0  0  0  0
  -11.7360    3.4450  -75.9060 C   0  0  0  0  0  0  0  0  0  0  0  0
   -9.4170    4.0420  -77.3540 C   0  0  0  0  0  0  0  0  0  0  0  0
  -10.5300    2.7750  -75.6320 C   0  0  0  0  0  0  0  0  0  0  0  0
   -9.3760    3.0770  -76.3570 C   0  0  0  0  0  0  0  0  0  0  0  0
   -8.0660    2.4790  -76.2040 N   0  0  0  0  0  0  0  0  0  0  0  0
   -7.8560    1.7530  -77.4400 C   0  0  0  0  0  0  0  0  0  0  0  0
   -8.3910    0.4530  -77.7340 O   0  0  0  0  0  0  0  0  0  0  0  0
   -7.0800    2.4940  -78.3070 N   0  0  0  0  0  0  0  0  0  0  0  0
   -6.2850    1.9060  -79.3810 C   0  0  0  0  0  0  0  0  0  0  0  0
   -7.0550    1.0600  -80.1990 C   0  0  0  0  0  0  0  0  0  0  0  0
   -7.5000   -0.1810  -79.7670 C   0  0  0  0  0  0  0  0  0  0  0  0
   -7.4390    1.4140  -81.5130 C   0  0  0  0  0  0  0  0  0  0  0  0
   -8.2630   -1.0200  -80.5530 C   0  0  0  0  0  0  0  0  0  0  0  0
   -8.2130    0.5710  -82.3350 C   0  0  0  0  0  0  0  0  0  0  0  0
   -8.6340   -0.6690  -81.8470 C   0  0  0  0  0  0  0  0  0  0  0  0
  2  1  1  0
  2  3  2  0
  2  4  2  0
  2  5  1  0
  5  6  1  0
  6  7  1  0
  7  8  2  0
  7  9  1  0
  8 10  1  0
  9 11  2  0
 10 12  2  0
 11 12  1  0
 12 13  1  0
 13 14  1  0
 14 15  2  0
 14 16  1  0
 16 17  1  0
 17 18  1  0
 18 19  2  0
 18 20  1  0
 19 21  1  0
 20 22  2  0
 21 23  2  0
 22 23  1  0
M  END
>  <ref_url>  (166) 
https://fakepage.com

>  <submitter_name>  (166) 
Steph Wills

>  <submitter_email>  (166) 
stephanie.wills@dtc.ox.ac.uk

>  <submitter_institution>  (166) 
University of Oxford

>  <generation_date>  (166) 
2020-06-04

>  <method>  (166) 
Fragment network

>  <ref_mols>  (166) 
x0176_0B,x0212_0B

>  <ref_pdb>  (166) 
references/x0176-0B-x0212-0B-203278.holo_minimised_nolig.pdb

>  <original SMILES>  (166) 
CS(=O)(=O)CCc1ccc(NC(=O)NCc2ccccc2)cc1

>  <synthon>  (166) 
[Xe]c1ccccc1

>  <original_name>  (166) 
x0176-0B-x0212-0B-203278

>  <comRMSD_score>  (166) 
0.8360268469905064

>  <IF_score>  (166) 
0.3541666666666666

>  <SuCOS_score>  (166) 
0.4929088314210601

>  <compound_ID>  (166) 
REAL:Z1481094506

$$$$

     RDKit          3D

 20 21  0  0  0  0  0  0  0  0999 V2000
   -8.2000    0.1310  -76.1080 C   0  0  0  0  0  0  0  0  0  0  0  0
   -8.4930    1.0140  -77.1920 O   0  0  0  0  0  0  0  0  0  0  0  0
   -7.4990    2.0660  -77.3810 N   0  0  0  0  0  0  0  0  0  0  0  0
   -7.0080    2.1270  -78.7250 C   0  0  0  0  0  0  0  0  0  0  0  0
   -7.9400    3.2980  -76.7990 C   0  0  0  0  0  0  0  0  0  0  0  0
   -7.9060    1.3420  -79.6570 C   0  0  0  0  0  0  0  0  0  0  0  0
   -9.4200    3.4540  -76.7690 C   0  0  0  0  0  0  0  0  0  0  0  0
   -8.2720    2.0040  -80.9980 C   0  0  0  0  0  0  0  0  0  0  0  0
   -8.3910    0.0850  -79.3220 C   0  0  0  0  0  0  0  0  0  0  0  0
   -9.9200    4.2710  -77.7520 C   0  0  0  0  0  0  0  0  0  0  0  0
  -10.2930    2.8710  -75.8420 C   0  0  0  0  0  0  0  0  0  0  0  0
   -9.1760    1.1710  -81.8490 C   0  0  0  0  0  0  0  0  0  0  0  0
   -9.2200   -0.5830  -80.1890 C   0  0  0  0  0  0  0  0  0  0  0  0
  -11.3540    4.5640  -77.8390 C   0  0  0  0  0  0  0  0  0  0  0  0
  -11.6760    3.1430  -75.9170 C   0  0  0  0  0  0  0  0  0  0  0  0
   -9.6130   -0.0840  -81.4020 C   0  0  0  0  0  0  0  0  0  0  0  0
  -12.1970    3.9990  -76.9170 C   0  0  0  0  0  0  0  0  0  0  0  0
  -13.5480    4.3050  -77.0120 C   0  0  0  0  0  0  0  0  0  0  0  0
  -14.0780    4.8280  -75.8290 C   0  0  0  0  0  0  0  0  0  0  0  0
  -13.4190    5.9960  -75.5610 N   0  0  0  0  0  0  0  0  0  0  0  0
  1  2  1  0
  2  3  1  0
  3  4  1  0
  3  5  1  0
  4  6  1  0
  5  7  1  0
  6  8  2  0
  6  9  1  0
  7 10  2  0
  7 11  1  0
  8 12  1  0
  9 13  2  0
 10 14  1  0
 11 15  2  0
 12 16  2  0
 13 16  1  0
 14 17  2  0
 15 17  1  0
 17 18  1  0
 18 19  1  0
 19 20  3  0
M  END
>  <ref_url>  (167) 
https://fakepage.com

>  <submitter_name>  (167) 
Steph Wills

>  <submitter_email>  (167) 
stephanie.wills@dtc.ox.ac.uk

>  <submitter_institution>  (167) 
University of Oxford

>  <generation_date>  (167) 
2020-06-04

>  <method>  (167) 
Fragment network

>  <ref_mols>  (167) 
x0176_0B,x0212_0B

>  <ref_pdb>  (167) 
references/x0176-0B-x0212-0B-204624.holo_minimised_nolig.pdb

>  <original SMILES>  (167) 
CON(Cc1ccccc1)Cc1ccc(CC#N)cc1

>  <synthon>  (167) 
[Xe]c1ccccc1

>  <original_name>  (167) 
x0176-0B-x0212-0B-204624

>  <comRMSD_score>  (167) 
0.9082367772108

>  <IF_score>  (167) 
0.375

>  <SuCOS_score>  (167) 
0.4566651230780785

>  <compound_ID>  (167) 
CHEMSPACE-BB:CSMB00117839967

$$$$

     RDKit          3D

 25 26  0  0  0  0  0  0  0  0999 V2000
  -13.4570    5.8630  -75.8780 C   0  0  0  0  0  0  0  0  0  0  0  0
  -13.0000    5.4400  -77.2510 C   0  0  0  0  0  0  0  0  0  0  0  0
  -13.3110    5.9720  -78.3030 O   0  0  0  0  0  0  0  0  0  0  0  0
  -12.1250    4.2360  -77.2760 C   0  0  0  0  0  0  0  0  0  0  0  0
  -10.9870    4.1230  -78.0740 C   0  0  0  0  0  0  0  0  0  0  0  0
  -12.4420    3.1510  -76.4700 C   0  0  0  0  0  0  0  0  0  0  0  0
  -10.2380    2.9440  -78.0370 C   0  0  0  0  0  0  0  0  0  0  0  0
  -11.7020    1.9880  -76.4340 C   0  0  0  0  0  0  0  0  0  0  0  0
  -10.5930    1.8730  -77.2280 C   0  0  0  0  0  0  0  0  0  0  0  0
   -9.7910    0.7530  -77.2550 N   0  0  0  0  0  0  0  0  0  0  0  0
   -8.8020    0.7640  -76.3430 C   0  0  0  0  0  0  0  0  0  0  0  0
   -7.8110   -0.1460  -76.1190 O   0  0  0  0  0  0  0  0  0  0  0  0
   -9.0050    1.9660  -75.6320 N   0  0  0  0  0  0  0  0  0  0  0  0
   -8.8910    3.2560  -76.0760 C   0  0  0  0  0  0  0  0  0  0  0  0
   -8.2820    3.2810  -77.4710 C   0  0  0  0  0  0  0  0  0  0  0  0
   -8.7780    4.2950  -78.3380 O   0  0  0  0  0  0  0  0  0  0  0  0
   -7.3340    2.3680  -77.7820 N   0  0  0  0  0  0  0  0  0  0  0  0
   -6.2510    2.1100  -76.9890 C   0  0  0  0  0  0  0  0  0  0  0  0
   -6.8610    2.3500  -79.0150 C   0  0  0  0  0  0  0  0  0  0  0  0
   -7.7360    1.5630  -79.7780 C   0  0  0  0  0  0  0  0  0  0  0  0
   -8.2260    1.9920  -81.0230 C   0  0  0  0  0  0  0  0  0  0  0  0
   -8.1580    0.3160  -79.3250 C   0  0  0  0  0  0  0  0  0  0  0  0
   -9.1000    1.1940  -81.7590 C   0  0  0  0  0  0  0  0  0  0  0  0
   -9.0250   -0.4500  -80.0730 C   0  0  0  0  0  0  0  0  0  0  0  0
   -9.5160   -0.0410  -81.2890 C   0  0  0  0  0  0  0  0  0  0  0  0
  1  2  1  0
  2  3  2  0
  2  4  1  0
  4  5  2  0
  4  6  1  0
  5  7  1  0
  6  8  2  0
  7  9  2  0
  8  9  1  0
  9 10  1  0
 10 11  1  0
 11 12  2  0
 11 13  1  0
 13 14  1  0
 14 15  1  0
 15 16  2  0
 15 17  1  0
 17 18  1  0
 17 19  1  0
 19 20  1  0
 20 21  2  0
 20 22  1  0
 21 23  1  0
 22 24  2  0
 23 25  2  0
 24 25  1  0
M  END
>  <ref_url>  (168) 
https://fakepage.com

>  <submitter_name>  (168) 
Steph Wills

>  <submitter_email>  (168) 
stephanie.wills@dtc.ox.ac.uk

>  <submitter_institution>  (168) 
University of Oxford

>  <generation_date>  (168) 
2020-06-04

>  <method>  (168) 
Fragment network

>  <ref_mols>  (168) 
x0176_0B,x0212_0B

>  <ref_pdb>  (168) 
references/x0176-0B-x0212-0B-204917.holo_minimised_nolig.pdb

>  <original SMILES>  (168) 
CC(=O)c1ccc(NC(=O)NCC(=O)N(C)Cc2ccccc2)cc1

>  <synthon>  (168) 
[Xe]c1ccccc1

>  <original_name>  (168) 
x0176-0B-x0212-0B-204917

>  <comRMSD_score>  (168) 
0.9756786099940904

>  <IF_score>  (168) 
0.375

>  <SuCOS_score>  (168) 
0.4812113836619814

>  <compound_ID>  (168) 
REAL:Z603210288

$$$$

     RDKit          3D

 22 23  0  0  0  0  0  0  0  0999 V2000
  -13.6830    5.9620  -76.3860 C   0  0  0  0  0  0  0  0  0  0  0  0
  -13.2590    5.0260  -77.5050 C   0  0  0  0  0  0  0  0  0  0  0  0
  -12.0730    4.2040  -77.0200 C   0  0  0  0  0  0  0  0  0  0  0  0
  -10.7530    4.5040  -77.7060 C   0  0  0  0  0  0  0  0  0  0  0  0
  -12.1590    3.2500  -76.0160 C   0  0  0  0  0  0  0  0  0  0  0  0
   -9.6080    3.6940  -77.1840 C   0  0  0  0  0  0  0  0  0  0  0  0
  -11.0370    2.5420  -75.5980 C   0  0  0  0  0  0  0  0  0  0  0  0
   -9.7810    2.7520  -76.1600 C   0  0  0  0  0  0  0  0  0  0  0  0
   -8.8060    2.1480  -75.7900 O   0  0  0  0  0  0  0  0  0  0  0  0
   -8.4170    0.9840  -76.4890 C   0  0  0  0  0  0  0  0  0  0  0  0
   -7.1840    1.2290  -77.0900 C   0  0  0  0  0  0  0  0  0  0  0  0
   -6.2140    0.5280  -76.7990 O   0  0  0  0  0  0  0  0  0  0  0  0
   -7.0910    2.2730  -78.0150 N   0  0  0  0  0  0  0  0  0  0  0  0
   -7.6220    3.6040  -77.7740 C   0  0  0  0  0  0  0  0  0  0  0  0
   -6.5940    2.0600  -79.3430 C   0  0  0  0  0  0  0  0  0  0  0  0
   -8.7380    3.8170  -78.7890 C   0  0  0  0  0  0  0  0  0  0  0  0
   -7.6480    1.2950  -80.0830 C   0  0  0  0  0  0  0  0  0  0  0  0
   -8.1500    1.7740  -81.2890 C   0  0  0  0  0  0  0  0  0  0  0  0
   -8.1350    0.0940  -79.5600 C   0  0  0  0  0  0  0  0  0  0  0  0
   -9.1230    1.0530  -81.9600 C   0  0  0  0  0  0  0  0  0  0  0  0
   -9.1150   -0.6180  -80.2370 C   0  0  0  0  0  0  0  0  0  0  0  0
   -9.6070   -0.1380  -81.4360 C   0  0  0  0  0  0  0  0  0  0  0  0
  1  2  1  0
  2  3  1  0
  3  4  2  0
  3  5  1  0
  4  6  1  0
  5  7  2  0
  6  8  2  0
  7  8  1  0
  8  9  1  0
  9 10  1  0
 10 11  1  0
 11 12  2  0
 11 13  1  0
 13 14  1  0
 13 15  1  0
 14 16  1  0
 15 17  1  0
 17 18  2  0
 17 19  1  0
 18 20  1  0
 19 21  2  0
 20 22  2  0
 21 22  1  0
M  END
>  <ref_url>  (169) 
https://fakepage.com

>  <submitter_name>  (169) 
Steph Wills

>  <submitter_email>  (169) 
stephanie.wills@dtc.ox.ac.uk

>  <submitter_institution>  (169) 
University of Oxford

>  <generation_date>  (169) 
2020-06-04

>  <method>  (169) 
Fragment network

>  <ref_mols>  (169) 
x0176_0B,x0212_0B

>  <ref_pdb>  (169) 
references/x0176-0B-x0212-0B-207535.holo_minimised_nolig.pdb

>  <original SMILES>  (169) 
CCc1ccc(OCC(=O)N(CC)Cc2ccccc2)cc1

>  <synthon>  (169) 
[Xe]c1ccccc1

>  <original_name>  (169) 
x0176-0B-x0212-0B-207535

>  <comRMSD_score>  (169) 
0.9013207901001002

>  <IF_score>  (169) 
0.625

>  <SuCOS_score>  (169) 
0.5143822303922386

>  <compound_ID>  (169) 
REAL:Z18838946

$$$$

     RDKit          3D

 20 21  0  0  0  0  0  0  0  0999 V2000
   -8.2870    4.0510  -79.3920 C   0  0  0  0  0  0  0  0  0  0  0  0
   -7.6940    3.1830  -78.4830 N   0  0  0  0  0  0  0  0  0  0  0  0
   -6.9940    2.1130  -78.9080 C   0  0  0  0  0  0  0  0  0  0  0  0
   -8.1330    2.9640  -77.1630 C   0  0  0  0  0  0  0  0  0  0  0  0
   -7.9020    1.3060  -79.7560 C   0  0  0  0  0  0  0  0  0  0  0  0
   -9.5530    3.2630  -76.9580 C   0  0  0  0  0  0  0  0  0  0  0  0
   -8.2990    1.7970  -81.0110 C   0  0  0  0  0  0  0  0  0  0  0  0
   -8.3900    0.0800  -79.3400 C   0  0  0  0  0  0  0  0  0  0  0  0
  -10.4050    2.6690  -76.0440 C   0  0  0  0  0  0  0  0  0  0  0  0
  -10.0960    4.2480  -77.7550 C   0  0  0  0  0  0  0  0  0  0  0  0
   -9.1700    1.0550  -81.7980 C   0  0  0  0  0  0  0  0  0  0  0  0
   -9.2500   -0.6370  -80.1340 C   0  0  0  0  0  0  0  0  0  0  0  0
  -11.7380    3.0360  -75.9260 C   0  0  0  0  0  0  0  0  0  0  0  0
  -11.4070    4.6370  -77.6650 C   0  0  0  0  0  0  0  0  0  0  0  0
   -9.6610   -0.1810  -81.3590 C   0  0  0  0  0  0  0  0  0  0  0  0
  -12.2580    4.0440  -76.7520 C   0  0  0  0  0  0  0  0  0  0  0  0
  -13.5730    4.4620  -76.6850 C   0  0  0  0  0  0  0  0  0  0  0  0
  -13.6270    5.8330  -76.4400 C   0  0  0  0  0  0  0  0  0  0  0  0
  -12.7420    6.2680  -75.3880 N   0  0  0  0  0  0  0  0  0  0  0  0
  -14.6060    6.9070  -77.2620 S   0  0  0  0  0  0  0  0  0  0  0  0
  1  2  1  0
  2  3  1  0
  2  4  1  0
  3  5  1  0
  4  6  1  0
  5  7  2  0
  5  8  1  0
  6  9  2  0
  6 10  1  0
  7 11  1  0
  8 12  2  0
  9 13  1  0
 10 14  2  0
 11 15  2  0
 12 15  1  0
 13 16  2  0
 14 16  1  0
 16 17  1  0
 17 18  1  0
 18 19  1  0
 18 20  2  0
M  END
>  <ref_url>  (170) 
https://fakepage.com

>  <submitter_name>  (170) 
Steph Wills

>  <submitter_email>  (170) 
stephanie.wills@dtc.ox.ac.uk

>  <submitter_institution>  (170) 
University of Oxford

>  <generation_date>  (170) 
2020-06-04

>  <method>  (170) 
Fragment network

>  <ref_mols>  (170) 
x0176_0B,x0212_0B

>  <ref_pdb>  (170) 
references/x0176-0B-x0212-0B-208409.holo_minimised_nolig.pdb

>  <original SMILES>  (170) 
CN(Cc1ccccc1)Cc1ccc(CC(N)=S)cc1

>  <synthon>  (170) 
[Xe]c1ccccc1

>  <original_name>  (170) 
x0176-0B-x0212-0B-208409

>  <comRMSD_score>  (170) 
0.9716478607074626

>  <IF_score>  (170) 
0.375

>  <SuCOS_score>  (170) 
0.5230248841367764

>  <compound_ID>  (170) 
CHEMSPACE-BB:CSMB00016927905

$$$$

     RDKit          3D

 26 27  0  0  0  0  0  0  0  0999 V2000
  -13.5800    6.0480  -76.3500 C   0  0  0  0  0  0  0  0  0  0  0  0
  -12.9570    5.2940  -77.5220 C   0  0  0  0  0  0  0  0  0  0  0  0
  -11.8570    4.5290  -77.1820 C   0  0  0  0  0  0  0  0  0  0  0  0
  -10.6120    4.5520  -77.9980 C   0  0  0  0  0  0  0  0  0  0  0  0
  -11.8640    3.7040  -76.0590 C   0  0  0  0  0  0  0  0  0  0  0  0
   -9.5050    3.8030  -77.6810 C   0  0  0  0  0  0  0  0  0  0  0  0
  -10.7340    2.9500  -75.7520 C   0  0  0  0  0  0  0  0  0  0  0  0
   -9.5880    3.0050  -76.5510 C   0  0  0  0  0  0  0  0  0  0  0  0
   -8.5010    2.2400  -76.2320 N   0  0  0  0  0  0  0  0  0  0  0  0
   -8.6660    0.9020  -76.2500 C   0  0  0  0  0  0  0  0  0  0  0  0
   -8.7220    0.0180  -75.2070 O   0  0  0  0  0  0  0  0  0  0  0  0
   -8.8190    0.3760  -77.5020 C   0  0  1  0  0  0  0  0  0  0  0  0
   -7.7160   -0.1870  -77.8290 N   0  0  0  0  0  0  0  0  0  0  0  0
  -10.0640   -0.5400  -77.6710 C   0  0  0  0  0  0  0  0  0  0  0  0
   -6.4980    0.6630  -77.8290 C   0  0  0  0  0  0  0  0  0  0  0  0
  -10.9330    0.0070  -78.6540 C   0  0  0  0  0  0  0  0  0  0  0  0
   -9.7200   -1.7500  -78.2370 C   0  0  0  0  0  0  0  0  0  0  0  0
   -5.4050    0.1090  -77.7800 O   0  0  0  0  0  0  0  0  0  0  0  0
   -6.7370    2.0280  -77.8970 N   0  0  0  0  0  0  0  0  0  0  0  0
   -6.7750    2.3200  -79.2190 C   0  0  0  0  0  0  0  0  0  0  0  0
   -7.6950    1.4770  -80.0850 C   0  0  0  0  0  0  0  0  0  0  0  0
   -7.9680    0.1670  -79.7170 C   0  0  0  0  0  0  0  0  0  0  0  0
   -8.2810    1.9780  -81.2390 C   0  0  0  0  0  0  0  0  0  0  0  0
   -8.8720   -0.6510  -80.5300 C   0  0  0  0  0  0  0  0  0  0  0  0
   -9.1290    1.2050  -82.0120 C   0  0  0  0  0  0  0  0  0  0  0  0
   -9.4320   -0.1040  -81.6540 C   0  0  0  0  0  0  0  0  0  0  0  0
  1  2  1  0
  2  3  1  0
  3  4  2  0
  3  5  1  0
  4  6  1  0
  5  7  2  0
  6  8  2  0
  7  8  1  0
  8  9  1  0
  9 10  1  0
 10 11  2  0
 10 12  1  0
 12 13  1  1
 12 14  1  0
 13 15  1  0
 14 16  1  0
 14 17  1  0
 15 18  2  0
 15 19  1  0
 19 20  1  0
 20 21  1  0
 21 22  2  0
 21 23  1  0
 22 24  1  0
 23 25  2  0
 24 26  2  0
 25 26  1  0
M  END
>  <ref_url>  (171) 
https://fakepage.com

>  <submitter_name>  (171) 
Steph Wills

>  <submitter_email>  (171) 
stephanie.wills@dtc.ox.ac.uk

>  <submitter_institution>  (171) 
University of Oxford

>  <generation_date>  (171) 
2020-06-04

>  <method>  (171) 
Fragment network

>  <ref_mols>  (171) 
x0176_0B,x0212_0B

>  <ref_pdb>  (171) 
references/x0176-0B-x0212-0B-211501.holo_minimised_nolig.pdb

>  <original SMILES>  (171) 
CCc1ccc(NC(=O)C(NC(=O)NCc2ccccc2)C(C)C)cc1

>  <synthon>  (171) 
[Xe]c1ccccc1

>  <original_name>  (171) 
x0176-0B-x0212-0B-211501

>  <comRMSD_score>  (171) 
0.7368335308425593

>  <IF_score>  (171) 
0.625

>  <SuCOS_score>  (171) 
0.5065535798180527

>  <compound_ID>  (171) 
REAL:Z287167082

$$$$

     RDKit          3D

 22 23  0  0  0  0  0  0  0  0999 V2000
   -6.5150    2.5620  -79.6490 C   0  0  0  0  0  0  0  0  0  0  0  0
   -7.6380    1.6280  -79.9690 C   0  0  0  0  0  0  0  0  0  0  0  0
   -7.9400    0.5640  -79.1200 C   0  0  0  0  0  0  0  0  0  0  0  0
   -8.3930    1.8140  -81.1130 C   0  0  0  0  0  0  0  0  0  0  0  0
   -8.9950   -0.2980  -79.4060 C   0  0  0  0  0  0  0  0  0  0  0  0
   -9.4420    0.9440  -81.3890 C   0  0  0  0  0  0  0  0  0  0  0  0
   -9.7590   -0.1090  -80.5370 C   0  0  0  0  0  0  0  0  0  0  0  0
  -10.8250   -0.8870  -80.8750 O   0  0  0  0  0  0  0  0  0  0  0  0
  -11.7700   -1.1680  -79.8090 C   0  0  0  0  0  0  0  0  0  0  0  0
  -11.7430   -0.0850  -78.6780 C   0  0  2  0  0  0  0  0  0  0  0  0
  -11.0200   -0.5880  -77.4330 C   0  0  0  0  0  0  0  0  0  0  0  0
  -13.0910    0.4010  -78.3020 N   0  0  0  0  0  0  0  0  0  0  0  0
  -13.3280    1.4630  -77.4440 C   0  0  0  0  0  0  0  0  0  0  0  0
  -13.3960    1.3510  -76.2300 O   0  0  0  0  0  0  0  0  0  0  0  0
  -13.4930    2.6390  -78.1370 O   0  0  0  0  0  0  0  0  0  0  0  0
  -12.8830    3.8490  -77.6060 C   0  0  0  0  0  0  0  0  0  0  0  0
  -11.4580    3.5190  -77.2730 C   0  0  0  0  0  0  0  0  0  0  0  0
  -11.1900    2.6840  -76.1880 C   0  0  0  0  0  0  0  0  0  0  0  0
  -10.3860    4.0180  -78.0310 C   0  0  0  0  0  0  0  0  0  0  0  0
   -9.8910    2.3390  -75.8610 C   0  0  0  0  0  0  0  0  0  0  0  0
   -9.0790    3.6680  -77.6980 C   0  0  0  0  0  0  0  0  0  0  0  0
   -8.8330    2.8270  -76.6160 C   0  0  0  0  0  0  0  0  0  0  0  0
  1  2  1  0
  2  3  2  0
  2  4  1  0
  3  5  1  0
  4  6  2  0
  5  7  2  0
  6  7  1  0
  7  8  1  0
  8  9  1  0
  9 10  1  0
 10 11  1  1
 10 12  1  0
 12 13  1  0
 13 14  2  0
 13 15  1  0
 15 16  1  0
 16 17  1  0
 17 18  2  0
 17 19  1  0
 18 20  1  0
 19 21  2  0
 20 22  2  0
 21 22  1  0
M  END
>  <ref_url>  (172) 
https://fakepage.com

>  <submitter_name>  (172) 
Steph Wills

>  <submitter_email>  (172) 
stephanie.wills@dtc.ox.ac.uk

>  <submitter_institution>  (172) 
University of Oxford

>  <generation_date>  (172) 
2020-06-04

>  <method>  (172) 
Fragment network

>  <ref_mols>  (172) 
x0176_0B,x0212_0B

>  <ref_pdb>  (172) 
references/x0176-0B-x0212-0B-211522.holo_minimised_nolig.pdb

>  <original SMILES>  (172) 
Cc1ccc(OCC(C)NC(=O)OCc2ccccc2)cc1

>  <synthon>  (172) 
[Xe]c1ccccc1

>  <original_name>  (172) 
x0176-0B-x0212-0B-211522

>  <comRMSD_score>  (172) 
0.8034269753760483

>  <IF_score>  (172) 
0.3

>  <SuCOS_score>  (172) 
0.3897183903647255

>  <compound_ID>  (172) 
CHEMSPACE-BB:CSMB00011924711

$$$$

     RDKit          3D

 23 24  0  0  0  0  0  0  0  0999 V2000
  -12.6560    6.2870  -73.9100 C   0  0  0  0  0  0  0  0  0  0  0  0
  -12.6170    6.4860  -75.1310 O   0  0  0  0  0  0  0  0  0  0  0  0
  -13.4890    5.6390  -75.9060 C   0  0  0  0  0  0  0  0  0  0  0  0
  -14.5610    5.2340  -75.4750 O   0  0  0  0  0  0  0  0  0  0  0  0
  -12.9960    5.2850  -77.2900 C   0  0  2  0  0  0  0  0  0  0  0  0
  -13.8360    4.4810  -78.0690 C   0  0  0  0  0  0  0  0  0  0  0  0
  -11.7520    4.4670  -77.0700 C   0  0  0  0  0  0  0  0  0  0  0  0
  -11.6650    3.6020  -75.9760 C   0  0  0  0  0  0  0  0  0  0  0  0
  -10.6740    4.5700  -77.9500 C   0  0  0  0  0  0  0  0  0  0  0  0
  -10.4230    2.8770  -75.8570 C   0  0  0  0  0  0  0  0  0  0  0  0
   -9.5060    3.8330  -77.7620 C   0  0  0  0  0  0  0  0  0  0  0  0
   -9.3920    2.9680  -76.6780 C   0  0  0  0  0  0  0  0  0  0  0  0
   -8.2600    2.2270  -76.4450 N   0  0  0  0  0  0  0  0  0  0  0  0
   -7.0230    2.5780  -76.9740 C   0  0  0  0  0  0  0  0  0  0  0  0
   -6.1980    3.6480  -76.5210 O   0  0  0  0  0  0  0  0  0  0  0  0
   -6.7630    1.8580  -77.8380 N   0  0  0  0  0  0  0  0  0  0  0  0
   -6.5720    2.2020  -79.1930 C   0  0  0  0  0  0  0  0  0  0  0  0
   -7.1140    1.2910  -80.1020 C   0  0  0  0  0  0  0  0  0  0  0  0
   -7.4350    0.0020  -79.6570 C   0  0  0  0  0  0  0  0  0  0  0  0
   -7.3720    1.6110  -81.4490 C   0  0  0  0  0  0  0  0  0  0  0  0
   -7.9990   -0.9570  -80.5010 C   0  0  0  0  0  0  0  0  0  0  0  0
   -7.9360    0.6460  -82.3120 C   0  0  0  0  0  0  0  0  0  0  0  0
   -8.2470   -0.6280  -81.8310 C   0  0  0  0  0  0  0  0  0  0  0  0
  1  2  1  0
  2  3  1  0
  3  4  2  0
  3  5  1  0
  5  6  1  1
  5  7  1  0
  7  8  2  0
  7  9  1  0
  8 10  1  0
  9 11  2  0
 10 12  2  0
 11 12  1  0
 12 13  1  0
 13 14  1  0
 14 15  2  0
 14 16  1  0
 16 17  1  0
 17 18  1  0
 18 19  2  0
 18 20  1  0
 19 21  1  0
 20 22  2  0
 21 23  2  0
 22 23  1  0
M  END
>  <ref_url>  (173) 
https://fakepage.com

>  <submitter_name>  (173) 
Steph Wills

>  <submitter_email>  (173) 
stephanie.wills@dtc.ox.ac.uk

>  <submitter_institution>  (173) 
University of Oxford

>  <generation_date>  (173) 
2020-06-04

>  <method>  (173) 
Fragment network

>  <ref_mols>  (173) 
x0176_0B,x0212_0B

>  <ref_pdb>  (173) 
references/x0176-0B-x0212-0B-211585.holo_minimised_nolig.pdb

>  <original SMILES>  (173) 
COC(=O)C(C)c1ccc(NC(=O)NCc2ccccc2)cc1

>  <synthon>  (173) 
[Xe]c1ccccc1

>  <original_name>  (173) 
x0176-0B-x0212-0B-211585

>  <comRMSD_score>  (173) 
0.8235341635406013

>  <IF_score>  (173) 
0.1428571428571428

>  <SuCOS_score>  (173) 
0.4856109571254751

>  <compound_ID>  (173) 
REAL:PV-001948249033

$$$$

     RDKit          3D

 25 26  0  0  0  0  0  0  0  0999 V2000
  -12.4910    8.1930  -75.3700 C   0  0  0  0  0  0  0  0  0  0  0  0
  -12.6560    6.7520  -75.1540 N   0  0  0  0  0  0  0  0  0  0  0  0
  -12.6200    6.4330  -73.7200 C   0  0  0  0  0  0  0  0  0  0  0  0
  -13.8290    6.2340  -75.8810 C   0  0  0  0  0  0  0  0  0  0  0  0
  -13.4310    5.4320  -77.1200 C   0  0  0  0  0  0  0  0  0  0  0  0
  -12.1230    4.7620  -76.8570 C   0  0  0  0  0  0  0  0  0  0  0  0
  -11.0260    4.9700  -77.6900 C   0  0  0  0  0  0  0  0  0  0  0  0
  -12.0190    3.9240  -75.7540 C   0  0  0  0  0  0  0  0  0  0  0  0
   -9.8310    4.3520  -77.4200 C   0  0  0  0  0  0  0  0  0  0  0  0
  -10.8280    3.3140  -75.4790 C   0  0  0  0  0  0  0  0  0  0  0  0
   -9.7560    3.5430  -76.3060 C   0  0  0  0  0  0  0  0  0  0  0  0
   -8.5540    2.8690  -75.9310 C   0  0  0  0  0  0  0  0  0  0  0  0
   -7.4770    3.4220  -75.7460 O   0  0  0  0  0  0  0  0  0  0  0  0
   -8.8580    1.5760  -75.8400 N   0  0  0  0  0  0  0  0  0  0  0  0
   -9.4330    1.1790  -77.0640 C   0  0  0  0  0  0  0  0  0  0  0  0
   -8.8370    2.1480  -78.0940 C   0  0  0  0  0  0  0  0  0  0  0  0
   -7.3800    2.4060  -78.0190 N   0  0  0  0  0  0  0  0  0  0  0  0
   -6.6820    1.4630  -77.1320 C   0  0  0  0  0  0  0  0  0  0  0  0
   -6.8580    2.3080  -79.3780 C   0  0  0  0  0  0  0  0  0  0  0  0
   -7.8290    1.4810  -80.1620 C   0  0  0  0  0  0  0  0  0  0  0  0
   -8.1420    0.1790  -79.7360 C   0  0  0  0  0  0  0  0  0  0  0  0
   -8.4370    1.9910  -81.3040 C   0  0  0  0  0  0  0  0  0  0  0  0
   -9.0530   -0.5920  -80.4440 C   0  0  0  0  0  0  0  0  0  0  0  0
   -9.3430    1.2170  -82.0050 C   0  0  0  0  0  0  0  0  0  0  0  0
   -9.6530   -0.0700  -81.5780 C   0  0  0  0  0  0  0  0  0  0  0  0
  1  2  1  0
  2  3  1  0
  2  4  1  0
  4  5  1  0
  5  6  1  0
  6  7  2  0
  6  8  1  0
  7  9  1  0
  8 10  2  0
  9 11  2  0
 10 11  1  0
 11 12  1  0
 12 13  2  0
 12 14  1  0
 14 15  1  0
 15 16  1  0
 16 17  1  0
 17 18  1  0
 17 19  1  0
 19 20  1  0
 20 21  2  0
 20 22  1  0
 21 23  1  0
 22 24  2  0
 23 25  2  0
 24 25  1  0
M  END
>  <ref_url>  (174) 
https://fakepage.com

>  <submitter_name>  (174) 
Steph Wills

>  <submitter_email>  (174) 
stephanie.wills@dtc.ox.ac.uk

>  <submitter_institution>  (174) 
University of Oxford

>  <generation_date>  (174) 
2020-06-04

>  <method>  (174) 
Fragment network

>  <ref_mols>  (174) 
x0176_0B,x0212_0B

>  <ref_pdb>  (174) 
references/x0176-0B-x0212-0B-211716.holo_minimised_nolig.pdb

>  <original SMILES>  (174) 
CN(C)CCc1ccc(C(=O)NCCN(C)Cc2ccccc2)cc1

>  <synthon>  (174) 
[Xe]c1ccccc1

>  <original_name>  (174) 
x0176-0B-x0212-0B-211716

>  <comRMSD_score>  (174) 
0.8975894054303108

>  <IF_score>  (174) 
0.8

>  <SuCOS_score>  (174) 
0.5957883548003423

>  <compound_ID>  (174) 
REAL:PV-000797586699

$$$$

     RDKit          3D

 20 21  0  0  0  0  0  0  0  0999 V2000
   -8.2380    0.9360  -77.0460 C   0  0  0  0  0  0  0  0  0  0  0  0
   -7.3210    2.0150  -77.4100 N   0  0  0  0  0  0  0  0  0  0  0  0
   -6.9400    2.0960  -78.8390 C   0  0  0  0  0  0  0  0  0  0  0  0
   -7.8670    3.2810  -76.9600 C   0  0  0  0  0  0  0  0  0  0  0  0
   -7.8780    1.3570  -79.7510 C   0  0  0  0  0  0  0  0  0  0  0  0
   -9.3470    3.4090  -76.8660 C   0  0  0  0  0  0  0  0  0  0  0  0
   -8.2720    1.9000  -80.9790 C   0  0  0  0  0  0  0  0  0  0  0  0
   -8.3650    0.1060  -79.3630 C   0  0  0  0  0  0  0  0  0  0  0  0
  -10.1680    2.7810  -75.9270 C   0  0  0  0  0  0  0  0  0  0  0  0
   -9.8960    4.2450  -77.8080 C   0  0  0  0  0  0  0  0  0  0  0  0
   -9.1400    1.1850  -81.7780 C   0  0  0  0  0  0  0  0  0  0  0  0
   -9.2380   -0.5970  -80.1690 C   0  0  0  0  0  0  0  0  0  0  0  0
  -11.5410    3.0420  -75.9660 C   0  0  0  0  0  0  0  0  0  0  0  0
  -11.2290    4.5070  -77.8510 C   0  0  0  0  0  0  0  0  0  0  0  0
   -9.6240   -0.0540  -81.3710 C   0  0  0  0  0  0  0  0  0  0  0  0
  -12.0590    3.9190  -76.9360 C   0  0  0  0  0  0  0  0  0  0  0  0
  -13.5080    4.2450  -76.9930 C   0  0  0  0  0  0  0  0  0  0  0  0
  -13.9090    4.9300  -75.7190 C   0  0  0  0  0  0  0  0  0  0  0  0
  -14.1770    6.0850  -75.5210 O   0  0  0  0  0  0  0  0  0  0  0  0
  -13.9420    4.0690  -74.6880 O   0  0  0  0  0  0  0  0  0  0  0  0
  1  2  1  0
  2  3  1  0
  2  4  1  0
  3  5  1  0
  4  6  1  0
  5  7  2  0
  5  8  1  0
  6  9  2  0
  6 10  1  0
  7 11  1  0
  8 12  2  0
  9 13  1  0
 10 14  2  0
 11 15  2  0
 12 15  1  0
 13 16  2  0
 14 16  1  0
 16 17  1  0
 17 18  1  0
 18 19  2  0
 18 20  1  0
M  END
>  <ref_url>  (175) 
https://fakepage.com

>  <submitter_name>  (175) 
Steph Wills

>  <submitter_email>  (175) 
stephanie.wills@dtc.ox.ac.uk

>  <submitter_institution>  (175) 
University of Oxford

>  <generation_date>  (175) 
2020-06-04

>  <method>  (175) 
Fragment network

>  <ref_mols>  (175) 
x0176_0B,x0212_0B

>  <ref_pdb>  (175) 
references/x0176-0B-x0212-0B-212371.holo_minimised_nolig.pdb

>  <original SMILES>  (175) 
CN(Cc1ccccc1)Cc1ccc(CC(=O)O)cc1

>  <synthon>  (175) 
[Xe]c1ccccc1

>  <original_name>  (175) 
x0176-0B-x0212-0B-212371

>  <comRMSD_score>  (175) 
0.9824992790497792

>  <IF_score>  (175) 
0.375

>  <SuCOS_score>  (175) 
0.5215851837846897

>  <compound_ID>  (175) 
CHEMSPACE-BB:CSMB00012355915

$$$$

     RDKit          3D

 20 21  0  0  0  0  0  0  0  0999 V2000
  -13.1410    5.4170  -75.4460 C   0  0  0  0  0  0  0  0  0  0  0  0
  -12.6920    5.0110  -76.8230 C   0  0  0  0  0  0  0  0  0  0  0  0
  -13.3620    5.1820  -77.8270 O   0  0  0  0  0  0  0  0  0  0  0  0
  -11.3140    4.3890  -76.9340 C   0  0  0  0  0  0  0  0  0  0  0  0
  -10.4440    4.7880  -77.9380 C   0  0  0  0  0  0  0  0  0  0  0  0
  -10.8310    3.4020  -76.0680 C   0  0  0  0  0  0  0  0  0  0  0  0
   -9.1620    4.2380  -78.0500 C   0  0  0  0  0  0  0  0  0  0  0  0
   -9.5680    2.8650  -76.1540 C   0  0  0  0  0  0  0  0  0  0  0  0
  -11.3990    2.8750  -75.1640 O   0  0  0  0  0  0  0  0  0  0  0  0
   -8.7190    3.2820  -77.1470 C   0  0  0  0  0  0  0  0  0  0  0  0
  -11.2070    1.4500  -75.3890 C   0  0  0  0  0  0  0  0  0  0  0  0
   -9.9690    1.2650  -76.3000 C   0  0  0  0  0  0  0  0  0  0  0  0
  -10.0930    1.1690  -77.5350 O   0  0  0  0  0  0  0  0  0  0  0  0
   -8.9280    1.6240  -78.2850 C   0  0  0  0  0  0  0  0  0  0  0  0
   -8.9930    1.0560  -79.5540 C   0  0  0  0  0  0  0  0  0  0  0  0
   -9.2720   -0.3030  -79.6570 C   0  0  0  0  0  0  0  0  0  0  0  0
   -8.7910    1.7920  -80.7310 C   0  0  0  0  0  0  0  0  0  0  0  0
   -9.3500   -0.9200  -80.8960 C   0  0  0  0  0  0  0  0  0  0  0  0
   -8.8730    1.1670  -81.9650 C   0  0  0  0  0  0  0  0  0  0  0  0
   -9.1520   -0.1900  -82.0490 C   0  0  0  0  0  0  0  0  0  0  0  0
  1  2  1  0
  2  3  2  0
  2  4  1  0
  4  5  2  0
  4  6  1  0
  5  7  1  0
  6  8  2  0
  6  9  1  0
  7 10  2  0
  8 10  1  0
  9 11  1  0
 11 12  1  0
 12 13  1  0
 13 14  1  0
 14 15  1  0
 15 16  2  0
 15 17  1  0
 16 18  1  0
 17 19  2  0
 18 20  2  0
 19 20  1  0
M  END
>  <ref_url>  (176) 
https://fakepage.com

>  <submitter_name>  (176) 
Steph Wills

>  <submitter_email>  (176) 
stephanie.wills@dtc.ox.ac.uk

>  <submitter_institution>  (176) 
University of Oxford

>  <generation_date>  (176) 
2020-06-04

>  <method>  (176) 
Fragment network

>  <ref_mols>  (176) 
x0176_0B,x0212_0B

>  <ref_pdb>  (176) 
references/x0176-0B-x0212-0B-212578.holo_minimised_nolig.pdb

>  <original SMILES>  (176) 
CC(=O)c1ccccc1OCCOCc1ccccc1

>  <synthon>  (176) 
[Xe]c1ccccc1

>  <original_name>  (176) 
x0176-0B-x0212-0B-212578

>  <comRMSD_score>  (176) 
0.9486037107243486

>  <IF_score>  (176) 
0.6333333333333333

>  <SuCOS_score>  (176) 
0.3992496681646279

>  <compound_ID>  (176) 
CHEMSPACE-BB:CSMB00011592420

$$$$

     RDKit          3D

 19 20  0  0  0  0  0  0  0  0999 V2000
  -12.6170    6.3230  -75.3140 N   0  0  0  0  0  0  0  0  0  0  0  0
  -13.3110    5.6730  -76.2940 C   0  0  0  0  0  0  0  0  0  0  0  0
  -13.1280    4.1640  -76.3440 C   0  0  0  0  0  0  0  0  0  0  0  0
  -11.6910    3.7300  -76.5100 C   0  0  0  0  0  0  0  0  0  0  0  0
  -10.7890    4.5740  -77.1300 C   0  0  0  0  0  0  0  0  0  0  0  0
  -11.2210    2.4700  -76.0610 C   0  0  0  0  0  0  0  0  0  0  0  0
   -9.4700    4.1730  -77.2940 C   0  0  0  0  0  0  0  0  0  0  0  0
   -9.8640    2.0870  -76.2420 C   0  0  0  0  0  0  0  0  0  0  0  0
   -9.0190    2.9660  -76.8560 C   0  0  0  0  0  0  0  0  0  0  0  0
   -9.3120    1.0450  -75.9310 O   0  0  0  0  0  0  0  0  0  0  0  0
   -8.2180    0.7400  -76.8480 C   0  0  0  0  0  0  0  0  0  0  0  0
   -7.5210    1.9200  -77.5040 C   0  0  0  0  0  0  0  0  0  0  0  0
   -6.7750    1.6060  -78.7920 C   0  0  0  0  0  0  0  0  0  0  0  0
   -7.4070    0.9010  -79.8450 C   0  0  0  0  0  0  0  0  0  0  0  0
   -7.9100   -0.3620  -79.5970 C   0  0  0  0  0  0  0  0  0  0  0  0
   -7.5820    1.3960  -81.1710 C   0  0  0  0  0  0  0  0  0  0  0  0
   -8.5610   -1.1610  -80.5210 C   0  0  0  0  0  0  0  0  0  0  0  0
   -8.2420    0.6060  -82.1360 C   0  0  0  0  0  0  0  0  0  0  0  0
   -8.7300   -0.6640  -81.8090 C   0  0  0  0  0  0  0  0  0  0  0  0
  1  2  1  0
  2  3  1  0
  3  4  1  0
  4  5  2  0
  4  6  1  0
  5  7  1  0
  6  8  2  0
  7  9  2  0
  8  9  1  0
  8 10  1  0
 10 11  1  0
 11 12  1  0
 12 13  1  0
 13 14  1  0
 14 15  2  0
 14 16  1  0
 15 17  1  0
 16 18  2  0
 17 19  2  0
 18 19  1  0
M  END
>  <ref_url>  (177) 
https://fakepage.com

>  <submitter_name>  (177) 
Steph Wills

>  <submitter_email>  (177) 
stephanie.wills@dtc.ox.ac.uk

>  <submitter_institution>  (177) 
University of Oxford

>  <generation_date>  (177) 
2020-06-04

>  <method>  (177) 
Fragment network

>  <ref_mols>  (177) 
x0176_0B,x0212_0B

>  <ref_pdb>  (177) 
references/x0176-0B-x0212-0B-213291.holo_minimised_nolig.pdb

>  <original SMILES>  (177) 
NCCc1cccc(OCCCc2ccccc2)c1

>  <synthon>  (177) 
[Xe]c1ccccc1

>  <original_name>  (177) 
x0176-0B-x0212-0B-213291

>  <comRMSD_score>  (177) 
0.8422565424698893

>  <IF_score>  (177) 
0.45

>  <SuCOS_score>  (177) 
0.4308880644447648

>  <compound_ID>  (177) 
MOLPORT:003-781-664

$$$$

     RDKit          3D

 25 26  0  0  0  0  0  0  0  0999 V2000
  -13.2650    5.9450  -75.8130 C   0  0  0  0  0  0  0  0  0  0  0  0
  -12.7120    5.3860  -77.0810 C   0  0  0  0  0  0  0  0  0  0  0  0
  -13.0240    5.8660  -78.1640 O   0  0  0  0  0  0  0  0  0  0  0  0
  -11.7990    4.2200  -76.9770 C   0  0  0  0  0  0  0  0  0  0  0  0
  -10.8970    3.9810  -77.9980 C   0  0  0  0  0  0  0  0  0  0  0  0
  -11.8300    3.3520  -75.8810 C   0  0  0  0  0  0  0  0  0  0  0  0
  -10.0500    2.8920  -77.9370 C   0  0  0  0  0  0  0  0  0  0  0  0
  -10.9630    2.2580  -75.8220 C   0  0  0  0  0  0  0  0  0  0  0  0
  -10.0700    2.0200  -76.8580 C   0  0  0  0  0  0  0  0  0  0  0  0
   -9.2280    0.8840  -76.7280 N   0  0  0  0  0  0  0  0  0  0  0  0
   -7.8950    0.8080  -77.0610 C   0  0  0  0  0  0  0  0  0  0  0  0
   -7.1980   -0.1860  -76.8840 O   0  0  0  0  0  0  0  0  0  0  0  0
   -7.3810    1.9770  -77.6300 N   0  0  0  0  0  0  0  0  0  0  0  0
   -6.8200    1.8120  -78.9830 C   0  0  0  0  0  0  0  0  0  0  0  0
   -7.9210    3.3150  -77.3810 C   0  0  2  0  0  0  0  0  0  0  0  0
   -7.8150    1.1690  -79.9150 C   0  0  0  0  0  0  0  0  0  0  0  0
   -8.5420    3.3890  -75.9930 C   0  0  0  0  0  0  0  0  0  0  0  0
   -8.8500    3.8620  -78.4630 C   0  0  0  0  0  0  0  0  0  0  0  0
   -8.3710   -0.0590  -79.5460 C   0  0  0  0  0  0  0  0  0  0  0  0
   -8.2030    1.7580  -81.1330 C   0  0  0  0  0  0  0  0  0  0  0  0
   -8.1530    4.0810  -79.7810 C   0  0  0  0  0  0  0  0  0  0  0  0
   -9.2920   -0.6910  -80.3640 C   0  0  0  0  0  0  0  0  0  0  0  0
   -9.1240    1.1170  -81.9460 C   0  0  0  0  0  0  0  0  0  0  0  0
   -6.8120    4.5130  -79.5170 O   0  0  0  0  0  0  0  0  0  0  0  0
   -9.6650   -0.1040  -81.5560 C   0  0  0  0  0  0  0  0  0  0  0  0
  1  2  1  0
  2  3  2  0
  2  4  1  0
  4  5  2  0
  4  6  1  0
  5  7  1  0
  6  8  2  0
  7  9  2  0
  8  9  1  0
  9 10  1  0
 10 11  1  0
 11 12  2  0
 11 13  1  0
 13 14  1  0
 13 15  1  0
 14 16  1  0
 15 17  1  1
 15 18  1  0
 16 19  2  0
 16 20  1  0
 18 21  1  0
 19 22  1  0
 20 23  2  0
 21 24  1  0
 22 25  2  0
 23 25  1  0
M  END
>  <ref_url>  (178) 
https://fakepage.com

>  <submitter_name>  (178) 
Steph Wills

>  <submitter_email>  (178) 
stephanie.wills@dtc.ox.ac.uk

>  <submitter_institution>  (178) 
University of Oxford

>  <generation_date>  (178) 
2020-06-04

>  <method>  (178) 
Fragment network

>  <ref_mols>  (178) 
x0176_0B,x0212_0B

>  <ref_pdb>  (178) 
references/x0176-0B-x0212-0B-214101.holo_minimised_nolig.pdb

>  <original SMILES>  (178) 
CC(=O)c1ccc(NC(=O)N(Cc2ccccc2)C(C)CCO)cc1

>  <synthon>  (178) 
[Xe]c1ccccc1

>  <original_name>  (178) 
x0176-0B-x0212-0B-214101

>  <comRMSD_score>  (178) 
0.906413596927834

>  <IF_score>  (178) 
0.4166666666666667

>  <SuCOS_score>  (178) 
0.4970571865664412

>  <compound_ID>  (178) 
REAL:Z1578963548

$$$$

     RDKit          3D

 21 22  0  0  0  0  0  0  0  0999 V2000
  -14.5430    5.4880  -76.3400 O   0  0  0  0  0  0  0  0  0  0  0  0
  -13.3200    5.6020  -76.3700 C   0  0  0  0  0  0  0  0  0  0  0  0
  -12.6150    6.2010  -75.3920 O   0  0  0  0  0  0  0  0  0  0  0  0
  -12.4890    5.0640  -77.5290 C   0  0  0  0  0  0  0  0  0  0  0  0
  -11.4160    4.1440  -77.0180 C   0  0  0  0  0  0  0  0  0  0  0  0
  -11.6160    3.4520  -75.8080 C   0  0  0  0  0  0  0  0  0  0  0  0
  -10.2010    3.9010  -77.6550 C   0  0  0  0  0  0  0  0  0  0  0  0
  -10.6370    2.5780  -75.2990 C   0  0  0  0  0  0  0  0  0  0  0  0
   -9.2650    3.0530  -77.1320 C   0  0  0  0  0  0  0  0  0  0  0  0
   -9.7470    4.4190  -78.8620 O   0  0  0  0  0  0  0  0  0  0  0  0
   -9.4340    2.3770  -75.9740 C   0  0  0  0  0  0  0  0  0  0  0  0
   -8.9610    3.4030  -79.2880 C   0  0  0  0  0  0  0  0  0  0  0  0
   -7.7840    3.9300  -80.0080 C   0  0  0  0  0  0  0  0  0  0  0  0
   -6.7320    3.4410  -79.6100 O   0  0  0  0  0  0  0  0  0  0  0  0
   -6.7820    2.0690  -79.2470 C   0  0  0  0  0  0  0  0  0  0  0  0
   -7.7430    1.3480  -79.9720 C   0  0  0  0  0  0  0  0  0  0  0  0
   -8.3010    0.1850  -79.4340 C   0  0  0  0  0  0  0  0  0  0  0  0
   -8.1540    1.7780  -81.2380 C   0  0  0  0  0  0  0  0  0  0  0  0
   -9.2580   -0.5450  -80.1440 C   0  0  0  0  0  0  0  0  0  0  0  0
   -9.1000    1.0390  -81.9230 C   0  0  0  0  0  0  0  0  0  0  0  0
   -9.6620   -0.1150  -81.3990 C   0  0  0  0  0  0  0  0  0  0  0  0
  1  2  2  0
  2  3  1  0
  2  4  1  0
  4  5  1  0
  5  6  2  0
  5  7  1  0
  6  8  1  0
  7  9  2  0
  7 10  1  0
  8 11  2  0
  9 11  1  0
 10 12  1  0
 12 13  1  0
 13 14  1  0
 14 15  1  0
 15 16  1  0
 16 17  2  0
 16 18  1  0
 17 19  1  0
 18 20  2  0
 19 21  2  0
 20 21  1  0
M  END
>  <ref_url>  (179) 
https://fakepage.com

>  <submitter_name>  (179) 
Steph Wills

>  <submitter_email>  (179) 
stephanie.wills@dtc.ox.ac.uk

>  <submitter_institution>  (179) 
University of Oxford

>  <generation_date>  (179) 
2020-06-04

>  <method>  (179) 
Fragment network

>  <ref_mols>  (179) 
x0176_0B,x0212_0B

>  <ref_pdb>  (179) 
references/x0176-0B-x0212-0B-214682.holo_minimised_nolig.pdb

>  <original SMILES>  (179) 
O=C(O)Cc1ccccc1OCCOCc1ccccc1

>  <synthon>  (179) 
[Xe]c1ccccc1

>  <original_name>  (179) 
x0176-0B-x0212-0B-214682

>  <comRMSD_score>  (179) 
0.8203567059517444

>  <IF_score>  (179) 
0.25

>  <SuCOS_score>  (179) 
0.5319376652697743

>  <compound_ID>  (179) 
CHEMSPACE-BB:CSMB00014804007

$$$$

     RDKit          3D

 24 25  0  0  0  0  0  0  0  0999 V2000
  -13.3260    5.9670  -76.4290 C   0  0  0  0  0  0  0  0  0  0  0  0
  -13.1530    4.6550  -77.1660 C   0  0  0  0  0  0  0  0  0  0  0  0
  -13.9980    4.1630  -77.9120 O   0  0  0  0  0  0  0  0  0  0  0  0
  -11.8330    4.0130  -76.8680 C   0  0  0  0  0  0  0  0  0  0  0  0
  -11.7560    2.9680  -75.9370 C   0  0  0  0  0  0  0  0  0  0  0  0
  -10.6760    4.4400  -77.4920 C   0  0  0  0  0  0  0  0  0  0  0  0
  -10.5330    2.3670  -75.6380 C   0  0  0  0  0  0  0  0  0  0  0  0
   -9.4560    3.8390  -77.1900 C   0  0  0  0  0  0  0  0  0  0  0  0
   -9.3680    2.8000  -76.2620 C   0  0  0  0  0  0  0  0  0  0  0  0
   -8.0890    2.2670  -76.0250 N   0  0  0  0  0  0  0  0  0  0  0  0
   -7.2470    1.6870  -76.9410 C   0  0  0  0  0  0  0  0  0  0  0  0
   -6.6300    0.6300  -76.8210 O   0  0  0  0  0  0  0  0  0  0  0  0
   -7.1780    2.4820  -78.0570 N   0  0  0  0  0  0  0  0  0  0  0  0
   -8.0200    3.6380  -78.2240 C   0  0  0  0  0  0  0  0  0  0  0  0
   -6.7510    1.8880  -79.3000 C   0  0  0  0  0  0  0  0  0  0  0  0
   -9.1900    3.4470  -79.1330 C   0  0  0  0  0  0  0  0  0  0  0  0
   -7.7020    1.2150  -80.0550 C   0  0  0  0  0  0  0  0  0  0  0  0
  -10.0530    2.2330  -78.9430 C   0  0  0  0  0  0  0  0  0  0  0  0
   -8.1820   -0.0100  -79.6030 C   0  0  0  0  0  0  0  0  0  0  0  0
   -8.1750    1.7590  -81.2490 C   0  0  0  0  0  0  0  0  0  0  0  0
   -9.5290    1.3100  -78.0730 N   0  0  0  0  0  0  0  0  0  0  0  0
   -9.1360   -0.7010  -80.3350 C   0  0  0  0  0  0  0  0  0  0  0  0
   -9.1260    1.0580  -81.9770 C   0  0  0  0  0  0  0  0  0  0  0  0
   -9.6060   -0.1670  -81.5160 C   0  0  0  0  0  0  0  0  0  0  0  0
  1  2  1  0
  2  3  2  0
  2  4  1  0
  4  5  2  0
  4  6  1  0
  5  7  1  0
  6  8  2  0
  7  9  2  0
  8  9  1  0
  9 10  1  0
 10 11  1  0
 11 12  2  0
 11 13  1  0
 13 14  1  0
 13 15  1  0
 14 16  1  0
 15 17  1  0
 16 18  1  0
 17 19  2  0
 17 20  1  0
 18 21  1  0
 19 22  1  0
 20 23  2  0
 22 24  2  0
 23 24  1  0
M  END
>  <ref_url>  (180) 
https://fakepage.com

>  <submitter_name>  (180) 
Steph Wills

>  <submitter_email>  (180) 
stephanie.wills@dtc.ox.ac.uk

>  <submitter_institution>  (180) 
University of Oxford

>  <generation_date>  (180) 
2020-06-04

>  <method>  (180) 
Fragment network

>  <ref_mols>  (180) 
x0176_0B,x0212_0B

>  <ref_pdb>  (180) 
references/x0176-0B-x0212-0B-216168.holo_minimised_nolig.pdb

>  <original SMILES>  (180) 
CC(=O)c1ccc(NC(=O)N(CCCN)Cc2ccccc2)cc1

>  <synthon>  (180) 
[Xe]c1ccccc1

>  <original_name>  (180) 
x0176-0B-x0212-0B-216168

>  <comRMSD_score>  (180) 
0.6033860974605695

>  <IF_score>  (180) 
0.375

>  <SuCOS_score>  (180) 
0.5020156960034379

>  <compound_ID>  (180) 
REAL:Z2353888460

$$$$

     RDKit          3D

 23 24  0  0  0  0  0  0  0  0999 V2000
   -4.0860    0.7400  -79.9090 O   0  0  0  0  0  0  0  0  0  0  0  0
   -5.1540    1.1400  -79.4510 C   0  0  0  0  0  0  0  0  0  0  0  0
   -5.8380    0.5310  -78.3990 N   0  0  0  0  0  0  0  0  0  0  0  0
   -5.7830    2.2350  -79.9340 O   0  0  0  0  0  0  0  0  0  0  0  0
   -6.1180    1.3230  -77.1930 C   0  0  0  0  0  0  0  0  0  0  0  0
   -7.0450    2.4100  -79.4410 C   0  0  0  0  0  0  0  0  0  0  0  0
   -7.5980    1.3600  -76.8740 C   0  0  0  0  0  0  0  0  0  0  0  0
   -7.9630    1.6160  -80.1390 C   0  0  0  0  0  0  0  0  0  0  0  0
   -7.9340    2.4840  -76.1940 N   0  0  0  0  0  0  0  0  0  0  0  0
   -8.3600    0.3510  -79.6760 C   0  0  0  0  0  0  0  0  0  0  0  0
   -8.5120    2.0750  -81.3230 C   0  0  0  0  0  0  0  0  0  0  0  0
   -9.1500    3.2180  -76.4920 C   0  0  0  0  0  0  0  0  0  0  0  0
   -9.2800   -0.4200  -80.3890 C   0  0  0  0  0  0  0  0  0  0  0  0
   -9.4210    1.3050  -82.0220 C   0  0  0  0  0  0  0  0  0  0  0  0
  -10.1990    2.9850  -75.6070 C   0  0  0  0  0  0  0  0  0  0  0  0
   -9.3440    4.0970  -77.5400 C   0  0  0  0  0  0  0  0  0  0  0  0
   -9.8160    0.0590  -81.5640 C   0  0  0  0  0  0  0  0  0  0  0  0
  -11.4220    3.6400  -75.7610 C   0  0  0  0  0  0  0  0  0  0  0  0
  -10.5580    4.7460  -77.6920 C   0  0  0  0  0  0  0  0  0  0  0  0
  -11.6110    4.5370  -76.8080 C   0  0  0  0  0  0  0  0  0  0  0  0
  -12.9470    5.2580  -76.9630 C   0  0  0  0  0  0  0  0  0  0  0  0
  -12.9530    6.0270  -77.9070 O   0  0  0  0  0  0  0  0  0  0  0  0
  -13.9050    5.0880  -76.2150 O   0  0  0  0  0  0  0  0  0  0  0  0
  1  2  2  0
  2  3  1  0
  2  4  1  0
  3  5  1  0
  4  6  1  0
  5  7  1  0
  6  8  1  0
  7  9  1  0
  8 10  2  0
  8 11  1  0
  9 12  1  0
 10 13  1  0
 11 14  2  0
 12 15  2  0
 12 16  1  0
 13 17  2  0
 14 17  1  0
 15 18  1  0
 16 19  2  0
 18 20  2  0
 19 20  1  0
 20 21  1  0
 21 22  2  0
 21 23  1  0
M  END
>  <ref_url>  (181) 
https://fakepage.com

>  <submitter_name>  (181) 
Steph Wills

>  <submitter_email>  (181) 
stephanie.wills@dtc.ox.ac.uk

>  <submitter_institution>  (181) 
University of Oxford

>  <generation_date>  (181) 
2020-06-04

>  <method>  (181) 
Fragment network

>  <ref_mols>  (181) 
x0176_0B,x0212_0B

>  <ref_pdb>  (181) 
references/x0176-0B-x0212-0B-216175.holo_minimised_nolig.pdb

>  <original SMILES>  (181) 
O=C(NCCNc1ccc(C(=O)O)cc1)OCc1ccccc1

>  <synthon>  (181) 
[Xe]c1ccccc1

>  <original_name>  (181) 
x0176-0B-x0212-0B-216175

>  <comRMSD_score>  (181) 
0.6330970053489566

>  <IF_score>  (181) 
0.675

>  <SuCOS_score>  (181) 
0.4427990062334719

>  <compound_ID>  (181) 
CHEMSPACE-BB:CSMB00154415516

$$$$

     RDKit          3D

 20 21  0  0  0  0  0  0  0  0999 V2000
  -13.5030    5.5380  -75.8100 C   0  0  0  0  0  0  0  0  0  0  0  0
  -13.0490    4.9680  -77.1310 C   0  0  0  0  0  0  0  0  0  0  0  0
  -11.6890    4.3740  -76.9650 C   0  0  0  0  0  0  0  0  0  0  0  0
  -11.4140    3.4570  -75.9470 C   0  0  0  0  0  0  0  0  0  0  0  0
  -10.6870    4.7440  -77.8370 C   0  0  0  0  0  0  0  0  0  0  0  0
  -10.1320    2.9230  -75.8180 C   0  0  0  0  0  0  0  0  0  0  0  0
   -9.4180    4.2150  -77.7110 C   0  0  0  0  0  0  0  0  0  0  0  0
   -9.1260    3.3100  -76.7090 C   0  0  0  0  0  0  0  0  0  0  0  0
   -7.8690    2.7910  -76.5910 N   0  0  0  0  0  0  0  0  0  0  0  0
   -6.8040    3.7020  -76.1420 C   0  0  0  0  0  0  0  0  0  0  0  0
   -7.6230    1.6470  -77.2720 C   0  0  0  0  0  0  0  0  0  0  0  0
   -8.3130    0.6400  -77.2830 O   0  0  0  0  0  0  0  0  0  0  0  0
   -6.4560    1.7730  -77.9660 N   0  0  0  0  0  0  0  0  0  0  0  0
   -6.3510    2.1600  -79.2760 C   0  0  0  0  0  0  0  0  0  0  0  0
   -7.0690    1.1430  -80.1710 C   0  0  0  0  0  0  0  0  0  0  0  0
   -7.4140   -0.1180  -79.6850 C   0  0  0  0  0  0  0  0  0  0  0  0
   -7.4150    1.4670  -81.4940 C   0  0  0  0  0  0  0  0  0  0  0  0
   -8.0870   -1.0330  -80.5040 C   0  0  0  0  0  0  0  0  0  0  0  0
   -8.0830    0.5540  -82.3080 C   0  0  0  0  0  0  0  0  0  0  0  0
   -8.4180   -0.6960  -81.8100 C   0  0  0  0  0  0  0  0  0  0  0  0
  1  2  1  0
  2  3  1  0
  3  4  2  0
  3  5  1  0
  4  6  1  0
  5  7  2  0
  6  8  2  0
  7  8  1  0
  8  9  1  0
  9 10  1  0
  9 11  1  0
 11 12  2  0
 11 13  1  0
 13 14  1  0
 14 15  1  0
 15 16  2  0
 15 17  1  0
 16 18  1  0
 17 19  2  0
 18 20  2  0
 19 20  1  0
M  END
>  <ref_url>  (182) 
https://fakepage.com

>  <submitter_name>  (182) 
Steph Wills

>  <submitter_email>  (182) 
stephanie.wills@dtc.ox.ac.uk

>  <submitter_institution>  (182) 
University of Oxford

>  <generation_date>  (182) 
2020-06-04

>  <method>  (182) 
Fragment network

>  <ref_mols>  (182) 
x0176_0B,x0212_0B

>  <ref_pdb>  (182) 
references/x0176-0B-x0212-0B-216404.holo_minimised_nolig.pdb

>  <original SMILES>  (182) 
CCc1ccc(N(C)C(=O)NCc2ccccc2)cc1

>  <synthon>  (182) 
[Xe]c1ccccc1

>  <original_name>  (182) 
x0176-0B-x0212-0B-216404

>  <comRMSD_score>  (182) 
0.970524214020444

>  <IF_score>  (182) 
0.3125

>  <SuCOS_score>  (182) 
0.4310540921544125

>  <compound_ID>  (182) 
CHEMSPACE-BB:CSMB00014266846

$$$$

     RDKit          3D

 23 24  0  0  0  0  0  0  0  0999 V2000
  -13.6990    5.6220  -76.2270 C   0  0  0  0  0  0  0  0  0  0  0  0
  -12.9630    5.2490  -77.4970 C   0  0  0  0  0  0  0  0  0  0  0  0
  -13.8410    4.5220  -78.4830 C   0  0  0  0  0  0  0  0  0  0  0  0
  -11.7580    4.3730  -77.1290 C   0  0  0  0  0  0  0  0  0  0  0  0
  -10.6110    4.6060  -77.8740 C   0  0  0  0  0  0  0  0  0  0  0  0
  -11.7880    3.3990  -76.1120 C   0  0  0  0  0  0  0  0  0  0  0  0
   -9.4600    3.8750  -77.6240 C   0  0  0  0  0  0  0  0  0  0  0  0
  -10.6550    2.6370  -75.8240 C   0  0  0  0  0  0  0  0  0  0  0  0
   -9.4930    2.8340  -76.5380 C   0  0  0  0  0  0  0  0  0  0  0  0
   -8.2270    2.1710  -76.4060 N   0  0  0  0  0  0  0  0  0  0  0  0
   -7.0590    2.6180  -76.9520 C   0  0  0  0  0  0  0  0  0  0  0  0
   -6.0540    2.9530  -76.3430 O   0  0  0  0  0  0  0  0  0  0  0  0
   -7.1450    2.6490  -78.3190 N   0  0  0  0  0  0  0  0  0  0  0  0
   -6.1970    2.0770  -79.1280 C   0  0  1  0  0  0  0  0  0  0  0  0
   -6.9560    1.1370  -80.0690 C   0  0  0  0  0  0  0  0  0  0  0  0
   -5.4520    3.0630  -79.8070 C   0  0  0  0  0  0  0  0  0  0  0  0
   -7.4040   -0.1040  -79.5890 C   0  0  0  0  0  0  0  0  0  0  0  0
   -7.2370    1.4740  -81.4130 C   0  0  0  0  0  0  0  0  0  0  0  0
   -4.7270    2.4830  -80.8050 F   0  0  0  0  0  0  0  0  0  0  0  0
   -4.5260    3.6520  -79.0080 F   0  0  0  0  0  0  0  0  0  0  0  0
   -8.1100   -0.9800  -80.4170 C   0  0  0  0  0  0  0  0  0  0  0  0
   -7.9420    0.5880  -82.2410 C   0  0  0  0  0  0  0  0  0  0  0  0
   -8.3780   -0.6380  -81.7350 C   0  0  0  0  0  0  0  0  0  0  0  0
  1  2  1  0
  2  3  1  0
  2  4  1  0
  4  5  2  0
  4  6  1  0
  5  7  1  0
  6  8  2  0
  7  9  2  0
  8  9  1  0
  9 10  1  0
 10 11  1  0
 11 12  2  0
 11 13  1  0
 14 13  1  1
 14 15  1  0
 14 16  1  0
 15 17  2  0
 15 18  1  0
 16 19  1  0
 16 20  1  0
 17 21  1  0
 18 22  2  0
 21 23  2  0
 22 23  1  0
M  END
>  <ref_url>  (183) 
https://fakepage.com

>  <submitter_name>  (183) 
Steph Wills

>  <submitter_email>  (183) 
stephanie.wills@dtc.ox.ac.uk

>  <submitter_institution>  (183) 
University of Oxford

>  <generation_date>  (183) 
2020-06-04

>  <method>  (183) 
Fragment network

>  <ref_mols>  (183) 
x0176_0B,x0212_0B

>  <ref_pdb>  (183) 
references/x0176-0B-x0212-0B-217445.holo_minimised_nolig.pdb

>  <original SMILES>  (183) 
CC(C)c1ccc(NC(=O)NC(c2ccccc2)C(F)F)cc1

>  <synthon>  (183) 
[Xe]c1ccccc1

>  <original_name>  (183) 
x0176-0B-x0212-0B-217445

>  <comRMSD_score>  (183) 
0.9133355257563868

>  <IF_score>  (183) 
0.2222222222222222

>  <SuCOS_score>  (183) 
0.4559922125052738

>  <compound_ID>  (183) 
REAL:PV-001940566119

$$$$

     RDKit          3D

 22 23  0  0  0  0  0  0  0  0999 V2000
  -13.5490    5.7260  -75.9790 C   0  0  0  0  0  0  0  0  0  0  0  0
  -13.1270    5.0380  -77.2570 C   0  0  0  0  0  0  0  0  0  0  0  0
  -11.8080    4.3240  -76.9990 C   0  0  0  0  0  0  0  0  0  0  0  0
  -10.7130    4.6370  -77.9970 C   0  0  0  0  0  0  0  0  0  0  0  0
  -11.6170    3.4640  -75.9330 C   0  0  0  0  0  0  0  0  0  0  0  0
   -9.4340    3.9430  -77.7180 C   0  0  0  0  0  0  0  0  0  0  0  0
  -10.3810    2.8540  -75.7500 C   0  0  0  0  0  0  0  0  0  0  0  0
   -9.3120    3.0920  -76.6230 C   0  0  0  0  0  0  0  0  0  0  0  0
   -8.1030    2.4860  -76.4310 N   0  0  0  0  0  0  0  0  0  0  0  0
   -7.6740    1.5590  -77.3170 C   0  0  0  0  0  0  0  0  0  0  0  0
   -8.1910    0.4560  -77.5010 O   0  0  0  0  0  0  0  0  0  0  0  0
   -6.5550    2.0710  -77.9910 N   0  0  0  0  0  0  0  0  0  0  0  0
   -6.3890    2.2770  -79.3490 C   0  0  2  0  0  0  0  0  0  0  0  0
   -7.0680    1.1770  -80.1460 C   0  0  0  0  0  0  0  0  0  0  0  0
   -5.0460    2.5270  -79.6490 C   0  0  0  0  0  0  0  0  0  0  0  0
   -7.4040    1.5760  -81.5510 C   0  0  0  0  0  0  0  0  0  0  0  0
   -7.3940   -0.1000  -79.6720 C   0  0  0  0  0  0  0  0  0  0  0  0
   -4.8500    3.8020  -80.0720 F   0  0  0  0  0  0  0  0  0  0  0  0
   -4.6280    1.7340  -80.6790 F   0  0  0  0  0  0  0  0  0  0  0  0
   -8.0410    0.6720  -82.3980 C   0  0  0  0  0  0  0  0  0  0  0  0
   -8.0450   -1.0170  -80.5200 C   0  0  0  0  0  0  0  0  0  0  0  0
   -8.3740   -0.6890  -81.8440 C   0  0  0  0  0  0  0  0  0  0  0  0
  1  2  1  0
  2  3  1  0
  3  4  2  0
  3  5  1  0
  4  6  1  0
  5  7  2  0
  6  8  2  0
  7  8  1  0
  8  9  1  0
  9 10  1  0
 10 11  2  0
 10 12  1  0
 13 12  1  1
 13 14  1  0
 13 15  1  0
 14 16  2  0
 14 17  1  0
 15 18  1  0
 15 19  1  0
 16 20  1  0
 17 21  2  0
 20 22  2  0
 21 22  1  0
M  END
>  <ref_url>  (184) 
https://fakepage.com

>  <submitter_name>  (184) 
Steph Wills

>  <submitter_email>  (184) 
stephanie.wills@dtc.ox.ac.uk

>  <submitter_institution>  (184) 
University of Oxford

>  <generation_date>  (184) 
2020-06-04

>  <method>  (184) 
Fragment network

>  <ref_mols>  (184) 
x0176_0B,x0212_0B

>  <ref_pdb>  (184) 
references/x0176-0B-x0212-0B-218197.holo_minimised_nolig.pdb

>  <original SMILES>  (184) 
CCc1ccc(NC(=O)NC(c2ccccc2)C(F)F)cc1

>  <synthon>  (184) 
[Xe]c1ccccc1

>  <original_name>  (184) 
x0176-0B-x0212-0B-218197

>  <comRMSD_score>  (184) 
0.9527247110262232

>  <IF_score>  (184) 
0.2142857142857142

>  <SuCOS_score>  (184) 
0.4503860899994604

>  <compound_ID>  (184) 
REAL:Z2213199454

$$$$

     RDKit          3D

 23 24  0  0  0  0  0  0  0  0999 V2000
   -5.6050    2.8800  -77.3120 C   0  0  0  0  0  0  0  0  0  0  0  0
   -6.4620    1.8130  -77.9900 C   0  0  0  0  0  0  0  0  0  0  0  0
   -5.6790    0.5470  -78.3870 C   0  0  0  0  0  0  0  0  0  0  0  0
   -6.9880    2.4370  -79.2920 C   0  0  0  0  0  0  0  0  0  0  0  0
   -7.6510    1.4340  -77.1150 C   0  0  0  0  0  0  0  0  0  0  0  0
   -7.9530    1.6010  -80.0750 C   0  0  0  0  0  0  0  0  0  0  0  0
   -8.1300    0.3150  -77.0310 O   0  0  0  0  0  0  0  0  0  0  0  0
   -8.1060    2.4830  -76.4290 N   0  0  0  0  0  0  0  0  0  0  0  0
   -8.4830    2.0920  -81.2730 C   0  0  0  0  0  0  0  0  0  0  0  0
   -8.3490    0.3200  -79.6350 C   0  0  0  0  0  0  0  0  0  0  0  0
   -9.3350    3.1550  -76.5760 C   0  0  0  0  0  0  0  0  0  0  0  0
   -9.3750    1.3010  -81.9700 C   0  0  0  0  0  0  0  0  0  0  0  0
   -9.2470   -0.4180  -80.3840 C   0  0  0  0  0  0  0  0  0  0  0  0
   -9.4500    4.0640  -77.6220 C   0  0  0  0  0  0  0  0  0  0  0  0
  -10.4150    2.9630  -75.7240 C   0  0  0  0  0  0  0  0  0  0  0  0
   -9.7780    0.0490  -81.5490 C   0  0  0  0  0  0  0  0  0  0  0  0
  -10.6170    4.7830  -77.8010 C   0  0  0  0  0  0  0  0  0  0  0  0
  -11.5890    3.6910  -75.9110 C   0  0  0  0  0  0  0  0  0  0  0  0
  -11.6950    4.6160  -76.9490 C   0  0  0  0  0  0  0  0  0  0  0  0
  -12.8520    5.3730  -77.1410 C   0  0  0  0  0  0  0  0  0  0  0  0
  -13.3590    5.7500  -75.9200 C   0  0  0  0  0  0  0  0  0  0  0  0
  -12.8270    6.9100  -75.4600 N   0  0  0  0  0  0  0  0  0  0  0  0
  -14.1990    5.0820  -75.3350 O   0  0  0  0  0  0  0  0  0  0  0  0
  1  2  1  0
  2  3  1  0
  2  4  1  0
  2  5  1  0
  4  6  1  0
  5  7  2  0
  5  8  1  0
  6  9  2  0
  6 10  1  0
  8 11  1  0
  9 12  1  0
 10 13  2  0
 11 14  2  0
 11 15  1  0
 12 16  2  0
 13 16  1  0
 14 17  1  0
 15 18  2  0
 17 19  2  0
 18 19  1  0
 19 20  1  0
 20 21  1  0
 21 22  1  0
 21 23  2  0
M  END
>  <ref_url>  (185) 
https://fakepage.com

>  <submitter_name>  (185) 
Steph Wills

>  <submitter_email>  (185) 
stephanie.wills@dtc.ox.ac.uk

>  <submitter_institution>  (185) 
University of Oxford

>  <generation_date>  (185) 
2020-06-04

>  <method>  (185) 
Fragment network

>  <ref_mols>  (185) 
x0176_0B,x0212_0B

>  <ref_pdb>  (185) 
references/x0176-0B-x0212-0B-218788.holo_minimised_nolig.pdb

>  <original SMILES>  (185) 
CC(C)(Cc1ccccc1)C(=O)Nc1ccc(CC(N)=O)cc1

>  <synthon>  (185) 
[Xe]c1ccccc1

>  <original_name>  (185) 
x0176-0B-x0212-0B-218788

>  <comRMSD_score>  (185) 
0.6254031366513377

>  <IF_score>  (185) 
0.675

>  <SuCOS_score>  (185) 
0.5242537819893595

>  <compound_ID>  (185) 
REAL:Z1224610082

$$$$

     RDKit          3D

 26 27  0  0  0  0  0  0  0  0999 V2000
   -8.4760   -1.4470  -77.6420 C   0  0  0  0  0  0  0  0  0  0  0  0
   -7.9400   -0.7490  -76.4040 C   0  0  1  0  0  0  0  0  0  0  0  0
   -6.9420    0.2550  -76.7450 N   0  0  0  0  0  0  0  0  0  0  0  0
   -9.0620    0.0860  -75.7760 C   0  0  0  0  0  0  0  0  0  0  0  0
   -6.3780    1.4370  -77.1510 C   0  0  0  0  0  0  0  0  0  0  0  0
   -9.9830   -0.4560  -75.1520 O   0  0  0  0  0  0  0  0  0  0  0  0
   -8.8580    1.4400  -76.0290 N   0  0  0  0  0  0  0  0  0  0  0  0
   -5.2580    1.7350  -76.7240 O   0  0  0  0  0  0  0  0  0  0  0  0
   -6.9510    2.3900  -77.9990 C   0  0  0  0  0  0  0  0  0  0  0  0
   -9.8680    2.4240  -76.3510 C   0  0  0  0  0  0  0  0  0  0  0  0
   -6.4120    2.2980  -79.2880 C   0  0  0  0  0  0  0  0  0  0  0  0
   -9.5450    3.3420  -77.3660 C   0  0  0  0  0  0  0  0  0  0  0  0
  -11.0870    2.4810  -75.7190 C   0  0  0  0  0  0  0  0  0  0  0  0
   -7.0410    1.3440  -80.1120 C   0  0  0  0  0  0  0  0  0  0  0  0
  -10.4770    4.3120  -77.7350 C   0  0  0  0  0  0  0  0  0  0  0  0
  -12.0110    3.4460  -76.0880 C   0  0  0  0  0  0  0  0  0  0  0  0
   -7.3990    1.7410  -81.5340 C   0  0  0  0  0  0  0  0  0  0  0  0
   -7.3460    0.0390  -79.6400 C   0  0  0  0  0  0  0  0  0  0  0  0
  -11.7150    4.3670  -77.0960 C   0  0  0  0  0  0  0  0  0  0  0  0
   -8.0690    0.6450  -82.3420 C   0  0  0  0  0  0  0  0  0  0  0  0
   -7.9830   -0.9540  -80.4270 C   0  0  0  0  0  0  0  0  0  0  0  0
  -12.6500    5.3310  -77.4570 C   0  0  0  0  0  0  0  0  0  0  0  0
   -8.3610   -0.7310  -81.7520 C   0  0  0  0  0  0  0  0  0  0  0  0
  -13.1830    6.0090  -76.3590 C   0  0  0  0  0  0  0  0  0  0  0  0
  -12.6140    5.7000  -75.1500 N   0  0  0  0  0  0  0  0  0  0  0  0
  -14.0890    6.8260  -76.4520 O   0  0  0  0  0  0  0  0  0  0  0  0
  2  1  1  6
  2  3  1  0
  2  4  1  0
  3  5  1  0
  4  6  2  0
  4  7  1  0
  5  8  2  0
  5  9  1  0
  7 10  1  0
  9 11  1  0
 10 12  2  0
 10 13  1  0
 11 14  1  0
 12 15  1  0
 13 16  2  0
 14 17  2  0
 14 18  1  0
 15 19  2  0
 16 19  1  0
 17 20  1  0
 18 21  2  0
 19 22  1  0
 20 23  2  0
 21 23  1  0
 22 24  1  0
 24 25  1  0
 24 26  2  0
M  END
>  <ref_url>  (186) 
https://fakepage.com

>  <submitter_name>  (186) 
Steph Wills

>  <submitter_email>  (186) 
stephanie.wills@dtc.ox.ac.uk

>  <submitter_institution>  (186) 
University of Oxford

>  <generation_date>  (186) 
2020-06-04

>  <method>  (186) 
Fragment network

>  <ref_mols>  (186) 
x0176_0B,x0212_0B

>  <ref_pdb>  (186) 
references/x0176-0B-x0212-0B-224236.holo_minimised_nolig.pdb

>  <original SMILES>  (186) 
CC(NC(=O)CCc1ccccc1)C(=O)Nc1ccc(CC(N)=O)cc1

>  <synthon>  (186) 
[Xe]c1ccccc1

>  <original_name>  (186) 
x0176-0B-x0212-0B-224236

>  <comRMSD_score>  (186) 
0.8871802945286822

>  <IF_score>  (186) 
0.1428571428571428

>  <SuCOS_score>  (186) 
0.4529867959842326

>  <compound_ID>  (186) 
REAL:Z1993982875

$$$$

     RDKit          3D

 27 28  0  0  0  0  0  0  0  0999 V2000
  -14.5270    9.0010  -72.1640 C   0  0  0  0  0  0  0  0  0  0  0  0
  -14.0330    8.2370  -73.2700 O   0  0  0  0  0  0  0  0  0  0  0  0
  -13.9250    6.9080  -73.0160 C   0  0  0  0  0  0  0  0  0  0  0  0
  -14.6980    6.2450  -72.3240 O   0  0  0  0  0  0  0  0  0  0  0  0
  -12.6850    6.3050  -73.7110 C   0  0  0  0  0  0  0  0  0  0  0  0
  -12.8790    6.4570  -75.1670 N   0  0  0  0  0  0  0  0  0  0  0  0
  -13.4350    5.2850  -75.7970 C   0  0  0  0  0  0  0  0  0  0  0  0
  -14.3600    4.6600  -75.2820 O   0  0  0  0  0  0  0  0  0  0  0  0
  -12.8350    4.8720  -77.1170 C   0  0  0  0  0  0  0  0  0  0  0  0
  -11.5460    4.3460  -76.9600 C   0  0  0  0  0  0  0  0  0  0  0  0
  -10.5390    4.7200  -77.8150 C   0  0  0  0  0  0  0  0  0  0  0  0
  -11.2160    3.4210  -75.9410 C   0  0  0  0  0  0  0  0  0  0  0  0
   -9.2510    4.2470  -77.7350 C   0  0  0  0  0  0  0  0  0  0  0  0
   -9.9020    2.8970  -75.7980 C   0  0  0  0  0  0  0  0  0  0  0  0
   -8.8700    3.2830  -76.6690 C   0  0  0  0  0  0  0  0  0  0  0  0
   -7.4370    2.8690  -76.6820 N   0  0  0  0  0  0  0  0  0  0  0  0
   -6.6110    3.5870  -77.5100 C   0  0  0  0  0  0  0  0  0  0  0  0
   -5.8070    4.5860  -77.0690 O   0  0  0  0  0  0  0  0  0  0  0  0
   -6.6010    3.2050  -78.8830 C   0  0  0  0  0  0  0  0  0  0  0  0
   -6.5570    1.6980  -78.9390 C   0  0  1  0  0  0  0  0  0  0  0  0
   -7.3130    1.3670  -77.7370 N   0  0  0  0  0  0  0  0  0  0  0  0
   -7.1540    1.0090  -80.0120 C   0  0  0  0  0  0  0  0  0  0  0  0
   -7.5990   -0.2800  -79.7460 C   0  0  0  0  0  0  0  0  0  0  0  0
   -7.3740    1.4960  -81.3330 C   0  0  0  0  0  0  0  0  0  0  0  0
   -8.2200   -1.0660  -80.6800 C   0  0  0  0  0  0  0  0  0  0  0  0
   -8.0210    0.6750  -82.2920 C   0  0  0  0  0  0  0  0  0  0  0  0
   -8.4470   -0.6140  -81.9610 C   0  0  0  0  0  0  0  0  0  0  0  0
  1  2  1  0
  2  3  1  0
  3  4  2  0
  3  5  1  0
  5  6  1  0
  6  7  1  0
  7  8  2  0
  7  9  1  0
  9 10  1  0
 10 11  2  0
 10 12  1  0
 11 13  1  0
 12 14  2  0
 13 15  2  0
 14 15  1  0
 15 16  1  0
 16 17  1  0
 17 18  2  0
 17 19  1  0
 19 20  1  0
 20 21  1  1
 20 22  1  0
 22 23  2  0
 22 24  1  0
 23 25  1  0
 24 26  2  0
 25 27  2  0
 26 27  1  0
M  END
>  <ref_url>  (187) 
https://fakepage.com

>  <submitter_name>  (187) 
Steph Wills

>  <submitter_email>  (187) 
stephanie.wills@dtc.ox.ac.uk

>  <submitter_institution>  (187) 
University of Oxford

>  <generation_date>  (187) 
2020-06-04

>  <method>  (187) 
Fragment network

>  <ref_mols>  (187) 
x0176_0B,x0212_0B

>  <ref_pdb>  (187) 
references/x0176-0B-x0212-0B-225052.holo_minimised_nolig.pdb

>  <original SMILES>  (187) 
COC(=O)CNC(=O)Cc1ccc(NC(=O)CC(N)c2ccccc2)cc1

>  <synthon>  (187) 
[Xe]c1ccccc1

>  <original_name>  (187) 
x0176-0B-x0212-0B-225052

>  <comRMSD_score>  (187) 
0.7935255602781893

>  <IF_score>  (187) 
0.5

>  <SuCOS_score>  (187) 
0.5451173602375777

>  <compound_ID>  (187) 
REAL:Z2447937698

$$$$

     RDKit          3D

 23 24  0  0  0  0  0  0  0  0999 V2000
  -13.7930    5.7740  -75.9280 C   0  0  0  0  0  0  0  0  0  0  0  0
  -13.1450    4.9940  -77.0360 C   0  0  0  0  0  0  0  0  0  0  0  0
  -13.7870    4.8930  -78.3140 O   0  0  0  0  0  0  0  0  0  0  0  0
  -11.8070    4.3200  -76.7790 C   0  0  0  0  0  0  0  0  0  0  0  0
  -10.7140    4.7930  -77.7160 C   0  0  0  0  0  0  0  0  0  0  0  0
  -11.5620    3.3630  -75.7930 C   0  0  0  0  0  0  0  0  0  0  0  0
   -9.3910    4.1410  -77.4890 C   0  0  0  0  0  0  0  0  0  0  0  0
  -10.2850    2.8130  -75.6550 C   0  0  0  0  0  0  0  0  0  0  0  0
   -9.2320    3.2010  -76.4910 C   0  0  0  0  0  0  0  0  0  0  0  0
   -8.0060    2.6140  -76.3000 N   0  0  0  0  0  0  0  0  0  0  0  0
   -6.9310    2.8070  -77.1120 C   0  0  0  0  0  0  0  0  0  0  0  0
   -6.0590    3.9390  -77.1330 O   0  0  0  0  0  0  0  0  0  0  0  0
   -6.7720    1.6970  -77.9430 N   0  0  0  0  0  0  0  0  0  0  0  0
   -6.7000    0.4080  -77.4470 C   0  0  0  0  0  0  0  0  0  0  0  0
   -6.3690    1.9500  -79.2510 C   0  0  1  0  0  0  0  0  0  0  0  0
   -4.9070    1.6410  -79.4330 C   0  0  0  0  0  0  0  0  0  0  0  0
   -7.1510    1.0190  -80.1870 C   0  0  0  0  0  0  0  0  0  0  0  0
   -4.5010    1.7940  -80.7930 O   0  0  0  0  0  0  0  0  0  0  0  0
   -7.6240   -0.3250  -79.7070 C   0  0  0  0  0  0  0  0  0  0  0  0
   -7.4670    1.3930  -81.4960 C   0  0  0  0  0  0  0  0  0  0  0  0
   -8.3490   -1.1380  -80.5670 C   0  0  0  0  0  0  0  0  0  0  0  0
   -8.1980    0.5380  -82.3160 C   0  0  0  0  0  0  0  0  0  0  0  0
   -8.6330   -0.7100  -81.8550 C   0  0  0  0  0  0  0  0  0  0  0  0
  1  2  1  0
  2  3  2  0
  2  4  1  0
  4  5  2  0
  4  6  1  0
  5  7  1  0
  6  8  2  0
  7  9  2  0
  8  9  1  0
  9 10  1  0
 10 11  1  0
 11 12  2  0
 11 13  1  0
 13 14  1  0
 13 15  1  0
 15 16  1  1
 15 17  1  0
 16 18  1  0
 17 19  2  0
 17 20  1  0
 19 21  1  0
 20 22  2  0
 21 23  2  0
 22 23  1  0
M  END
>  <ref_url>  (188) 
https://fakepage.com

>  <submitter_name>  (188) 
Steph Wills

>  <submitter_email>  (188) 
stephanie.wills@dtc.ox.ac.uk

>  <submitter_institution>  (188) 
University of Oxford

>  <generation_date>  (188) 
2020-06-04

>  <method>  (188) 
Fragment network

>  <ref_mols>  (188) 
x0176_0B,x0212_0B

>  <ref_pdb>  (188) 
references/x0176-0B-x0212-0B-226280.holo_minimised_nolig.pdb

>  <original SMILES>  (188) 
CC(=O)c1ccc(NC(=O)N(C)C(CO)c2ccccc2)cc1

>  <synthon>  (188) 
[Xe]c1ccccc1

>  <original_name>  (188) 
x0176-0B-x0212-0B-226280

>  <comRMSD_score>  (188) 
0.9672518846367436

>  <IF_score>  (188) 
0.4375

>  <SuCOS_score>  (188) 
0.4031256253747741

>  <compound_ID>  (188) 
REAL:PV-001941538441

$$$$

     RDKit          3D

 25 26  0  0  0  0  0  0  0  0999 V2000
  -12.6050    6.2980  -73.9240 C   0  0  0  0  0  0  0  0  0  0  0  0
  -12.6630    6.3500  -75.1590 O   0  0  0  0  0  0  0  0  0  0  0  0
  -13.6500    5.5920  -75.7240 C   0  0  0  0  0  0  0  0  0  0  0  0
  -14.7630    5.4100  -75.2570 O   0  0  0  0  0  0  0  0  0  0  0  0
  -13.1740    4.9930  -77.0230 C   0  0  0  0  0  0  0  0  0  0  0  0
  -12.8250    5.8330  -78.0560 C   0  0  0  0  0  0  0  0  0  0  0  0
  -14.1990    4.0210  -77.6490 C   0  0  0  0  0  0  0  0  0  0  0  0
  -11.8680    4.2310  -76.7200 C   0  0  0  0  0  0  0  0  0  0  0  0
  -11.8620    3.1560  -75.6410 C   0  0  0  0  0  0  0  0  0  0  0  0
  -10.7010    4.5560  -77.4540 C   0  0  0  0  0  0  0  0  0  0  0  0
  -10.5110    2.5170  -75.4590 C   0  0  0  0  0  0  0  0  0  0  0  0
   -9.4670    3.9330  -77.2500 C   0  0  0  0  0  0  0  0  0  0  0  0
   -9.3230    2.9490  -76.2980 C   0  0  0  0  0  0  0  0  0  0  0  0
   -8.0450    2.3080  -76.0730 N   0  0  0  0  0  0  0  0  0  0  0  0
   -7.1410    2.7380  -77.1290 C   0  0  0  0  0  0  0  0  0  0  0  0
   -6.7100    3.8700  -77.2680 O   0  0  0  0  0  0  0  0  0  0  0  0
   -6.7670    1.6300  -77.9910 N   0  0  0  0  0  0  0  0  0  0  0  0
   -6.2890    0.4170  -77.3830 C   0  0  0  0  0  0  0  0  0  0  0  0
   -6.3350    1.8970  -79.3660 C   0  0  0  0  0  0  0  0  0  0  0  0
   -7.0490    1.0430  -80.1950 C   0  0  0  0  0  0  0  0  0  0  0  0
   -7.4110    1.4250  -81.4930 C   0  0  0  0  0  0  0  0  0  0  0  0
   -7.4440   -0.2170  -79.7440 C   0  0  0  0  0  0  0  0  0  0  0  0
   -8.1460    0.5580  -82.2970 C   0  0  0  0  0  0  0  0  0  0  0  0
   -8.1730   -1.0850  -80.5340 C   0  0  0  0  0  0  0  0  0  0  0  0
   -8.5270   -0.6960  -81.8150 C   0  0  0  0  0  0  0  0  0  0  0  0
  1  2  1  0
  2  3  1  0
  3  4  2  0
  5  3  1  0
  5  6  1  0
  5  7  1  0
  5  8  1  0
  8  9  2  0
  8 10  1  0
  9 11  1  0
 10 12  2  0
 11 13  2  0
 12 13  1  0
 13 14  1  0
 14 15  1  0
 15 16  2  0
 15 17  1  0
 17 18  1  0
 17 19  1  0
 19 20  1  0
 20 21  2  0
 20 22  1  0
 21 23  1  0
 22 24  2  0
 23 25  2  0
 24 25  1  0
M  END
>  <ref_url>  (189) 
https://fakepage.com

>  <submitter_name>  (189) 
Steph Wills

>  <submitter_email>  (189) 
stephanie.wills@dtc.ox.ac.uk

>  <submitter_institution>  (189) 
University of Oxford

>  <generation_date>  (189) 
2020-06-04

>  <method>  (189) 
Fragment network

>  <ref_mols>  (189) 
x0176_0B,x0212_0B

>  <ref_pdb>  (189) 
references/x0176-0B-x0212-0B-226677.holo_minimised_nolig.pdb

>  <original SMILES>  (189) 
COC(=O)C(C)(C)c1ccc(NC(=O)N(C)Cc2ccccc2)cc1

>  <synthon>  (189) 
[Xe]c1ccccc1

>  <original_name>  (189) 
x0176-0B-x0212-0B-226677

>  <comRMSD_score>  (189) 
0.8686893277508054

>  <IF_score>  (189) 
0.3541666666666666

>  <SuCOS_score>  (189) 
0.4507189271194823

>  <compound_ID>  (189) 
REAL:Z1278142381

$$$$

     RDKit          3D

 22 23  0  0  0  0  0  0  0  0999 V2000
  -13.5110    5.4680  -76.2050 C   0  0  0  0  0  0  0  0  0  0  0  0
  -13.0040    4.6960  -77.4150 C   0  0  0  0  0  0  0  0  0  0  0  0
  -11.6570    4.1060  -77.1300 C   0  0  0  0  0  0  0  0  0  0  0  0
  -10.5800    4.4350  -77.9360 C   0  0  0  0  0  0  0  0  0  0  0  0
  -11.4570    3.2250  -76.0570 C   0  0  0  0  0  0  0  0  0  0  0  0
   -9.3290    3.9070  -77.6740 C   0  0  0  0  0  0  0  0  0  0  0  0
  -10.1930    2.6890  -75.7910 C   0  0  0  0  0  0  0  0  0  0  0  0
   -9.1190    3.0370  -76.6020 C   0  0  0  0  0  0  0  0  0  0  0  0
   -7.8210    2.6390  -76.4910 O   0  0  0  0  0  0  0  0  0  0  0  0
   -6.9060    3.7330  -76.6110 C   0  0  0  0  0  0  0  0  0  0  0  0
   -5.4400    3.3460  -76.4950 C   0  0  0  0  0  0  0  0  0  0  0  0
   -4.7900    3.1460  -77.5980 N   0  0  0  0  0  0  0  0  0  0  0  0
   -5.1660    3.8350  -78.8540 C   0  0  0  0  0  0  0  0  0  0  0  0
   -4.5000    5.0400  -79.2380 O   0  0  0  0  0  0  0  0  0  0  0  0
   -6.1880    3.2460  -79.6490 O   0  0  0  0  0  0  0  0  0  0  0  0
   -6.9360    2.3130  -79.0020 C   0  0  0  0  0  0  0  0  0  0  0  0
   -7.8680    1.4950  -79.8290 C   0  0  0  0  0  0  0  0  0  0  0  0
   -8.3060    0.2610  -79.3330 C   0  0  0  0  0  0  0  0  0  0  0  0
   -8.3100    1.9340  -81.0720 C   0  0  0  0  0  0  0  0  0  0  0  0
   -9.1820   -0.5270  -80.0700 C   0  0  0  0  0  0  0  0  0  0  0  0
   -9.1760    1.1440  -81.7910 C   0  0  0  0  0  0  0  0  0  0  0  0
   -9.6160   -0.0810  -81.2970 C   0  0  0  0  0  0  0  0  0  0  0  0
  1  2  1  0
  2  3  1  0
  3  4  2  0
  3  5  1  0
  4  6  1  0
  5  7  2  0
  6  8  2  0
  7  8  1  0
  8  9  1  0
  9 10  1  0
 10 11  1  0
 11 12  1  0
 12 13  1  0
 13 14  2  0
 13 15  1  0
 15 16  1  0
 16 17  1  0
 17 18  2  0
 17 19  1  0
 18 20  1  0
 19 21  2  0
 20 22  2  0
 21 22  1  0
M  END
>  <ref_url>  (190) 
https://fakepage.com

>  <submitter_name>  (190) 
Steph Wills

>  <submitter_email>  (190) 
stephanie.wills@dtc.ox.ac.uk

>  <submitter_institution>  (190) 
University of Oxford

>  <generation_date>  (190) 
2020-06-04

>  <method>  (190) 
Fragment network

>  <ref_mols>  (190) 
x0176_0B,x0212_0B

>  <ref_pdb>  (190) 
references/x0176-0B-x0212-0B-227972.holo_minimised_nolig.pdb

>  <original SMILES>  (190) 
CCc1ccc(OCCNC(=O)OCc2ccccc2)cc1

>  <synthon>  (190) 
[Xe]c1ccccc1

>  <original_name>  (190) 
x0176-0B-x0212-0B-227972

>  <comRMSD_score>  (190) 
0.7193290565983461

>  <IF_score>  (190) 
0.25

>  <SuCOS_score>  (190) 
0.4982460069225419

>  <compound_ID>  (190) 
MOLPORT:003-822-110

$$$$

     RDKit          3D

 21 22  0  0  0  0  0  0  0  0999 V2000
  -13.2390    5.6010  -75.2720 C   0  0  0  0  0  0  0  0  0  0  0  0
  -12.8130    5.2000  -76.6760 C   0  0  0  0  0  0  0  0  0  0  0  0
  -12.5750    6.4200  -77.5390 C   0  0  0  0  0  0  0  0  0  0  0  0
  -11.6020    4.2890  -76.6520 C   0  0  0  0  0  0  0  0  0  0  0  0
  -10.4870    4.4950  -77.5000 C   0  0  0  0  0  0  0  0  0  0  0  0
  -11.6090    3.2050  -75.7530 C   0  0  0  0  0  0  0  0  0  0  0  0
   -9.3980    3.6320  -77.4570 C   0  0  0  0  0  0  0  0  0  0  0  0
  -10.5440    2.3090  -75.6670 C   0  0  0  0  0  0  0  0  0  0  0  0
   -9.4540    2.4910  -76.4890 C   0  0  0  0  0  0  0  0  0  0  0  0
   -8.5140    1.7090  -76.4340 O   0  0  0  0  0  0  0  0  0  0  0  0
   -7.2030    2.1810  -76.7370 C   0  0  0  0  0  0  0  0  0  0  0  0
   -6.4500    1.3920  -77.6150 C   0  0  0  0  0  0  0  0  0  0  0  0
   -6.3080    0.0640  -77.0730 O   0  0  0  0  0  0  0  0  0  0  0  0
   -5.9950    1.7750  -78.6800 O   0  0  0  0  0  0  0  0  0  0  0  0
   -6.8980    2.4570  -79.5180 C   0  0  0  0  0  0  0  0  0  0  0  0
   -7.8460    1.6270  -80.1250 C   0  0  0  0  0  0  0  0  0  0  0  0
   -8.2590    0.2960  -79.5530 C   0  0  0  0  0  0  0  0  0  0  0  0
   -8.4290    2.0460  -81.3060 C   0  0  0  0  0  0  0  0  0  0  0  0
   -9.2100   -0.4660  -80.2350 C   0  0  0  0  0  0  0  0  0  0  0  0
   -9.3680    1.2490  -81.9420 C   0  0  0  0  0  0  0  0  0  0  0  0
   -9.7590    0.0120  -81.4220 C   0  0  0  0  0  0  0  0  0  0  0  0
  1  2  1  0
  2  3  1  0
  2  4  1  0
  4  5  2  0
  4  6  1  0
  5  7  1  0
  6  8  2  0
  7  9  2  0
  8  9  1  0
  9 10  1  0
 10 11  1  0
 11 12  1  0
 12 13  2  0
 12 14  1  0
 14 15  1  0
 15 16  1  0
 16 17  2  0
 16 18  1  0
 17 19  1  0
 18 20  2  0
 19 21  2  0
 20 21  1  0
M  END
>  <ref_url>  (191) 
https://fakepage.com

>  <submitter_name>  (191) 
Steph Wills

>  <submitter_email>  (191) 
stephanie.wills@dtc.ox.ac.uk

>  <submitter_institution>  (191) 
University of Oxford

>  <generation_date>  (191) 
2020-06-04

>  <method>  (191) 
Fragment network

>  <ref_mols>  (191) 
x0176_0B,x0212_0B

>  <ref_pdb>  (191) 
references/x0176-0B-x0212-0B-228895.holo_minimised_nolig.pdb

>  <original SMILES>  (191) 
CC(C)c1ccc(OCC(=O)OCc2ccccc2)cc1

>  <synthon>  (191) 
[Xe]c1ccccc1

>  <original_name>  (191) 
x0176-0B-x0212-0B-228895

>  <comRMSD_score>  (191) 
0.5796257788248036

>  <IF_score>  (191) 
0.675

>  <SuCOS_score>  (191) 
0.4796978601021413

>  <compound_ID>  (191) 
CHEMSPACE-BB:CSMB00104071594

$$$$

     RDKit          3D

 20 21  0  0  0  0  0  0  0  0999 V2000
  -12.6320    6.2850  -73.8970 C   0  0  0  0  0  0  0  0  0  0  0  0
  -12.7620    6.3410  -75.2900 N   0  0  0  0  0  0  0  0  0  0  0  0
  -13.7850    5.5680  -75.8820 C   0  0  0  0  0  0  0  0  0  0  0  0
  -13.4920    4.3870  -76.8310 C   0  0  0  0  0  0  0  0  0  0  0  0
  -12.1530    4.0140  -76.8000 C   0  0  0  0  0  0  0  0  0  0  0  0
  -11.6330    3.1060  -75.8670 C   0  0  0  0  0  0  0  0  0  0  0  0
  -11.2930    4.5680  -77.7240 C   0  0  0  0  0  0  0  0  0  0  0  0
  -10.2940    2.7370  -75.8070 C   0  0  0  0  0  0  0  0  0  0  0  0
   -9.9510    4.2460  -77.7210 C   0  0  0  0  0  0  0  0  0  0  0  0
   -9.3980    3.3730  -76.8160 C   0  0  0  0  0  0  0  0  0  0  0  0
   -8.0470    3.1700  -76.9080 C   0  0  0  0  0  0  0  0  0  0  0  0
   -7.7060    2.0370  -77.5850 N   0  0  0  0  0  0  0  0  0  0  0  0
   -7.3060    0.9360  -76.7310 C   0  0  0  0  0  0  0  0  0  0  0  0
   -7.0990    2.1970  -78.8880 C   0  0  0  0  0  0  0  0  0  0  0  0
   -7.9110    1.4800  -79.7580 C   0  0  0  0  0  0  0  0  0  0  0  0
   -8.2710    1.9800  -81.1200 C   0  0  0  0  0  0  0  0  0  0  0  0
   -8.4130    0.2390  -79.3380 C   0  0  0  0  0  0  0  0  0  0  0  0
   -9.0870    1.1600  -81.8640 C   0  0  0  0  0  0  0  0  0  0  0  0
   -9.2400   -0.5210  -80.1660 C   0  0  0  0  0  0  0  0  0  0  0  0
   -9.5810   -0.0650  -81.4300 C   0  0  0  0  0  0  0  0  0  0  0  0
  1  2  1  0
  2  3  1  0
  3  4  1  0
  4  5  1  0
  5  6  2  0
  5  7  1  0
  6  8  1  0
  7  9  2  0
  8 10  2  0
  9 10  1  0
 10 11  1  0
 11 12  1  0
 12 13  1  0
 12 14  1  0
 14 15  1  0
 15 16  2  0
 15 17  1  0
 16 18  1  0
 17 19  2  0
 18 20  2  0
 19 20  1  0
M  END
>  <ref_url>  (192) 
https://fakepage.com

>  <submitter_name>  (192) 
Steph Wills

>  <submitter_email>  (192) 
stephanie.wills@dtc.ox.ac.uk

>  <submitter_institution>  (192) 
University of Oxford

>  <generation_date>  (192) 
2020-06-04

>  <method>  (192) 
Fragment network

>  <ref_mols>  (192) 
x0176_0B,x0212_0B

>  <ref_pdb>  (192) 
references/x0176-0B-x0212-0B-230366.holo_minimised_nolig.pdb

>  <original SMILES>  (192) 
CNCCc1ccc(CN(C)Cc2ccccc2)cc1

>  <synthon>  (192) 
[Xe]c1ccccc1

>  <original_name>  (192) 
x0176-0B-x0212-0B-230366

>  <comRMSD_score>  (192) 
0.7843890049657194

>  <IF_score>  (192) 
0.375

>  <SuCOS_score>  (192) 
0.5862409618481845

>  <compound_ID>  (192) 
CHEMSPACE-BB:CSMB00013842618

$$$$

     RDKit          3D

 24 25  0  0  0  0  0  0  0  0999 V2000
  -13.6270    5.7960  -75.7570 C   0  0  0  0  0  0  0  0  0  0  0  0
  -12.8540    5.6320  -77.0310 C   0  0  0  0  0  0  0  0  0  0  0  0
  -11.7070    4.6900  -76.8220 C   0  0  0  0  0  0  0  0  0  0  0  0
  -11.7180    3.7020  -75.8230 C   0  0  0  0  0  0  0  0  0  0  0  0
  -10.6050    4.8060  -77.6440 C   0  0  0  0  0  0  0  0  0  0  0  0
  -10.6160    2.8550  -75.6700 C   0  0  0  0  0  0  0  0  0  0  0  0
   -9.5210    3.9690  -77.4880 C   0  0  0  0  0  0  0  0  0  0  0  0
   -9.5190    2.9990  -76.5060 C   0  0  0  0  0  0  0  0  0  0  0  0
   -8.4250    2.1760  -76.3510 N   0  0  0  0  0  0  0  0  0  0  0  0
   -7.2220    2.5590  -76.8180 C   0  0  0  0  0  0  0  0  0  0  0  0
   -6.4930    3.4120  -76.3180 O   0  0  0  0  0  0  0  0  0  0  0  0
   -6.7650    1.9420  -77.9340 N   0  0  0  0  0  0  0  0  0  0  0  0
   -6.7240    2.2490  -79.3850 C   0  0  2  0  0  0  0  0  0  0  0  0
   -5.3640    1.8960  -80.0640 C   0  0  0  0  0  0  0  0  0  0  0  0
   -7.0930    3.7520  -79.5490 C   0  0  0  0  0  0  0  0  0  0  0  0
   -7.8190    1.4300  -80.0900 C   0  0  0  0  0  0  0  0  0  0  0  0
   -5.4580    1.2660  -81.4510 C   0  0  0  0  0  0  0  0  0  0  0  0
   -8.0960    4.2960  -79.1440 O   0  0  0  0  0  0  0  0  0  0  0  0
   -6.1950    4.4920  -80.2460 O   0  0  0  0  0  0  0  0  0  0  0  0
   -8.4330    1.9210  -81.2470 C   0  0  0  0  0  0  0  0  0  0  0  0
   -8.2350    0.1770  -79.5980 C   0  0  0  0  0  0  0  0  0  0  0  0
   -9.4190    1.1930  -81.8890 C   0  0  0  0  0  0  0  0  0  0  0  0
   -9.2290   -0.5500  -80.2480 C   0  0  0  0  0  0  0  0  0  0  0  0
   -9.8190   -0.0420  -81.3910 C   0  0  0  0  0  0  0  0  0  0  0  0
  1  2  1  0
  2  3  1  0
  3  4  2  0
  3  5  1  0
  4  6  1  0
  5  7  2  0
  6  8  2  0
  7  8  1  0
  8  9  1  0
  9 10  1  0
 10 11  2  0
 10 12  1  0
 12 13  1  0
 13 14  1  6
 13 15  1  0
 13 16  1  0
 14 17  1  0
 15 18  2  0
 15 19  1  0
 16 20  2  0
 16 21  1  0
 20 22  1  0
 21 23  2  0
 22 24  2  0
 23 24  1  0
M  END
>  <ref_url>  (193) 
https://fakepage.com

>  <submitter_name>  (193) 
Steph Wills

>  <submitter_email>  (193) 
stephanie.wills@dtc.ox.ac.uk

>  <submitter_institution>  (193) 
University of Oxford

>  <generation_date>  (193) 
2020-06-04

>  <method>  (193) 
Fragment network

>  <ref_mols>  (193) 
x0176_0B,x0212_0B

>  <ref_pdb>  (193) 
references/x0176-0B-x0212-0B-230612.holo_minimised_nolig.pdb

>  <original SMILES>  (193) 
CCc1ccc(NC(=O)NC(CC)(C(=O)O)c2ccccc2)cc1

>  <synthon>  (193) 
[Xe]c1ccccc1

>  <original_name>  (193) 
x0176-0B-x0212-0B-230612

>  <comRMSD_score>  (193) 
0.7578673751609405

>  <IF_score>  (193) 
0.675

>  <SuCOS_score>  (193) 
0.4913009254730423

>  <compound_ID>  (193) 
REAL:Z1917540849

$$$$

     RDKit          3D

 20 21  0  0  0  0  0  0  0  0999 V2000
  -12.7570    5.2580  -76.5900 C   0  0  0  0  0  0  0  0  0  0  0  0
  -11.4420    4.4770  -76.5800 C   0  0  0  0  0  0  0  0  0  0  0  0
  -11.2830    3.3540  -75.5490 C   0  0  0  0  0  0  0  0  0  0  0  0
  -10.4330    4.7730  -77.4840 C   0  0  0  0  0  0  0  0  0  0  0  0
   -9.9250    2.6140  -75.6000 C   0  0  0  0  0  0  0  0  0  0  0  0
   -9.2220    4.0950  -77.5080 C   0  0  0  0  0  0  0  0  0  0  0  0
   -8.9110    3.0660  -76.6300 C   0  0  0  0  0  0  0  0  0  0  0  0
   -7.2870    2.3420  -76.7920 S   0  0  0  0  0  0  0  0  0  0  0  0
   -6.9540    1.6760  -75.5790 O   0  0  0  0  0  0  0  0  0  0  0  0
   -7.4080    1.4260  -77.8980 O   0  0  0  0  0  0  0  0  0  0  0  0
   -6.3850    3.5070  -76.8780 O   0  0  0  0  0  0  0  0  0  0  0  0
   -5.5870    3.5590  -78.0010 C   0  0  0  0  0  0  0  0  0  0  0  0
   -5.9080    2.6120  -78.9430 C   0  0  0  0  0  0  0  0  0  0  0  0
   -7.2580    2.4270  -79.1630 C   0  0  0  0  0  0  0  0  0  0  0  0
   -8.0240    1.4720  -80.0050 C   0  0  0  0  0  0  0  0  0  0  0  0
   -8.4700    1.9780  -81.3050 C   0  0  0  0  0  0  0  0  0  0  0  0
   -8.3270    0.1750  -79.5900 C   0  0  0  0  0  0  0  0  0  0  0  0
   -9.1960    1.1880  -82.1390 C   0  0  0  0  0  0  0  0  0  0  0  0
   -9.0690   -0.6560  -80.4210 C   0  0  0  0  0  0  0  0  0  0  0  0
   -9.5100   -0.2090  -81.6610 C   0  0  0  0  0  0  0  0  0  0  0  0
  1  2  1  0
  2  3  2  0
  2  4  1  0
  3  5  1  0
  4  6  2  0
  5  7  2  0
  6  7  1  0
  7  8  1  0
  8  9  2  0
  8 10  2  0
  8 11  1  0
 11 12  1  0
 12 13  1  0
 13 14  2  3
 14 15  1  0
 15 16  2  0
 15 17  1  0
 16 18  1  0
 17 19  2  0
 18 20  2  0
 19 20  1  0
M  END
>  <ref_url>  (194) 
https://fakepage.com

>  <submitter_name>  (194) 
Steph Wills

>  <submitter_email>  (194) 
stephanie.wills@dtc.ox.ac.uk

>  <submitter_institution>  (194) 
University of Oxford

>  <generation_date>  (194) 
2020-06-04

>  <method>  (194) 
Fragment network

>  <ref_mols>  (194) 
x0176_0B,x0212_0B

>  <ref_pdb>  (194) 
references/x0176-0B-x0212-0B-232160.holo_minimised_nolig.pdb

>  <original SMILES>  (194) 
Cc1ccc(S(=O)(=O)OCC=Cc2ccccc2)cc1

>  <synthon>  (194) 
[Xe]c1ccccc1

>  <original_name>  (194) 
x0176-0B-x0212-0B-232160

>  <comRMSD_score>  (194) 
0.6806092190757533

>  <IF_score>  (194) 
0.9

>  <SuCOS_score>  (194) 
0.4371488317495728

>  <compound_ID>  (194) 
CHEMSPACE-BB:CSMB00113609434

$$$$

     RDKit          3D

 26 27  0  0  0  0  0  0  0  0999 V2000
   -6.5570    0.9160  -76.6710 C   0  0  0  0  0  0  0  0  0  0  0  0
   -7.4770    1.8940  -77.2130 N   0  0  0  0  0  0  0  0  0  0  0  0
   -7.2640    2.4170  -78.4790 C   0  0  0  0  0  0  0  0  0  0  0  0
   -8.4870    2.4440  -76.4300 C   0  0  0  0  0  0  0  0  0  0  0  0
   -7.9830    1.5920  -79.5230 C   0  0  0  0  0  0  0  0  0  0  0  0
   -8.4710    3.6060  -76.0830 O   0  0  0  0  0  0  0  0  0  0  0  0
   -9.4600    1.4980  -76.1030 N   0  0  0  0  0  0  0  0  0  0  0  0
   -8.4290    0.3060  -79.1840 C   0  0  0  0  0  0  0  0  0  0  0  0
   -8.2280    2.0620  -80.8270 C   0  0  0  0  0  0  0  0  0  0  0  0
  -10.7490    1.7230  -75.5260 C   0  0  0  0  0  0  0  0  0  0  0  0
   -9.1000   -0.4720  -80.1200 C   0  0  0  0  0  0  0  0  0  0  0  0
   -8.8970    1.2880  -81.7700 C   0  0  0  0  0  0  0  0  0  0  0  0
  -11.0140    2.9590  -74.9160 C   0  0  0  0  0  0  0  0  0  0  0  0
   -9.3310    0.0190  -81.4010 C   0  0  0  0  0  0  0  0  0  0  0  0
  -12.2680    3.5870  -74.9810 C   0  0  0  0  0  0  0  0  0  0  0  0
  -13.2260    2.8030  -74.8730 O   0  0  0  0  0  0  0  0  0  0  0  0
  -12.3280    5.0770  -75.1430 N   0  0  0  0  0  0  0  0  0  0  0  0
  -12.5200    5.7890  -73.8600 C   0  0  0  0  0  0  0  0  0  0  0  0
  -13.3050    5.4600  -76.1100 O   0  0  0  0  0  0  0  0  0  0  0  0
  -12.6400    5.6700  -77.3640 C   0  0  0  0  0  0  0  0  0  0  0  0
  -11.7920    4.5880  -77.6210 C   0  0  0  0  0  0  0  0  0  0  0  0
  -10.6210    4.7670  -78.3260 C   0  0  0  0  0  0  0  0  0  0  0  0
  -12.0990    3.3180  -77.1810 C   0  0  0  0  0  0  0  0  0  0  0  0
   -9.7610    3.7160  -78.6040 C   0  0  0  0  0  0  0  0  0  0  0  0
  -11.2480    2.2440  -77.4520 C   0  0  0  0  0  0  0  0  0  0  0  0
  -10.0770    2.4450  -78.1650 C   0  0  0  0  0  0  0  0  0  0  0  0
  1  2  1  0
  2  3  1  0
  2  4  1  0
  3  5  1  0
  4  6  2  0
  4  7  1  0
  5  8  2  0
  5  9  1  0
  7 10  1  0
  8 11  1  0
  9 12  2  0
 10 13  1  0
 11 14  2  0
 12 14  1  0
 13 15  1  0
 15 16  2  0
 15 17  1  0
 17 18  1  0
 17 19  1  0
 19 20  1  0
 20 21  1  0
 21 22  2  0
 21 23  1  0
 22 24  1  0
 23 25  2  0
 24 26  2  0
 25 26  1  0
M  END
>  <ref_url>  (195) 
https://fakepage.com

>  <submitter_name>  (195) 
Steph Wills

>  <submitter_email>  (195) 
stephanie.wills@dtc.ox.ac.uk

>  <submitter_institution>  (195) 
University of Oxford

>  <generation_date>  (195) 
2020-06-04

>  <method>  (195) 
Fragment network

>  <ref_mols>  (195) 
x0176_0B,x0212_0B

>  <ref_pdb>  (195) 
references/x0176-0B-x0212-0B-232652.holo_minimised_nolig.pdb

>  <original SMILES>  (195) 
CN(Cc1ccccc1)C(=O)NCCC(=O)N(C)OCc1ccccc1

>  <synthon>  (195) 
[Xe]c1ccccc1

>  <original_name>  (195) 
x0176-0B-x0212-0B-232652

>  <comRMSD_score>  (195) 
0.9904557873356424

>  <IF_score>  (195) 
0.3333333333333333

>  <SuCOS_score>  (195) 
0.4763601703597065

>  <compound_ID>  (195) 
CHEMSPACE-BB:CSMB00114250611

$$$$

     RDKit          3D

 21 22  0  0  0  0  0  0  0  0999 V2000
  -14.0570    3.9490  -78.3320 C   0  0  0  0  0  0  0  0  0  0  0  0
  -13.2840    4.8520  -77.3420 C   0  0  0  0  0  0  0  0  0  0  0  0
  -13.1800    6.2210  -77.9930 C   0  0  0  0  0  0  0  0  0  0  0  0
  -14.0530    5.0500  -76.0290 C   0  0  0  0  0  0  0  0  0  0  0  0
  -11.9410    4.2280  -77.0490 C   0  0  0  0  0  0  0  0  0  0  0  0
  -11.7360    3.3360  -75.9890 C   0  0  0  0  0  0  0  0  0  0  0  0
  -10.8620    4.5480  -77.8670 C   0  0  0  0  0  0  0  0  0  0  0  0
  -10.4850    2.7750  -75.7630 C   0  0  0  0  0  0  0  0  0  0  0  0
   -9.6230    3.9920  -77.6450 C   0  0  0  0  0  0  0  0  0  0  0  0
   -9.4400    3.1070  -76.5980 C   0  0  0  0  0  0  0  0  0  0  0  0
   -8.1730    2.6100  -76.5030 N   0  0  0  0  0  0  0  0  0  0  0  0
   -7.7880    1.7900  -77.5040 C   0  0  0  0  0  0  0  0  0  0  0  0
   -8.4520    0.8790  -77.9710 O   0  0  0  0  0  0  0  0  0  0  0  0
   -6.5440    2.1200  -77.9660 N   0  0  0  0  0  0  0  0  0  0  0  0
   -6.3060    2.2890  -79.3860 C   0  0  0  0  0  0  0  0  0  0  0  0
   -7.0150    1.2490  -80.2250 C   0  0  0  0  0  0  0  0  0  0  0  0
   -7.3670    1.5560  -81.5490 C   0  0  0  0  0  0  0  0  0  0  0  0
   -7.3500   -0.0270  -79.7240 C   0  0  0  0  0  0  0  0  0  0  0  0
   -8.0320    0.6210  -82.3610 C   0  0  0  0  0  0  0  0  0  0  0  0
   -8.0230   -0.9570  -80.5340 C   0  0  0  0  0  0  0  0  0  0  0  0
   -8.3620   -0.6330  -81.8470 C   0  0  0  0  0  0  0  0  0  0  0  0
  2  1  1  0
  2  3  1  0
  2  4  1  0
  2  5  1  0
  5  6  2  0
  5  7  1  0
  6  8  1  0
  7  9  2  0
  8 10  2  0
  9 10  1  0
 10 11  1  0
 11 12  1  0
 12 13  2  0
 12 14  1  0
 14 15  1  0
 15 16  1  0
 16 17  2  0
 16 18  1  0
 17 19  1  0
 18 20  2  0
 19 21  2  0
 20 21  1  0
M  END
>  <ref_url>  (196) 
https://fakepage.com

>  <submitter_name>  (196) 
Steph Wills

>  <submitter_email>  (196) 
stephanie.wills@dtc.ox.ac.uk

>  <submitter_institution>  (196) 
University of Oxford

>  <generation_date>  (196) 
2020-06-04

>  <method>  (196) 
Fragment network

>  <ref_mols>  (196) 
x0176_0B,x0212_0B

>  <ref_pdb>  (196) 
references/x0176-0B-x0212-0B-234491.holo_minimised_nolig.pdb

>  <original SMILES>  (196) 
CC(C)(C)c1ccc(NC(=O)NCc2ccccc2)cc1

>  <synthon>  (196) 
[Xe]c1ccccc1

>  <original_name>  (196) 
x0176-0B-x0212-0B-234491

>  <comRMSD_score>  (196) 
0.91077971091707

>  <IF_score>  (196) 
0.2857142857142857

>  <SuCOS_score>  (196) 
0.4413751085023381

>  <compound_ID>  (196) 
REAL:Z123785872, CHEMSPACE-BB:CSMB00000217910

$$$$

     RDKit          3D

 21 22  0  0  0  0  0  0  0  0999 V2000
  -12.7130    6.3240  -75.0030 C   0  0  0  0  0  0  0  0  0  0  0  0
  -13.5930    5.4010  -75.8540 C   0  0  0  0  0  0  0  0  0  0  0  0
  -14.6680    5.0530  -75.3710 O   0  0  0  0  0  0  0  0  0  0  0  0
  -13.0510    5.0050  -77.2290 C   0  0  0  0  0  0  0  0  0  0  0  0
  -11.8470    4.2950  -77.1280 C   0  0  0  0  0  0  0  0  0  0  0  0
  -10.8290    4.5770  -78.0200 C   0  0  0  0  0  0  0  0  0  0  0  0
  -11.6530    3.2990  -76.1400 C   0  0  0  0  0  0  0  0  0  0  0  0
   -9.6480    3.8860  -77.9470 C   0  0  0  0  0  0  0  0  0  0  0  0
  -10.4480    2.5720  -76.0380 C   0  0  0  0  0  0  0  0  0  0  0  0
   -9.4180    2.8310  -76.9280 C   0  0  0  0  0  0  0  0  0  0  0  0
   -8.2490    2.0590  -76.7780 O   0  0  0  0  0  0  0  0  0  0  0  0
   -7.0810    2.8830  -76.7300 C   0  0  0  0  0  0  0  0  0  0  0  0
   -7.1000    3.7240  -77.8630 C   0  0  0  0  0  0  0  0  0  0  0  0
   -6.9700    3.2990  -79.0100 O   0  0  0  0  0  0  0  0  0  0  0  0
   -6.4730    1.9980  -79.1080 C   0  0  0  0  0  0  0  0  0  0  0  0
   -7.0970    1.1480  -80.0200 C   0  0  0  0  0  0  0  0  0  0  0  0
   -7.5680   -0.2080  -79.5700 C   0  0  0  0  0  0  0  0  0  0  0  0
   -7.3130    1.5310  -81.3560 C   0  0  0  0  0  0  0  0  0  0  0  0
   -8.2010   -1.0450  -80.4920 C   0  0  0  0  0  0  0  0  0  0  0  0
   -7.9530    0.6410  -82.2410 C   0  0  0  0  0  0  0  0  0  0  0  0
   -8.3850   -0.6220  -81.8070 C   0  0  0  0  0  0  0  0  0  0  0  0
  1  2  1  0
  2  3  2  0
  2  4  1  0
  4  5  1  0
  5  6  2  0
  5  7  1  0
  6  8  1  0
  7  9  2  0
  8 10  2  0
  9 10  1  0
 10 11  1  0
 11 12  1  0
 12 13  1  0
 13 14  1  0
 14 15  1  0
 15 16  1  0
 16 17  2  0
 16 18  1  0
 17 19  1  0
 18 20  2  0
 19 21  2  0
 20 21  1  0
M  END
>  <ref_url>  (197) 
https://fakepage.com

>  <submitter_name>  (197) 
Steph Wills

>  <submitter_email>  (197) 
stephanie.wills@dtc.ox.ac.uk

>  <submitter_institution>  (197) 
University of Oxford

>  <generation_date>  (197) 
2020-06-04

>  <method>  (197) 
Fragment network

>  <ref_mols>  (197) 
x0176_0B,x0212_0B

>  <ref_pdb>  (197) 
references/x0176-0B-x0212-0B-241316.holo_minimised_nolig.pdb

>  <original SMILES>  (197) 
CC(=O)Cc1ccc(OCCOCc2ccccc2)cc1

>  <synthon>  (197) 
[Xe]c1ccccc1

>  <original_name>  (197) 
x0176-0B-x0212-0B-241316

>  <comRMSD_score>  (197) 
0.9023879431818668

>  <IF_score>  (197) 
0.3125

>  <SuCOS_score>  (197) 
0.4596150233913401

>  <compound_ID>  (197) 
CHEMSPACE-BB:CSMB00014805447

$$$$

     RDKit          3D

 26 27  0  0  0  0  0  0  0  0999 V2000
  -12.3440    5.4900  -74.6120 C   0  0  0  0  0  0  0  0  0  0  0  0
  -12.9710    6.0750  -75.8880 C   0  0  0  0  0  0  0  0  0  0  0  0
  -12.9670    7.5950  -75.7950 C   0  0  0  0  0  0  0  0  0  0  0  0
  -12.2530    5.5660  -77.1490 C   0  0  0  0  0  0  0  0  0  0  0  0
  -11.4780    4.2870  -76.9530 C   0  0  0  0  0  0  0  0  0  0  0  0
  -10.2950    4.0230  -77.6670 C   0  0  0  0  0  0  0  0  0  0  0  0
  -11.9510    3.3390  -76.0430 C   0  0  0  0  0  0  0  0  0  0  0  0
   -9.6100    2.8110  -77.4720 C   0  0  0  0  0  0  0  0  0  0  0  0
  -11.2760    2.1410  -75.8490 C   0  0  0  0  0  0  0  0  0  0  0  0
  -10.1180    1.8710  -76.5560 C   0  0  0  0  0  0  0  0  0  0  0  0
   -9.3690    0.2830  -76.2290 S   0  0  0  0  0  0  0  0  0  0  0  0
   -9.3810   -0.5040  -77.4470 O   0  0  0  0  0  0  0  0  0  0  0  0
   -9.9220   -0.2400  -75.0010 O   0  0  0  0  0  0  0  0  0  0  0  0
   -7.7690    0.7600  -75.9640 N   0  0  0  0  0  0  0  0  0  0  0  0
   -7.6860    2.2720  -75.9330 N   0  0  0  0  0  0  0  0  0  0  0  0
   -6.9190    2.9240  -76.8130 C   0  0  0  0  0  0  0  0  0  0  0  0
   -6.1730    4.3520  -76.3910 S   0  0  0  0  0  0  0  0  0  0  0  0
   -6.7330    2.3720  -78.0310 N   0  0  0  0  0  0  0  0  0  0  0  0
   -7.2030    2.9130  -79.2940 C   0  0  1  0  0  0  0  0  0  0  0  0
   -6.0250    3.4750  -80.0780 C   0  0  0  0  0  0  0  0  0  0  0  0
   -8.0120    1.8490  -80.0230 C   0  0  0  0  0  0  0  0  0  0  0  0
   -8.5150    2.1660  -81.2820 C   0  0  0  0  0  0  0  0  0  0  0  0
   -8.2930    0.5770  -79.4930 C   0  0  0  0  0  0  0  0  0  0  0  0
   -9.2700    1.2510  -81.9970 C   0  0  0  0  0  0  0  0  0  0  0  0
   -9.0550   -0.3450  -80.2190 C   0  0  0  0  0  0  0  0  0  0  0  0
   -9.5420   -0.0040  -81.4720 C   0  0  0  0  0  0  0  0  0  0  0  0
  1  2  1  0
  2  3  1  0
  2  4  1  0
  4  5  1  0
  5  6  2  0
  5  7  1  0
  6  8  1  0
  7  9  2  0
  8 10  2  0
  9 10  1  0
 10 11  1  0
 11 12  2  0
 11 13  2  0
 11 14  1  0
 14 15  1  0
 15 16  1  0
 16 17  2  0
 16 18  1  0
 18 19  1  0
 19 20  1  6
 19 21  1  0
 21 22  2  0
 21 23  1  0
 22 24  1  0
 23 25  2  0
 24 26  2  0
 25 26  1  0
M  END
>  <ref_url>  (198) 
https://fakepage.com

>  <submitter_name>  (198) 
Steph Wills

>  <submitter_email>  (198) 
stephanie.wills@dtc.ox.ac.uk

>  <submitter_institution>  (198) 
University of Oxford

>  <generation_date>  (198) 
2020-06-04

>  <method>  (198) 
Fragment network

>  <ref_mols>  (198) 
x0176_0B,x0212_0B

>  <ref_pdb>  (198) 
references/x0176-0B-x0212-0B-241994.holo_minimised_nolig.pdb

>  <original SMILES>  (198) 
CC(C)Cc1ccc(S(=O)(=O)NNC(=S)NC(C)c2ccccc2)cc1

>  <synthon>  (198) 
[Xe]c1ccccc1

>  <original_name>  (198) 
x0176-0B-x0212-0B-241994

>  <comRMSD_score>  (198) 
0.9981038272644792

>  <IF_score>  (198) 
0.7083333333333333

>  <SuCOS_score>  (198) 
0.4971872197104305

>  <compound_ID>  (198) 
MOLPORT:001-588-578

$$$$

     RDKit          3D

 20 21  0  0  0  0  0  0  0  0999 V2000
   -6.1640    4.0850  -77.5580 C   0  0  0  0  0  0  0  0  0  0  0  0
   -7.2060    3.3140  -78.0730 N   0  0  0  0  0  0  0  0  0  0  0  0
   -6.9830    2.8270  -79.3670 C   0  0  0  0  0  0  0  0  0  0  0  0
   -8.0420    2.5130  -77.3430 C   0  0  0  0  0  0  0  0  0  0  0  0
   -7.9030    1.7670  -80.0090 C   0  0  0  0  0  0  0  0  0  0  0  0
   -7.7750    1.3540  -77.0080 O   0  0  0  0  0  0  0  0  0  0  0  0
   -9.3680    3.0470  -76.9050 C   0  0  0  0  0  0  0  0  0  0  0  0
   -8.4240    2.1380  -81.2420 C   0  0  0  0  0  0  0  0  0  0  0  0
   -8.2430    0.5180  -79.4770 C   0  0  0  0  0  0  0  0  0  0  0  0
   -9.8220    2.2120  -75.9180 C   0  0  0  0  0  0  0  0  0  0  0  0
  -10.1190    4.1670  -77.3340 C   0  0  0  0  0  0  0  0  0  0  0  0
   -9.2730    1.2760  -81.9310 C   0  0  0  0  0  0  0  0  0  0  0  0
   -9.0930   -0.3540  -80.1590 C   0  0  0  0  0  0  0  0  0  0  0  0
  -11.1320    2.4950  -75.2910 C   0  0  0  0  0  0  0  0  0  0  0  0
  -11.3830    4.4410  -76.7260 C   0  0  0  0  0  0  0  0  0  0  0  0
   -9.6090    0.0330  -81.3910 C   0  0  0  0  0  0  0  0  0  0  0  0
  -11.8640    3.6000  -75.7190 C   0  0  0  0  0  0  0  0  0  0  0  0
  -12.1850    5.5330  -77.0960 C   0  0  0  0  0  0  0  0  0  0  0  0
  -13.3090    5.7520  -76.1020 C   0  0  0  0  0  0  0  0  0  0  0  0
  -12.8750    6.1110  -74.8580 N   0  0  0  0  0  0  0  0  0  0  0  0
  1  2  1  0
  2  3  1  0
  2  4  1  0
  3  5  1  0
  4  6  2  0
  4  7  1  0
  5  8  2  0
  5  9  1  0
  7 10  2  0
  7 11  1  0
  8 12  1  0
  9 13  2  0
 10 14  1  0
 11 15  2  0
 12 16  2  0
 13 16  1  0
 14 17  2  0
 15 17  1  0
 15 18  1  0
 18 19  1  0
 19 20  1  0
M  END
>  <ref_url>  (199) 
https://fakepage.com

>  <submitter_name>  (199) 
Steph Wills

>  <submitter_email>  (199) 
stephanie.wills@dtc.ox.ac.uk

>  <submitter_institution>  (199) 
University of Oxford

>  <generation_date>  (199) 
2020-06-04

>  <method>  (199) 
Fragment network

>  <ref_mols>  (199) 
x0176_0B,x0212_0B

>  <ref_pdb>  (199) 
references/x0176-0B-x0212-0B-242171.holo_minimised_nolig.pdb

>  <original SMILES>  (199) 
CN(Cc1ccccc1)C(=O)c1cccc(CCN)c1

>  <synthon>  (199) 
[Xe]c1ccccc1

>  <original_name>  (199) 
x0176-0B-x0212-0B-242171

>  <comRMSD_score>  (199) 
0.8305729829461098

>  <IF_score>  (199) 
0.675

>  <SuCOS_score>  (199) 
0.502231959283229

>  <compound_ID>  (199) 
CHEMSPACE-BB:CSMB00011706590

$$$$

     RDKit          3D

 24 25  0  0  0  0  0  0  0  0999 V2000
   -5.7400    2.0620  -77.2700 C   0  0  0  0  0  0  0  0  0  0  0  0
   -6.9220    2.3240  -77.9190 N   0  0  0  0  0  0  0  0  0  0  0  0
   -6.8280    2.4930  -79.3660 C   0  0  0  0  0  0  0  0  0  0  0  0
   -8.1260    1.8340  -77.2480 C   0  0  0  0  0  0  0  0  0  0  0  0
   -7.8100    1.6150  -80.0890 C   0  0  0  0  0  0  0  0  0  0  0  0
   -8.8060    0.8990  -77.5930 O   0  0  0  0  0  0  0  0  0  0  0  0
   -8.5320    2.5740  -76.0940 N   0  0  0  0  0  0  0  0  0  0  0  0
   -8.1180    0.3280  -79.6190 C   0  0  0  0  0  0  0  0  0  0  0  0
   -8.4380    2.0610  -81.2440 C   0  0  0  0  0  0  0  0  0  0  0  0
   -9.6690    3.2350  -76.2440 C   0  0  0  0  0  0  0  0  0  0  0  0
   -9.0440   -0.4790  -80.2960 C   0  0  0  0  0  0  0  0  0  0  0  0
   -9.3410    1.2560  -81.8960 C   0  0  0  0  0  0  0  0  0  0  0  0
   -9.6880    4.1520  -77.4150 C   0  0  0  0  0  0  0  0  0  0  0  0
  -10.8220    3.0910  -75.3670 C   0  0  0  0  0  0  0  0  0  0  0  0
   -9.6670   -0.0130  -81.4480 C   0  0  0  0  0  0  0  0  0  0  0  0
  -10.8440    4.8790  -77.6290 C   0  0  0  0  0  0  0  0  0  0  0  0
  -11.9190    3.8630  -75.6780 C   0  0  0  0  0  0  0  0  0  0  0  0
  -11.9330    4.7350  -76.7740 C   0  0  0  0  0  0  0  0  0  0  0  0
  -13.0700    5.4770  -77.0050 C   0  0  0  0  0  0  0  0  0  0  0  0
  -13.6220    5.5830  -78.0930 O   0  0  0  0  0  0  0  0  0  0  0  0
  -13.6880    6.1740  -76.0110 C   0  0  0  0  0  0  0  0  0  0  0  0
  -12.7940    6.7380  -75.1080 C   0  0  0  0  0  0  0  0  0  0  0  0
  -14.5060    7.3800  -76.4960 C   0  0  0  0  0  0  0  0  0  0  0  0
  -14.6590    5.3380  -75.1580 C   0  0  0  0  0  0  0  0  0  0  0  0
  1  2  1  0
  2  3  1  0
  2  4  1  0
  3  5  1  0
  4  6  2  0
  4  7  1  0
  5  8  2  0
  5  9  1  0
  7 10  1  0
  8 11  1  0
  9 12  2  0
 10 13  2  0
 10 14  1  0
 11 15  2  0
 12 15  1  0
 13 16  1  0
 14 17  2  0
 16 18  2  0
 17 18  1  0
 18 19  1  0
 19 20  2  0
 21 19  1  0
 21 22  1  0
 21 23  1  0
 21 24  1  0
M  END
>  <ref_url>  (200) 
https://fakepage.com

>  <submitter_name>  (200) 
Steph Wills

>  <submitter_email>  (200) 
stephanie.wills@dtc.ox.ac.uk

>  <submitter_institution>  (200) 
University of Oxford

>  <generation_date>  (200) 
2020-06-04

>  <method>  (200) 
Fragment network

>  <ref_mols>  (200) 
x0176_0B,x0212_0B

>  <ref_pdb>  (200) 
references/x0176-0B-x0212-0B-247683.holo_minimised_nolig.pdb

>  <original SMILES>  (200) 
CN(Cc1ccccc1)C(=O)Nc1ccc(C(=O)C(C)(C)C)cc1

>  <synthon>  (200) 
[Xe]c1ccccc1

>  <original_name>  (200) 
x0176-0B-x0212-0B-247683

>  <comRMSD_score>  (200) 
0.9364173642132008

>  <IF_score>  (200) 
0.675

>  <SuCOS_score>  (200) 
0.4857872733375123

>  <compound_ID>  (200) 
REAL:Z1352663219

$$$$

     RDKit          3D

 21 22  0  0  0  0  0  0  0  0999 V2000
  -13.4980    4.6660  -78.2480 C   0  0  0  0  0  0  0  0  0  0  0  0
  -12.5940    5.4070  -77.2700 C   0  0  0  0  0  0  0  0  0  0  0  0
  -13.3060    5.9110  -76.0130 C   0  0  0  0  0  0  0  0  0  0  0  0
  -11.5190    4.4440  -76.7400 C   0  0  0  0  0  0  0  0  0  0  0  0
  -11.8080    3.4670  -75.6230 C   0  0  0  0  0  0  0  0  0  0  0  0
  -10.2460    4.4570  -77.2890 C   0  0  0  0  0  0  0  0  0  0  0  0
  -10.7960    2.6140  -75.1820 C   0  0  0  0  0  0  0  0  0  0  0  0
   -9.2880    3.5800  -76.8090 C   0  0  0  0  0  0  0  0  0  0  0  0
   -9.5650    2.6980  -75.7930 C   0  0  0  0  0  0  0  0  0  0  0  0
   -7.9700    3.5050  -77.3130 O   0  0  0  0  0  0  0  0  0  0  0  0
   -7.4210    2.2080  -77.0570 C   0  0  0  0  0  0  0  0  0  0  0  0
   -5.9160    2.1590  -77.1480 C   0  0  0  0  0  0  0  0  0  0  0  0
   -5.0650    2.3580  -76.0160 O   0  0  0  0  0  0  0  0  0  0  0  0
   -5.4920    1.8870  -78.4760 O   0  0  0  0  0  0  0  0  0  0  0  0
   -6.3680    2.2430  -79.4630 C   0  0  0  0  0  0  0  0  0  0  0  0
   -7.1660    1.2160  -80.2290 C   0  0  0  0  0  0  0  0  0  0  0  0
   -7.4780   -0.0390  -79.6910 C   0  0  0  0  0  0  0  0  0  0  0  0
   -7.6120    1.5290  -81.5100 C   0  0  0  0  0  0  0  0  0  0  0  0
   -8.2230   -0.9560  -80.4380 C   0  0  0  0  0  0  0  0  0  0  0  0
   -8.3520    0.6190  -82.2560 C   0  0  0  0  0  0  0  0  0  0  0  0
   -8.6590   -0.6250  -81.7210 C   0  0  0  0  0  0  0  0  0  0  0  0
  1  2  1  0
  2  3  1  0
  2  4  1  0
  4  5  2  0
  4  6  1  0
  5  7  1  0
  6  8  2  0
  7  9  2  0
  8  9  1  0
  8 10  1  0
 10 11  1  0
 11 12  1  0
 12 13  2  0
 12 14  1  0
 14 15  1  0
 15 16  1  0
 16 17  2  0
 16 18  1  0
 17 19  1  0
 18 20  2  0
 19 21  2  0
 20 21  1  0
M  END
>  <ref_url>  (201) 
https://fakepage.com

>  <submitter_name>  (201) 
Steph Wills

>  <submitter_email>  (201) 
stephanie.wills@dtc.ox.ac.uk

>  <submitter_institution>  (201) 
University of Oxford

>  <generation_date>  (201) 
2020-06-04

>  <method>  (201) 
Fragment network

>  <ref_mols>  (201) 
x0176_0B,x0212_0B

>  <ref_pdb>  (201) 
references/x0176-0B-x0212-0B-247989.holo_minimised_nolig.pdb

>  <original SMILES>  (201) 
CC(C)c1cccc(OCC(=O)OCc2ccccc2)c1

>  <synthon>  (201) 
[Xe]c1ccccc1

>  <original_name>  (201) 
x0176-0B-x0212-0B-247989

>  <comRMSD_score>  (201) 
0.9412124273156036

>  <IF_score>  (201) 
0.5833333333333333

>  <SuCOS_score>  (201) 
0.406081265354386

>  <compound_ID>  (201) 
CHEMSPACE-BB:CSMB00119749115

$$$$

     RDKit          3D

 21 22  0  0  0  0  0  0  0  0999 V2000
  -12.7900    7.4600  -76.2030 C   0  0  0  0  0  0  0  0  0  0  0  0
  -13.2480    6.0730  -75.7530 C   0  0  1  0  0  0  0  0  0  0  0  0
  -14.6170    6.1600  -75.3440 O   0  0  0  0  0  0  0  0  0  0  0  0
  -13.0950    5.0530  -76.8650 C   0  0  0  0  0  0  0  0  0  0  0  0
  -11.7560    4.3750  -76.8540 C   0  0  0  0  0  0  0  0  0  0  0  0
  -10.7920    4.7430  -77.7890 C   0  0  0  0  0  0  0  0  0  0  0  0
  -11.4540    3.3730  -75.9230 C   0  0  0  0  0  0  0  0  0  0  0  0
   -9.5520    4.1310  -77.8110 C   0  0  0  0  0  0  0  0  0  0  0  0
  -10.2030    2.7620  -75.9450 C   0  0  0  0  0  0  0  0  0  0  0  0
   -9.2560    3.1470  -76.8920 C   0  0  0  0  0  0  0  0  0  0  0  0
   -8.0770    2.5090  -76.8390 O   0  0  0  0  0  0  0  0  0  0  0  0
   -8.0780    1.0910  -76.8320 C   0  0  0  0  0  0  0  0  0  0  0  0
   -6.7540    0.6090  -77.4290 C   0  0  0  0  0  0  0  0  0  0  0  0
   -6.2010    1.5410  -78.3750 O   0  0  0  0  0  0  0  0  0  0  0  0
   -7.1140    2.3630  -79.1060 C   0  0  0  0  0  0  0  0  0  0  0  0
   -8.0300    1.5260  -79.9440 C   0  0  0  0  0  0  0  0  0  0  0  0
   -8.4640    0.2600  -79.5190 C   0  0  0  0  0  0  0  0  0  0  0  0
   -8.4710    2.0060  -81.1790 C   0  0  0  0  0  0  0  0  0  0  0  0
   -9.3160   -0.5020  -80.3030 C   0  0  0  0  0  0  0  0  0  0  0  0
   -9.3230    1.2400  -81.9600 C   0  0  0  0  0  0  0  0  0  0  0  0
   -9.7450   -0.0090  -81.5200 C   0  0  0  0  0  0  0  0  0  0  0  0
  2  1  1  6
  2  3  1  0
  2  4  1  0
  4  5  1  0
  5  6  2  0
  5  7  1  0
  6  8  1  0
  7  9  2  0
  8 10  2  0
  9 10  1  0
 10 11  1  0
 11 12  1  0
 12 13  1  0
 13 14  1  0
 14 15  1  0
 15 16  1  0
 16 17  2  0
 16 18  1  0
 17 19  1  0
 18 20  2  0
 19 21  2  0
 20 21  1  0
M  END
>  <ref_url>  (202) 
https://fakepage.com

>  <submitter_name>  (202) 
Steph Wills

>  <submitter_email>  (202) 
stephanie.wills@dtc.ox.ac.uk

>  <submitter_institution>  (202) 
University of Oxford

>  <generation_date>  (202) 
2020-06-04

>  <method>  (202) 
Fragment network

>  <ref_mols>  (202) 
x0176_0B,x0212_0B

>  <ref_pdb>  (202) 
references/x0176-0B-x0212-0B-248288.holo_minimised_nolig.pdb

>  <original SMILES>  (202) 
CC(O)Cc1ccc(OCCOCc2ccccc2)cc1

>  <synthon>  (202) 
[Xe]c1ccccc1

>  <original_name>  (202) 
x0176-0B-x0212-0B-248288

>  <comRMSD_score>  (202) 
0.6250349207635617

>  <IF_score>  (202) 
0.8

>  <SuCOS_score>  (202) 
0.4984291463172502

>  <compound_ID>  (202) 
CHEMSPACE-BB:CSMB00014805957

$$$$

     RDKit          3D

 21 22  0  0  0  0  0  0  0  0999 V2000
  -13.6750    5.6490  -76.1210 C   0  0  0  0  0  0  0  0  0  0  0  0
  -13.2350    4.9360  -77.3830 C   0  0  0  0  0  0  0  0  0  0  0  0
  -11.9220    4.2720  -77.1390 C   0  0  0  0  0  0  0  0  0  0  0  0
  -10.8380    4.5970  -77.9330 C   0  0  0  0  0  0  0  0  0  0  0  0
  -11.7760    3.3290  -76.1120 C   0  0  0  0  0  0  0  0  0  0  0  0
   -9.6210    3.9980  -77.7090 C   0  0  0  0  0  0  0  0  0  0  0  0
  -10.5420    2.7260  -75.8880 C   0  0  0  0  0  0  0  0  0  0  0  0
   -9.4690    3.0710  -76.6920 C   0  0  0  0  0  0  0  0  0  0  0  0
   -8.2250    2.6180  -76.6230 O   0  0  0  0  0  0  0  0  0  0  0  0
   -7.2290    3.6270  -76.4140 C   0  0  0  0  0  0  0  0  0  0  0  0
   -5.8600    3.1980  -76.8860 C   0  0  2  0  0  0  0  0  0  0  0  0
   -5.3770    4.1380  -77.8630 O   0  0  0  0  0  0  0  0  0  0  0  0
   -6.0000    1.8010  -77.4700 C   0  0  0  0  0  0  0  0  0  0  0  0
   -5.3740    1.6610  -78.7280 O   0  0  0  0  0  0  0  0  0  0  0  0
   -6.2000    2.2030  -79.7350 C   0  0  0  0  0  0  0  0  0  0  0  0
   -7.0090    1.1590  -80.4370 C   0  0  0  0  0  0  0  0  0  0  0  0
   -7.3610   -0.0710  -79.8440 C   0  0  0  0  0  0  0  0  0  0  0  0
   -7.4330    1.4270  -81.7290 C   0  0  0  0  0  0  0  0  0  0  0  0
   -8.1280   -0.9990  -80.5590 C   0  0  0  0  0  0  0  0  0  0  0  0
   -8.1880    0.5040  -82.4480 C   0  0  0  0  0  0  0  0  0  0  0  0
   -8.5400   -0.7110  -81.8660 C   0  0  0  0  0  0  0  0  0  0  0  0
  1  2  1  0
  2  3  1  0
  3  4  2  0
  3  5  1  0
  4  6  1  0
  5  7  2  0
  6  8  2  0
  7  8  1  0
  8  9  1  0
  9 10  1  0
 10 11  1  0
 11 12  1  6
 11 13  1  0
 13 14  1  0
 14 15  1  0
 15 16  1  0
 16 17  2  0
 16 18  1  0
 17 19  1  0
 18 20  2  0
 19 21  2  0
 20 21  1  0
M  END
>  <ref_url>  (203) 
https://fakepage.com

>  <submitter_name>  (203) 
Steph Wills

>  <submitter_email>  (203) 
stephanie.wills@dtc.ox.ac.uk

>  <submitter_institution>  (203) 
University of Oxford

>  <generation_date>  (203) 
2020-06-04

>  <method>  (203) 
Fragment network

>  <ref_mols>  (203) 
x0176_0B,x0212_0B

>  <ref_pdb>  (203) 
references/x0176-0B-x0212-0B-248985.holo_minimised_nolig.pdb

>  <original SMILES>  (203) 
CCc1ccc(OCC(O)COCc2ccccc2)cc1

>  <synthon>  (203) 
[Xe]c1ccccc1

>  <original_name>  (203) 
x0176-0B-x0212-0B-248985

>  <comRMSD_score>  (203) 
0.948600636024806

>  <IF_score>  (203) 
0.2142857142857142

>  <SuCOS_score>  (203) 
0.4153817643749979

>  <compound_ID>  (203) 
CHEMSPACE-BB:CSMB00121049051, CHEMSPACE-BB:CSMB00121052455, CHEMSPACE-BB:CSMB00121054686

$$$$

     RDKit          3D

 21 22  0  0  0  0  0  0  0  0999 V2000
  -12.9890    6.9710  -74.8780 N   0  0  0  0  0  0  0  0  0  0  0  0
  -13.1890    6.2580  -76.0120 C   0  0  0  0  0  0  0  0  0  0  0  0
  -14.3850    7.3010  -76.8170 S   0  0  0  0  0  0  0  0  0  0  0  0
  -13.0270    5.1530  -77.0050 C   0  0  0  0  0  0  0  0  0  0  0  0
  -11.8980    4.2310  -76.6230 C   0  0  0  0  0  0  0  0  0  0  0  0
  -12.0880    3.1650  -75.7380 C   0  0  0  0  0  0  0  0  0  0  0  0
  -10.6500    4.4640  -77.1770 C   0  0  0  0  0  0  0  0  0  0  0  0
  -11.0060    2.3430  -75.4190 C   0  0  0  0  0  0  0  0  0  0  0  0
   -9.5760    3.6470  -76.8530 C   0  0  0  0  0  0  0  0  0  0  0  0
   -9.7710    2.5970  -75.9800 C   0  0  0  0  0  0  0  0  0  0  0  0
   -8.3370    3.8780  -77.3870 N   0  0  0  0  0  0  0  0  0  0  0  0
   -7.9180    3.4000  -78.5540 C   0  0  0  0  0  0  0  0  0  0  0  0
   -8.3250    3.6930  -79.6700 O   0  0  0  0  0  0  0  0  0  0  0  0
   -6.9300    2.4960  -78.3280 N   0  0  0  0  0  0  0  0  0  0  0  0
   -6.4680    1.7720  -79.4750 C   0  0  0  0  0  0  0  0  0  0  0  0
   -7.6590    1.1990  -80.1850 C   0  0  0  0  0  0  0  0  0  0  0  0
   -8.2520   -0.0900  -79.7050 C   0  0  0  0  0  0  0  0  0  0  0  0
   -8.2530    1.8230  -81.2940 C   0  0  0  0  0  0  0  0  0  0  0  0
   -9.3530   -0.6210  -80.3660 C   0  0  0  0  0  0  0  0  0  0  0  0
   -9.3490    1.2430  -81.9150 C   0  0  0  0  0  0  0  0  0  0  0  0
   -9.8940    0.0430  -81.4610 C   0  0  0  0  0  0  0  0  0  0  0  0
  1  2  1  0
  2  3  2  0
  2  4  1  0
  4  5  1  0
  5  6  2  0
  5  7  1  0
  6  8  1  0
  7  9  2  0
  8 10  2  0
  9 10  1  0
  9 11  1  0
 11 12  1  0
 12 13  2  0
 12 14  1  0
 14 15  1  0
 15 16  1  0
 16 17  2  0
 16 18  1  0
 17 19  1  0
 18 20  2  0
 19 21  2  0
 20 21  1  0
M  END
>  <ref_url>  (204) 
https://fakepage.com

>  <submitter_name>  (204) 
Steph Wills

>  <submitter_email>  (204) 
stephanie.wills@dtc.ox.ac.uk

>  <submitter_institution>  (204) 
University of Oxford

>  <generation_date>  (204) 
2020-06-04

>  <method>  (204) 
Fragment network

>  <ref_mols>  (204) 
x0176_0B,x0212_0B

>  <ref_pdb>  (204) 
references/x0176-0B-x0212-0B-249214.holo_minimised_nolig.pdb

>  <original SMILES>  (204) 
NC(=S)Cc1cccc(NC(=O)NCc2ccccc2)c1

>  <synthon>  (204) 
[Xe]c1ccccc1

>  <original_name>  (204) 
x0176-0B-x0212-0B-249214

>  <comRMSD_score>  (204) 
0.7960146564814825

>  <IF_score>  (204) 
0.625

>  <SuCOS_score>  (204) 
0.5055237099918852

>  <compound_ID>  (204) 
CHEMSPACE-BB:CSMB00016481627

$$$$

     RDKit          3D

 33 34  0  0  0  0  0  0  0  0999 V2000
   -5.2140    0.6750  -78.4430 O   0  0  0  0  0  0  0  0  0  0  0  0
   -5.7880    0.7010  -77.3590 C   0  0  0  0  0  0  0  0  0  0  0  0
   -6.4940   -0.4970  -76.7130 C   0  0  0  0  0  0  0  0  0  0  0  0
   -5.8450    1.8530  -76.5890 N   0  0  0  0  0  0  0  0  0  0  0  0
   -7.1150   -1.1570  -77.5430 O   0  0  0  0  0  0  0  0  0  0  0  0
   -6.7090    2.8790  -76.9220 C   0  0  0  0  0  0  0  0  0  0  0  0
   -7.9660   -2.1260  -77.0660 C   0  0  0  0  0  0  0  0  0  0  0  0
   -6.6450    3.9760  -76.3860 O   0  0  0  0  0  0  0  0  0  0  0  0
   -7.5860    2.5350  -77.8730 N   0  0  0  0  0  0  0  0  0  0  0  0
   -7.5920   -3.2880  -76.9170 O   0  0  0  0  0  0  0  0  0  0  0  0
   -9.4340   -1.7650  -76.7190 C   0  0  0  0  0  0  0  0  0  0  0  0
   -7.2610    2.4950  -79.2290 C   0  0  0  0  0  0  0  0  0  0  0  0
   -9.4340   -1.2570  -75.2940 C   0  0  0  0  0  0  0  0  0  0  0  0
   -8.0600    1.6830  -80.0100 C   0  0  0  0  0  0  0  0  0  0  0  0
   -9.5880    0.1320  -75.0910 N   0  0  0  0  0  0  0  0  0  0  0  0
   -8.4690    2.0730  -81.2660 C   0  0  0  0  0  0  0  0  0  0  0  0
   -8.4630    0.4440  -79.5050 C   0  0  0  0  0  0  0  0  0  0  0  0
  -11.1100    0.8200  -74.9390 S   0  0  0  0  0  0  0  0  0  0  0  0
   -9.2760    1.2360  -82.0100 C   0  0  0  0  0  0  0  0  0  0  0  0
   -9.2740   -0.4040  -80.2450 C   0  0  0  0  0  0  0  0  0  0  0  0
  -11.3540    1.2310  -73.5770 O   0  0  0  0  0  0  0  0  0  0  0  0
  -12.0430   -0.0490  -75.6240 O   0  0  0  0  0  0  0  0  0  0  0  0
  -10.9550    2.3440  -75.9430 C   0  0  0  0  0  0  0  0  0  0  0  0
   -9.6850   -0.0030  -81.5070 C   0  0  0  0  0  0  0  0  0  0  0  0
   -9.7800    2.5350  -76.6450 C   0  0  0  0  0  0  0  0  0  0  0  0
  -11.9830    3.2940  -76.0150 C   0  0  0  0  0  0  0  0  0  0  0  0
   -9.6470    3.6730  -77.4260 C   0  0  0  0  0  0  0  0  0  0  0  0
  -11.8670    4.4600  -76.8030 C   0  0  0  0  0  0  0  0  0  0  0  0
  -10.7150    4.7270  -77.5580 C   0  0  0  0  0  0  0  0  0  0  0  0
  -12.9420    5.3600  -76.8240 C   0  0  0  0  0  0  0  0  0  0  0  0
  -14.1570    4.7500  -76.8200 F   0  0  0  0  0  0  0  0  0  0  0  0
  -12.9350    6.1970  -77.8900 F   0  0  0  0  0  0  0  0  0  0  0  0
  -12.9530    6.1800  -75.7480 F   0  0  0  0  0  0  0  0  0  0  0  0
  1  2  2  0
  2  3  1  0
  2  4  1  0
  3  5  1  0
  4  6  1  0
  5  7  1  0
  6  8  2  0
  6  9  1  0
  7 10  2  0
  7 11  1  0
  9 12  1  0
 11 13  1  0
 12 14  1  0
 13 15  1  0
 14 16  2  0
 14 17  1  0
 18 15  1  0
 16 19  1  0
 17 20  2  0
 18 21  2  0
 18 22  2  0
 18 23  1  0
 19 24  2  0
 20 24  1  0
 23 25  2  0
 23 26  1  0
 25 27  1  0
 26 28  2  0
 27 29  2  0
 28 29  1  0
 28 30  1  0
 30 31  1  0
 30 32  1  0
 30 33  1  0
M  END
>  <ref_url>  (205) 
https://fakepage.com

>  <submitter_name>  (205) 
Steph Wills

>  <submitter_email>  (205) 
stephanie.wills@dtc.ox.ac.uk

>  <submitter_institution>  (205) 
University of Oxford

>  <generation_date>  (205) 
2020-06-04

>  <method>  (205) 
Fragment network

>  <ref_mols>  (205) 
x0176_0B,x0212_0B

>  <ref_pdb>  (205) 
references/x0176-0B-x0212-0B-250418.holo_minimised_nolig.pdb

>  <original SMILES>  (205) 
O=C(COC(=O)CCNS(=O)(=O)c1cccc(C(F)(F)F)c1)NC(=O)NCc1ccccc1

>  <synthon>  (205) 
[Xe]c1ccccc1

>  <original_name>  (205) 
x0176-0B-x0212-0B-250418

>  <comRMSD_score>  (205) 
0.7115280611600503

>  <IF_score>  (205) 
0.8333333333333333

>  <SuCOS_score>  (205) 
0.495828965892133

>  <compound_ID>  (205) 
MOLPORT:005-322-819

$$$$

     RDKit          3D

 27 28  0  0  0  0  0  0  0  0999 V2000
   -4.9660    1.6130  -81.1540 C   0  0  0  0  0  0  0  0  0  0  0  0
   -5.3070    1.9740  -79.8200 O   0  0  0  0  0  0  0  0  0  0  0  0
   -6.5730    2.6390  -79.7700 C   0  0  0  0  0  0  0  0  0  0  0  0
   -7.7570    1.6880  -79.9870 C   0  0  0  0  0  0  0  0  0  0  0  0
   -8.1140    0.7140  -78.9160 C   0  0  0  0  0  0  0  0  0  0  0  0
   -8.5070    1.7270  -81.1610 C   0  0  0  0  0  0  0  0  0  0  0  0
   -9.1980   -0.1100  -79.0950 C   0  0  0  0  0  0  0  0  0  0  0  0
   -9.6010    0.8740  -81.3220 C   0  0  0  0  0  0  0  0  0  0  0  0
   -9.9780   -0.0240  -80.3190 C   0  0  0  0  0  0  0  0  0  0  0  0
  -11.0770   -0.8410  -80.4120 O   0  0  0  0  0  0  0  0  0  0  0  0
  -11.4770   -1.2430  -79.0560 C   0  0  0  0  0  0  0  0  0  0  0  0
  -12.6020   -0.5890  -78.4620 C   0  0  2  0  0  0  0  0  0  0  0  0
  -13.7970   -0.6310  -79.1600 C   0  0  0  0  0  0  0  0  0  0  0  0
  -12.2880    0.8350  -78.0460 N   0  0  0  0  0  0  0  0  0  0  0  0
  -12.7740   -1.3590  -77.1360 C   0  0  0  0  0  0  0  0  0  0  0  0
  -13.1240    1.6970  -77.3260 C   0  0  0  0  0  0  0  0  0  0  0  0
  -13.8540   -1.6780  -76.6440 O   0  0  0  0  0  0  0  0  0  0  0  0
  -11.6340   -1.6980  -76.5010 O   0  0  0  0  0  0  0  0  0  0  0  0
  -13.5420    1.4800  -76.1970 O   0  0  0  0  0  0  0  0  0  0  0  0
  -13.4290    2.8400  -78.0410 O   0  0  0  0  0  0  0  0  0  0  0  0
  -12.6690    4.0550  -77.7580 C   0  0  0  0  0  0  0  0  0  0  0  0
  -11.3590    3.6490  -77.3020 C   0  0  0  0  0  0  0  0  0  0  0  0
  -11.1070    2.8220  -76.1790 C   0  0  0  0  0  0  0  0  0  0  0  0
  -10.2500    4.1070  -78.0390 C   0  0  0  0  0  0  0  0  0  0  0  0
   -9.8100    2.4720  -75.8180 C   0  0  0  0  0  0  0  0  0  0  0  0
   -8.9460    3.7520  -77.6720 C   0  0  0  0  0  0  0  0  0  0  0  0
   -8.7540    2.9430  -76.5710 C   0  0  0  0  0  0  0  0  0  0  0  0
  1  2  1  0
  2  3  1  0
  3  4  1  0
  4  5  2  0
  4  6  1  0
  5  7  1  0
  6  8  2  0
  7  9  2  0
  8  9  1  0
  9 10  1  0
 10 11  1  0
 11 12  1  0
 12 13  1  6
 12 14  1  0
 12 15  1  0
 14 16  1  0
 15 17  2  0
 15 18  1  0
 16 19  2  0
 16 20  1  0
 20 21  1  0
 21 22  1  0
 22 23  2  0
 22 24  1  0
 23 25  1  0
 24 26  2  0
 25 27  2  0
 26 27  1  0
M  END
>  <ref_url>  (206) 
https://fakepage.com

>  <submitter_name>  (206) 
Steph Wills

>  <submitter_email>  (206) 
stephanie.wills@dtc.ox.ac.uk

>  <submitter_institution>  (206) 
University of Oxford

>  <generation_date>  (206) 
2020-06-04

>  <method>  (206) 
Fragment network

>  <ref_mols>  (206) 
x0176_0B,x0212_0B

>  <ref_pdb>  (206) 
references/x0176-0B-x0212-0B-251268.holo_minimised_nolig.pdb

>  <original SMILES>  (206) 
COCc1ccc(OCC(C)(NC(=O)OCc2ccccc2)C(=O)O)cc1

>  <synthon>  (206) 
[Xe]c1ccccc1

>  <original_name>  (206) 
x0176-0B-x0212-0B-251268

>  <comRMSD_score>  (206) 
0.887115806727315

>  <IF_score>  (206) 
0.25

>  <SuCOS_score>  (206) 
0.3916076120685524

>  <compound_ID>  (206) 
CHEMSPACE-BB:CSMB00138244922

$$$$

     RDKit          3D

 24 25  0  0  0  0  0  0  0  0999 V2000
  -12.4470    6.4960  -73.5450 C   0  0  0  0  0  0  0  0  0  0  0  0
  -12.5920    6.6220  -74.9400 O   0  0  0  0  0  0  0  0  0  0  0  0
  -13.4370    5.5950  -75.4230 C   0  0  0  0  0  0  0  0  0  0  0  0
  -14.3620    5.0810  -74.8090 O   0  0  0  0  0  0  0  0  0  0  0  0
  -13.0520    5.1970  -76.7920 C   0  0  1  0  0  0  0  0  0  0  0  0
  -12.7190    6.2780  -77.5870 C   0  0  0  0  0  0  0  0  0  0  0  0
  -11.7760    4.3280  -76.6220 C   0  0  0  0  0  0  0  0  0  0  0  0
  -10.6340    4.5960  -77.3860 C   0  0  0  0  0  0  0  0  0  0  0  0
  -11.7570    3.2630  -75.6950 C   0  0  0  0  0  0  0  0  0  0  0  0
   -9.5100    3.8160  -77.2110 C   0  0  0  0  0  0  0  0  0  0  0  0
  -10.6230    2.4470  -75.4970 C   0  0  0  0  0  0  0  0  0  0  0  0
   -9.4630    2.6750  -76.2250 C   0  0  0  0  0  0  0  0  0  0  0  0
   -8.3630    2.0160  -76.1370 N   0  0  0  0  0  0  0  0  0  0  0  0
   -7.1910    2.5500  -76.8570 C   0  0  0  0  0  0  0  0  0  0  0  0
   -5.9130    2.7780  -76.2580 O   0  0  0  0  0  0  0  0  0  0  0  0
   -7.5050    2.8290  -78.2800 N   0  0  0  0  0  0  0  0  0  0  0  0
   -8.6190    3.5180  -78.7310 C   0  0  0  0  0  0  0  0  0  0  0  0
   -6.8360    2.1460  -79.2610 C   0  0  0  0  0  0  0  0  0  0  0  0
   -7.7930    1.4460  -80.0000 C   0  0  0  0  0  0  0  0  0  0  0  0
   -8.3160    1.9600  -81.1900 C   0  0  0  0  0  0  0  0  0  0  0  0
   -8.2510    0.2070  -79.5520 C   0  0  0  0  0  0  0  0  0  0  0  0
   -9.2710    1.2450  -81.9040 C   0  0  0  0  0  0  0  0  0  0  0  0
   -9.2070   -0.5040  -80.2650 C   0  0  0  0  0  0  0  0  0  0  0  0
   -9.7170    0.0170  -81.4450 C   0  0  0  0  0  0  0  0  0  0  0  0
  1  2  1  0
  2  3  1  0
  3  4  2  0
  3  5  1  0
  5  6  1  6
  5  7  1  0
  7  8  2  0
  7  9  1  0
  8 10  1  0
  9 11  2  0
 10 12  2  0
 11 12  1  0
 12 13  1  0
 13 14  1  0
 14 15  2  0
 14 16  1  0
 16 17  1  0
 16 18  1  0
 18 19  1  0
 19 20  2  0
 19 21  1  0
 20 22  1  0
 21 23  2  0
 22 24  2  0
 23 24  1  0
M  END
>  <ref_url>  (207) 
https://fakepage.com

>  <submitter_name>  (207) 
Steph Wills

>  <submitter_email>  (207) 
stephanie.wills@dtc.ox.ac.uk

>  <submitter_institution>  (207) 
University of Oxford

>  <generation_date>  (207) 
2020-06-04

>  <method>  (207) 
Fragment network

>  <ref_mols>  (207) 
x0176_0B,x0212_0B

>  <ref_pdb>  (207) 
references/x0176-0B-x0212-0B-252982.holo_minimised_nolig.pdb

>  <original SMILES>  (207) 
COC(=O)C(C)c1ccc(NC(=O)N(C)Cc2ccccc2)cc1

>  <synthon>  (207) 
[Xe]c1ccccc1

>  <original_name>  (207) 
x0176-0B-x0212-0B-252982

>  <comRMSD_score>  (207) 
0.5801048755756725

>  <IF_score>  (207) 
0.8

>  <SuCOS_score>  (207) 
0.550200624359017

>  <compound_ID>  (207) 
REAL:Z2350337318

$$$$

     RDKit          3D

 23 24  0  0  0  0  0  0  0  0999 V2000
  -13.5540    5.7270  -75.6490 C   0  0  0  0  0  0  0  0  0  0  0  0
  -13.0420    4.9060  -76.8150 C   0  0  0  0  0  0  0  0  0  0  0  0
  -13.6480    5.0070  -77.8780 O   0  0  0  0  0  0  0  0  0  0  0  0
  -11.8100    4.0350  -76.5500 C   0  0  0  0  0  0  0  0  0  0  0  0
  -10.6350    4.5410  -77.0390 C   0  0  0  0  0  0  0  0  0  0  0  0
  -11.8340    2.8110  -75.8800 C   0  0  0  0  0  0  0  0  0  0  0  0
   -9.4550    3.8210  -76.8920 C   0  0  0  0  0  0  0  0  0  0  0  0
  -10.6410    2.0980  -75.7350 C   0  0  0  0  0  0  0  0  0  0  0  0
   -9.4460    2.5970  -76.2510 C   0  0  0  0  0  0  0  0  0  0  0  0
   -8.1820    1.9220  -76.1730 N   0  0  0  0  0  0  0  0  0  0  0  0
   -7.0790    2.6940  -76.7700 C   0  0  0  0  0  0  0  0  0  0  0  0
   -6.0350    3.3190  -76.0290 O   0  0  0  0  0  0  0  0  0  0  0  0
   -7.1350    2.7760  -78.1500 N   0  0  0  0  0  0  0  0  0  0  0  0
   -6.4870    1.9790  -79.1270 C   0  0  1  0  0  0  0  0  0  0  0  0
   -7.2970    1.1240  -79.9180 C   0  0  0  0  0  0  0  0  0  0  0  0
   -5.6770    2.8270  -79.8930 C   0  0  0  0  0  0  0  0  0  0  0  0
   -7.8110   -0.1850  -79.3370 C   0  0  0  0  0  0  0  0  0  0  0  0
   -7.6460    1.4620  -81.2460 C   0  0  0  0  0  0  0  0  0  0  0  0
   -5.0750    2.1450  -80.8960 F   0  0  0  0  0  0  0  0  0  0  0  0
   -4.6540    3.3310  -79.1430 F   0  0  0  0  0  0  0  0  0  0  0  0
   -8.6130   -0.9810  -80.1850 C   0  0  0  0  0  0  0  0  0  0  0  0
   -8.4330    0.6420  -82.0340 C   0  0  0  0  0  0  0  0  0  0  0  0
   -8.9410   -0.5580  -81.5860 C   0  0  0  0  0  0  0  0  0  0  0  0
  1  2  1  0
  2  3  2  0
  2  4  1  0
  4  5  2  0
  4  6  1  0
  5  7  1  0
  6  8  2  0
  7  9  2  0
  8  9  1  0
  9 10  1  0
 10 11  1  0
 11 12  2  0
 11 13  1  0
 14 13  1  6
 14 15  1  0
 14 16  1  0
 15 17  2  0
 15 18  1  0
 16 19  1  0
 16 20  1  0
 17 21  1  0
 18 22  2  0
 21 23  2  0
 22 23  1  0
M  END
>  <ref_url>  (208) 
https://fakepage.com

>  <submitter_name>  (208) 
Steph Wills

>  <submitter_email>  (208) 
stephanie.wills@dtc.ox.ac.uk

>  <submitter_institution>  (208) 
University of Oxford

>  <generation_date>  (208) 
2020-06-04

>  <method>  (208) 
Fragment network

>  <ref_mols>  (208) 
x0176_0B,x0212_0B

>  <ref_pdb>  (208) 
references/x0176-0B-x0212-0B-253101.holo_minimised_nolig.pdb

>  <original SMILES>  (208) 
CC(=O)c1ccc(NC(=O)NC(c2ccccc2)C(F)F)cc1

>  <synthon>  (208) 
[Xe]c1ccccc1

>  <original_name>  (208) 
x0176-0B-x0212-0B-253101

>  <comRMSD_score>  (208) 
0.8984833053540839

>  <IF_score>  (208) 
0.5357142857142857

>  <SuCOS_score>  (208) 
0.4202398675882802

>  <compound_ID>  (208) 
REAL:Z2214790888

$$$$

     RDKit          3D

 23 24  0  0  0  0  0  0  0  0999 V2000
  -13.0960    5.0820  -78.1980 C   0  0  0  0  0  0  0  0  0  0  0  0
  -12.8800    4.4490  -76.8160 C   0  0  0  0  0  0  0  0  0  0  0  0
  -13.7160    3.3720  -76.4760 C   0  0  0  0  0  0  0  0  0  0  0  0
  -13.0750    5.5380  -75.7800 C   0  0  0  0  0  0  0  0  0  0  0  0
  -11.4220    3.9680  -76.6540 C   0  0  0  0  0  0  0  0  0  0  0  0
  -10.4020    4.5010  -77.3930 C   0  0  0  0  0  0  0  0  0  0  0  0
  -11.0230    2.9610  -75.7480 C   0  0  0  0  0  0  0  0  0  0  0  0
   -9.0760    4.1240  -77.2850 C   0  0  0  0  0  0  0  0  0  0  0  0
   -9.6660    2.5780  -75.6160 C   0  0  0  0  0  0  0  0  0  0  0  0
   -8.6460    3.1800  -76.3780 C   0  0  0  0  0  0  0  0  0  0  0  0
   -7.2060    2.9980  -76.3440 C   0  0  0  0  0  0  0  0  0  0  0  0
   -6.4040    1.8620  -76.1690 N   0  0  0  0  0  0  0  0  0  0  0  0
   -7.1190    0.7300  -76.0380 N   0  0  0  0  0  0  0  0  0  0  0  0
   -8.1410    1.0700  -76.9530 C   0  0  0  0  0  0  0  0  0  0  0  0
   -9.8560    0.4750  -76.9740 S   0  0  0  0  0  0  0  0  0  0  0  0
   -7.6500    2.0570  -77.9650 N   0  0  0  0  0  0  0  0  0  0  0  0
   -6.7300    1.5830  -79.0260 C   0  0  0  0  0  0  0  0  0  0  0  0
   -7.3710    0.8380  -80.0120 C   0  0  0  0  0  0  0  0  0  0  0  0
   -7.8940   -0.4920  -79.6530 C   0  0  0  0  0  0  0  0  0  0  0  0
   -7.5690    1.3000  -81.3370 C   0  0  0  0  0  0  0  0  0  0  0  0
   -8.5600   -1.2600  -80.5960 C   0  0  0  0  0  0  0  0  0  0  0  0
   -8.2470    0.4970  -82.2640 C   0  0  0  0  0  0  0  0  0  0  0  0
   -8.7330   -0.7610  -81.8910 C   0  0  0  0  0  0  0  0  0  0  0  0
  2  1  1  0
  2  3  1  0
  2  4  1  0
  2  5  1  0
  5  6  2  0
  5  7  1  0
  6  8  1  0
  7  9  2  0
  8 10  2  0
  9 10  1  0
 10 11  1  0
 11 12  2  3
 12 13  1  0
 13 14  1  0
 14 15  2  0
 14 16  1  0
 16 17  1  0
 17 18  1  0
 18 19  2  0
 18 20  1  0
 19 21  1  0
 20 22  2  0
 21 23  2  0
 22 23  1  0
M  END
>  <ref_url>  (209) 
https://fakepage.com

>  <submitter_name>  (209) 
Steph Wills

>  <submitter_email>  (209) 
stephanie.wills@dtc.ox.ac.uk

>  <submitter_institution>  (209) 
University of Oxford

>  <generation_date>  (209) 
2020-06-04

>  <method>  (209) 
Fragment network

>  <ref_mols>  (209) 
x0176_0B,x0212_0B

>  <ref_pdb>  (209) 
references/x0176-0B-x0212-0B-256014.holo_minimised_nolig.pdb

>  <original SMILES>  (209) 
CC(C)(C)c1ccc(C=NNC(=S)NCc2ccccc2)cc1

>  <synthon>  (209) 
[Xe]c1ccccc1

>  <original_name>  (209) 
x0176-0B-x0212-0B-256014

>  <comRMSD_score>  (209) 
0.9423357197388046

>  <IF_score>  (209) 
0.5833333333333333

>  <SuCOS_score>  (209) 
0.4478799888604098

>  <compound_ID>  (209) 
MOLPORT:044-247-488

$$$$

     RDKit          3D

 22 23  0  0  0  0  0  0  0  0999 V2000
  -14.5360    5.4660  -79.4510 C   0  0  0  0  0  0  0  0  0  0  0  0
  -14.1120    4.6980  -78.2100 C   0  0  0  0  0  0  0  0  0  0  0  0
  -13.0650    5.4510  -77.3660 C   0  0  1  0  0  0  0  0  0  0  0  0
  -13.6960    6.1790  -76.1740 C   0  0  0  0  0  0  0  0  0  0  0  0
  -12.0070    4.5540  -76.8060 C   0  0  0  0  0  0  0  0  0  0  0  0
  -10.7200    4.6700  -77.3010 C   0  0  0  0  0  0  0  0  0  0  0  0
  -12.3000    3.6200  -75.8090 C   0  0  0  0  0  0  0  0  0  0  0  0
   -9.7370    3.8410  -76.7990 C   0  0  0  0  0  0  0  0  0  0  0  0
  -11.3110    2.7970  -75.3060 C   0  0  0  0  0  0  0  0  0  0  0  0
  -10.0630    2.9400  -75.8270 C   0  0  0  0  0  0  0  0  0  0  0  0
   -9.0160    2.1400  -75.3800 O   0  0  0  0  0  0  0  0  0  0  0  0
   -8.3440    1.5390  -76.4500 C   0  0  0  0  0  0  0  0  0  0  0  0
   -7.7890    2.5560  -77.3960 C   0  0  0  0  0  0  0  0  0  0  0  0
   -8.4090    3.8130  -77.6700 O   0  0  0  0  0  0  0  0  0  0  0  0
   -6.5690    2.1390  -78.0240 N   0  0  0  0  0  0  0  0  0  0  0  0
   -6.3550    2.2860  -79.4370 C   0  0  0  0  0  0  0  0  0  0  0  0
   -7.1610    1.2520  -80.1840 C   0  0  0  0  0  0  0  0  0  0  0  0
   -7.5970    1.5380  -81.4750 C   0  0  0  0  0  0  0  0  0  0  0  0
   -7.4920    0.0130  -79.6170 C   0  0  0  0  0  0  0  0  0  0  0  0
   -8.3420    0.6170  -82.2010 C   0  0  0  0  0  0  0  0  0  0  0  0
   -8.2410   -0.9130  -80.3430 C   0  0  0  0  0  0  0  0  0  0  0  0
   -8.6650   -0.6120  -81.6350 C   0  0  0  0  0  0  0  0  0  0  0  0
  1  2  1  0
  2  3  1  0
  3  4  1  1
  3  5  1  0
  5  6  2  0
  5  7  1  0
  6  8  1  0
  7  9  2  0
  8 10  2  0
  9 10  1  0
 10 11  1  0
 11 12  1  0
 12 13  1  0
 13 14  2  0
 13 15  1  0
 15 16  1  0
 16 17  1  0
 17 18  2  0
 17 19  1  0
 18 20  1  0
 19 21  2  0
 20 22  2  0
 21 22  1  0
M  END
>  <ref_url>  (210) 
https://fakepage.com

>  <submitter_name>  (210) 
Steph Wills

>  <submitter_email>  (210) 
stephanie.wills@dtc.ox.ac.uk

>  <submitter_institution>  (210) 
University of Oxford

>  <generation_date>  (210) 
2020-06-04

>  <method>  (210) 
Fragment network

>  <ref_mols>  (210) 
x0176_0B,x0212_0B

>  <ref_pdb>  (210) 
references/x0176-0B-x0212-0B-256496.holo_minimised_nolig.pdb

>  <original SMILES>  (210) 
CCC(C)c1ccc(OCC(=O)NCc2ccccc2)cc1

>  <synthon>  (210) 
[Xe]c1ccccc1

>  <original_name>  (210) 
x0176-0B-x0212-0B-256496

>  <comRMSD_score>  (210) 
0.9852267891642792

>  <IF_score>  (210) 
0.7083333333333333

>  <SuCOS_score>  (210) 
0.4239264162527473

>  <compound_ID>  (210) 
MOLPORT:002-951-131

$$$$

     RDKit          3D

 25 26  0  0  0  0  0  0  0  0999 V2000
  -13.5660    6.1890  -75.9500 C   0  0  0  0  0  0  0  0  0  0  0  0
  -12.8740    5.7350  -77.2070 C   0  0  0  0  0  0  0  0  0  0  0  0
  -11.7760    4.7810  -76.8390 C   0  0  0  0  0  0  0  0  0  0  0  0
  -11.9500    3.8670  -75.8000 C   0  0  0  0  0  0  0  0  0  0  0  0
  -10.5730    4.8010  -77.5270 C   0  0  0  0  0  0  0  0  0  0  0  0
  -10.9170    3.0040  -75.4630 C   0  0  0  0  0  0  0  0  0  0  0  0
   -9.5530    3.9350  -77.1640 C   0  0  0  0  0  0  0  0  0  0  0  0
   -9.7460    3.0410  -76.1190 C   0  0  0  0  0  0  0  0  0  0  0  0
   -8.7260    2.2400  -75.8240 O   0  0  0  0  0  0  0  0  0  0  0  0
   -8.3740    1.5220  -76.9290 C   0  0  0  0  0  0  0  0  0  0  0  0
   -8.2360    2.5300  -78.0520 C   0  0  0  0  0  0  0  0  0  0  0  0
   -9.1610    3.0740  -78.6400 O   0  0  0  0  0  0  0  0  0  0  0  0
   -6.9230    2.7560  -78.3300 N   0  0  0  0  0  0  0  0  0  0  0  0
   -6.3930    2.0960  -79.5250 C   0  0  2  0  0  0  0  0  0  0  0  0
   -5.3860    1.0110  -79.0380 C   0  0  0  0  0  0  0  0  0  0  0  0
   -5.4570    3.1190  -80.2330 C   0  0  0  0  0  0  0  0  0  0  0  0
   -7.5940    1.4260  -80.2310 C   0  0  0  0  0  0  0  0  0  0  0  0
   -5.2400   -0.2280  -79.9240 C   0  0  0  0  0  0  0  0  0  0  0  0
   -4.5290    2.8050  -80.9790 O   0  0  0  0  0  0  0  0  0  0  0  0
   -5.6720    4.4300  -79.9910 O   0  0  0  0  0  0  0  0  0  0  0  0
   -8.0610    0.1790  -79.7530 C   0  0  0  0  0  0  0  0  0  0  0  0
   -8.2620    1.9740  -81.3270 C   0  0  0  0  0  0  0  0  0  0  0  0
   -9.1390   -0.4820  -80.3470 C   0  0  0  0  0  0  0  0  0  0  0  0
   -9.3320    1.3090  -81.9190 C   0  0  0  0  0  0  0  0  0  0  0  0
   -9.7720    0.0900  -81.4340 C   0  0  0  0  0  0  0  0  0  0  0  0
  1  2  1  0
  2  3  1  0
  3  4  2  0
  3  5  1  0
  4  6  1  0
  5  7  2  0
  6  8  2  0
  7  8  1  0
  8  9  1  0
  9 10  1  0
 10 11  1  0
 11 12  2  0
 11 13  1  0
 13 14  1  0
 14 15  1  1
 14 16  1  0
 14 17  1  0
 15 18  1  0
 16 19  2  0
 16 20  1  0
 17 21  2  0
 17 22  1  0
 21 23  1  0
 22 24  2  0
 23 25  2  0
 24 25  1  0
M  END
>  <ref_url>  (211) 
https://fakepage.com

>  <submitter_name>  (211) 
Steph Wills

>  <submitter_email>  (211) 
stephanie.wills@dtc.ox.ac.uk

>  <submitter_institution>  (211) 
University of Oxford

>  <generation_date>  (211) 
2020-06-04

>  <method>  (211) 
Fragment network

>  <ref_mols>  (211) 
x0176_0B,x0212_0B

>  <ref_pdb>  (211) 
references/x0176-0B-x0212-0B-257104.holo_minimised_nolig.pdb

>  <original SMILES>  (211) 
CCc1ccc(OCC(=O)NC(CC)(C(=O)O)c2ccccc2)cc1

>  <synthon>  (211) 
[Xe]c1ccccc1

>  <original_name>  (211) 
x0176-0B-x0212-0B-257104

>  <comRMSD_score>  (211) 
0.989229761854712

>  <IF_score>  (211) 
0.675

>  <SuCOS_score>  (211) 
0.4735407228301365

>  <compound_ID>  (211) 
REAL:Z1444493175

$$$$

     RDKit          3D

 26 28  0  0  0  0  0  0  0  0999 V2000
  -12.7830    6.4910  -77.5990 C   0  0  0  0  0  0  0  0  0  0  0  0
  -13.1130    5.3910  -76.6110 C   0  0  0  0  0  0  0  0  0  0  0  0
  -14.4890    4.7840  -76.9590 C   0  0  0  0  0  0  0  0  0  0  0  0
  -13.2920    6.0690  -75.2700 C   0  0  0  0  0  0  0  0  0  0  0  0
  -11.9740    4.3750  -76.5970 C   0  0  0  0  0  0  0  0  0  0  0  0
  -12.0830    3.2440  -75.7700 C   0  0  0  0  0  0  0  0  0  0  0  0
  -10.8240    4.5220  -77.3820 C   0  0  0  0  0  0  0  0  0  0  0  0
  -11.0850    2.2790  -75.7250 C   0  0  0  0  0  0  0  0  0  0  0  0
   -9.8280    3.5650  -77.3360 C   0  0  0  0  0  0  0  0  0  0  0  0
   -9.9730    2.4500  -76.5110 C   0  0  0  0  0  0  0  0  0  0  0  0
   -8.8870    1.5200  -76.5720 C   0  0  0  0  0  0  0  0  0  0  0  0
   -7.9650    1.7590  -77.3660 N   0  0  0  0  0  0  0  0  0  0  0  0
   -8.8350    0.3810  -75.8270 O   0  0  0  0  0  0  0  0  0  0  0  0
   -7.1470    0.7160  -77.2090 C   0  0  0  0  0  0  0  0  0  0  0  0
   -7.7930   -0.3330  -76.3770 C   0  0  0  0  0  0  0  0  0  0  0  0
   -5.9800    0.7800  -77.7820 C   0  0  0  0  0  0  0  0  0  0  0  0
   -7.5160   -1.5040  -76.2230 O   0  0  0  0  0  0  0  0  0  0  0  0
   -5.7670    1.9980  -78.5200 C   0  0  0  0  0  0  0  0  0  0  0  0
   -4.5260    3.1410  -78.0730 Cl  0  0  0  0  0  0  0  0  0  0  0  0
   -6.5650    2.3320  -79.5590 C   0  0  0  0  0  0  0  0  0  0  0  0
   -7.6750    1.5580  -80.1640 C   0  0  0  0  0  0  0  0  0  0  0  0
   -8.0940    0.3220  -79.6450 C   0  0  0  0  0  0  0  0  0  0  0  0
   -8.3220    2.0580  -81.2920 C   0  0  0  0  0  0  0  0  0  0  0  0
   -9.1370   -0.3860  -80.2520 C   0  0  0  0  0  0  0  0  0  0  0  0
   -9.3520    1.3470  -81.8910 C   0  0  0  0  0  0  0  0  0  0  0  0
   -9.7640    0.1270  -81.3760 C   0  0  0  0  0  0  0  0  0  0  0  0
  2  1  1  0
  2  3  1  0
  2  4  1  0
  2  5  1  0
  5  6  2  0
  5  7  1  0
  6  8  1  0
  7  9  2  0
  8 10  2  0
  9 10  1  0
 10 11  1  0
 11 12  2  0
 11 13  1  0
 12 14  1  0
 13 15  1  0
 14 15  1  0
 14 16  2  3
 15 17  2  0
 16 18  1  0
 18 19  1  0
 18 20  2  3
 20 21  1  0
 21 22  2  0
 21 23  1  0
 22 24  1  0
 23 25  2  0
 24 26  2  0
 25 26  1  0
M  END
>  <ref_url>  (212) 
https://fakepage.com

>  <submitter_name>  (212) 
Steph Wills

>  <submitter_email>  (212) 
stephanie.wills@dtc.ox.ac.uk

>  <submitter_institution>  (212) 
University of Oxford

>  <generation_date>  (212) 
2020-06-04

>  <method>  (212) 
Fragment network

>  <ref_mols>  (212) 
x0176_0B,x0212_0B

>  <ref_pdb>  (212) 
references/x0176-0B-x0212-0B-257149.holo_minimised_nolig.pdb

>  <original SMILES>  (212) 
CC(C)(C)c1ccc(C2=NC(=CC(Cl)=Cc3ccccc3)C(=O)O2)cc1

>  <synthon>  (212) 
[Xe]c1ccccc1

>  <original_name>  (212) 
x0176-0B-x0212-0B-257149

>  <comRMSD_score>  (212) 
0.9337920585953025

>  <IF_score>  (212) 
0.775

>  <SuCOS_score>  (212) 
0.449801505052362

>  <compound_ID>  (212) 
MOLPORT:003-718-796

$$$$

     RDKit          3D

 19 20  0  0  0  0  0  0  0  0999 V2000
  -13.2030    5.6710  -75.5670 C   0  0  0  0  0  0  0  0  0  0  0  0
  -12.8770    4.8190  -76.7460 C   0  0  0  0  0  0  0  0  0  0  0  0
  -13.6530    4.7440  -77.7000 O   0  0  0  0  0  0  0  0  0  0  0  0
  -11.5960    4.0590  -76.7500 C   0  0  0  0  0  0  0  0  0  0  0  0
  -10.4540    4.5870  -77.3240 C   0  0  0  0  0  0  0  0  0  0  0  0
  -11.5340    2.7830  -76.1730 C   0  0  0  0  0  0  0  0  0  0  0  0
   -9.2510    3.8630  -77.3520 C   0  0  0  0  0  0  0  0  0  0  0  0
  -10.3420    2.0580  -76.2100 C   0  0  0  0  0  0  0  0  0  0  0  0
   -9.1990    2.5890  -76.8110 C   0  0  0  0  0  0  0  0  0  0  0  0
   -8.1200    1.7640  -76.8160 O   0  0  0  0  0  0  0  0  0  0  0  0
   -6.8760    2.1800  -77.3580 C   0  0  0  0  0  0  0  0  0  0  0  0
   -6.5380    1.9810  -78.8600 C   0  0  0  0  0  0  0  0  0  0  0  0
   -5.6300    2.6240  -79.3230 O   0  0  0  0  0  0  0  0  0  0  0  0
   -7.2530    1.0430  -79.8220 C   0  0  0  0  0  0  0  0  0  0  0  0
   -7.7360   -0.1920  -79.3700 C   0  0  0  0  0  0  0  0  0  0  0  0
   -7.4640    1.3870  -81.1890 C   0  0  0  0  0  0  0  0  0  0  0  0
   -8.4070   -1.0570  -80.2450 C   0  0  0  0  0  0  0  0  0  0  0  0
   -8.1370    0.5150  -82.0530 C   0  0  0  0  0  0  0  0  0  0  0  0
   -8.6070   -0.7040  -81.5790 C   0  0  0  0  0  0  0  0  0  0  0  0
  1  2  1  0
  2  3  2  0
  2  4  1  0
  4  5  2  0
  4  6  1  0
  5  7  1  0
  6  8  2  0
  7  9  2  0
  8  9  1  0
  9 10  1  0
 10 11  1  0
 11 12  1  0
 12 13  2  0
 12 14  1  0
 14 15  2  0
 14 16  1  0
 15 17  1  0
 16 18  2  0
 17 19  2  0
 18 19  1  0
M  END
>  <ref_url>  (213) 
https://fakepage.com

>  <submitter_name>  (213) 
Steph Wills

>  <submitter_email>  (213) 
stephanie.wills@dtc.ox.ac.uk

>  <submitter_institution>  (213) 
University of Oxford

>  <generation_date>  (213) 
2020-06-04

>  <method>  (213) 
Fragment network

>  <ref_mols>  (213) 
x0176_0B,x0212_0B

>  <ref_pdb>  (213) 
references/x0176-0B-x0212-0B-258348.holo_minimised_nolig.pdb

>  <original SMILES>  (213) 
CC(=O)c1ccc(OCC(=O)c2ccccc2)cc1

>  <synthon>  (213) 
[Xe]c1ccccc1

>  <original_name>  (213) 
x0176-0B-x0212-0B-258348

>  <comRMSD_score>  (213) 
0.9836108647902044

>  <IF_score>  (213) 
0.4642857142857143

>  <SuCOS_score>  (213) 
0.3980800276728013

>  <compound_ID>  (213) 
REAL:Z19661837, MOLPORT:009-022-917

$$$$

     RDKit          3D

 20 21  0  0  0  0  0  0  0  0999 V2000
  -12.5040    6.4160  -73.6170 C   0  0  0  0  0  0  0  0  0  0  0  0
  -12.7900    6.4890  -74.9630 N   0  0  0  0  0  0  0  0  0  0  0  0
  -13.7750    5.5130  -75.4050 C   0  0  0  0  0  0  0  0  0  0  0  0
  -13.4760    5.0370  -76.7770 C   0  0  1  0  0  0  0  0  0  0  0  0
  -13.5750    6.0000  -77.7870 C   0  0  0  0  0  0  0  0  0  0  0  0
  -12.0790    4.3760  -76.7290 C   0  0  0  0  0  0  0  0  0  0  0  0
  -11.1290    4.8620  -77.6020 C   0  0  0  0  0  0  0  0  0  0  0  0
  -11.7440    3.3130  -75.8380 C   0  0  0  0  0  0  0  0  0  0  0  0
   -9.8870    4.3420  -77.6210 C   0  0  0  0  0  0  0  0  0  0  0  0
  -10.4490    2.7380  -75.8150 C   0  0  0  0  0  0  0  0  0  0  0  0
   -9.5110    3.2500  -76.6980 C   0  0  0  0  0  0  0  0  0  0  0  0
   -8.0670    2.9150  -76.9330 C   0  0  0  0  0  0  0  0  0  0  0  0
   -7.6540    1.9990  -77.6090 O   0  0  0  0  0  0  0  0  0  0  0  0
   -7.2290    2.3290  -78.9310 C   0  0  0  0  0  0  0  0  0  0  0  0
   -8.0730    1.5320  -79.8620 C   0  0  0  0  0  0  0  0  0  0  0  0
   -8.4280    1.9850  -81.1240 C   0  0  0  0  0  0  0  0  0  0  0  0
   -8.5410    0.2750  -79.4580 C   0  0  0  0  0  0  0  0  0  0  0  0
   -9.2190    1.2460  -81.9770 C   0  0  0  0  0  0  0  0  0  0  0  0
   -9.3400   -0.4850  -80.3050 C   0  0  0  0  0  0  0  0  0  0  0  0
   -9.6780    0.0000  -81.5590 C   0  0  0  0  0  0  0  0  0  0  0  0
  1  2  1  0
  2  3  1  0
  3  4  1  0
  4  5  1  6
  4  6  1  0
  6  7  2  0
  6  8  1  0
  7  9  1  0
  8 10  2  0
  9 11  2  0
 10 11  1  0
 11 12  1  0
 12 13  1  0
 13 14  1  0
 14 15  1  0
 15 16  2  0
 15 17  1  0
 16 18  1  0
 17 19  2  0
 18 20  2  0
 19 20  1  0
M  END
>  <ref_url>  (214) 
https://fakepage.com

>  <submitter_name>  (214) 
Steph Wills

>  <submitter_email>  (214) 
stephanie.wills@dtc.ox.ac.uk

>  <submitter_institution>  (214) 
University of Oxford

>  <generation_date>  (214) 
2020-06-04

>  <method>  (214) 
Fragment network

>  <ref_mols>  (214) 
x0176_0B,x0212_0B

>  <ref_pdb>  (214) 
references/x0176-0B-x0212-0B-258900.holo_minimised_nolig.pdb

>  <original SMILES>  (214) 
CNCC(C)c1ccc(COCc2ccccc2)cc1

>  <synthon>  (214) 
[Xe]c1ccccc1

>  <original_name>  (214) 
x0176-0B-x0212-0B-258900

>  <comRMSD_score>  (214) 
0.7657490644001003

>  <IF_score>  (214) 
0.8

>  <SuCOS_score>  (214) 
0.523794044779603

>  <compound_ID>  (214) 
CHEMSPACE-BB:CSMB00013842694

$$$$

     RDKit          3D

 26 27  0  0  0  0  0  0  0  0999 V2000
   -6.7450    3.8460  -75.5210 C   0  0  0  0  0  0  0  0  0  0  0  0
   -8.0460    3.2020  -76.0090 C   0  0  2  0  0  0  0  0  0  0  0  0
   -8.1720    1.8210  -75.5470 N   0  0  0  0  0  0  0  0  0  0  0  0
   -7.9710    3.3270  -77.5180 C   0  0  0  0  0  0  0  0  0  0  0  0
   -9.2590    0.8100  -76.2750 S   0  0  0  0  0  0  0  0  0  0  0  0
   -8.6730    4.1510  -78.0920 O   0  0  0  0  0  0  0  0  0  0  0  0
   -7.1080    2.4950  -78.1760 N   0  0  0  0  0  0  0  0  0  0  0  0
   -9.9160   -0.0440  -75.3100 O   0  0  0  0  0  0  0  0  0  0  0  0
   -8.7310    0.3060  -77.5160 O   0  0  0  0  0  0  0  0  0  0  0  0
  -10.3380    2.2180  -76.6320 C   0  0  0  0  0  0  0  0  0  0  0  0
   -6.0630    2.3340  -77.4060 C   0  0  0  0  0  0  0  0  0  0  0  0
   -6.9340    2.4410  -79.5480 C   0  0  0  0  0  0  0  0  0  0  0  0
  -11.4150    2.3200  -75.8030 C   0  0  0  0  0  0  0  0  0  0  0  0
  -10.0950    3.1190  -77.6350 C   0  0  0  0  0  0  0  0  0  0  0  0
   -7.7660    1.5630  -80.2040 C   0  0  0  0  0  0  0  0  0  0  0  0
  -12.2940    3.3690  -75.9960 C   0  0  0  0  0  0  0  0  0  0  0  0
  -10.9700    4.1700  -77.8310 C   0  0  0  0  0  0  0  0  0  0  0  0
   -8.3620    1.9660  -81.3730 C   0  0  0  0  0  0  0  0  0  0  0  0
   -8.0090    0.2830  -79.6950 C   0  0  0  0  0  0  0  0  0  0  0  0
  -12.1000    4.3140  -77.0110 C   0  0  0  0  0  0  0  0  0  0  0  0
   -9.1990    1.1090  -82.0430 C   0  0  0  0  0  0  0  0  0  0  0  0
   -8.8610   -0.5890  -80.3720 C   0  0  0  0  0  0  0  0  0  0  0  0
  -13.0170    5.3290  -77.1670 C   0  0  0  0  0  0  0  0  0  0  0  0
   -9.4540   -0.1660  -81.5480 C   0  0  0  0  0  0  0  0  0  0  0  0
  -13.2280    6.0830  -78.3190 N   0  0  0  0  0  0  0  0  0  0  0  0
  -13.6810    5.4860  -76.1540 O   0  0  0  0  0  0  0  0  0  0  0  0
  2  1  1  1
  2  3  1  0
  2  4  1  0
  5  3  1  0
  4  6  2  0
  4  7  1  0
  5  8  2  0
  5  9  2  0
  5 10  1  0
  7 11  1  0
  7 12  1  0
 10 13  2  0
 10 14  1  0
 12 15  1  0
 13 16  1  0
 14 17  2  0
 15 18  2  0
 15 19  1  0
 16 20  2  0
 17 20  1  0
 18 21  1  0
 19 22  2  0
 20 23  1  0
 21 24  2  0
 22 24  1  0
 23 25  1  0
 23 26  2  0
M  END
>  <ref_url>  (215) 
https://fakepage.com

>  <submitter_name>  (215) 
Steph Wills

>  <submitter_email>  (215) 
stephanie.wills@dtc.ox.ac.uk

>  <submitter_institution>  (215) 
University of Oxford

>  <generation_date>  (215) 
2020-06-04

>  <method>  (215) 
Fragment network

>  <ref_mols>  (215) 
x0176_0B,x0212_0B

>  <ref_pdb>  (215) 
references/x0176-0B-x0212-0B-260052.holo_minimised_nolig.pdb

>  <original SMILES>  (215) 
CC(NS(=O)(=O)c1ccc(C(N)=O)cc1)C(=O)N(C)Cc1ccccc1

>  <synthon>  (215) 
[Xe]c1ccccc1

>  <original_name>  (215) 
x0176-0B-x0212-0B-260052

>  <comRMSD_score>  (215) 
0.9833289239757336

>  <IF_score>  (215) 
0.5833333333333334

>  <SuCOS_score>  (215) 
0.4791681994874956

>  <compound_ID>  (215) 
REAL:Z1430594745

$$$$

     RDKit          3D

 21 22  0  0  0  0  0  0  0  0999 V2000
  -14.6300    5.9280  -75.3120 N   0  0  0  0  0  0  0  0  0  0  0  0
  -13.7990    5.7170  -76.0930 C   0  0  0  0  0  0  0  0  0  0  0  0
  -12.7360    6.3480  -75.5080 N   0  0  0  0  0  0  0  0  0  0  0  0
  -13.1330    5.1800  -77.3650 C   0  0  0  0  0  0  0  0  0  0  0  0
  -11.8590    4.3790  -77.0360 C   0  0  0  0  0  0  0  0  0  0  0  0
  -11.8600    3.3150  -75.9710 C   0  0  0  0  0  0  0  0  0  0  0  0
  -10.6840    4.6430  -77.7330 C   0  0  0  0  0  0  0  0  0  0  0  0
  -10.6890    2.6180  -75.7020 C   0  0  0  0  0  0  0  0  0  0  0  0
   -9.5260    3.9370  -77.4520 C   0  0  0  0  0  0  0  0  0  0  0  0
   -9.4880    2.9470  -76.4720 C   0  0  0  0  0  0  0  0  0  0  0  0
   -8.2650    2.3390  -76.3070 N   0  0  0  0  0  0  0  0  0  0  0  0
   -7.1760    2.6870  -77.0380 C   0  0  0  0  0  0  0  0  0  0  0  0
   -6.5000    3.7010  -76.9240 O   0  0  0  0  0  0  0  0  0  0  0  0
   -6.9170    1.7030  -77.9530 N   0  0  0  0  0  0  0  0  0  0  0  0
   -6.4530    2.0110  -79.2840 C   0  0  0  0  0  0  0  0  0  0  0  0
   -7.0730    1.0920  -80.1250 C   0  0  0  0  0  0  0  0  0  0  0  0
   -7.4090    1.4990  -81.5550 C   0  0  0  0  0  0  0  0  0  0  0  0
   -7.4170   -0.2110  -79.6670 C   0  0  0  0  0  0  0  0  0  0  0  0
   -8.0410    0.5680  -82.3790 C   0  0  0  0  0  0  0  0  0  0  0  0
   -8.0510   -1.0940  -80.5450 C   0  0  0  0  0  0  0  0  0  0  0  0
   -8.3420   -0.7150  -81.8390 C   0  0  0  0  0  0  0  0  0  0  0  0
  1  2  2  3
  2  3  1  0
  2  4  1  0
  4  5  1  0
  5  6  2  0
  5  7  1  0
  6  8  1  0
  7  9  2  0
  8 10  2  0
  9 10  1  0
 10 11  1  0
 11 12  1  0
 12 13  2  0
 12 14  1  0
 14 15  1  0
 15 16  1  0
 16 17  2  0
 16 18  1  0
 17 19  1  0
 18 20  2  0
 19 21  2  0
 20 21  1  0
M  END
>  <ref_url>  (216) 
https://fakepage.com

>  <submitter_name>  (216) 
Steph Wills

>  <submitter_email>  (216) 
stephanie.wills@dtc.ox.ac.uk

>  <submitter_institution>  (216) 
University of Oxford

>  <generation_date>  (216) 
2020-06-04

>  <method>  (216) 
Fragment network

>  <ref_mols>  (216) 
x0176_0B,x0212_0B

>  <ref_pdb>  (216) 
references/x0176-0B-x0212-0B-260374.holo_minimised_nolig.pdb

>  <original SMILES>  (216) 
N=C(N)Cc1ccc(NC(=O)NCc2ccccc2)cc1

>  <synthon>  (216) 
[Xe]c1ccccc1

>  <original_name>  (216) 
x0176-0B-x0212-0B-260374

>  <comRMSD_score>  (216) 
0.9612550389984954

>  <IF_score>  (216) 
0.3095238095238095

>  <SuCOS_score>  (216) 
0.4823763291816304

>  <compound_ID>  (216) 
CHEMSPACE-BB:CSMB00014267965

$$$$

     RDKit          3D

 23 24  0  0  0  0  0  0  0  0999 V2000
  -13.9270    7.2810  -73.2280 C   0  0  0  0  0  0  0  0  0  0  0  0
  -12.4870    6.3760  -73.7510 S   0  0  0  0  0  0  0  0  0  0  0  0
  -11.3220    7.1360  -73.3330 O   0  0  0  0  0  0  0  0  0  0  0  0
  -12.6590    5.0060  -73.3370 O   0  0  0  0  0  0  0  0  0  0  0  0
  -12.6440    6.4200  -75.4220 N   0  0  0  0  0  0  0  0  0  0  0  0
  -12.8390    5.1750  -76.1890 C   0  0  0  0  0  0  0  0  0  0  0  0
  -11.9450    5.0670  -77.4160 C   0  0  0  0  0  0  0  0  0  0  0  0
  -11.2960    3.8450  -77.7240 C   0  0  2  0  0  0  0  0  0  0  0  0
  -11.8040    2.7040  -77.0880 C   0  0  0  0  0  0  0  0  0  0  0  0
   -9.8700    3.8910  -77.6520 N   0  0  0  0  0  0  0  0  0  0  0  0
  -11.0940    2.1390  -76.0460 C   0  0  0  0  0  0  0  0  0  0  0  0
   -9.1280    3.1740  -76.7650 C   0  0  0  0  0  0  0  0  0  0  0  0
   -9.0810    4.0200  -78.8630 C   0  0  0  0  0  0  0  0  0  0  0  0
   -9.8940    2.7070  -75.7400 C   0  0  0  0  0  0  0  0  0  0  0  0
   -9.4460    4.4250  -80.1690 O   0  0  0  0  0  0  0  0  0  0  0  0
   -7.6140    3.6450  -78.6340 C   0  0  0  0  0  0  0  0  0  0  0  0
   -7.0140    2.5030  -79.4030 C   0  0  0  0  0  0  0  0  0  0  0  0
   -7.8710    1.5920  -79.9930 C   0  0  0  0  0  0  0  0  0  0  0  0
   -8.4140    1.8710  -81.2310 C   0  0  0  0  0  0  0  0  0  0  0  0
   -8.2270    0.3810  -79.4010 C   0  0  0  0  0  0  0  0  0  0  0  0
   -9.2720    0.9910  -81.8520 C   0  0  0  0  0  0  0  0  0  0  0  0
   -9.0960   -0.4900  -80.0470 C   0  0  0  0  0  0  0  0  0  0  0  0
   -9.6420   -0.2120  -81.2840 C   0  0  0  0  0  0  0  0  0  0  0  0
  1  2  1  0
  2  3  2  0
  2  4  2  0
  2  5  1  0
  5  6  1  0
  6  7  1  0
  8  7  1  1
  8  9  1  0
  8 10  1  0
  9 11  1  0
 10 12  1  0
 10 13  1  0
 11 14  1  0
 12 14  1  0
 13 15  2  0
 13 16  1  0
 16 17  1  0
 17 18  1  0
 18 19  2  0
 18 20  1  0
 19 21  1  0
 20 22  2  0
 21 23  2  0
 22 23  1  0
M  END
>  <ref_url>  (217) 
https://fakepage.com

>  <submitter_name>  (217) 
Steph Wills

>  <submitter_email>  (217) 
stephanie.wills@dtc.ox.ac.uk

>  <submitter_institution>  (217) 
University of Oxford

>  <generation_date>  (217) 
2020-06-04

>  <method>  (217) 
Fragment network

>  <ref_mols>  (217) 
x0176_0B,x0212_0B

>  <ref_pdb>  (217) 
references/x0176-0B-x0212-0B-261668.holo_minimised_nolig.pdb

>  <original SMILES>  (217) 
CS(=O)(=O)NCCC1CCCCN1C(=O)CCc1ccccc1

>  <synthon>  (217) 
[Xe]c1ccccc1

>  <original_name>  (217) 
x0176-0B-x0212-0B-261668

>  <comRMSD_score>  (217) 
0.7623395763238516

>  <IF_score>  (217) 
0.875

>  <SuCOS_score>  (217) 
0.6170167522373005

>  <compound_ID>  (217) 
REAL:Z595002156

$$$$

     RDKit          3D

 20 21  0  0  0  0  0  0  0  0999 V2000
  -13.2690    5.6320  -75.5260 C   0  0  0  0  0  0  0  0  0  0  0  0
  -13.0340    5.1000  -76.9360 C   0  0  0  0  0  0  0  0  0  0  0  0
  -11.7390    4.2850  -77.0440 C   0  0  0  0  0  0  0  0  0  0  0  0
  -10.7940    4.8240  -77.9070 C   0  0  0  0  0  0  0  0  0  0  0  0
  -11.4780    3.0840  -76.3650 C   0  0  0  0  0  0  0  0  0  0  0  0
   -9.5790    4.1940  -78.1240 C   0  0  0  0  0  0  0  0  0  0  0  0
  -10.2490    2.4790  -76.6080 C   0  0  0  0  0  0  0  0  0  0  0  0
   -9.3170    3.0190  -77.4660 C   0  0  0  0  0  0  0  0  0  0  0  0
   -9.8780    1.4340  -76.1070 O   0  0  0  0  0  0  0  0  0  0  0  0
   -8.4440    1.3440  -76.0200 C   0  0  0  0  0  0  0  0  0  0  0  0
   -7.6580    1.2680  -77.1680 C   0  0  0  0  0  0  0  0  0  0  0  0
   -7.2480   -0.0960  -77.4050 O   0  0  0  0  0  0  0  0  0  0  0  0
   -7.3530    2.2560  -77.8400 O   0  0  0  0  0  0  0  0  0  0  0  0
   -6.9640    2.1200  -79.1810 C   0  0  0  0  0  0  0  0  0  0  0  0
   -7.8930    1.4370  -79.9810 C   0  0  0  0  0  0  0  0  0  0  0  0
   -8.4260    0.0870  -79.5900 C   0  0  0  0  0  0  0  0  0  0  0  0
   -8.3420    2.0080  -81.1740 C   0  0  0  0  0  0  0  0  0  0  0  0
   -9.3440   -0.5480  -80.4210 C   0  0  0  0  0  0  0  0  0  0  0  0
   -9.2600    1.3240  -81.9620 C   0  0  0  0  0  0  0  0  0  0  0  0
   -9.7530    0.0710  -81.5950 C   0  0  0  0  0  0  0  0  0  0  0  0
  1  2  1  0
  2  3  1  0
  3  4  2  0
  3  5  1  0
  4  6  1  0
  5  7  2  0
  6  8  2  0
  7  8  1  0
  7  9  1  0
  9 10  1  0
 10 11  1  0
 11 12  2  0
 11 13  1  0
 13 14  1  0
 14 15  1  0
 15 16  2  0
 15 17  1  0
 16 18  1  0
 17 19  2  0
 18 20  2  0
 19 20  1  0
M  END
>  <ref_url>  (218) 
https://fakepage.com

>  <submitter_name>  (218) 
Steph Wills

>  <submitter_email>  (218) 
stephanie.wills@dtc.ox.ac.uk

>  <submitter_institution>  (218) 
University of Oxford

>  <generation_date>  (218) 
2020-06-04

>  <method>  (218) 
Fragment network

>  <ref_mols>  (218) 
x0176_0B,x0212_0B

>  <ref_pdb>  (218) 
references/x0176-0B-x0212-0B-261834.holo_minimised_nolig.pdb

>  <original SMILES>  (218) 
CCc1cccc(OCC(=O)OCc2ccccc2)c1

>  <synthon>  (218) 
[Xe]c1ccccc1

>  <original_name>  (218) 
x0176-0B-x0212-0B-261834

>  <comRMSD_score>  (218) 
0.9034425705383085

>  <IF_score>  (218) 
0.8

>  <SuCOS_score>  (218) 
0.4938234200457974

>  <compound_ID>  (218) 
CHEMSPACE-BB:CSMB00119747166

$$$$

     RDKit          3D

 21 22  0  0  0  0  0  0  0  0999 V2000
  -13.1460    6.0010  -75.6780 C   0  0  0  0  0  0  0  0  0  0  0  0
  -13.1610    4.8640  -76.6580 C   0  0  0  0  0  0  0  0  0  0  0  0
  -14.3560    3.9940  -76.3510 C   0  0  0  0  0  0  0  0  0  0  0  0
  -11.8620    4.0860  -76.5320 C   0  0  0  0  0  0  0  0  0  0  0  0
  -10.7140    4.4460  -77.2160 C   0  0  0  0  0  0  0  0  0  0  0  0
  -11.7740    2.9570  -75.7020 C   0  0  0  0  0  0  0  0  0  0  0  0
   -9.5080    3.7680  -77.1260 C   0  0  0  0  0  0  0  0  0  0  0  0
  -10.5700    2.2450  -75.5880 C   0  0  0  0  0  0  0  0  0  0  0  0
   -9.4380    2.6470  -76.2960 C   0  0  0  0  0  0  0  0  0  0  0  0
   -8.2320    1.9240  -76.1760 N   0  0  0  0  0  0  0  0  0  0  0  0
   -7.1280    2.0380  -77.0030 C   0  0  0  0  0  0  0  0  0  0  0  0
   -6.0060    1.6080  -76.7560 O   0  0  0  0  0  0  0  0  0  0  0  0
   -7.4000    2.6800  -78.1470 N   0  0  0  0  0  0  0  0  0  0  0  0
   -8.6530    3.3690  -78.2390 C   0  0  0  0  0  0  0  0  0  0  0  0
   -6.7810    2.1690  -79.2610 C   0  0  0  0  0  0  0  0  0  0  0  0
   -7.8120    1.4280  -80.0570 C   0  0  0  0  0  0  0  0  0  0  0  0
   -8.2640    0.1800  -79.6110 C   0  0  0  0  0  0  0  0  0  0  0  0
   -8.3450    1.9590  -81.2360 C   0  0  0  0  0  0  0  0  0  0  0  0
   -9.2250   -0.5220  -80.3260 C   0  0  0  0  0  0  0  0  0  0  0  0
   -9.3010    1.2540  -81.9450 C   0  0  0  0  0  0  0  0  0  0  0  0
   -9.7430    0.0160  -81.4930 C   0  0  0  0  0  0  0  0  0  0  0  0
  1  2  1  0
  2  3  1  0
  2  4  1  0
  4  5  2  0
  4  6  1  0
  5  7  1  0
  6  8  2  0
  7  9  2  0
  8  9  1  0
  9 10  1  0
 10 11  1  0
 11 12  2  0
 11 13  1  0
 13 14  1  0
 13 15  1  0
 15 16  1  0
 16 17  2  0
 16 18  1  0
 17 19  1  0
 18 20  2  0
 19 21  2  0
 20 21  1  0
M  END
>  <ref_url>  (219) 
https://fakepage.com

>  <submitter_name>  (219) 
Steph Wills

>  <submitter_email>  (219) 
stephanie.wills@dtc.ox.ac.uk

>  <submitter_institution>  (219) 
University of Oxford

>  <generation_date>  (219) 
2020-06-04

>  <method>  (219) 
Fragment network

>  <ref_mols>  (219) 
x0176_0B,x0212_0B

>  <ref_pdb>  (219) 
references/x0176-0B-x0212-0B-264929.holo_minimised_nolig.pdb

>  <original SMILES>  (219) 
CC(C)c1ccc(NC(=O)N(C)Cc2ccccc2)cc1

>  <synthon>  (219) 
[Xe]c1ccccc1

>  <original_name>  (219) 
x0176-0B-x0212-0B-264929

>  <comRMSD_score>  (219) 
0.6895661075391296

>  <IF_score>  (219) 
0.675

>  <SuCOS_score>  (219) 
0.507533326291346

>  <compound_ID>  (219) 
REAL:Z409832768

$$$$

     RDKit          3D

 20 21  0  0  0  0  0  0  0  0999 V2000
  -13.6510    5.2790  -78.4840 C   0  0  0  0  0  0  0  0  0  0  0  0
  -13.4990    4.4590  -77.2030 C   0  0  0  0  0  0  0  0  0  0  0  0
  -14.4110    3.2210  -77.1670 C   0  0  0  0  0  0  0  0  0  0  0  0
  -13.9290    5.4080  -76.0670 C   0  0  0  0  0  0  0  0  0  0  0  0
  -12.0400    4.0390  -77.0300 C   0  0  0  0  0  0  0  0  0  0  0  0
  -11.6190    3.1550  -76.0130 C   0  0  0  0  0  0  0  0  0  0  0  0
  -11.1040    4.5450  -77.8840 C   0  0  0  0  0  0  0  0  0  0  0  0
  -10.2570    2.8250  -75.8820 C   0  0  0  0  0  0  0  0  0  0  0  0
   -9.7910    4.2280  -77.7620 C   0  0  0  0  0  0  0  0  0  0  0  0
   -9.3450    3.3930  -76.7780 C   0  0  0  0  0  0  0  0  0  0  0  0
   -7.8540    3.2210  -76.7990 C   0  0  0  0  0  0  0  0  0  0  0  0
   -7.2000    1.6870  -77.2520 S   0  0  0  0  0  0  0  0  0  0  0  0
   -5.8270    1.5700  -76.7810 O   0  0  0  0  0  0  0  0  0  0  0  0
   -7.0940    2.1800  -78.9020 C   0  0  0  0  0  0  0  0  0  0  0  0
   -7.9120    1.4970  -79.7710 C   0  0  0  0  0  0  0  0  0  0  0  0
   -8.2590    2.0070  -81.1220 C   0  0  0  0  0  0  0  0  0  0  0  0
   -8.4280    0.2810  -79.3360 C   0  0  0  0  0  0  0  0  0  0  0  0
   -9.0970    1.2320  -81.8930 C   0  0  0  0  0  0  0  0  0  0  0  0
   -9.2660   -0.4500  -80.1540 C   0  0  0  0  0  0  0  0  0  0  0  0
   -9.5990    0.0180  -81.4110 C   0  0  0  0  0  0  0  0  0  0  0  0
  2  1  1  0
  2  3  1  0
  2  4  1  0
  2  5  1  0
  5  6  2  0
  5  7  1  0
  6  8  1  0
  7  9  2  0
  8 10  2  0
  9 10  1  0
 10 11  1  0
 11 12  1  0
 12 13  1  1
 12 14  1  0
 14 15  1  0
 15 16  2  0
 15 17  1  0
 16 18  1  0
 17 19  2  0
 18 20  2  0
 19 20  1  0
M  CHG  2  12   1  13  -1
M  END
>  <ref_url>  (220) 
https://fakepage.com

>  <submitter_name>  (220) 
Steph Wills

>  <submitter_email>  (220) 
stephanie.wills@dtc.ox.ac.uk

>  <submitter_institution>  (220) 
University of Oxford

>  <generation_date>  (220) 
2020-06-04

>  <method>  (220) 
Fragment network

>  <ref_mols>  (220) 
x0176_0B,x0212_0B

>  <ref_pdb>  (220) 
references/x0176-0B-x0212-0B-267620.holo_minimised_nolig.pdb

>  <original SMILES>  (220) 
CC(C)(C)c1ccc(C[S+]([O-])Cc2ccccc2)cc1

>  <synthon>  (220) 
[Xe]c1ccccc1

>  <original_name>  (220) 
x0176-0B-x0212-0B-267620

>  <comRMSD_score>  (220) 
0.8745394812973435

>  <IF_score>  (220) 
0.375

>  <SuCOS_score>  (220) 
0.4685826975801533

>  <compound_ID>  (220) 
MOLPORT:009-174-474, REAL:Z316994916

$$$$

     RDKit          3D

 21 22  0  0  0  0  0  0  0  0999 V2000
  -12.8230    6.2090  -77.7530 C   0  0  0  0  0  0  0  0  0  0  0  0
  -12.9990    5.2220  -76.6330 C   0  0  0  0  0  0  0  0  0  0  0  0
  -14.3360    4.4540  -76.6680 C   0  0  0  0  0  0  0  0  0  0  0  0
  -13.1440    6.1150  -75.4100 C   0  0  0  0  0  0  0  0  0  0  0  0
  -11.7660    4.2990  -76.5940 C   0  0  0  0  0  0  0  0  0  0  0  0
  -11.7230    3.2440  -75.6690 C   0  0  0  0  0  0  0  0  0  0  0  0
  -10.6700    4.4760  -77.4550 C   0  0  0  0  0  0  0  0  0  0  0  0
  -10.6250    2.3860  -75.5990 C   0  0  0  0  0  0  0  0  0  0  0  0
   -9.5930    3.6100  -77.3640 C   0  0  0  0  0  0  0  0  0  0  0  0
   -9.5390    2.5580  -76.4500 C   0  0  0  0  0  0  0  0  0  0  0  0
   -8.3480    1.6300  -76.3780 C   0  0  0  0  0  0  0  0  0  0  0  0
   -7.2770    1.6380  -77.0810 N   0  0  0  0  0  0  0  0  0  0  0  0
   -7.1410    2.5770  -78.0280 N   0  0  0  0  0  0  0  0  0  0  0  0
   -6.8420    2.1790  -79.2740 C   0  0  0  0  0  0  0  0  0  0  0  0
   -5.7890    2.3390  -79.8920 O   0  0  0  0  0  0  0  0  0  0  0  0
   -7.8120    1.4830  -80.0080 C   0  0  0  0  0  0  0  0  0  0  0  0
   -8.3280    0.1550  -79.5280 C   0  0  0  0  0  0  0  0  0  0  0  0
   -8.3210    2.0020  -81.1930 C   0  0  0  0  0  0  0  0  0  0  0  0
   -9.2930   -0.5120  -80.2830 C   0  0  0  0  0  0  0  0  0  0  0  0
   -9.2820    1.2930  -81.9050 C   0  0  0  0  0  0  0  0  0  0  0  0
   -9.7650    0.0540  -81.4610 C   0  0  0  0  0  0  0  0  0  0  0  0
  2  1  1  0
  2  3  1  0
  2  4  1  0
  2  5  1  0
  5  6  2  0
  5  7  1  0
  6  8  1  0
  7  9  2  0
  8 10  2  0
  9 10  1  0
 10 11  1  0
 11 12  2  3
 12 13  1  0
 13 14  1  0
 14 15  2  0
 14 16  1  0
 16 17  2  0
 16 18  1  0
 17 19  1  0
 18 20  2  0
 19 21  2  0
 20 21  1  0
M  END
>  <ref_url>  (221) 
https://fakepage.com

>  <submitter_name>  (221) 
Steph Wills

>  <submitter_email>  (221) 
stephanie.wills@dtc.ox.ac.uk

>  <submitter_institution>  (221) 
University of Oxford

>  <generation_date>  (221) 
2020-06-04

>  <method>  (221) 
Fragment network

>  <ref_mols>  (221) 
x0176_0B,x0212_0B

>  <ref_pdb>  (221) 
references/x0176-0B-x0212-0B-268539.holo_minimised_nolig.pdb

>  <original SMILES>  (221) 
CC(C)(C)c1ccc(C=NNC(=O)c2ccccc2)cc1

>  <synthon>  (221) 
[Xe]c1ccccc1

>  <original_name>  (221) 
x0176-0B-x0212-0B-268539

>  <comRMSD_score>  (221) 
0.6582072489791462

>  <IF_score>  (221) 
0.8

>  <SuCOS_score>  (221) 
0.5104910598186628

>  <compound_ID>  (221) 
MOLPORT:002-976-081

$$$$

     RDKit          3D

 22 23  0  0  0  0  0  0  0  0999 V2000
  -13.8240    5.8300  -76.1070 C   0  0  0  0  0  0  0  0  0  0  0  0
  -13.4170    4.7690  -76.8090 C   0  0  0  0  0  0  0  0  0  0  0  0
  -14.4760    3.8920  -77.2720 O   0  0  0  0  0  0  0  0  0  0  0  0
  -11.9730    4.5460  -77.0640 C   0  0  0  0  0  0  0  0  0  0  0  0
  -10.7720    4.7710  -77.7990 C   0  0  0  0  0  0  0  0  0  0  0  0
  -11.7310    3.6380  -75.9860 C   0  0  0  0  0  0  0  0  0  0  0  0
   -9.5480    4.2150  -77.5350 C   0  0  0  0  0  0  0  0  0  0  0  0
  -10.5070    3.0370  -75.6640 C   0  0  0  0  0  0  0  0  0  0  0  0
   -9.3970    3.3010  -76.4090 C   0  0  0  0  0  0  0  0  0  0  0  0
   -8.2370    2.7270  -76.0910 O   0  0  0  0  0  0  0  0  0  0  0  0
   -7.3940    2.6450  -77.2220 C   0  0  0  0  0  0  0  0  0  0  0  0
   -6.2830    3.4840  -77.1560 C   0  0  2  0  0  0  0  0  0  0  0  0
   -6.5590    4.4670  -76.4810 O   0  0  0  0  0  0  0  0  0  0  0  0
   -5.7520    3.8710  -78.3820 C   0  0  0  0  0  0  0  0  0  0  0  0
   -6.3740    3.1640  -79.4680 O   0  0  0  0  0  0  0  0  0  0  0  0
   -6.0470    1.7790  -79.5170 C   0  0  0  0  0  0  0  0  0  0  0  0
   -6.9320    0.9970  -80.2640 C   0  0  0  0  0  0  0  0  0  0  0  0
   -7.4290   -0.1870  -79.7190 C   0  0  0  0  0  0  0  0  0  0  0  0
   -7.3410    1.3780  -81.5660 C   0  0  0  0  0  0  0  0  0  0  0  0
   -8.3840   -1.0160  -80.5650 C   0  0  0  0  0  0  0  0  0  0  0  0
   -8.2220    0.5980  -82.3380 C   0  0  0  0  0  0  0  0  0  0  0  0
   -8.7350   -0.5920  -81.8290 C   0  0  0  0  0  0  0  0  0  0  0  0
  1  2  1  0
  2  3  2  0
  2  4  1  0
  4  5  2  0
  4  6  1  0
  5  7  1  0
  6  8  2  0
  7  9  2  0
  8  9  1  0
  9 10  1  0
 10 11  1  0
 11 12  1  0
 12 13  1  6
 12 14  1  0
 14 15  1  0
 15 16  1  0
 16 17  1  0
 17 18  2  0
 17 19  1  0
 18 20  1  0
 19 21  2  0
 20 22  2  0
 21 22  1  0
M  END
>  <ref_url>  (222) 
https://fakepage.com

>  <submitter_name>  (222) 
Steph Wills

>  <submitter_email>  (222) 
stephanie.wills@dtc.ox.ac.uk

>  <submitter_institution>  (222) 
University of Oxford

>  <generation_date>  (222) 
2020-06-04

>  <method>  (222) 
Fragment network

>  <ref_mols>  (222) 
x0176_0B,x0212_0B

>  <ref_pdb>  (222) 
references/x0176-0B-x0212-0B-268694.holo_minimised_nolig.pdb

>  <original SMILES>  (222) 
CC(=O)c1ccc(OCC(O)COCc2ccccc2)cc1

>  <synthon>  (222) 
[Xe]c1ccccc1

>  <original_name>  (222) 
x0176-0B-x0212-0B-268694

>  <comRMSD_score>  (222) 
0.9331416780448438

>  <IF_score>  (222) 
0.4166666666666666

>  <SuCOS_score>  (222) 
0.3753115619019216

>  <compound_ID>  (222) 
CHEMSPACE-BB:CSMB00011991330

$$$$

     RDKit          3D

 21 22  0  0  0  0  0  0  0  0999 V2000
  -12.4640    8.5980  -76.5740 N   0  0  0  0  0  0  0  0  0  0  0  0
  -12.8890    7.5180  -76.4980 C   0  0  0  0  0  0  0  0  0  0  0  0
  -13.4220    6.0960  -76.3230 C   0  0  0  0  0  0  0  0  0  0  0  0
  -13.1770    5.1790  -77.5380 C   0  0  0  0  0  0  0  0  0  0  0  0
  -11.8710    4.4240  -77.2140 C   0  0  0  0  0  0  0  0  0  0  0  0
  -11.8930    3.4980  -76.0280 C   0  0  0  0  0  0  0  0  0  0  0  0
  -10.6990    4.5620  -77.9540 C   0  0  0  0  0  0  0  0  0  0  0  0
  -10.7210    2.8210  -75.7250 C   0  0  0  0  0  0  0  0  0  0  0  0
   -9.5640    3.8510  -77.5930 C   0  0  0  0  0  0  0  0  0  0  0  0
   -9.5810    2.9930  -76.4880 C   0  0  0  0  0  0  0  0  0  0  0  0
   -8.3770    2.3660  -76.2510 N   0  0  0  0  0  0  0  0  0  0  0  0
   -7.1840    2.7650  -76.7760 C   0  0  0  0  0  0  0  0  0  0  0  0
   -6.4050    3.8840  -76.3480 O   0  0  0  0  0  0  0  0  0  0  0  0
   -6.7790    1.8510  -77.8820 N   0  0  0  0  0  0  0  0  0  0  0  0
   -6.4920    2.2960  -79.1260 C   0  0  0  0  0  0  0  0  0  0  0  0
   -7.0970    1.2990  -80.0690 C   0  0  0  0  0  0  0  0  0  0  0  0
   -7.3440    1.6300  -81.4110 C   0  0  0  0  0  0  0  0  0  0  0  0
   -7.4470    0.0070  -79.6100 C   0  0  0  0  0  0  0  0  0  0  0  0
   -7.9690    0.6060  -82.3180 C   0  0  0  0  0  0  0  0  0  0  0  0
   -8.0370   -0.9450  -80.4610 C   0  0  0  0  0  0  0  0  0  0  0  0
   -8.2960   -0.6500  -81.8010 C   0  0  0  0  0  0  0  0  0  0  0  0
  1  2  3  0
  2  3  1  0
  3  4  1  0
  4  5  1  0
  5  6  2  0
  5  7  1  0
  6  8  1  0
  7  9  2  0
  8 10  2  0
  9 10  1  0
 10 11  1  0
 11 12  1  0
 12 13  2  0
 12 14  1  0
 14 15  1  0
 15 16  1  0
 16 17  2  0
 16 18  1  0
 17 19  1  0
 18 20  2  0
 19 21  2  0
 20 21  1  0
M  END
>  <ref_url>  (223) 
https://fakepage.com

>  <submitter_name>  (223) 
Steph Wills

>  <submitter_email>  (223) 
stephanie.wills@dtc.ox.ac.uk

>  <submitter_institution>  (223) 
University of Oxford

>  <generation_date>  (223) 
2020-06-04

>  <method>  (223) 
Fragment network

>  <ref_mols>  (223) 
x0176_0B,x0212_0B

>  <ref_pdb>  (223) 
references/x0176-0B-x0212-0B-272776.holo_minimised_nolig.pdb

>  <original SMILES>  (223) 
N#CCCc1ccc(NC(=O)NCc2ccccc2)cc1

>  <synthon>  (223) 
[Xe]c1ccccc1

>  <original_name>  (223) 
x0176-0B-x0212-0B-272776

>  <comRMSD_score>  (223) 
0.9058914178142784

>  <IF_score>  (223) 
0.1875

>  <SuCOS_score>  (223) 
0.444545423636214

>  <compound_ID>  (223) 
REAL:PV-001951233018

$$$$

     RDKit          3D

 19 20  0  0  0  0  0  0  0  0999 V2000
  -13.0420    5.1990  -76.4630 C   0  0  0  0  0  0  0  0  0  0  0  0
  -11.6810    4.5400  -76.5300 C   0  0  0  0  0  0  0  0  0  0  0  0
  -11.3730    3.4750  -75.5300 C   0  0  0  0  0  0  0  0  0  0  0  0
  -10.7290    4.8810  -77.4690 C   0  0  0  0  0  0  0  0  0  0  0  0
  -10.1150    2.8800  -75.5610 C   0  0  0  0  0  0  0  0  0  0  0  0
   -9.4980    4.2550  -77.4600 C   0  0  0  0  0  0  0  0  0  0  0  0
   -9.1710    3.2850  -76.5120 C   0  0  0  0  0  0  0  0  0  0  0  0
   -7.8920    2.7440  -76.4980 N   0  0  0  0  0  0  0  0  0  0  0  0
   -6.7980    3.6270  -76.4380 C   0  0  0  0  0  0  0  0  0  0  0  0
   -6.0320    4.0140  -75.3650 O   0  0  0  0  0  0  0  0  0  0  0  0
   -6.5180    4.1800  -77.6940 N   0  0  0  0  0  0  0  0  0  0  0  0
   -7.0340    3.5750  -78.7710 C   0  0  0  0  0  0  0  0  0  0  0  0
   -7.5340    2.1740  -78.7620 C   0  0  0  0  0  0  0  0  0  0  0  0
   -8.1610    1.4710  -79.9020 C   0  0  0  0  0  0  0  0  0  0  0  0
   -8.5650    0.1120  -79.4430 C   0  0  0  0  0  0  0  0  0  0  0  0
   -8.3700    1.9450  -81.1880 C   0  0  0  0  0  0  0  0  0  0  0  0
   -9.2200   -0.7260  -80.4640 C   0  0  0  0  0  0  0  0  0  0  0  0
   -8.9890    1.1010  -82.0910 C   0  0  0  0  0  0  0  0  0  0  0  0
   -9.3980   -0.1940  -81.7300 C   0  0  0  0  0  0  0  0  0  0  0  0
  1  2  1  0
  2  3  2  0
  2  4  1  0
  3  5  1  0
  4  6  2  0
  5  7  2  0
  6  7  1  0
  7  8  1  0
  8  9  1  0
  9 10  2  0
  9 11  1  0
 11 12  1  0
 12 13  2  3
 13 14  1  0
 14 15  2  0
 14 16  1  0
 15 17  1  0
 16 18  2  0
 17 19  2  0
 18 19  1  0
M  END
>  <ref_url>  (224) 
https://fakepage.com

>  <submitter_name>  (224) 
Steph Wills

>  <submitter_email>  (224) 
stephanie.wills@dtc.ox.ac.uk

>  <submitter_institution>  (224) 
University of Oxford

>  <generation_date>  (224) 
2020-06-04

>  <method>  (224) 
Fragment network

>  <ref_mols>  (224) 
x0176_0B,x0212_0B

>  <ref_pdb>  (224) 
references/x0176-0B-x0212-0B-273605.holo_minimised_nolig.pdb

>  <original SMILES>  (224) 
Cc1ccc(NC(=O)NC=Cc2ccccc2)cc1

>  <synthon>  (224) 
[Xe]c1ccccc1

>  <original_name>  (224) 
x0176-0B-x0212-0B-273605

>  <comRMSD_score>  (224) 
0.8080791477886969

>  <IF_score>  (224) 
0.8

>  <SuCOS_score>  (224) 
0.4295232860657183

>  <compound_ID>  (224) 
MOLPORT:002-868-650

$$$$

     RDKit          3D

 22 23  0  0  0  0  0  0  0  0999 V2000
  -13.0380    6.7530  -75.0120 N   0  0  0  0  0  0  0  0  0  0  0  0
  -13.2220    5.8980  -76.0510 C   0  0  0  0  0  0  0  0  0  0  0  0
  -14.4820    5.3380  -75.7070 O   0  0  0  0  0  0  0  0  0  0  0  0
  -12.9290    5.1660  -77.3350 C   0  0  0  0  0  0  0  0  0  0  0  0
  -11.7080    4.3100  -77.1860 C   0  0  0  0  0  0  0  0  0  0  0  0
  -11.5020    3.4600  -76.0840 C   0  0  0  0  0  0  0  0  0  0  0  0
  -10.7450    4.3510  -78.1670 C   0  0  0  0  0  0  0  0  0  0  0  0
  -10.3380    2.6720  -76.0030 C   0  0  0  0  0  0  0  0  0  0  0  0
   -9.6180    3.5860  -78.0830 C   0  0  0  0  0  0  0  0  0  0  0  0
   -9.3760    2.7300  -77.0200 C   0  0  0  0  0  0  0  0  0  0  0  0
   -8.1980    2.0130  -77.0510 N   0  0  0  0  0  0  0  0  0  0  0  0
   -7.1050    2.5320  -77.6710 C   0  0  2  0  0  0  0  0  0  0  0  0
   -6.7450    2.4360  -79.1520 C   0  0  0  0  0  0  0  0  0  0  0  0
   -5.8450    2.2290  -76.8430 C   0  0  0  0  0  0  0  0  0  0  0  0
   -7.7120    1.6110  -79.9960 C   0  0  0  0  0  0  0  0  0  0  0  0
   -4.8190    3.1490  -76.8520 N   0  0  0  0  0  0  0  0  0  0  0  0
   -5.8110    1.0750  -76.1470 O   0  0  0  0  0  0  0  0  0  0  0  0
   -8.1020    0.2870  -79.4390 C   0  0  0  0  0  0  0  0  0  0  0  0
   -8.2330    2.0000  -81.2230 C   0  0  0  0  0  0  0  0  0  0  0  0
   -9.0330   -0.5960  -80.1990 C   0  0  0  0  0  0  0  0  0  0  0  0
   -9.1040    1.1530  -81.9200 C   0  0  0  0  0  0  0  0  0  0  0  0
   -9.4970   -0.1120  -81.4290 C   0  0  0  0  0  0  0  0  0  0  0  0
  1  2  1  0
  2  3  2  0
  2  4  1  0
  4  5  1  0
  5  6  2  0
  5  7  1  0
  6  8  1  0
  7  9  2  0
  8 10  2  0
  9 10  1  0
 10 11  1  0
 11 12  1  0
 12 13  1  6
 12 14  1  0
 13 15  1  0
 14 16  1  0
 14 17  2  0
 15 18  2  0
 15 19  1  0
 18 20  1  0
 19 21  2  0
 20 22  2  0
 21 22  1  0
M  END
>  <ref_url>  (225) 
https://fakepage.com

>  <submitter_name>  (225) 
Steph Wills

>  <submitter_email>  (225) 
stephanie.wills@dtc.ox.ac.uk

>  <submitter_institution>  (225) 
University of Oxford

>  <generation_date>  (225) 
2020-06-04

>  <method>  (225) 
Fragment network

>  <ref_mols>  (225) 
x0176_0B,x0212_0B

>  <ref_pdb>  (225) 
references/x0176-0B-x0212-0B-274209.holo_minimised_nolig.pdb

>  <original SMILES>  (225) 
NC(=O)Cc1ccc(NC(Cc2ccccc2)C(N)=O)cc1

>  <synthon>  (225) 
[Xe]c1ccccc1

>  <original_name>  (225) 
x0176-0B-x0212-0B-274209

>  <comRMSD_score>  (225) 
0.5671814818321671

>  <IF_score>  (225) 
0.3333333333333333

>  <SuCOS_score>  (225) 
0.5465904563119549

>  <compound_ID>  (225) 
REAL:Z1672545291

$$$$

     RDKit          3D

 21 22  0  0  0  0  0  0  0  0999 V2000
  -13.1210    7.2910  -76.0200 C   0  0  0  0  0  0  0  0  0  0  0  0
  -13.5400    5.8260  -76.1780 C   0  0  0  0  0  0  0  0  0  0  0  0
  -12.9900    5.1690  -77.4500 C   0  0  0  0  0  0  0  0  0  0  0  0
  -11.8290    4.4510  -77.1680 C   0  0  0  0  0  0  0  0  0  0  0  0
  -10.7230    4.5380  -78.0070 C   0  0  0  0  0  0  0  0  0  0  0  0
  -11.7740    3.6330  -76.0170 C   0  0  0  0  0  0  0  0  0  0  0  0
   -9.5730    3.8370  -77.7190 C   0  0  0  0  0  0  0  0  0  0  0  0
  -10.6320    2.9050  -75.6880 C   0  0  0  0  0  0  0  0  0  0  0  0
   -9.5200    2.9810  -76.5000 C   0  0  0  0  0  0  0  0  0  0  0  0
   -8.3270    2.3270  -76.2810 N   0  0  0  0  0  0  0  0  0  0  0  0
   -7.1310    2.7990  -76.7310 C   0  0  0  0  0  0  0  0  0  0  0  0
   -6.2310    4.1870  -76.0550 S   0  0  0  0  0  0  0  0  0  0  0  0
   -6.7200    2.0300  -77.7920 N   0  0  0  0  0  0  0  0  0  0  0  0
   -7.0250    2.4800  -79.1270 C   0  0  0  0  0  0  0  0  0  0  0  0
   -6.5930    3.5390  -79.5980 O   0  0  0  0  0  0  0  0  0  0  0  0
   -7.8870    1.6420  -80.0300 C   0  0  0  0  0  0  0  0  0  0  0  0
   -8.2230    0.3960  -79.5030 C   0  0  0  0  0  0  0  0  0  0  0  0
   -8.3400    2.0220  -81.2920 C   0  0  0  0  0  0  0  0  0  0  0  0
   -9.0760   -0.5390  -80.3020 C   0  0  0  0  0  0  0  0  0  0  0  0
   -9.1290    1.1510  -82.0390 C   0  0  0  0  0  0  0  0  0  0  0  0
   -9.4990   -0.1130  -81.5600 C   0  0  0  0  0  0  0  0  0  0  0  0
  1  2  1  0
  2  3  1  0
  3  4  1  0
  4  5  2  0
  4  6  1  0
  5  7  1  0
  6  8  2  0
  7  9  2  0
  8  9  1  0
  9 10  1  0
 10 11  1  0
 11 12  2  0
 11 13  1  0
 13 14  1  0
 14 15  2  0
 14 16  1  0
 16 17  2  0
 16 18  1  0
 17 19  1  0
 18 20  2  0
 19 21  2  0
 20 21  1  0
M  END
>  <ref_url>  (226) 
https://fakepage.com

>  <submitter_name>  (226) 
Steph Wills

>  <submitter_email>  (226) 
stephanie.wills@dtc.ox.ac.uk

>  <submitter_institution>  (226) 
University of Oxford

>  <generation_date>  (226) 
2020-06-04

>  <method>  (226) 
Fragment network

>  <ref_mols>  (226) 
x0176_0B,x0212_0B

>  <ref_pdb>  (226) 
references/x0176-0B-x0212-0B-274968.holo_minimised_nolig.pdb

>  <original SMILES>  (226) 
CCCc1ccc(NC(=S)NC(=O)c2ccccc2)cc1

>  <synthon>  (226) 
[Xe]c1ccccc1

>  <original_name>  (226) 
x0176-0B-x0212-0B-274968

>  <comRMSD_score>  (226) 
0.8884213865053001

>  <IF_score>  (226) 
0.5

>  <SuCOS_score>  (226) 
0.5286014628380666

>  <compound_ID>  (226) 
MOLPORT:002-918-206

$$$$

     RDKit          3D

 21 22  0  0  0  0  0  0  0  0999 V2000
  -12.6060    6.3900  -73.6960 C   0  0  0  0  0  0  0  0  0  0  0  0
  -12.7980    6.9700  -75.3760 S   0  0  0  0  0  0  0  0  0  0  0  0
  -13.8650    5.6850  -76.1090 C   0  0  0  0  0  0  0  0  0  0  0  0
  -13.1970    4.9990  -77.3250 C   0  0  0  0  0  0  0  0  0  0  0  0
  -11.9070    4.2870  -77.0740 C   0  0  0  0  0  0  0  0  0  0  0  0
  -11.7970    3.3910  -76.0130 C   0  0  0  0  0  0  0  0  0  0  0  0
  -10.8040    4.5120  -77.8880 C   0  0  0  0  0  0  0  0  0  0  0  0
  -10.5370    2.6940  -75.7510 C   0  0  0  0  0  0  0  0  0  0  0  0
   -9.6050    3.8570  -77.6500 C   0  0  0  0  0  0  0  0  0  0  0  0
   -9.4540    2.9530  -76.5920 C   0  0  0  0  0  0  0  0  0  0  0  0
   -8.1970    2.3010  -76.3750 N   0  0  0  0  0  0  0  0  0  0  0  0
   -7.0410    2.6870  -76.9690 C   0  0  0  0  0  0  0  0  0  0  0  0
   -6.3690    3.6630  -76.6430 O   0  0  0  0  0  0  0  0  0  0  0  0
   -6.7170    1.9920  -77.8310 N   0  0  0  0  0  0  0  0  0  0  0  0
   -6.6060    2.3600  -79.2070 C   0  0  0  0  0  0  0  0  0  0  0  0
   -7.1750    1.3300  -80.1430 C   0  0  0  0  0  0  0  0  0  0  0  0
   -7.4370    1.6300  -81.4780 C   0  0  0  0  0  0  0  0  0  0  0  0
   -7.4840    0.0060  -79.7000 C   0  0  0  0  0  0  0  0  0  0  0  0
   -7.9910    0.6230  -82.3270 C   0  0  0  0  0  0  0  0  0  0  0  0
   -8.0420   -0.9740  -80.5760 C   0  0  0  0  0  0  0  0  0  0  0  0
   -8.3080   -0.6760  -81.9220 C   0  0  0  0  0  0  0  0  0  0  0  0
  1  2  1  0
  2  3  1  0
  3  4  1  0
  4  5  1  0
  5  6  2  0
  5  7  1  0
  6  8  1  0
  7  9  2  0
  8 10  2  0
  9 10  1  0
 10 11  1  0
 11 12  1  0
 12 13  2  0
 12 14  1  0
 14 15  1  0
 15 16  1  0
 16 17  2  0
 16 18  1  0
 17 19  1  0
 18 20  2  0
 19 21  2  0
 20 21  1  0
M  END
>  <ref_url>  (227) 
https://fakepage.com

>  <submitter_name>  (227) 
Steph Wills

>  <submitter_email>  (227) 
stephanie.wills@dtc.ox.ac.uk

>  <submitter_institution>  (227) 
University of Oxford

>  <generation_date>  (227) 
2020-06-04

>  <method>  (227) 
Fragment network

>  <ref_mols>  (227) 
x0176_0B,x0212_0B

>  <ref_pdb>  (227) 
references/x0176-0B-x0212-0B-275486.holo_minimised_nolig.pdb

>  <original SMILES>  (227) 
CSCCc1ccc(NC(=O)NCc2ccccc2)cc1

>  <synthon>  (227) 
[Xe]c1ccccc1

>  <original_name>  (227) 
x0176-0B-x0212-0B-275486

>  <comRMSD_score>  (227) 
0.8194998700652956

>  <IF_score>  (227) 
0.2142857142857142

>  <SuCOS_score>  (227) 
0.494330218723832

>  <compound_ID>  (227) 
REAL:Z1084824970

$$$$

     RDKit          3D

 21 22  0  0  0  0  0  0  0  0999 V2000
   -8.3680    4.1730  -79.7020 C   0  0  0  0  0  0  0  0  0  0  0  0
   -7.6800    3.3460  -78.7180 N   0  0  0  0  0  0  0  0  0  0  0  0
   -7.0100    2.1830  -79.2680 C   0  0  0  0  0  0  0  0  0  0  0  0
   -7.9090    3.3760  -77.2910 C   0  0  0  0  0  0  0  0  0  0  0  0
   -7.9130    1.4440  -80.0120 C   0  0  0  0  0  0  0  0  0  0  0  0
   -7.0100    3.4480  -76.4460 O   0  0  0  0  0  0  0  0  0  0  0  0
   -9.3230    3.3250  -76.8390 C   0  0  0  0  0  0  0  0  0  0  0  0
   -8.4200    0.1310  -79.5320 C   0  0  0  0  0  0  0  0  0  0  0  0
   -8.3930    1.9010  -81.2330 C   0  0  0  0  0  0  0  0  0  0  0  0
   -9.7730    2.1890  -75.9550 C   0  0  0  0  0  0  0  0  0  0  0  0
  -10.2390    4.3200  -77.2110 C   0  0  0  0  0  0  0  0  0  0  0  0
   -9.3310   -0.6200  -80.2500 C   0  0  0  0  0  0  0  0  0  0  0  0
   -9.3110    1.1330  -81.9420 C   0  0  0  0  0  0  0  0  0  0  0  0
  -11.0800    2.1640  -75.5240 C   0  0  0  0  0  0  0  0  0  0  0  0
  -11.5670    4.2990  -76.7620 C   0  0  0  0  0  0  0  0  0  0  0  0
   -9.7760   -0.1080  -81.4600 C   0  0  0  0  0  0  0  0  0  0  0  0
  -12.0010    3.2570  -75.9410 C   0  0  0  0  0  0  0  0  0  0  0  0
  -12.4590    5.3260  -77.1300 C   0  0  0  0  0  0  0  0  0  0  0  0
  -12.7940    6.0810  -76.0130 C   0  0  0  0  0  0  0  0  0  0  0  0
  -13.0700    6.3220  -74.9250 N   0  0  0  0  0  0  0  0  0  0  0  0
  -12.7610    7.6390  -76.5980 S   0  0  0  0  0  0  0  0  0  0  0  0
  1  2  1  0
  2  3  1  0
  2  4  1  0
  3  5  1  0
  4  6  2  0
  4  7  1  0
  5  8  2  0
  5  9  1  0
  7 10  2  0
  7 11  1  0
  8 12  1  0
  9 13  2  0
 10 14  1  0
 11 15  2  0
 12 16  2  0
 13 16  1  0
 14 17  2  0
 15 17  1  0
 15 18  1  0
 18 19  1  0
 19 20  1  0
 19 21  2  0
M  END
>  <ref_url>  (228) 
https://fakepage.com

>  <submitter_name>  (228) 
Steph Wills

>  <submitter_email>  (228) 
stephanie.wills@dtc.ox.ac.uk

>  <submitter_institution>  (228) 
University of Oxford

>  <generation_date>  (228) 
2020-06-04

>  <method>  (228) 
Fragment network

>  <ref_mols>  (228) 
x0176_0B,x0212_0B

>  <ref_pdb>  (228) 
references/x0176-0B-x0212-0B-278528.holo_minimised_nolig.pdb

>  <original SMILES>  (228) 
CN(Cc1ccccc1)C(=O)c1cccc(CC(N)=S)c1

>  <synthon>  (228) 
[Xe]c1ccccc1

>  <original_name>  (228) 
x0176-0B-x0212-0B-278528

>  <comRMSD_score>  (228) 
0.7476663694456236

>  <IF_score>  (228) 
0.675

>  <SuCOS_score>  (228) 
0.5138727465222807

>  <compound_ID>  (228) 
CHEMSPACE-BB:CSMB00030703885

$$$$

     RDKit          3D

 23 23  0  0  0  0  0  0  0  0999 V2000
   -9.6720    2.7250  -75.9530 C   0  0  0  0  0  0  0  0  0  0  0  0
   -9.5100    3.2860  -77.2690 N   0  0  0  0  0  0  0  0  0  0  0  0
   -8.1330    3.5300  -77.6390 C   0  0  0  0  0  0  0  0  0  0  0  0
  -10.4430    4.1040  -77.8600 C   0  0  0  0  0  0  0  0  0  0  0  0
   -7.3370    2.2650  -77.9130 C   0  0  0  0  0  0  0  0  0  0  0  0
  -10.1950    4.7700  -78.8470 O   0  0  0  0  0  0  0  0  0  0  0  0
  -11.6700    4.0970  -77.2560 N   0  0  0  0  0  0  0  0  0  0  0  0
   -6.9590    2.2360  -79.2860 O   0  0  0  0  0  0  0  0  0  0  0  0
  -12.5750    5.2090  -77.4970 C   0  0  0  0  0  0  0  0  0  0  0  0
   -7.3830    1.2140  -80.0640 C   0  0  0  0  0  0  0  0  0  0  0  0
  -13.4000    5.6360  -76.2570 C   0  0  0  0  0  0  0  0  0  0  0  0
   -7.5460    1.5460  -81.4150 C   0  0  0  0  0  0  0  0  0  0  0  0
   -7.6610   -0.0880  -79.6390 C   0  0  0  0  0  0  0  0  0  0  0  0
  -14.7410    6.2630  -76.6650 C   0  0  0  0  0  0  0  0  0  0  0  0
  -13.6710    4.3910  -75.3920 C   0  0  0  0  0  0  0  0  0  0  0  0
  -12.6680    6.6170  -75.3960 N   0  0  0  0  0  0  0  0  0  0  0  0
   -7.9750    0.5840  -82.3390 C   0  0  0  0  0  0  0  0  0  0  0  0
   -8.0950   -1.0530  -80.5590 C   0  0  0  0  0  0  0  0  0  0  0  0
  -12.4410    6.4900  -73.7370 S   0  0  0  0  0  0  0  0  0  0  0  0
   -8.2480   -0.7150  -81.9060 C   0  0  0  0  0  0  0  0  0  0  0  0
  -13.8020    7.4630  -73.1290 C   0  0  0  0  0  0  0  0  0  0  0  0
  -11.1970    7.1270  -73.3690 O   0  0  0  0  0  0  0  0  0  0  0  0
  -12.7020    5.1090  -73.4150 O   0  0  0  0  0  0  0  0  0  0  0  0
  1  2  1  0
  2  3  1  0
  2  4  1  0
  3  5  1  0
  4  6  2  0
  4  7  1  0
  5  8  1  0
  7  9  1  0
  8 10  1  0
  9 11  1  0
 10 12  2  0
 10 13  1  0
 11 14  1  0
 11 15  1  0
 11 16  1  0
 12 17  1  0
 13 18  2  0
 19 16  1  0
 17 20  2  0
 18 20  1  0
 19 21  1  0
 19 22  2  0
 19 23  2  0
M  END
>  <ref_url>  (229) 
https://fakepage.com

>  <submitter_name>  (229) 
Steph Wills

>  <submitter_email>  (229) 
stephanie.wills@dtc.ox.ac.uk

>  <submitter_institution>  (229) 
University of Oxford

>  <generation_date>  (229) 
2020-06-04

>  <method>  (229) 
Fragment network

>  <ref_mols>  (229) 
x0176_0B,x0212_0B

>  <ref_pdb>  (229) 
references/x0176-0B-x0212-0B-281069.holo_minimised_nolig.pdb

>  <original SMILES>  (229) 
CN(CCOc1ccccc1)C(=O)NCC(C)(C)NS(C)(=O)=O

>  <synthon>  (229) 
[Xe]c1ccccc1

>  <original_name>  (229) 
x0176-0B-x0212-0B-281069

>  <comRMSD_score>  (229) 
0.7298235961391496

>  <IF_score>  (229) 
0.6875

>  <SuCOS_score>  (229) 
0.5048210224554865

>  <compound_ID>  (229) 
MOLPORT:023-149-570

$$$$

     RDKit          3D

 20 21  0  0  0  0  0  0  0  0999 V2000
  -13.7520    5.7000  -75.3720 C   0  0  0  0  0  0  0  0  0  0  0  0
  -13.4040    5.2690  -76.7650 C   0  0  0  0  0  0  0  0  0  0  0  0
  -13.1930    6.4610  -77.6360 C   0  0  0  0  0  0  0  0  0  0  0  0
  -12.1650    4.4320  -76.6860 C   0  0  0  0  0  0  0  0  0  0  0  0
  -12.0950    3.3520  -75.8080 C   0  0  0  0  0  0  0  0  0  0  0  0
  -11.0620    4.7160  -77.4870 C   0  0  0  0  0  0  0  0  0  0  0  0
  -10.9970    2.5340  -75.6710 C   0  0  0  0  0  0  0  0  0  0  0  0
   -9.9460    3.9200  -77.3830 C   0  0  0  0  0  0  0  0  0  0  0  0
   -9.9390    2.8520  -76.4760 C   0  0  0  0  0  0  0  0  0  0  0  0
   -8.4650    1.9040  -76.3780 S   0  0  0  0  0  0  0  0  0  0  0  0
   -8.0010    3.4910  -76.8560 C   0  0  0  0  0  0  0  0  0  0  0  0
   -7.1900    3.4660  -78.0880 C   0  0  0  0  0  0  0  0  0  0  0  0
   -6.6720    2.2130  -78.3650 N   0  0  0  0  0  0  0  0  0  0  0  0
   -6.4090    1.8910  -79.7230 C   0  0  0  0  0  0  0  0  0  0  0  0
   -7.6360    1.2610  -80.3010 C   0  0  0  0  0  0  0  0  0  0  0  0
   -8.1480    0.0690  -79.7930 C   0  0  0  0  0  0  0  0  0  0  0  0
   -8.3040    1.8480  -81.3730 C   0  0  0  0  0  0  0  0  0  0  0  0
   -9.2740   -0.5520  -80.3070 C   0  0  0  0  0  0  0  0  0  0  0  0
   -9.4320    1.2380  -81.9050 C   0  0  0  0  0  0  0  0  0  0  0  0
   -9.9220    0.0420  -81.3780 C   0  0  0  0  0  0  0  0  0  0  0  0
  1  2  1  0
  2  3  1  0
  2  4  1  0
  4  5  2  0
  4  6  1  0
  5  7  1  0
  6  8  2  0
  7  9  2  0
  8  9  1  0
  9 10  1  0
 10 11  1  0
 11 12  1  0
 12 13  1  0
 13 14  1  0
 14 15  1  0
 15 16  2  0
 15 17  1  0
 16 18  1  0
 17 19  2  0
 18 20  2  0
 19 20  1  0
M  END
>  <ref_url>  (230) 
https://fakepage.com

>  <submitter_name>  (230) 
Steph Wills

>  <submitter_email>  (230) 
stephanie.wills@dtc.ox.ac.uk

>  <submitter_institution>  (230) 
University of Oxford

>  <generation_date>  (230) 
2020-06-04

>  <method>  (230) 
Fragment network

>  <ref_mols>  (230) 
x0176_0B,x0212_0B

>  <ref_pdb>  (230) 
references/x0176-0B-x0212-0B-281138.holo_minimised_nolig.pdb

>  <original SMILES>  (230) 
CC(C)c1ccc(SCCNCc2ccccc2)cc1

>  <synthon>  (230) 
[Xe]c1ccccc1

>  <original_name>  (230) 
x0176-0B-x0212-0B-281138

>  <comRMSD_score>  (230) 
0.9900401836377092

>  <IF_score>  (230) 
0.675

>  <SuCOS_score>  (230) 
0.4750692626017498

>  <compound_ID>  (230) 
CHEMSPACE-BB:CSMB00011873395

$$$$

     RDKit          3D

 23 25  0  0  0  0  0  0  0  0999 V2000
  -13.6560    5.7190  -78.2350 C   0  0  0  0  0  0  0  0  0  0  0  0
  -13.4630    4.7820  -77.0390 C   0  0  0  0  0  0  0  0  0  0  0  0
  -14.4170    3.5660  -77.1640 C   0  0  0  0  0  0  0  0  0  0  0  0
  -13.6890    5.5460  -75.7580 C   0  0  0  0  0  0  0  0  0  0  0  0
  -12.0410    4.2620  -76.9740 C   0  0  0  0  0  0  0  0  0  0  0  0
  -11.1150    4.7070  -77.9850 C   0  0  0  0  0  0  0  0  0  0  0  0
  -11.5900    3.3660  -75.9770 C   0  0  0  0  0  0  0  0  0  0  0  0
   -9.8320    4.2460  -77.9490 C   0  0  0  0  0  0  0  0  0  0  0  0
  -10.2710    2.9180  -75.9740 C   0  0  0  0  0  0  0  0  0  0  0  0
   -9.4240    3.3780  -76.9750 C   0  0  0  0  0  0  0  0  0  0  0  0
   -8.1340    3.0490  -77.1470 C   0  0  0  0  0  0  0  0  0  0  0  0
   -7.8030    2.4080  -78.2190 N   0  0  0  0  0  0  0  0  0  0  0  0
   -7.0570    3.4010  -76.2960 O   0  0  0  0  0  0  0  0  0  0  0  0
   -6.5130    2.2510  -78.2710 C   0  0  0  0  0  0  0  0  0  0  0  0
   -5.9470    3.0250  -77.0780 C   0  0  0  0  0  0  0  0  0  0  0  0
   -6.0440    1.4930  -79.3150 C   0  0  0  0  0  0  0  0  0  0  0  0
   -4.7760    3.2650  -76.8650 O   0  0  0  0  0  0  0  0  0  0  0  0
   -6.9100    0.8630  -80.2930 C   0  0  0  0  0  0  0  0  0  0  0  0
   -7.2860    1.3390  -81.5820 C   0  0  0  0  0  0  0  0  0  0  0  0
   -7.4490   -0.3790  -79.8990 C   0  0  0  0  0  0  0  0  0  0  0  0
   -8.1330    0.5940  -82.4110 C   0  0  0  0  0  0  0  0  0  0  0  0
   -8.3000   -1.1070  -80.7310 C   0  0  0  0  0  0  0  0  0  0  0  0
   -8.6380   -0.6280  -81.9810 C   0  0  0  0  0  0  0  0  0  0  0  0
  2  1  1  0
  2  3  1  0
  2  4  1  0
  2  5  1  0
  5  6  2  0
  5  7  1  0
  6  8  1  0
  7  9  2  0
  8 10  2  0
  9 10  1  0
 10 11  1  0
 11 12  2  0
 11 13  1  0
 12 14  1  0
 13 15  1  0
 14 15  1  0
 14 16  2  3
 15 17  2  0
 16 18  1  0
 18 19  2  0
 18 20  1  0
 19 21  1  0
 20 22  2  0
 21 23  2  0
 22 23  1  0
M  END
>  <ref_url>  (231) 
https://fakepage.com

>  <submitter_name>  (231) 
Steph Wills

>  <submitter_email>  (231) 
stephanie.wills@dtc.ox.ac.uk

>  <submitter_institution>  (231) 
University of Oxford

>  <generation_date>  (231) 
2020-06-04

>  <method>  (231) 
Fragment network

>  <ref_mols>  (231) 
x0176_0B,x0212_0B

>  <ref_pdb>  (231) 
references/x0176-0B-x0212-0B-281143.holo_minimised_nolig.pdb

>  <original SMILES>  (231) 
CC(C)(C)c1ccc(C2=NC(=Cc3ccccc3)C(=O)O2)cc1

>  <synthon>  (231) 
[Xe]c1ccccc1

>  <original_name>  (231) 
x0176-0B-x0212-0B-281143

>  <comRMSD_score>  (231) 
0.9817075684744404

>  <IF_score>  (231) 
0.2857142857142857

>  <SuCOS_score>  (231) 
0.404860734953557

>  <compound_ID>  (231) 
MOLPORT:001-927-550

$$$$

     RDKit          3D

 22 23  0  0  0  0  0  0  0  0999 V2000
   -8.8020    3.2310  -76.0540 C   0  0  0  0  0  0  0  0  0  0  0  0
   -7.8750    3.4400  -77.0190 C   0  0  0  0  0  0  0  0  0  0  0  0
   -7.3420    2.2050  -77.6040 N   0  0  0  0  0  0  0  0  0  0  0  0
   -7.0490    2.3690  -79.0360 C   0  0  0  0  0  0  0  0  0  0  0  0
   -7.7150    1.0080  -77.0160 C   0  0  0  0  0  0  0  0  0  0  0  0
   -7.9300    1.6010  -79.8620 C   0  0  0  0  0  0  0  0  0  0  0  0
   -6.9130    0.0940  -76.8680 O   0  0  0  0  0  0  0  0  0  0  0  0
   -9.1430    0.9430  -76.6010 N   0  0  0  0  0  0  0  0  0  0  0  0
   -8.3590    0.3470  -79.4320 C   0  0  0  0  0  0  0  0  0  0  0  0
   -8.3910    2.0710  -81.1150 C   0  0  0  0  0  0  0  0  0  0  0  0
   -9.9990    2.1040  -76.7120 C   0  0  0  0  0  0  0  0  0  0  0  0
   -9.2830   -0.4780  -80.2630 C   0  0  0  0  0  0  0  0  0  0  0  0
   -9.2590    1.2950  -81.8960 C   0  0  0  0  0  0  0  0  0  0  0  0
  -11.1060    2.1420  -75.8970 C   0  0  0  0  0  0  0  0  0  0  0  0
   -9.7190    3.1500  -77.6050 C   0  0  0  0  0  0  0  0  0  0  0  0
   -9.7050    0.0360  -81.4790 C   0  0  0  0  0  0  0  0  0  0  0  0
  -12.0000    3.3700  -76.0370 C   0  0  0  0  0  0  0  0  0  0  0  0
  -10.5510    4.2780  -77.7210 C   0  0  0  0  0  0  0  0  0  0  0  0
  -11.7050    4.3940  -76.9390 C   0  0  0  0  0  0  0  0  0  0  0  0
  -12.5330    5.5070  -77.0760 C   0  0  0  0  0  0  0  0  0  0  0  0
  -13.3830    5.7040  -75.8620 C   0  0  0  0  0  0  0  0  0  0  0  0
  -12.6540    6.4010  -74.9490 N   0  0  0  0  0  0  0  0  0  0  0  0
  1  2  1  0
  2  3  1  0
  3  4  1  0
  3  5  1  0
  4  6  1  0
  5  7  2  0
  5  8  1  0
  6  9  2  0
  6 10  1  0
  8 11  1  0
  9 12  1  0
 10 13  2  0
 11 14  2  0
 11 15  1  0
 12 16  2  0
 13 16  1  0
 14 17  1  0
 15 18  2  0
 17 19  2  0
 18 19  1  0
 19 20  1  0
 20 21  1  0
 21 22  1  0
M  END
>  <ref_url>  (232) 
https://fakepage.com

>  <submitter_name>  (232) 
Steph Wills

>  <submitter_email>  (232) 
stephanie.wills@dtc.ox.ac.uk

>  <submitter_institution>  (232) 
University of Oxford

>  <generation_date>  (232) 
2020-06-04

>  <method>  (232) 
Fragment network

>  <ref_mols>  (232) 
x0176_0B,x0212_0B

>  <ref_pdb>  (232) 
references/x0176-0B-x0212-0B-282509.holo_minimised_nolig.pdb

>  <original SMILES>  (232) 
CCN(Cc1ccccc1)C(=O)Nc1ccc(CCN)cc1

>  <synthon>  (232) 
[Xe]c1ccccc1

>  <original_name>  (232) 
x0176-0B-x0212-0B-282509

>  <comRMSD_score>  (232) 
0.6927378147611115

>  <IF_score>  (232) 
0.675

>  <SuCOS_score>  (232) 
0.5615665360172838

>  <compound_ID>  (232) 
CHEMSPACE-BB:CSMB00024336181

$$$$

     RDKit          3D

 27 28  0  0  0  0  0  0  0  0999 V2000
  -12.4400    7.2400  -76.7850 C   0  0  0  0  0  0  0  0  0  0  0  0
  -12.8740    5.7750  -76.6640 C   0  0  0  0  0  0  0  0  0  0  0  0
  -13.4790    5.6950  -75.2790 C   0  0  0  0  0  0  0  0  0  0  0  0
  -14.0550    5.6610  -77.6540 C   0  0  0  0  0  0  0  0  0  0  0  0
  -11.7700    4.6600  -76.6530 C   0  0  0  0  0  0  0  0  0  0  0  0
  -11.9850    3.5650  -75.7940 C   0  0  0  0  0  0  0  0  0  0  0  0
  -10.5730    4.6210  -77.4030 C   0  0  0  0  0  0  0  0  0  0  0  0
  -11.0920    2.5030  -75.6800 C   0  0  0  0  0  0  0  0  0  0  0  0
   -9.6530    3.5370  -77.2880 C   0  0  0  0  0  0  0  0  0  0  0  0
   -9.9270    2.4620  -76.4130 C   0  0  0  0  0  0  0  0  0  0  0  0
   -9.0390    1.2660  -76.2310 C   0  0  0  0  0  0  0  0  0  0  0  0
   -9.3630    0.3230  -75.5210 O   0  0  0  0  0  0  0  0  0  0  0  0
   -7.8870    1.3370  -76.9200 O   0  0  0  0  0  0  0  0  0  0  0  0
   -6.8300    0.5220  -76.3890 C   0  0  0  0  0  0  0  0  0  0  0  0
   -5.6850    1.4380  -75.9330 C   0  0  0  0  0  0  0  0  0  0  0  0
   -4.7300    1.0850  -75.2370 O   0  0  0  0  0  0  0  0  0  0  0  0
   -5.7530    2.7430  -76.3440 N   0  0  0  0  0  0  0  0  0  0  0  0
   -6.8200    3.2040  -77.0590 C   0  0  0  0  0  0  0  0  0  0  0  0
   -7.3890    4.2390  -76.8760 O   0  0  0  0  0  0  0  0  0  0  0  0
   -7.1550    2.3060  -78.0200 N   0  0  0  0  0  0  0  0  0  0  0  0
   -7.0490    2.6010  -79.4150 C   0  0  0  0  0  0  0  0  0  0  0  0
   -7.9590    1.6600  -80.1330 C   0  0  0  0  0  0  0  0  0  0  0  0
   -8.5100    2.0460  -81.3420 C   0  0  0  0  0  0  0  0  0  0  0  0
   -8.2700    0.3980  -79.6050 C   0  0  0  0  0  0  0  0  0  0  0  0
   -9.3620    1.1920  -82.0170 C   0  0  0  0  0  0  0  0  0  0  0  0
   -9.1290   -0.4590  -80.2910 C   0  0  0  0  0  0  0  0  0  0  0  0
   -9.6740   -0.0570  -81.4990 C   0  0  0  0  0  0  0  0  0  0  0  0
  2  1  1  0
  2  3  1  0
  2  4  1  0
  2  5  1  0
  5  6  2  0
  5  7  1  0
  6  8  1  0
  7  9  2  0
  8 10  2  0
  9 10  1  0
 10 11  1  0
 11 12  2  0
 11 13  1  0
 13 14  1  0
 14 15  1  0
 15 16  2  0
 15 17  1  0
 17 18  1  0
 18 19  2  0
 18 20  1  0
 20 21  1  0
 21 22  1  0
 22 23  2  0
 22 24  1  0
 23 25  1  0
 24 26  2  0
 25 27  2  0
 26 27  1  0
M  END
>  <ref_url>  (233) 
https://fakepage.com

>  <submitter_name>  (233) 
Steph Wills

>  <submitter_email>  (233) 
stephanie.wills@dtc.ox.ac.uk

>  <submitter_institution>  (233) 
University of Oxford

>  <generation_date>  (233) 
2020-06-04

>  <method>  (233) 
Fragment network

>  <ref_mols>  (233) 
x0176_0B,x0212_0B

>  <ref_pdb>  (233) 
references/x0176-0B-x0212-0B-283368.holo_minimised_nolig.pdb

>  <original SMILES>  (233) 
CC(C)(C)c1ccc(C(=O)OCC(=O)NC(=O)NCc2ccccc2)cc1

>  <synthon>  (233) 
[Xe]c1ccccc1

>  <original_name>  (233) 
x0176-0B-x0212-0B-283368

>  <comRMSD_score>  (233) 
0.8567412094675967

>  <IF_score>  (233) 
0.9

>  <SuCOS_score>  (233) 
0.4965395253357874

>  <compound_ID>  (233) 
MOLPORT:004-108-579

$$$$

     RDKit          3D

 21 22  0  0  0  0  0  0  0  0999 V2000
  -13.4840    5.8120  -75.8070 C   0  0  0  0  0  0  0  0  0  0  0  0
  -12.7180    5.5090  -77.0630 C   0  0  0  0  0  0  0  0  0  0  0  0
  -11.6660    4.4640  -76.8250 C   0  0  0  0  0  0  0  0  0  0  0  0
  -10.5200    4.4840  -77.5910 C   0  0  0  0  0  0  0  0  0  0  0  0
  -11.8080    3.4700  -75.8510 C   0  0  0  0  0  0  0  0  0  0  0  0
   -9.5240    3.5310  -77.4050 C   0  0  0  0  0  0  0  0  0  0  0  0
  -10.8030    2.5110  -75.6660 C   0  0  0  0  0  0  0  0  0  0  0  0
   -9.6510    2.5330  -76.4440 C   0  0  0  0  0  0  0  0  0  0  0  0
   -8.6820    1.5390  -76.2080 N   0  0  0  0  0  0  0  0  0  0  0  0
   -7.5080    1.3810  -76.9050 C   0  0  0  0  0  0  0  0  0  0  0  0
   -6.7000    0.4770  -76.7310 O   0  0  0  0  0  0  0  0  0  0  0  0
   -7.3060    2.3720  -77.8620 N   0  0  0  0  0  0  0  0  0  0  0  0
   -7.9060    3.6880  -77.8180 C   0  0  0  0  0  0  0  0  0  0  0  0
   -6.7960    2.0090  -79.1760 C   0  0  0  0  0  0  0  0  0  0  0  0
   -8.7620    3.9830  -79.0610 C   0  0  0  0  0  0  0  0  0  0  0  0
   -7.8630    1.3590  -80.0100 C   0  0  0  0  0  0  0  0  0  0  0  0
   -8.3410    1.9530  -81.1840 C   0  0  0  0  0  0  0  0  0  0  0  0
   -8.3930    0.1340  -79.6010 C   0  0  0  0  0  0  0  0  0  0  0  0
   -9.3260    1.3200  -81.9190 C   0  0  0  0  0  0  0  0  0  0  0  0
   -9.3830   -0.4920  -80.3430 C   0  0  0  0  0  0  0  0  0  0  0  0
   -9.8460    0.1030  -81.5000 C   0  0  0  0  0  0  0  0  0  0  0  0
  1  2  1  0
  2  3  1  0
  3  4  2  0
  3  5  1  0
  4  6  1  0
  5  7  2  0
  6  8  2  0
  7  8  1  0
  8  9  1  0
  9 10  1  0
 10 11  2  0
 10 12  1  0
 12 13  1  0
 12 14  1  0
 13 15  1  0
 14 16  1  0
 16 17  2  0
 16 18  1  0
 17 19  1  0
 18 20  2  0
 19 21  2  0
 20 21  1  0
M  END
>  <ref_url>  (234) 
https://fakepage.com

>  <submitter_name>  (234) 
Steph Wills

>  <submitter_email>  (234) 
stephanie.wills@dtc.ox.ac.uk

>  <submitter_institution>  (234) 
University of Oxford

>  <generation_date>  (234) 
2020-06-04

>  <method>  (234) 
Fragment network

>  <ref_mols>  (234) 
x0176_0B,x0212_0B

>  <ref_pdb>  (234) 
references/x0176-0B-x0212-0B-284764.holo_minimised_nolig.pdb

>  <original SMILES>  (234) 
CCc1ccc(NC(=O)N(CC)Cc2ccccc2)cc1

>  <synthon>  (234) 
[Xe]c1ccccc1

>  <original_name>  (234) 
x0176-0B-x0212-0B-284764

>  <comRMSD_score>  (234) 
0.6038706311209674

>  <IF_score>  (234) 
0.675

>  <SuCOS_score>  (234) 
0.5291853105709267

>  <compound_ID>  (234) 
REAL:Z409956108

$$$$

     RDKit          3D

 25 26  0  0  0  0  0  0  0  0999 V2000
   -5.9320    1.1930  -77.6580 C   0  0  0  0  0  0  0  0  0  0  0  0
   -6.6440    2.3060  -78.0440 N   0  0  0  0  0  0  0  0  0  0  0  0
   -6.7800    2.5190  -79.4610 C   0  0  0  0  0  0  0  0  0  0  0  0
   -7.7120    2.9080  -77.3900 C   0  0  0  0  0  0  0  0  0  0  0  0
   -7.6910    1.6360  -80.0170 C   0  0  0  0  0  0  0  0  0  0  0  0
   -8.0930    2.4710  -76.1390 C   0  0  0  0  0  0  0  0  0  0  0  0
   -8.3240    1.9430  -81.2050 C   0  0  0  0  0  0  0  0  0  0  0  0
   -8.0320    0.4040  -79.4360 C   0  0  0  0  0  0  0  0  0  0  0  0
   -7.1940    2.7090  -75.0980 C   0  0  0  0  0  0  0  0  0  0  0  0
   -9.3770    3.2320  -75.8560 C   0  0  0  0  0  0  0  0  0  0  0  0
   -8.4480    1.0010  -76.2270 C   0  0  0  0  0  0  0  0  0  0  0  0
   -9.2420    1.1210  -81.8210 C   0  0  0  0  0  0  0  0  0  0  0  0
   -8.9580   -0.4360  -80.0460 C   0  0  0  0  0  0  0  0  0  0  0  0
   -9.6180    0.8870  -77.0490 N   0  0  0  0  0  0  0  0  0  0  0  0
   -9.5700   -0.0940  -81.2330 C   0  0  0  0  0  0  0  0  0  0  0  0
  -10.3210    2.0610  -77.1960 C   0  0  0  0  0  0  0  0  0  0  0  0
  -11.6040    2.1100  -76.4650 C   0  0  0  0  0  0  0  0  0  0  0  0
   -9.9360    3.1690  -77.9370 C   0  0  0  0  0  0  0  0  0  0  0  0
  -12.3720    3.2520  -76.5500 C   0  0  0  0  0  0  0  0  0  0  0  0
  -10.7350    4.3020  -78.0010 C   0  0  0  0  0  0  0  0  0  0  0  0
  -11.9480    4.3470  -77.3120 C   0  0  0  0  0  0  0  0  0  0  0  0
  -12.7460    5.4720  -77.3710 C   0  0  0  0  0  0  0  0  0  0  0  0
  -13.3900    5.8700  -76.2030 C   0  0  0  0  0  0  0  0  0  0  0  0
  -12.8460    6.9570  -75.5780 N   0  0  0  0  0  0  0  0  0  0  0  0
  -14.3790    5.3120  -75.7360 O   0  0  0  0  0  0  0  0  0  0  0  0
  1  2  1  0
  2  3  1  0
  2  4  1  0
  3  5  1  0
  6  4  1  0
  5  7  2  0
  5  8  1  0
  6  9  1  0
  6 10  1  0
  6 11  1  0
  7 12  1  0
  8 13  2  0
 11 14  1  0
 12 15  2  0
 13 15  1  0
 14 16  1  0
 16 17  2  0
 16 18  1  0
 17 19  1  0
 18 20  2  0
 19 21  2  0
 20 21  1  0
 21 22  1  0
 22 23  1  0
 23 24  1  0
 23 25  2  0
M  END
>  <ref_url>  (235) 
https://fakepage.com

>  <submitter_name>  (235) 
Steph Wills

>  <submitter_email>  (235) 
stephanie.wills@dtc.ox.ac.uk

>  <submitter_institution>  (235) 
University of Oxford

>  <generation_date>  (235) 
2020-06-04

>  <method>  (235) 
Fragment network

>  <ref_mols>  (235) 
x0176_0B,x0212_0B

>  <ref_pdb>  (235) 
references/x0176-0B-x0212-0B-284898.holo_minimised_nolig.pdb

>  <original SMILES>  (235) 
CN(Cc1ccccc1)CC(C)(C)CNc1ccc(CC(N)=O)cc1

>  <synthon>  (235) 
[Xe]c1ccccc1

>  <original_name>  (235) 
x0176-0B-x0212-0B-284898

>  <comRMSD_score>  (235) 
0.8861474506806568

>  <IF_score>  (235) 
0.375

>  <SuCOS_score>  (235) 
0.5311531115843942

>  <compound_ID>  (235) 
REAL:Z1572940718

$$$$

     RDKit          3D

 25 26  0  0  0  0  0  0  0  0999 V2000
   -9.3690    1.4850  -77.2830 C   0  0  0  0  0  0  0  0  0  0  0  0
   -8.6300    2.5810  -78.0500 C   0  0  0  0  0  0  0  0  0  0  0  0
   -9.2330    3.5580  -78.4780 O   0  0  0  0  0  0  0  0  0  0  0  0
   -7.1950    2.3220  -78.2510 N   0  0  0  0  0  0  0  0  0  0  0  0
   -6.4670    1.6030  -77.2970 C   0  0  0  0  0  0  0  0  0  0  0  0
   -6.8070    2.0830  -79.5540 C   0  0  0  0  0  0  0  0  0  0  0  0
   -5.9610    2.3350  -76.2410 C   0  0  0  0  0  0  0  0  0  0  0  0
   -7.7800    1.3890  -80.2320 C   0  0  0  0  0  0  0  0  0  0  0  0
   -6.9940    3.0450  -75.6720 C   0  0  0  0  0  0  0  0  0  0  0  0
   -8.3960    1.9430  -81.3420 C   0  0  0  0  0  0  0  0  0  0  0  0
   -8.1510    0.1110  -79.7760 C   0  0  0  0  0  0  0  0  0  0  0  0
   -6.5550    4.1810  -75.0360 O   0  0  0  0  0  0  0  0  0  0  0  0
   -8.3000    2.5120  -75.7550 N   0  0  0  0  0  0  0  0  0  0  0  0
   -9.3830    1.2310  -82.0040 C   0  0  0  0  0  0  0  0  0  0  0  0
   -9.1420   -0.6010  -80.4430 C   0  0  0  0  0  0  0  0  0  0  0  0
   -9.5320    3.2160  -76.1490 C   0  0  0  0  0  0  0  0  0  0  0  0
   -9.7400   -0.0230  -81.5470 C   0  0  0  0  0  0  0  0  0  0  0  0
  -10.6250    2.8890  -75.3970 C   0  0  0  0  0  0  0  0  0  0  0  0
   -9.6150    4.1310  -77.1850 C   0  0  0  0  0  0  0  0  0  0  0  0
  -11.9420    3.5300  -75.6450 C   0  0  0  0  0  0  0  0  0  0  0  0
  -10.8190    4.7950  -77.4950 C   0  0  0  0  0  0  0  0  0  0  0  0
  -11.9830    4.5350  -76.7550 C   0  0  0  0  0  0  0  0  0  0  0  0
  -13.3610    5.1310  -76.8900 C   0  0  0  0  0  0  0  0  0  0  0  0
  -13.6410    6.1500  -77.9460 C   0  0  0  0  0  0  0  0  0  0  0  0
  -13.6030    5.8210  -75.5580 C   0  0  0  0  0  0  0  0  0  0  0  0
  1  2  1  0
  2  3  2  0
  2  4  1  0
  4  5  1  0
  4  6  1  0
  5  7  1  0
  6  8  1  0
  7  9  1  0
  8 10  2  0
  8 11  1  0
  9 12  2  0
  9 13  1  0
 10 14  1  0
 11 15  2  0
 13 16  1  0
 14 17  2  0
 15 17  1  0
 16 18  2  0
 16 19  1  0
 18 20  1  0
 19 21  2  0
 20 22  2  0
 21 22  1  0
 22 23  1  0
 23 24  1  0
 23 25  1  0
M  END
>  <ref_url>  (236) 
https://fakepage.com

>  <submitter_name>  (236) 
Steph Wills

>  <submitter_email>  (236) 
stephanie.wills@dtc.ox.ac.uk

>  <submitter_institution>  (236) 
University of Oxford

>  <generation_date>  (236) 
2020-06-04

>  <method>  (236) 
Fragment network

>  <ref_mols>  (236) 
x0176_0B,x0212_0B

>  <ref_pdb>  (236) 
references/x0176-0B-x0212-0B-290740.holo_minimised_nolig.pdb

>  <original SMILES>  (236) 
CC(=O)N(CCC(=O)Nc1ccc(C(C)C)cc1)Cc1ccccc1

>  <synthon>  (236) 
[Xe]c1ccccc1

>  <original_name>  (236) 
x0176-0B-x0212-0B-290740

>  <comRMSD_score>  (236) 
0.8607683099030382

>  <IF_score>  (236) 
0.8

>  <SuCOS_score>  (236) 
0.5070582390470433

>  <compound_ID>  (236) 
REAL:Z1013909690

$$$$

     RDKit          3D

 21 22  0  0  0  0  0  0  0  0999 V2000
   -6.1890    0.4700  -77.2290 C   0  0  0  0  0  0  0  0  0  0  0  0
   -6.6830    1.7280  -77.7810 N   0  0  0  0  0  0  0  0  0  0  0  0
   -6.3170    2.0270  -79.1700 C   0  0  0  0  0  0  0  0  0  0  0  0
   -7.1670    2.7460  -76.9830 C   0  0  0  0  0  0  0  0  0  0  0  0
   -7.0350    1.1030  -80.1290 C   0  0  0  0  0  0  0  0  0  0  0  0
   -6.5870    3.8200  -76.8690 O   0  0  0  0  0  0  0  0  0  0  0  0
   -8.3180    2.4150  -76.3520 N   0  0  0  0  0  0  0  0  0  0  0  0
   -7.4690   -0.1640  -79.6940 C   0  0  0  0  0  0  0  0  0  0  0  0
   -7.3040    1.4890  -81.4620 C   0  0  0  0  0  0  0  0  0  0  0  0
   -9.5100    3.0430  -76.6160 C   0  0  0  0  0  0  0  0  0  0  0  0
   -8.1540   -1.0160  -80.5620 C   0  0  0  0  0  0  0  0  0  0  0  0
   -7.9910    0.6200  -82.3250 C   0  0  0  0  0  0  0  0  0  0  0  0
   -9.6130    3.9770  -77.6280 C   0  0  0  0  0  0  0  0  0  0  0  0
  -10.6180    2.7200  -75.8390 C   0  0  0  0  0  0  0  0  0  0  0  0
   -8.4140   -0.6260  -81.8700 C   0  0  0  0  0  0  0  0  0  0  0  0
  -10.8210    4.6010  -77.8760 C   0  0  0  0  0  0  0  0  0  0  0  0
  -11.8350    3.3470  -76.0900 C   0  0  0  0  0  0  0  0  0  0  0  0
  -11.9370    4.2940  -77.1140 C   0  0  0  0  0  0  0  0  0  0  0  0
  -13.2380    4.9790  -77.3950 C   0  0  0  0  0  0  0  0  0  0  0  0
  -13.7740    5.7440  -76.1830 C   0  0  0  0  0  0  0  0  0  0  0  0
  -12.7150    6.4420  -75.4560 N   0  0  0  0  0  0  0  0  0  0  0  0
  1  2  1  0
  2  3  1  0
  2  4  1  0
  3  5  1  0
  4  6  2  0
  4  7  1  0
  5  8  2  0
  5  9  1  0
  7 10  1  0
  8 11  1  0
  9 12  2  0
 10 13  2  0
 10 14  1  0
 11 15  2  0
 12 15  1  0
 13 16  1  0
 14 17  2  0
 16 18  2  0
 17 18  1  0
 18 19  1  0
 19 20  1  0
 20 21  1  0
M  END
>  <ref_url>  (237) 
https://fakepage.com

>  <submitter_name>  (237) 
Steph Wills

>  <submitter_email>  (237) 
stephanie.wills@dtc.ox.ac.uk

>  <submitter_institution>  (237) 
University of Oxford

>  <generation_date>  (237) 
2020-06-04

>  <method>  (237) 
Fragment network

>  <ref_mols>  (237) 
x0176_0B,x0212_0B

>  <ref_pdb>  (237) 
references/x0176-0B-x0212-0B-292161.holo_minimised_nolig.pdb

>  <original SMILES>  (237) 
CN(Cc1ccccc1)C(=O)Nc1ccc(CCN)cc1

>  <synthon>  (237) 
[Xe]c1ccccc1

>  <original_name>  (237) 
x0176-0B-x0212-0B-292161

>  <comRMSD_score>  (237) 
0.9628280393368968

>  <IF_score>  (237) 
0.25

>  <SuCOS_score>  (237) 
0.4771431539229376

>  <compound_ID>  (237) 
CHEMSPACE-BB:CSMB00024334129

$$$$

     RDKit          3D

 24 25  0  0  0  0  0  0  0  0999 V2000
  -13.3610    5.2970  -78.3510 C   0  0  0  0  0  0  0  0  0  0  0  0
  -12.8840    4.7220  -77.2340 C   0  0  0  0  0  0  0  0  0  0  0  0
  -13.2300    5.4450  -75.9640 C   0  0  0  0  0  0  0  0  0  0  0  0
  -11.4430    4.2280  -77.1650 C   0  0  0  0  0  0  0  0  0  0  0  0
  -10.5390    4.5510  -78.1570 C   0  0  0  0  0  0  0  0  0  0  0  0
  -10.9350    3.4270  -76.1270 C   0  0  0  0  0  0  0  0  0  0  0  0
   -9.1170    4.0740  -78.1060 C   0  0  0  0  0  0  0  0  0  0  0  0
   -9.6270    2.9840  -76.0580 C   0  0  0  0  0  0  0  0  0  0  0  0
  -11.6340    2.9770  -75.0750 N   0  0  0  0  0  0  0  0  0  0  0  0
   -8.7140    3.3040  -77.0380 C   0  0  0  0  0  0  0  0  0  0  0  0
  -11.7200    1.6150  -74.8390 C   0  0  0  0  0  0  0  0  0  0  0  0
  -12.3920    1.1020  -73.9490 O   0  0  0  0  0  0  0  0  0  0  0  0
  -11.0230    0.7000  -75.6580 C   0  0  0  0  0  0  0  0  0  0  0  0
   -9.6120    0.4910  -75.2530 N   0  0  0  0  0  0  0  0  0  0  0  0
   -8.5010    0.9660  -76.1160 C   0  0  0  0  0  0  0  0  0  0  0  0
   -7.5420    1.6060  -75.6950 O   0  0  0  0  0  0  0  0  0  0  0  0
   -8.3310    0.7330  -77.5960 C   0  0  0  0  0  0  0  0  0  0  0  0
   -7.6820    1.5260  -78.5580 C   0  0  0  0  0  0  0  0  0  0  0  0
   -7.7710    0.9380  -79.7800 C   0  0  0  0  0  0  0  0  0  0  0  0
   -7.7120    1.5860  -81.1320 C   0  0  0  0  0  0  0  0  0  0  0  0
   -7.9650   -0.4350  -79.6900 C   0  0  0  0  0  0  0  0  0  0  0  0
   -7.8790    0.7380  -82.2370 C   0  0  0  0  0  0  0  0  0  0  0  0
   -8.1160   -1.2110  -80.8110 C   0  0  0  0  0  0  0  0  0  0  0  0
   -8.0730   -0.6270  -82.0620 C   0  0  0  0  0  0  0  0  0  0  0  0
  1  2  1  0
  2  3  1  0
  2  4  1  0
  4  5  2  0
  4  6  1  0
  5  7  1  0
  6  8  2  0
  6  9  1  0
  7 10  2  0
  8 10  1  0
  9 11  1  0
 11 12  2  0
 11 13  1  0
 13 14  1  0
 14 15  1  0
 15 16  2  0
 15 17  1  0
 17 18  2  3
 18 19  1  0
 19 20  2  0
 19 21  1  0
 20 22  1  0
 21 23  2  0
 22 24  2  0
 23 24  1  0
M  END
>  <ref_url>  (238) 
https://fakepage.com

>  <submitter_name>  (238) 
Steph Wills

>  <submitter_email>  (238) 
stephanie.wills@dtc.ox.ac.uk

>  <submitter_institution>  (238) 
University of Oxford

>  <generation_date>  (238) 
2020-06-04

>  <method>  (238) 
Fragment network

>  <ref_mols>  (238) 
x0176_0B,x0212_0B

>  <ref_pdb>  (238) 
references/x0176-0B-x0212-0B-292201.holo_minimised_nolig.pdb

>  <original SMILES>  (238) 
CC(C)c1ccccc1NC(=O)CNC(=O)C=Cc1ccccc1

>  <synthon>  (238) 
[Xe]c1ccccc1

>  <original_name>  (238) 
x0176-0B-x0212-0B-292201

>  <comRMSD_score>  (238) 
0.998016489364518

>  <IF_score>  (238) 
0.5357142857142857

>  <SuCOS_score>  (238) 
0.4511950464006621

>  <compound_ID>  (238) 
MOLPORT:047-609-910

$$$$

     RDKit          3D

 22 23  0  0  0  0  0  0  0  0999 V2000
  -12.5540    6.3380  -73.8070 C   0  0  0  0  0  0  0  0  0  0  0  0
  -12.5930    6.5020  -75.2260 O   0  0  0  0  0  0  0  0  0  0  0  0
  -13.5650    5.6810  -75.8840 C   0  0  0  0  0  0  0  0  0  0  0  0
  -14.8320    5.5040  -75.3280 O   0  0  0  0  0  0  0  0  0  0  0  0
  -13.1380    5.0180  -77.2040 C   0  0  0  0  0  0  0  0  0  0  0  0
  -11.9520    4.3200  -76.9890 C   0  0  0  0  0  0  0  0  0  0  0  0
  -11.8420    3.4020  -75.9320 C   0  0  0  0  0  0  0  0  0  0  0  0
  -10.8530    4.5430  -77.8380 C   0  0  0  0  0  0  0  0  0  0  0  0
  -10.6480    2.7340  -75.7410 C   0  0  0  0  0  0  0  0  0  0  0  0
   -9.6430    3.8810  -77.6630 C   0  0  0  0  0  0  0  0  0  0  0  0
   -9.4870    2.9710  -76.6300 C   0  0  0  0  0  0  0  0  0  0  0  0
   -8.3110    2.2920  -76.3940 N   0  0  0  0  0  0  0  0  0  0  0  0
   -7.1160    2.8060  -76.8010 C   0  0  0  0  0  0  0  0  0  0  0  0
   -6.2270    4.1620  -76.0480 S   0  0  0  0  0  0  0  0  0  0  0  0
   -6.6930    2.1120  -77.9030 N   0  0  0  0  0  0  0  0  0  0  0  0
   -6.9930    2.6620  -79.2010 C   0  0  0  0  0  0  0  0  0  0  0  0
   -7.6250    1.7380  -80.2030 C   0  0  0  0  0  0  0  0  0  0  0  0
   -7.4250    0.3880  -79.9500 C   0  0  0  0  0  0  0  0  0  0  0  0
   -8.3580    2.1400  -81.3150 C   0  0  0  0  0  0  0  0  0  0  0  0
   -8.0000   -0.6290  -80.8860 C   0  0  0  0  0  0  0  0  0  0  0  0
   -8.9040    1.1950  -82.1820 C   0  0  0  0  0  0  0  0  0  0  0  0
   -8.7350   -0.1730  -81.9830 C   0  0  0  0  0  0  0  0  0  0  0  0
  1  2  1  0
  2  3  1  0
  3  4  2  0
  3  5  1  0
  5  6  1  0
  6  7  2  0
  6  8  1  0
  7  9  1  0
  8 10  2  0
  9 11  2  0
 10 11  1  0
 11 12  1  0
 12 13  1  0
 13 14  2  0
 13 15  1  0
 15 16  1  0
 16 17  1  0
 17 18  2  0
 17 19  1  0
 18 20  1  0
 19 21  2  0
 20 22  2  0
 21 22  1  0
M  END
>  <ref_url>  (239) 
https://fakepage.com

>  <submitter_name>  (239) 
Steph Wills

>  <submitter_email>  (239) 
stephanie.wills@dtc.ox.ac.uk

>  <submitter_institution>  (239) 
University of Oxford

>  <generation_date>  (239) 
2020-06-04

>  <method>  (239) 
Fragment network

>  <ref_mols>  (239) 
x0176_0B,x0212_0B

>  <ref_pdb>  (239) 
references/x0176-0B-x0212-0B-292386.holo_minimised_nolig.pdb

>  <original SMILES>  (239) 
COC(=O)Cc1ccc(NC(=S)NCc2ccccc2)cc1

>  <synthon>  (239) 
[Xe]c1ccccc1

>  <original_name>  (239) 
x0176-0B-x0212-0B-292386

>  <comRMSD_score>  (239) 
0.6899647602380644

>  <IF_score>  (239) 
0.5

>  <SuCOS_score>  (239) 
0.5278071521944357

>  <compound_ID>  (239) 
MOLPORT:001-570-055

$$$$

     RDKit          3D

 27 28  0  0  0  0  0  0  0  0999 V2000
   -8.8810   -0.0680  -75.4390 C   0  0  0  0  0  0  0  0  0  0  0  0
   -8.1300    0.7880  -76.4410 C   0  0  1  0  0  0  0  0  0  0  0  0
   -8.5570    0.2420  -77.7600 C   0  0  0  0  0  0  0  0  0  0  0  0
   -8.4340    2.3210  -76.3070 C   0  0  0  0  0  0  0  0  0  0  0  0
   -9.9050    0.0080  -77.7370 C   0  0  0  0  0  0  0  0  0  0  0  0
   -8.0660    3.0030  -77.4440 C   0  0  0  0  0  0  0  0  0  0  0  0
  -10.5800   -0.6700  -78.5110 O   0  0  0  0  0  0  0  0  0  0  0  0
  -10.3180    0.7160  -76.6360 N   0  0  0  0  0  0  0  0  0  0  0  0
   -8.6320    3.9820  -77.9140 O   0  0  0  0  0  0  0  0  0  0  0  0
   -6.9510    2.4380  -78.0010 N   0  0  0  0  0  0  0  0  0  0  0  0
  -10.8440    1.9910  -76.6910 C   0  0  0  0  0  0  0  0  0  0  0  0
   -6.7030    2.5850  -79.4080 C   0  0  2  0  0  0  0  0  0  0  0  0
  -11.7420    2.4130  -75.7530 C   0  0  0  0  0  0  0  0  0  0  0  0
  -10.4380    2.8290  -77.7590 C   0  0  0  0  0  0  0  0  0  0  0  0
   -6.8580    3.9320  -79.7610 C   0  0  0  0  0  0  0  0  0  0  0  0
   -7.6180    1.6530  -80.1790 C   0  0  0  0  0  0  0  0  0  0  0  0
  -12.2830    3.6530  -75.8820 C   0  0  0  0  0  0  0  0  0  0  0  0
  -10.9560    4.1040  -77.9400 C   0  0  0  0  0  0  0  0  0  0  0  0
   -7.8060    0.3400  -79.7500 C   0  0  0  0  0  0  0  0  0  0  0  0
   -8.2840    2.0830  -81.3200 C   0  0  0  0  0  0  0  0  0  0  0  0
  -11.8980    4.5630  -77.0440 C   0  0  0  0  0  0  0  0  0  0  0  0
   -8.6530   -0.5260  -80.4460 C   0  0  0  0  0  0  0  0  0  0  0  0
   -9.1150    1.2250  -82.0120 C   0  0  0  0  0  0  0  0  0  0  0  0
  -12.4970    5.7830  -77.1720 C   0  0  0  0  0  0  0  0  0  0  0  0
   -9.3080   -0.0780  -81.5780 C   0  0  0  0  0  0  0  0  0  0  0  0
  -13.5520    5.8770  -78.2470 C   0  0  0  0  0  0  0  0  0  0  0  0
  -13.1530    6.0970  -75.8410 C   0  0  0  0  0  0  0  0  0  0  0  0
  2  1  1  1
  2  3  1  0
  2  4  1  0
  3  5  1  0
  4  6  1  0
  5  7  2  0
  5  8  1  0
  6  9  2  0
  6 10  1  0
  8 11  1  0
 10 12  1  0
 11 13  2  0
 11 14  1  0
 12 15  1  6
 12 16  1  0
 13 17  1  0
 14 18  2  0
 16 19  2  0
 16 20  1  0
 17 21  2  0
 18 21  1  0
 19 22  1  0
 20 23  2  0
 21 24  1  0
 22 25  2  0
 23 25  1  0
 24 26  1  0
 24 27  1  0
M  END
>  <ref_url>  (240) 
https://fakepage.com

>  <submitter_name>  (240) 
Steph Wills

>  <submitter_email>  (240) 
stephanie.wills@dtc.ox.ac.uk

>  <submitter_institution>  (240) 
University of Oxford

>  <generation_date>  (240) 
2020-06-04

>  <method>  (240) 
Fragment network

>  <ref_mols>  (240) 
x0176_0B,x0212_0B

>  <ref_pdb>  (240) 
references/x0176-0B-x0212-0B-293538.holo_minimised_nolig.pdb

>  <original SMILES>  (240) 
CC(CC(=O)Nc1ccc(C(C)C)cc1)CC(=O)NC(C)c1ccccc1

>  <synthon>  (240) 
[Xe]c1ccccc1

>  <original_name>  (240) 
x0176-0B-x0212-0B-293538

>  <comRMSD_score>  (240) 
0.8555515891745693

>  <IF_score>  (240) 
0.4166666666666667

>  <SuCOS_score>  (240) 
0.4844642063889391

>  <compound_ID>  (240) 
MOLPORT:002-951-355

$$$$

     RDKit          3D

 20 21  0  0  0  0  0  0  0  0999 V2000
  -14.8060    6.7640  -77.7110 C   0  0  0  0  0  0  0  0  0  0  0  0
  -14.0330    6.3950  -76.6700 C   0  0  0  0  0  0  0  0  0  0  0  0
  -13.0560    5.2890  -76.8760 C   0  0  0  0  0  0  0  0  0  0  0  0
  -11.9950    4.3780  -76.6860 C   0  0  0  0  0  0  0  0  0  0  0  0
  -12.1380    3.3040  -75.8180 C   0  0  0  0  0  0  0  0  0  0  0  0
  -10.8040    4.5490  -77.3670 C   0  0  0  0  0  0  0  0  0  0  0  0
  -11.0180    2.3350  -75.6160 C   0  0  0  0  0  0  0  0  0  0  0  0
   -9.7670    3.6520  -77.1750 C   0  0  0  0  0  0  0  0  0  0  0  0
   -9.8560    2.5570  -76.3190 C   0  0  0  0  0  0  0  0  0  0  0  0
   -8.6000    3.8090  -77.8090 C   0  0  0  0  0  0  0  0  0  0  0  0
   -7.5880    3.6030  -76.8970 C   0  0  0  0  0  0  0  0  0  0  0  0
   -7.0610    2.3470  -76.8080 C   0  0  0  0  0  0  0  0  0  0  0  0
   -6.6770    1.7620  -77.9830 N   0  0  0  0  0  0  0  0  0  0  0  0
   -6.8360    2.2790  -79.2570 C   0  0  0  0  0  0  0  0  0  0  0  0
   -7.8850    1.4910  -80.0210 C   0  0  0  0  0  0  0  0  0  0  0  0
   -8.3340    0.2660  -79.5250 C   0  0  0  0  0  0  0  0  0  0  0  0
   -8.4020    1.9880  -81.2250 C   0  0  0  0  0  0  0  0  0  0  0  0
   -9.2840   -0.4890  -80.1860 C   0  0  0  0  0  0  0  0  0  0  0  0
   -9.3570    1.2750  -81.9330 C   0  0  0  0  0  0  0  0  0  0  0  0
   -9.8280    0.0520  -81.4690 C   0  0  0  0  0  0  0  0  0  0  0  0
  1  2  1  0
  2  3  1  0
  3  4  1  0
  4  5  2  0
  4  6  1  0
  5  7  1  0
  6  8  2  0
  7  9  2  0
  8  9  1  0
  8 10  1  0
 10 11  3  0
 11 12  1  0
 12 13  1  0
 13 14  1  0
 14 15  1  0
 15 16  2  0
 15 17  1  0
 16 18  1  0
 17 19  2  0
 18 20  2  0
 19 20  1  0
M  END
>  <ref_url>  (241) 
https://fakepage.com

>  <submitter_name>  (241) 
Steph Wills

>  <submitter_email>  (241) 
stephanie.wills@dtc.ox.ac.uk

>  <submitter_institution>  (241) 
University of Oxford

>  <generation_date>  (241) 
2020-06-04

>  <method>  (241) 
Fragment network

>  <ref_mols>  (241) 
x0176_0B,x0212_0B

>  <ref_pdb>  (241) 
references/x0176-0B-x0212-0B-297143.holo_minimised_nolig.pdb

>  <original SMILES>  (241) 
CCCc1cccc(C#CCNCc2ccccc2)c1

>  <synthon>  (241) 
[Xe]c1ccccc1

>  <original_name>  (241) 
x0176-0B-x0212-0B-297143

>  <comRMSD_score>  (241) 
0.9346617521376858

>  <IF_score>  (241) 
0.675

>  <SuCOS_score>  (241) 
0.4869682702357513

>  <compound_ID>  (241) 
CHEMSPACE-BB:CSMB00109397559

$$$$

     RDKit          3D

 25 26  0  0  0  0  0  0  0  0999 V2000
  -13.0980    5.2980  -75.6890 C   0  0  0  0  0  0  0  0  0  0  0  0
  -12.6800    4.9360  -76.9070 C   0  0  0  0  0  0  0  0  0  0  0  0
  -13.7160    4.1990  -77.7100 C   0  0  0  0  0  0  0  0  0  0  0  0
  -12.1240    5.9820  -77.8150 C   0  0  0  0  0  0  0  0  0  0  0  0
  -11.4770    3.9760  -76.6530 C   0  0  0  0  0  0  0  0  0  0  0  0
  -10.1470    4.2300  -77.2920 C   0  0  0  0  0  0  0  0  0  0  0  0
  -11.5240    2.8400  -75.8430 C   0  0  0  0  0  0  0  0  0  0  0  0
   -9.0120    3.4280  -77.1280 C   0  0  0  0  0  0  0  0  0  0  0  0
  -10.3880    2.0310  -75.6790 C   0  0  0  0  0  0  0  0  0  0  0  0
   -9.1490    2.3030  -76.3030 C   0  0  0  0  0  0  0  0  0  0  0  0
   -8.1140    1.3920  -76.0440 N   0  0  0  0  0  0  0  0  0  0  0  0
   -6.6750    1.5070  -76.3290 C   0  0  0  0  0  0  0  0  0  0  0  0
   -5.9020    0.5210  -76.9110 O   0  0  0  0  0  0  0  0  0  0  0  0
   -6.0200    2.6900  -75.9440 C   0  0  0  0  0  0  0  0  0  0  0  0
   -5.1110    3.2400  -76.9730 N   0  0  0  0  0  0  0  0  0  0  0  0
   -5.7180    3.6460  -78.1870 C   0  0  0  0  0  0  0  0  0  0  0  0
   -5.1570    4.7760  -78.8750 O   0  0  0  0  0  0  0  0  0  0  0  0
   -6.7790    2.8180  -78.5050 N   0  0  0  0  0  0  0  0  0  0  0  0
   -6.2350    2.0920  -79.5530 C   0  0  0  0  0  0  0  0  0  0  0  0
   -7.0780    1.0770  -80.3110 C   0  0  0  0  0  0  0  0  0  0  0  0
   -7.4830   -0.1360  -79.7580 C   0  0  0  0  0  0  0  0  0  0  0  0
   -7.4800    1.3760  -81.6240 C   0  0  0  0  0  0  0  0  0  0  0  0
   -8.2510   -1.0620  -80.4350 C   0  0  0  0  0  0  0  0  0  0  0  0
   -8.2560    0.4750  -82.3620 C   0  0  0  0  0  0  0  0  0  0  0  0
   -8.6710   -0.7480  -81.8350 C   0  0  0  0  0  0  0  0  0  0  0  0
  2  1  1  0
  2  3  1  0
  2  4  1  0
  2  5  1  0
  5  6  2  0
  5  7  1  0
  6  8  1  0
  7  9  2  0
  8 10  2  0
  9 10  1  0
 10 11  1  0
 11 12  1  0
 12 13  2  0
 12 14  1  0
 14 15  1  0
 15 16  1  0
 16 17  2  0
 16 18  1  0
 18 19  1  0
 19 20  1  0
 20 21  2  0
 20 22  1  0
 21 23  1  0
 22 24  2  0
 23 25  2  0
 24 25  1  0
M  END
>  <ref_url>  (242) 
https://fakepage.com

>  <submitter_name>  (242) 
Steph Wills

>  <submitter_email>  (242) 
stephanie.wills@dtc.ox.ac.uk

>  <submitter_institution>  (242) 
University of Oxford

>  <generation_date>  (242) 
2020-06-04

>  <method>  (242) 
Fragment network

>  <ref_mols>  (242) 
x0176_0B,x0212_0B

>  <ref_pdb>  (242) 
references/x0176-0B-x0212-0B-299799.holo_minimised_nolig.pdb

>  <original SMILES>  (242) 
CC(C)(C)c1ccc(NC(=O)CNC(=O)NCc2ccccc2)cc1

>  <synthon>  (242) 
[Xe]c1ccccc1

>  <original_name>  (242) 
x0176-0B-x0212-0B-299799

>  <comRMSD_score>  (242) 
0.9195684715740536

>  <IF_score>  (242) 
0.3095238095238095

>  <SuCOS_score>  (242) 
0.4224090177349375

>  <compound_ID>  (242) 
MOLPORT:003-315-102

$$$$

     RDKit          3D

 19 20  0  0  0  0  0  0  0  0999 V2000
  -13.6940    5.1830  -75.8820 C   0  0  0  0  0  0  0  0  0  0  0  0
  -12.5720    5.3270  -76.8980 C   0  0  0  0  0  0  0  0  0  0  0  0
  -12.6980    6.3540  -77.8830 O   0  0  0  0  0  0  0  0  0  0  0  0
  -11.3440    4.3760  -76.8350 C   0  0  0  0  0  0  0  0  0  0  0  0
  -10.2040    4.5130  -77.8010 C   0  0  0  0  0  0  0  0  0  0  0  0
  -11.2690    3.3610  -75.8740 C   0  0  0  0  0  0  0  0  0  0  0  0
   -9.1140    3.6470  -77.7220 C   0  0  0  0  0  0  0  0  0  0  0  0
  -10.1720    2.4950  -75.8070 C   0  0  0  0  0  0  0  0  0  0  0  0
   -9.0870    2.5930  -76.6920 C   0  0  0  0  0  0  0  0  0  0  0  0
   -7.7450    1.4190  -76.4960 S   0  0  0  0  0  0  0  0  0  0  0  0
   -6.6180    1.7240  -77.9010 C   0  0  0  0  0  0  0  0  0  0  0  0
   -7.2240    2.3510  -78.9840 C   0  0  0  0  0  0  0  0  0  0  0  0
   -7.0440    3.5400  -79.1730 O   0  0  0  0  0  0  0  0  0  0  0  0
   -8.0260    1.5940  -79.8340 C   0  0  0  0  0  0  0  0  0  0  0  0
   -8.5210    0.2480  -79.3880 C   0  0  0  0  0  0  0  0  0  0  0  0
   -8.3950    2.0530  -81.1130 C   0  0  0  0  0  0  0  0  0  0  0  0
   -9.3290   -0.5400  -80.2050 C   0  0  0  0  0  0  0  0  0  0  0  0
   -9.2010    1.2690  -81.9350 C   0  0  0  0  0  0  0  0  0  0  0  0
   -9.6470    0.0240  -81.4880 C   0  0  0  0  0  0  0  0  0  0  0  0
  1  2  1  0
  2  3  2  0
  2  4  1  0
  4  5  2  0
  4  6  1  0
  5  7  1  0
  6  8  2  0
  7  9  2  0
  8  9  1  0
  9 10  1  0
 10 11  1  0
 11 12  1  0
 12 13  2  0
 12 14  1  0
 14 15  2  0
 14 16  1  0
 15 17  1  0
 16 18  2  0
 17 19  2  0
 18 19  1  0
M  END
>  <ref_url>  (243) 
https://fakepage.com

>  <submitter_name>  (243) 
Steph Wills

>  <submitter_email>  (243) 
stephanie.wills@dtc.ox.ac.uk

>  <submitter_institution>  (243) 
University of Oxford

>  <generation_date>  (243) 
2020-06-04

>  <method>  (243) 
Fragment network

>  <ref_mols>  (243) 
x0176_0B,x0212_0B

>  <ref_pdb>  (243) 
references/x0176-0B-x0212-0B-303029.holo_minimised_nolig.pdb

>  <original SMILES>  (243) 
CC(=O)c1ccc(SCC(=O)c2ccccc2)cc1

>  <synthon>  (243) 
[Xe]c1ccccc1

>  <original_name>  (243) 
x0176-0B-x0212-0B-303029

>  <comRMSD_score>  (243) 
0.7197026559930695

>  <IF_score>  (243) 
0.8

>  <SuCOS_score>  (243) 
0.4628608205149038

>  <compound_ID>  (243) 
CHEMSPACE-BB:CSMB00133278837

$$$$

     RDKit          3D

 22 23  0  0  0  0  0  0  0  0999 V2000
  -12.5860    5.1440  -74.2880 C   0  0  0  0  0  0  0  0  0  0  0  0
  -13.5770    4.9080  -75.4090 C   0  0  0  0  0  0  0  0  0  0  0  0
  -13.0030    5.3680  -76.7000 C   0  0  0  0  0  0  0  0  0  0  0  0
  -12.9800    5.9940  -77.6590 N   0  0  0  0  0  0  0  0  0  0  0  0
  -11.8290    4.5940  -76.7600 C   0  0  0  0  0  0  0  0  0  0  0  0
  -14.1100    6.8270  -77.7320 O   0  0  0  0  0  0  0  0  0  0  0  0
  -10.8450    4.8970  -77.6850 C   0  0  0  0  0  0  0  0  0  0  0  0
  -11.6190    3.5030  -75.9000 C   0  0  0  0  0  0  0  0  0  0  0  0
   -9.6840    4.1470  -77.7630 C   0  0  0  0  0  0  0  0  0  0  0  0
  -10.4450    2.7520  -75.9800 C   0  0  0  0  0  0  0  0  0  0  0  0
   -9.4690    3.0780  -76.9200 C   0  0  0  0  0  0  0  0  0  0  0  0
   -8.3330    2.3860  -77.0260 O   0  0  0  0  0  0  0  0  0  0  0  0
   -7.1370    3.1250  -76.8550 C   0  0  0  0  0  0  0  0  0  0  0  0
   -5.9370    2.2630  -77.1840 C   0  0  0  0  0  0  0  0  0  0  0  0
   -6.0540    1.7770  -78.5220 O   0  0  0  0  0  0  0  0  0  0  0  0
   -6.8570    2.4470  -79.4000 C   0  0  0  0  0  0  0  0  0  0  0  0
   -7.8640    1.5740  -80.0950 C   0  0  0  0  0  0  0  0  0  0  0  0
   -8.2390    0.3310  -79.5620 C   0  0  0  0  0  0  0  0  0  0  0  0
   -8.4380    2.0020  -81.2880 C   0  0  0  0  0  0  0  0  0  0  0  0
   -9.1780   -0.4660  -80.2230 C   0  0  0  0  0  0  0  0  0  0  0  0
   -9.3660    1.2060  -81.9380 C   0  0  0  0  0  0  0  0  0  0  0  0
   -9.7400   -0.0240  -81.4130 C   0  0  0  0  0  0  0  0  0  0  0  0
  1  2  1  0
  2  3  1  0
  3  4  2  3
  3  5  1  0
  4  6  1  0
  5  7  2  0
  5  8  1  0
  7  9  1  0
  8 10  2  0
  9 11  2  0
 10 11  1  0
 11 12  1  0
 12 13  1  0
 13 14  1  0
 14 15  1  0
 15 16  1  0
 16 17  1  0
 17 18  2  0
 17 19  1  0
 18 20  1  0
 19 21  2  0
 20 22  2  0
 21 22  1  0
M  END
>  <ref_url>  (244) 
https://fakepage.com

>  <submitter_name>  (244) 
Steph Wills

>  <submitter_email>  (244) 
stephanie.wills@dtc.ox.ac.uk

>  <submitter_institution>  (244) 
University of Oxford

>  <generation_date>  (244) 
2020-06-04

>  <method>  (244) 
Fragment network

>  <ref_mols>  (244) 
x0176_0B,x0212_0B

>  <ref_pdb>  (244) 
references/x0176-0B-x0212-0B-303691.holo_minimised_nolig.pdb

>  <original SMILES>  (244) 
CCC(=NO)c1ccc(OCCOCc2ccccc2)cc1

>  <synthon>  (244) 
[Xe]c1ccccc1

>  <original_name>  (244) 
x0176-0B-x0212-0B-303691

>  <comRMSD_score>  (244) 
0.6783908902690232

>  <IF_score>  (244) 
0.8

>  <SuCOS_score>  (244) 
0.4731530599739642

>  <compound_ID>  (244) 
CHEMSPACE-BB:CSMB00014805671

$$$$

     RDKit          3D

 22 23  0  0  0  0  0  0  0  0999 V2000
  -14.1120    7.0530  -76.0390 O   0  0  0  0  0  0  0  0  0  0  0  0
  -13.4470    6.0250  -76.0880 C   0  0  0  0  0  0  0  0  0  0  0  0
  -12.8950    5.4760  -74.9880 O   0  0  0  0  0  0  0  0  0  0  0  0
  -13.1620    5.2560  -77.3780 C   0  0  0  0  0  0  0  0  0  0  0  0
  -12.0540    4.2360  -77.0690 C   0  0  0  0  0  0  0  0  0  0  0  0
  -10.8950    4.0780  -77.9920 C   0  0  0  0  0  0  0  0  0  0  0  0
  -12.1310    3.4460  -75.9130 C   0  0  0  0  0  0  0  0  0  0  0  0
   -9.9260    3.1480  -77.6580 C   0  0  0  0  0  0  0  0  0  0  0  0
  -11.1410    2.5160  -75.5950 C   0  0  0  0  0  0  0  0  0  0  0  0
  -10.0570    2.3530  -76.4320 C   0  0  0  0  0  0  0  0  0  0  0  0
   -9.1320    1.5920  -76.2650 O   0  0  0  0  0  0  0  0  0  0  0  0
   -7.9280    2.2420  -76.5470 C   0  0  0  0  0  0  0  0  0  0  0  0
   -8.0490    3.2380  -77.5100 C   0  0  0  0  0  0  0  0  0  0  0  0
   -9.1010    4.1680  -77.3210 O   0  0  0  0  0  0  0  0  0  0  0  0
   -7.0790    3.2010  -78.6070 N   0  0  0  0  0  0  0  0  0  0  0  0
   -6.5650    1.9930  -79.2040 C   0  0  0  0  0  0  0  0  0  0  0  0
   -7.6120    1.3190  -80.0600 C   0  0  0  0  0  0  0  0  0  0  0  0
   -8.1270    1.9210  -81.2270 C   0  0  0  0  0  0  0  0  0  0  0  0
   -8.0750    0.0390  -79.6800 C   0  0  0  0  0  0  0  0  0  0  0  0
   -9.1000    1.1660  -81.9650 C   0  0  0  0  0  0  0  0  0  0  0  0
   -9.0280   -0.6620  -80.4280 C   0  0  0  0  0  0  0  0  0  0  0  0
   -9.5470   -0.1050  -81.5820 C   0  0  0  0  0  0  0  0  0  0  0  0
  1  2  2  0
  2  3  1  0
  2  4  1  0
  4  5  1  0
  5  6  2  0
  5  7  1  0
  6  8  1  0
  7  9  2  0
  8 10  2  0
  9 10  1  0
 10 11  1  0
 11 12  1  0
 12 13  1  0
 13 14  2  0
 13 15  1  0
 15 16  1  0
 16 17  1  0
 17 18  2  0
 17 19  1  0
 18 20  1  0
 19 21  2  0
 20 22  2  0
 21 22  1  0
M  END
>  <ref_url>  (245) 
https://fakepage.com

>  <submitter_name>  (245) 
Steph Wills

>  <submitter_email>  (245) 
stephanie.wills@dtc.ox.ac.uk

>  <submitter_institution>  (245) 
University of Oxford

>  <generation_date>  (245) 
2020-06-04

>  <method>  (245) 
Fragment network

>  <ref_mols>  (245) 
x0176_0B,x0212_0B

>  <ref_pdb>  (245) 
references/x0176-0B-x0212-0B-304547.holo_minimised_nolig.pdb

>  <original SMILES>  (245) 
O=C(O)Cc1ccc(OCC(=O)NCc2ccccc2)cc1

>  <synthon>  (245) 
[Xe]c1ccccc1

>  <original_name>  (245) 
x0176-0B-x0212-0B-304547

>  <comRMSD_score>  (245) 
0.872352279758585

>  <IF_score>  (245) 
0.5

>  <SuCOS_score>  (245) 
0.5134782582208395

>  <compound_ID>  (245) 
CHEMSPACE-BB:CSMB00016850731

$$$$

     RDKit          3D

 20 21  0  0  0  0  0  0  0  0999 V2000
  -13.4020    6.1010  -76.0050 C   0  0  0  0  0  0  0  0  0  0  0  0
  -13.0500    5.3100  -77.2360 C   0  0  0  0  0  0  0  0  0  0  0  0
  -11.8200    4.4960  -76.9770 C   0  0  0  0  0  0  0  0  0  0  0  0
  -11.7990    3.5450  -75.9510 C   0  0  0  0  0  0  0  0  0  0  0  0
  -10.6880    4.6820  -77.7600 C   0  0  0  0  0  0  0  0  0  0  0  0
  -10.6490    2.7930  -75.7080 C   0  0  0  0  0  0  0  0  0  0  0  0
   -9.5520    3.9340  -77.5150 C   0  0  0  0  0  0  0  0  0  0  0  0
   -9.5280    2.9940  -76.4900 C   0  0  0  0  0  0  0  0  0  0  0  0
   -8.3320    2.3220  -76.3390 N   0  0  0  0  0  0  0  0  0  0  0  0
   -7.1690    2.7360  -76.9050 C   0  0  0  0  0  0  0  0  0  0  0  0
   -6.4680    3.6780  -76.5580 O   0  0  0  0  0  0  0  0  0  0  0  0
   -6.8600    1.9210  -77.9650 N   0  0  0  0  0  0  0  0  0  0  0  0
   -6.8890    2.3880  -79.3460 C   0  0  2  0  0  0  0  0  0  0  0  0
   -7.1570    3.8890  -79.4910 C   0  0  0  0  0  0  0  0  0  0  0  0
   -7.9110    1.5710  -80.0990 C   0  0  0  0  0  0  0  0  0  0  0  0
   -8.4620    2.0350  -81.2930 C   0  0  0  0  0  0  0  0  0  0  0  0
   -8.3200    0.3230  -79.6020 C   0  0  0  0  0  0  0  0  0  0  0  0
   -9.3940    1.2730  -81.9740 C   0  0  0  0  0  0  0  0  0  0  0  0
   -9.2610   -0.4390  -80.2910 C   0  0  0  0  0  0  0  0  0  0  0  0
   -9.7970    0.0400  -81.4760 C   0  0  0  0  0  0  0  0  0  0  0  0
  1  2  1  0
  2  3  1  0
  3  4  2  0
  3  5  1  0
  4  6  1  0
  5  7  2  0
  6  8  2  0
  7  8  1  0
  8  9  1  0
  9 10  1  0
 10 11  2  0
 10 12  1  0
 12 13  1  0
 13 14  1  1
 13 15  1  0
 15 16  2  0
 15 17  1  0
 16 18  1  0
 17 19  2  0
 18 20  2  0
 19 20  1  0
M  END
>  <ref_url>  (246) 
https://fakepage.com

>  <submitter_name>  (246) 
Steph Wills

>  <submitter_email>  (246) 
stephanie.wills@dtc.ox.ac.uk

>  <submitter_institution>  (246) 
University of Oxford

>  <generation_date>  (246) 
2020-06-04

>  <method>  (246) 
Fragment network

>  <ref_mols>  (246) 
x0176_0B,x0212_0B

>  <ref_pdb>  (246) 
references/x0176-0B-x0212-0B-307037.holo_minimised_nolig.pdb

>  <original SMILES>  (246) 
CCc1ccc(NC(=O)NC(C)c2ccccc2)cc1

>  <synthon>  (246) 
[Xe]c1ccccc1

>  <original_name>  (246) 
x0176-0B-x0212-0B-307037

>  <comRMSD_score>  (246) 
0.6211593998322807

>  <IF_score>  (246) 
0.675

>  <SuCOS_score>  (246) 
0.5137164200156044

>  <compound_ID>  (246) 
REAL:Z1150500163, REAL:Z1150500181, REAL:Z409956280

$$$$

     RDKit          3D

 22 23  0  0  0  0  0  0  0  0999 V2000
  -14.0130    6.9960  -72.8100 Cl  0  0  0  0  0  0  0  0  0  0  0  0
  -12.6900    6.4560  -73.8540 C   0  0  0  0  0  0  0  0  0  0  0  0
  -12.9410    7.0160  -75.2530 C   0  0  0  0  0  0  0  0  0  0  0  0
  -13.2050    5.9470  -76.2690 C   0  0  0  0  0  0  0  0  0  0  0  0
  -12.8850    4.6380  -75.9730 C   0  0  0  0  0  0  0  0  0  0  0  0
  -11.6140    4.1540  -76.2410 C   0  0  0  0  0  0  0  0  0  0  0  0
  -10.8400    4.7670  -77.2270 C   0  0  0  0  0  0  0  0  0  0  0  0
  -11.1300    3.0490  -75.5260 C   0  0  0  0  0  0  0  0  0  0  0  0
   -9.5830    4.2880  -77.5200 C   0  0  0  0  0  0  0  0  0  0  0  0
   -9.8550    2.5320  -75.7790 C   0  0  0  0  0  0  0  0  0  0  0  0
   -9.0570    3.1210  -76.7550 C   0  0  0  0  0  0  0  0  0  0  0  0
   -7.9580    2.6870  -76.9620 O   0  0  0  0  0  0  0  0  0  0  0  0
   -7.8750    1.2580  -76.9760 C   0  0  0  0  0  0  0  0  0  0  0  0
   -6.5000    0.7170  -77.2910 C   0  0  0  0  0  0  0  0  0  0  0  0
   -6.2550    0.9810  -78.4850 O   0  0  0  0  0  0  0  0  0  0  0  0
   -7.0180    2.0440  -79.0870 C   0  0  0  0  0  0  0  0  0  0  0  0
   -7.9290    1.4010  -79.9350 C   0  0  0  0  0  0  0  0  0  0  0  0
   -8.4200    0.1370  -79.5840 C   0  0  0  0  0  0  0  0  0  0  0  0
   -8.3700    1.9740  -81.1290 C   0  0  0  0  0  0  0  0  0  0  0  0
   -9.3280   -0.5450  -80.3920 C   0  0  0  0  0  0  0  0  0  0  0  0
   -9.2720    1.2760  -81.9160 C   0  0  0  0  0  0  0  0  0  0  0  0
   -9.7590    0.0290  -81.5680 C   0  0  0  0  0  0  0  0  0  0  0  0
  1  2  1  0
  2  3  1  0
  3  4  1  0
  4  5  3  0
  5  6  1  0
  6  7  2  0
  6  8  1  0
  7  9  1  0
  8 10  2  0
  9 11  2  0
 10 11  1  0
 11 12  1  0
 12 13  1  0
 13 14  1  0
 14 15  1  0
 15 16  1  0
 16 17  1  0
 17 18  2  0
 17 19  1  0
 18 20  1  0
 19 21  2  0
 20 22  2  0
 21 22  1  0
M  END
>  <ref_url>  (247) 
https://fakepage.com

>  <submitter_name>  (247) 
Steph Wills

>  <submitter_email>  (247) 
stephanie.wills@dtc.ox.ac.uk

>  <submitter_institution>  (247) 
University of Oxford

>  <generation_date>  (247) 
2020-06-04

>  <method>  (247) 
Fragment network

>  <ref_mols>  (247) 
x0176_0B,x0212_0B

>  <ref_pdb>  (247) 
references/x0176-0B-x0212-0B-307093.holo_minimised_nolig.pdb

>  <original SMILES>  (247) 
ClCCC#Cc1ccc(OCCOCc2ccccc2)cc1

>  <synthon>  (247) 
[Xe]c1ccccc1

>  <original_name>  (247) 
x0176-0B-x0212-0B-307093

>  <comRMSD_score>  (247) 
0.6458347741919402

>  <IF_score>  (247) 
0.8

>  <SuCOS_score>  (247) 
0.488094600268025

>  <compound_ID>  (247) 
CHEMSPACE-BB:CSMB00014806955

$$$$

     RDKit          3D

 23 24  0  0  0  0  0  0  0  0999 V2000
  -13.8810    7.3500  -73.2950 C   0  0  0  0  0  0  0  0  0  0  0  0
  -12.4680    6.3720  -73.7460 S   0  0  0  0  0  0  0  0  0  0  0  0
  -11.2920    7.0970  -73.3030 O   0  0  0  0  0  0  0  0  0  0  0  0
  -12.7260    5.0190  -73.3060 O   0  0  0  0  0  0  0  0  0  0  0  0
  -12.5710    6.4300  -75.4240 N   0  0  0  0  0  0  0  0  0  0  0  0
  -13.1730    5.3360  -76.1990 C   0  0  0  0  0  0  0  0  0  0  0  0
  -12.2390    4.7450  -77.2460 C   0  0  0  0  0  0  0  0  0  0  0  0
  -11.7690    3.4310  -77.0310 C   0  0  2  0  0  0  0  0  0  0  0  0
  -11.1960    3.1640  -75.7920 C   0  0  0  0  0  0  0  0  0  0  0  0
  -10.8250    2.9960  -77.9550 N   0  0  0  0  0  0  0  0  0  0  0  0
   -9.8010    3.1500  -75.7130 C   0  0  0  0  0  0  0  0  0  0  0  0
   -9.6240    3.6490  -78.0060 C   0  0  0  0  0  0  0  0  0  0  0  0
  -10.8280    1.5330  -78.1180 C   0  0  0  0  0  0  0  0  0  0  0  0
   -9.0100    3.1890  -76.8580 C   0  0  0  0  0  0  0  0  0  0  0  0
  -11.3790    0.7580  -79.1830 O   0  0  0  0  0  0  0  0  0  0  0  0
  -10.1710    0.6800  -77.0450 C   0  0  0  0  0  0  0  0  0  0  0  0
   -8.5550    0.0550  -77.6520 S   0  0  0  0  0  0  0  0  0  0  0  0
   -8.6660    0.4990  -79.3760 C   0  0  0  0  0  0  0  0  0  0  0  0
   -9.3640   -0.3560  -80.2350 C   0  0  0  0  0  0  0  0  0  0  0  0
   -8.1100    1.6600  -79.9410 C   0  0  0  0  0  0  0  0  0  0  0  0
   -9.4960   -0.0650  -81.5810 C   0  0  0  0  0  0  0  0  0  0  0  0
   -8.2630    1.9340  -81.2970 C   0  0  0  0  0  0  0  0  0  0  0  0
   -8.9520    1.0810  -82.1400 C   0  0  0  0  0  0  0  0  0  0  0  0
  1  2  1  0
  2  3  2  0
  2  4  2  0
  2  5  1  0
  5  6  1  0
  6  7  1  0
  8  7  1  1
  8  9  1  0
  8 10  1  0
  9 11  1  0
 10 12  1  0
 10 13  1  0
 11 14  1  0
 12 14  1  0
 13 15  2  0
 13 16  1  0
 16 17  1  0
 17 18  1  0
 18 19  2  0
 18 20  1  0
 19 21  1  0
 20 22  2  0
 21 23  2  0
 22 23  1  0
M  END
>  <ref_url>  (248) 
https://fakepage.com

>  <submitter_name>  (248) 
Steph Wills

>  <submitter_email>  (248) 
stephanie.wills@dtc.ox.ac.uk

>  <submitter_institution>  (248) 
University of Oxford

>  <generation_date>  (248) 
2020-06-04

>  <method>  (248) 
Fragment network

>  <ref_mols>  (248) 
x0176_0B,x0212_0B

>  <ref_pdb>  (248) 
references/x0176-0B-x0212-0B-309219.holo_minimised_nolig.pdb

>  <original SMILES>  (248) 
CS(=O)(=O)NCCC1CCCCN1C(=O)CSc1ccccc1

>  <synthon>  (248) 
[Xe]c1ccccc1

>  <original_name>  (248) 
x0176-0B-x0212-0B-309219

>  <comRMSD_score>  (248) 
0.7191618835942397

>  <IF_score>  (248) 
1.0

>  <SuCOS_score>  (248) 
0.5467796503037196

>  <compound_ID>  (248) 
REAL:Z781954306

$$$$

     RDKit          3D

 23 24  0  0  0  0  0  0  0  0999 V2000
  -13.7220    5.5980  -76.3850 C   0  0  0  0  0  0  0  0  0  0  0  0
  -13.0640    5.1120  -77.6700 C   0  0  0  0  0  0  0  0  0  0  0  0
  -13.9010    4.1340  -78.5190 C   0  0  0  0  0  0  0  0  0  0  0  0
  -11.7920    4.3850  -77.2290 C   0  0  0  0  0  0  0  0  0  0  0  0
  -10.5270    4.4950  -78.0100 C   0  0  0  0  0  0  0  0  0  0  0  0
  -11.7970    3.6020  -76.0710 C   0  0  0  0  0  0  0  0  0  0  0  0
   -9.4020    3.8320  -77.5620 C   0  0  0  0  0  0  0  0  0  0  0  0
  -10.6370    2.9500  -75.6600 C   0  0  0  0  0  0  0  0  0  0  0  0
   -9.4510    3.0690  -76.3940 C   0  0  0  0  0  0  0  0  0  0  0  0
   -8.2830    2.4530  -76.0110 N   0  0  0  0  0  0  0  0  0  0  0  0
   -7.1960    2.8160  -76.8840 C   0  0  0  0  0  0  0  0  0  0  0  0
   -6.2450    3.8420  -76.5960 O   0  0  0  0  0  0  0  0  0  0  0  0
   -7.1850    2.0120  -78.0700 N   0  0  0  0  0  0  0  0  0  0  0  0
   -6.4760    2.2740  -79.2240 C   0  0  2  0  0  0  0  0  0  0  0  0
   -6.4740    3.7160  -79.7060 C   0  0  0  0  0  0  0  0  0  0  0  0
   -7.1100    1.2720  -80.1730 C   0  0  0  0  0  0  0  0  0  0  0  0
   -5.2250    4.3530  -79.9280 C   0  0  0  0  0  0  0  0  0  0  0  0
   -7.4060    1.6110  -81.5000 C   0  0  0  0  0  0  0  0  0  0  0  0
   -7.4240   -0.0230  -79.7180 C   0  0  0  0  0  0  0  0  0  0  0  0
   -5.4250    5.7400  -80.2730 O   0  0  0  0  0  0  0  0  0  0  0  0
   -7.9990    0.6650  -82.3540 C   0  0  0  0  0  0  0  0  0  0  0  0
   -8.0220   -0.9560  -80.5670 C   0  0  0  0  0  0  0  0  0  0  0  0
   -8.3050   -0.6110  -81.8820 C   0  0  0  0  0  0  0  0  0  0  0  0
  1  2  1  0
  2  3  1  0
  2  4  1  0
  4  5  2  0
  4  6  1  0
  5  7  1  0
  6  8  2  0
  7  9  2  0
  8  9  1  0
  9 10  1  0
 10 11  1  0
 11 12  2  0
 11 13  1  0
 13 14  1  0
 14 15  1  6
 14 16  1  0
 15 17  1  0
 16 18  2  0
 16 19  1  0
 17 20  1  0
 18 21  1  0
 19 22  2  0
 21 23  2  0
 22 23  1  0
M  END
>  <ref_url>  (249) 
https://fakepage.com

>  <submitter_name>  (249) 
Steph Wills

>  <submitter_email>  (249) 
stephanie.wills@dtc.ox.ac.uk

>  <submitter_institution>  (249) 
University of Oxford

>  <generation_date>  (249) 
2020-06-04

>  <method>  (249) 
Fragment network

>  <ref_mols>  (249) 
x0176_0B,x0212_0B

>  <ref_pdb>  (249) 
references/x0176-0B-x0212-0B-309353.holo_minimised_nolig.pdb

>  <original SMILES>  (249) 
CC(C)c1ccc(NC(=O)NC(CCO)c2ccccc2)cc1

>  <synthon>  (249) 
[Xe]c1ccccc1

>  <original_name>  (249) 
x0176-0B-x0212-0B-309353

>  <comRMSD_score>  (249) 
0.8666429233090981

>  <IF_score>  (249) 
0.375

>  <SuCOS_score>  (249) 
0.4567084284655626

>  <compound_ID>  (249) 
REAL:Z1254227706

$$$$

     RDKit          3D

 19 20  0  0  0  0  0  0  0  0999 V2000
  -12.9520    6.8470  -75.1630 N   0  0  0  0  0  0  0  0  0  0  0  0
  -13.3350    6.0830  -75.9340 C   0  0  0  0  0  0  0  0  0  0  0  0
  -14.3500    7.0740  -76.8180 S   0  0  0  0  0  0  0  0  0  0  0  0
  -13.4110    4.7410  -76.5980 C   0  0  0  0  0  0  0  0  0  0  0  0
  -11.9920    4.1870  -76.6460 C   0  0  0  0  0  0  0  0  0  0  0  0
  -11.6220    3.0100  -75.7210 C   0  0  0  0  0  0  0  0  0  0  0  0
  -11.0800    4.7500  -77.5020 C   0  0  0  0  0  0  0  0  0  0  0  0
  -10.1840    2.5690  -75.8400 C   0  0  0  0  0  0  0  0  0  0  0  0
   -9.8070    4.2740  -77.5400 C   0  0  0  0  0  0  0  0  0  0  0  0
   -9.3520    3.2380  -76.7450 C   0  0  0  0  0  0  0  0  0  0  0  0
   -8.0180    2.9650  -76.9330 C   0  0  0  0  0  0  0  0  0  0  0  0
   -7.6960    1.9910  -77.5810 O   0  0  0  0  0  0  0  0  0  0  0  0
   -7.3150    2.2800  -78.8830 C   0  0  0  0  0  0  0  0  0  0  0  0
   -8.1200    1.5740  -79.9230 C   0  0  0  0  0  0  0  0  0  0  0  0
   -8.5810    0.2410  -79.4280 C   0  0  0  0  0  0  0  0  0  0  0  0
   -8.4370    2.0390  -81.1870 C   0  0  0  0  0  0  0  0  0  0  0  0
   -9.3500   -0.5580  -80.2420 C   0  0  0  0  0  0  0  0  0  0  0  0
   -9.2130    1.2360  -82.0150 C   0  0  0  0  0  0  0  0  0  0  0  0
   -9.6780   -0.0250  -81.5970 C   0  0  0  0  0  0  0  0  0  0  0  0
  1  2  1  0
  2  3  2  0
  2  4  1  0
  4  5  1  0
  5  6  2  0
  5  7  1  0
  6  8  1  0
  7  9  2  0
  8 10  2  0
  9 10  1  0
 10 11  1  0
 11 12  1  0
 12 13  1  0
 13 14  1  0
 14 15  2  0
 14 16  1  0
 15 17  1  0
 16 18  2  0
 17 19  2  0
 18 19  1  0
M  END
>  <ref_url>  (250) 
https://fakepage.com

>  <submitter_name>  (250) 
Steph Wills

>  <submitter_email>  (250) 
stephanie.wills@dtc.ox.ac.uk

>  <submitter_institution>  (250) 
University of Oxford

>  <generation_date>  (250) 
2020-06-04

>  <method>  (250) 
Fragment network

>  <ref_mols>  (250) 
x0176_0B,x0212_0B

>  <ref_pdb>  (250) 
references/x0176-0B-x0212-0B-310659.holo_minimised_nolig.pdb

>  <original SMILES>  (250) 
NC(=S)Cc1ccc(COCc2ccccc2)cc1

>  <synthon>  (250) 
[Xe]c1ccccc1

>  <original_name>  (250) 
x0176-0B-x0212-0B-310659

>  <comRMSD_score>  (250) 
0.8266628948166634

>  <IF_score>  (250) 
0.8

>  <SuCOS_score>  (250) 
0.4910722221350599

>  <compound_ID>  (250) 
CHEMSPACE-BB:CSMB00016978318

$$$$

     RDKit          3D

 19 20  0  0  0  0  0  0  0  0999 V2000
  -14.5390    4.0830  -76.0420 C   0  0  0  0  0  0  0  0  0  0  0  0
  -13.6210    5.2760  -75.8070 C   0  0  0  0  0  0  0  0  0  0  0  0
  -12.5770    5.3700  -76.8690 C   0  0  0  0  0  0  0  0  0  0  0  0
  -12.6120    6.2050  -77.7630 O   0  0  0  0  0  0  0  0  0  0  0  0
  -11.4730    4.5170  -76.9210 C   0  0  0  0  0  0  0  0  0  0  0  0
  -11.3040    3.4770  -76.0010 C   0  0  0  0  0  0  0  0  0  0  0  0
  -10.5050    4.6920  -77.9120 C   0  0  0  0  0  0  0  0  0  0  0  0
  -10.1910    2.6460  -76.0980 C   0  0  0  0  0  0  0  0  0  0  0  0
   -9.4030    3.8600  -77.9980 C   0  0  0  0  0  0  0  0  0  0  0  0
   -9.2350    2.8230  -77.0930 C   0  0  0  0  0  0  0  0  0  0  0  0
   -8.1160    2.0920  -77.3130 O   0  0  0  0  0  0  0  0  0  0  0  0
   -6.9310    2.7190  -77.7810 C   0  0  0  0  0  0  0  0  0  0  0  0
   -6.8490    2.6850  -79.3070 C   0  0  0  0  0  0  0  0  0  0  0  0
   -7.8220    1.7190  -79.9510 C   0  0  0  0  0  0  0  0  0  0  0  0
   -8.4300    2.1010  -81.2620 C   0  0  0  0  0  0  0  0  0  0  0  0
   -8.1980    0.4760  -79.4040 C   0  0  0  0  0  0  0  0  0  0  0  0
   -9.3230    1.2390  -81.8860 C   0  0  0  0  0  0  0  0  0  0  0  0
   -9.1060   -0.3560  -80.0780 C   0  0  0  0  0  0  0  0  0  0  0  0
   -9.6610    0.0200  -81.3010 C   0  0  0  0  0  0  0  0  0  0  0  0
  1  2  1  0
  2  3  1  0
  3  4  2  0
  3  5  1  0
  5  6  2  0
  5  7  1  0
  6  8  1  0
  7  9  2  0
  8 10  2  0
  9 10  1  0
 10 11  1  0
 11 12  1  0
 12 13  1  0
 13 14  1  0
 14 15  2  0
 14 16  1  0
 15 17  1  0
 16 18  2  0
 17 19  2  0
 18 19  1  0
M  END
>  <ref_url>  (251) 
https://fakepage.com

>  <submitter_name>  (251) 
Steph Wills

>  <submitter_email>  (251) 
stephanie.wills@dtc.ox.ac.uk

>  <submitter_institution>  (251) 
University of Oxford

>  <generation_date>  (251) 
2020-06-04

>  <method>  (251) 
Fragment network

>  <ref_mols>  (251) 
x0176_0B,x0212_0B

>  <ref_pdb>  (251) 
references/x0176-0B-x0212-0B-311373.holo_minimised_nolig.pdb

>  <original SMILES>  (251) 
CCC(=O)c1ccc(OCCc2ccccc2)cc1

>  <synthon>  (251) 
[Xe]c1ccccc1

>  <original_name>  (251) 
x0176-0B-x0212-0B-311373

>  <comRMSD_score>  (251) 
0.5775560202454291

>  <IF_score>  (251) 
0.675

>  <SuCOS_score>  (251) 
0.4638360308277362

>  <compound_ID>  (251) 
REAL:Z1272920549

$$$$

     RDKit          3D

 23 24  0  0  0  0  0  0  0  0999 V2000
  -13.6820    5.8560  -75.3950 C   0  0  0  0  0  0  0  0  0  0  0  0
  -13.3810    5.1800  -76.7130 C   0  0  0  0  0  0  0  0  0  0  0  0
  -13.3720    6.2440  -77.8270 C   0  0  0  0  0  0  0  0  0  0  0  0
  -12.0470    4.4810  -76.5930 C   0  0  0  0  0  0  0  0  0  0  0  0
  -11.0030    4.7780  -77.4560 C   0  0  0  0  0  0  0  0  0  0  0  0
  -11.8560    3.5180  -75.5950 C   0  0  0  0  0  0  0  0  0  0  0  0
   -9.7350    4.0900  -77.3170 C   0  0  0  0  0  0  0  0  0  0  0  0
  -10.6420    2.8540  -75.4520 C   0  0  0  0  0  0  0  0  0  0  0  0
   -9.5920    3.1430  -76.3060 C   0  0  0  0  0  0  0  0  0  0  0  0
   -8.3170    2.5200  -76.2700 N   0  0  0  0  0  0  0  0  0  0  0  0
   -8.0660    2.1810  -77.5270 C   0  0  0  0  0  0  0  0  0  0  0  0
   -9.0050    1.9910  -78.2950 O   0  0  0  0  0  0  0  0  0  0  0  0
   -6.9940    2.1240  -77.9000 N   0  0  0  0  0  0  0  0  0  0  0  0
   -6.8430    2.3730  -79.2850 C   0  0  1  0  0  0  0  0  0  0  0  0
   -7.7970    1.5140  -80.0690 C   0  0  0  0  0  0  0  0  0  0  0  0
   -7.1110    3.7340  -79.4130 C   0  0  2  0  0  0  0  0  0  0  0  0
   -8.1620    0.2440  -79.5890 C   0  0  0  0  0  0  0  0  0  0  0  0
   -8.3680    1.9480  -81.2970 C   0  0  0  0  0  0  0  0  0  0  0  0
   -8.4050    3.9520  -79.9260 C   0  0  0  0  0  0  0  0  0  0  0  0
   -6.2330    4.3480  -80.3610 O   0  0  0  0  0  0  0  0  0  0  0  0
   -9.0780   -0.5370  -80.3420 C   0  0  0  0  0  0  0  0  0  0  0  0
   -9.2740    1.1520  -82.0200 C   0  0  0  0  0  0  0  0  0  0  0  0
   -9.6280   -0.0980  -81.5300 C   0  0  0  0  0  0  0  0  0  0  0  0
  1  2  1  0
  2  3  1  0
  2  4  1  0
  4  5  2  0
  4  6  1  0
  5  7  1  0
  6  8  2  0
  7  9  2  0
  8  9  1  0
  9 10  1  0
 10 11  1  0
 11 12  2  0
 11 13  1  0
 14 13  1  1
 14 15  1  0
 14 16  1  0
 15 17  2  0
 15 18  1  0
 16 19  1  6
 16 20  1  0
 17 21  1  0
 18 22  2  0
 21 23  2  0
 22 23  1  0
M  END
>  <ref_url>  (252) 
https://fakepage.com

>  <submitter_name>  (252) 
Steph Wills

>  <submitter_email>  (252) 
stephanie.wills@dtc.ox.ac.uk

>  <submitter_institution>  (252) 
University of Oxford

>  <generation_date>  (252) 
2020-06-04

>  <method>  (252) 
Fragment network

>  <ref_mols>  (252) 
x0176_0B,x0212_0B

>  <ref_pdb>  (252) 
references/x0176-0B-x0212-0B-312914.holo_minimised_nolig.pdb

>  <original SMILES>  (252) 
CC(C)c1ccc(NC(=O)NC(c2ccccc2)C(C)O)cc1

>  <synthon>  (252) 
[Xe]c1ccccc1

>  <original_name>  (252) 
x0176-0B-x0212-0B-312914

>  <comRMSD_score>  (252) 
0.7797574873833754

>  <IF_score>  (252) 
0.8

>  <SuCOS_score>  (252) 
0.5036172061017745

>  <compound_ID>  (252) 
REAL:Z2617940911

$$$$

     RDKit          3D

 22 23  0  0  0  0  0  0  0  0999 V2000
   -5.7270    2.8230  -79.8920 C   0  0  0  0  0  0  0  0  0  0  0  0
   -6.8480    2.1750  -79.0920 C   0  0  1  0  0  0  0  0  0  0  0  0
   -7.6360    3.1700  -78.3770 N   0  0  0  0  0  0  0  0  0  0  0  0
   -7.8240    1.3920  -80.0000 C   0  0  0  0  0  0  0  0  0  0  0  0
   -8.4740    3.9190  -79.2060 C   0  0  0  0  0  0  0  0  0  0  0  0
   -8.2740    0.1400  -79.5510 C   0  0  0  0  0  0  0  0  0  0  0  0
   -8.2800    1.8560  -81.2270 C   0  0  0  0  0  0  0  0  0  0  0  0
   -8.1640    4.0770  -80.3680 O   0  0  0  0  0  0  0  0  0  0  0  0
   -9.6000    4.3980  -78.5910 N   0  0  0  0  0  0  0  0  0  0  0  0
   -9.1620   -0.6240  -80.3250 C   0  0  0  0  0  0  0  0  0  0  0  0
   -9.1470    1.0890  -81.9670 C   0  0  0  0  0  0  0  0  0  0  0  0
  -10.1680    3.8060  -77.4250 C   0  0  0  0  0  0  0  0  0  0  0  0
   -9.6080   -0.1490  -81.5500 C   0  0  0  0  0  0  0  0  0  0  0  0
   -9.3610    2.8070  -76.8890 C   0  0  0  0  0  0  0  0  0  0  0  0
  -11.3880    4.1560  -76.8490 C   0  0  0  0  0  0  0  0  0  0  0  0
   -9.7580    2.1220  -75.7570 C   0  0  0  0  0  0  0  0  0  0  0  0
  -11.7660    3.4640  -75.7120 C   0  0  0  0  0  0  0  0  0  0  0  0
  -12.3940    5.1960  -77.2760 C   0  0  0  0  0  0  0  0  0  0  0  0
  -10.9650    2.4670  -75.1810 C   0  0  0  0  0  0  0  0  0  0  0  0
  -13.3490    5.6810  -76.2190 C   0  0  0  0  0  0  0  0  0  0  0  0
  -12.7860    6.7980  -75.4320 N   0  0  0  0  0  0  0  0  0  0  0  0
  -14.4670    5.2150  -76.0140 O   0  0  0  0  0  0  0  0  0  0  0  0
  2  1  1  6
  2  3  1  0
  2  4  1  0
  3  5  1  0
  4  6  2  0
  4  7  1  0
  5  8  2  0
  5  9  1  0
  6 10  1  0
  7 11  2  0
  9 12  1  0
 10 13  2  0
 11 13  1  0
 12 14  2  0
 12 15  1  0
 14 16  1  0
 15 17  2  0
 15 18  1  0
 16 19  2  0
 17 19  1  0
 18 20  1  0
 20 21  1  0
 20 22  2  0
M  END
>  <ref_url>  (253) 
https://fakepage.com

>  <submitter_name>  (253) 
Steph Wills

>  <submitter_email>  (253) 
stephanie.wills@dtc.ox.ac.uk

>  <submitter_institution>  (253) 
University of Oxford

>  <generation_date>  (253) 
2020-06-04

>  <method>  (253) 
Fragment network

>  <ref_mols>  (253) 
x0176_0B,x0212_0B

>  <ref_pdb>  (253) 
references/x0176-0B-x0212-0B-313567.holo_minimised_nolig.pdb

>  <original SMILES>  (253) 
CC(NC(=O)Nc1ccccc1CC(N)=O)c1ccccc1

>  <synthon>  (253) 
[Xe]c1ccccc1

>  <original_name>  (253) 
x0176-0B-x0212-0B-313567

>  <comRMSD_score>  (253) 
0.8541562579782915

>  <IF_score>  (253) 
0.5

>  <SuCOS_score>  (253) 
0.5456880164923092

>  <compound_ID>  (253) 
MOLPORT:009-053-070

$$$$

     RDKit          3D

 21 22  0  0  0  0  0  0  0  0999 V2000
  -13.7000    5.9520  -76.3960 C   0  0  0  0  0  0  0  0  0  0  0  0
  -13.2090    4.9260  -77.3780 C   0  0  0  0  0  0  0  0  0  0  0  0
  -13.8600    4.6300  -78.3730 O   0  0  0  0  0  0  0  0  0  0  0  0
  -11.9100    4.2650  -77.1120 C   0  0  0  0  0  0  0  0  0  0  0  0
  -10.7910    4.5070  -77.8940 C   0  0  0  0  0  0  0  0  0  0  0  0
  -11.8300    3.3780  -76.0380 C   0  0  0  0  0  0  0  0  0  0  0  0
   -9.6030    3.8610  -77.5920 C   0  0  0  0  0  0  0  0  0  0  0  0
  -10.6300    2.7310  -75.7380 C   0  0  0  0  0  0  0  0  0  0  0  0
   -9.5160    2.9760  -76.5160 C   0  0  0  0  0  0  0  0  0  0  0  0
   -8.2630    2.4270  -76.3480 N   0  0  0  0  0  0  0  0  0  0  0  0
   -7.0730    2.8310  -76.8440 C   0  0  0  0  0  0  0  0  0  0  0  0
   -6.0840    4.1030  -76.3950 S   0  0  0  0  0  0  0  0  0  0  0  0
   -6.6190    2.0400  -77.8790 N   0  0  0  0  0  0  0  0  0  0  0  0
   -6.5180    2.3270  -79.2330 C   0  0  0  0  0  0  0  0  0  0  0  0
   -5.9800    3.3380  -79.6790 O   0  0  0  0  0  0  0  0  0  0  0  0
   -7.1070    1.3190  -80.1460 C   0  0  0  0  0  0  0  0  0  0  0  0
   -7.4110    0.0380  -79.6450 C   0  0  0  0  0  0  0  0  0  0  0  0
   -7.3810    1.6150  -81.4900 C   0  0  0  0  0  0  0  0  0  0  0  0
   -7.9850   -0.9280  -80.4830 C   0  0  0  0  0  0  0  0  0  0  0  0
   -7.9520    0.6420  -82.3260 C   0  0  0  0  0  0  0  0  0  0  0  0
   -8.2530   -0.6240  -81.8200 C   0  0  0  0  0  0  0  0  0  0  0  0
  1  2  1  0
  2  3  2  0
  2  4  1  0
  4  5  2  0
  4  6  1  0
  5  7  1  0
  6  8  2  0
  7  9  2  0
  8  9  1  0
  9 10  1  0
 10 11  1  0
 11 12  2  0
 11 13  1  0
 13 14  1  0
 14 15  2  0
 14 16  1  0
 16 17  2  0
 16 18  1  0
 17 19  1  0
 18 20  2  0
 19 21  2  0
 20 21  1  0
M  END
>  <ref_url>  (254) 
https://fakepage.com

>  <submitter_name>  (254) 
Steph Wills

>  <submitter_email>  (254) 
stephanie.wills@dtc.ox.ac.uk

>  <submitter_institution>  (254) 
University of Oxford

>  <generation_date>  (254) 
2020-06-04

>  <method>  (254) 
Fragment network

>  <ref_mols>  (254) 
x0176_0B,x0212_0B

>  <ref_pdb>  (254) 
references/x0176-0B-x0212-0B-313861.holo_minimised_nolig.pdb

>  <original SMILES>  (254) 
CC(=O)c1ccc(NC(=S)NC(=O)c2ccccc2)cc1

>  <synthon>  (254) 
[Xe]c1ccccc1

>  <original_name>  (254) 
x0176-0B-x0212-0B-313861

>  <comRMSD_score>  (254) 
0.8953940351939305

>  <IF_score>  (254) 
0.1428571428571428

>  <SuCOS_score>  (254) 
0.4132526819583061

>  <compound_ID>  (254) 
MOLPORT:000-421-813

$$$$

     RDKit          3D

 23 24  0  0  0  0  0  0  0  0999 V2000
   -8.6100    4.2290  -79.9970 C   0  0  0  0  0  0  0  0  0  0  0  0
   -9.0680    3.9400  -78.5860 C   0  0  0  0  0  0  0  0  0  0  0  0
   -8.9080    2.4630  -78.2570 C   0  0  0  0  0  0  0  0  0  0  0  0
   -7.5230    2.1550  -77.9320 N   0  0  0  0  0  0  0  0  0  0  0  0
   -6.8270    1.7540  -79.1470 C   0  0  0  0  0  0  0  0  0  0  0  0
   -7.4440    1.1900  -76.8390 C   0  0  0  0  0  0  0  0  0  0  0  0
   -7.8160    1.1980  -79.9470 C   0  0  0  0  0  0  0  0  0  0  0  0
   -6.5830    0.3230  -76.8000 O   0  0  0  0  0  0  0  0  0  0  0  0
   -8.4100    1.3540  -75.9140 N   0  0  0  0  0  0  0  0  0  0  0  0
   -8.4200    0.0110  -79.5480 C   0  0  0  0  0  0  0  0  0  0  0  0
   -8.2390    1.8000  -81.1400 C   0  0  0  0  0  0  0  0  0  0  0  0
   -9.4020    2.4080  -76.2010 C   0  0  0  0  0  0  0  0  0  0  0  0
   -9.4990   -0.5870  -80.3840 C   0  0  0  0  0  0  0  0  0  0  0  0
   -9.2410    1.2560  -81.9270 C   0  0  0  0  0  0  0  0  0  0  0  0
  -10.6100    2.2210  -75.5280 C   0  0  0  0  0  0  0  0  0  0  0  0
   -9.2790    3.5180  -77.0280 C   0  0  0  0  0  0  0  0  0  0  0  0
   -9.8740    0.0630  -81.5480 C   0  0  0  0  0  0  0  0  0  0  0  0
  -11.6670    3.1280  -75.6810 C   0  0  0  0  0  0  0  0  0  0  0  0
  -10.3540    4.3920  -77.1600 C   0  0  0  0  0  0  0  0  0  0  0  0
  -11.5720    4.2560  -76.5100 C   0  0  0  0  0  0  0  0  0  0  0  0
  -12.7050    5.2530  -76.6820 C   0  0  0  0  0  0  0  0  0  0  0  0
  -13.7500    5.5130  -75.6210 C   0  0  0  0  0  0  0  0  0  0  0  0
  -12.7870    6.0250  -77.8920 O   0  0  0  0  0  0  0  0  0  0  0  0
  1  2  1  0
  2  3  1  0
  3  4  1  0
  4  5  1  0
  4  6  1  0
  5  7  1  0
  6  8  2  0
  6  9  1  0
  7 10  2  0
  7 11  1  0
  9 12  1  0
 10 13  1  0
 11 14  2  0
 12 15  2  0
 12 16  1  0
 13 17  2  0
 14 17  1  0
 15 18  1  0
 16 19  2  0
 18 20  2  0
 19 20  1  0
 20 21  1  0
 21 22  1  0
 21 23  2  0
M  END
>  <ref_url>  (255) 
https://fakepage.com

>  <submitter_name>  (255) 
Steph Wills

>  <submitter_email>  (255) 
stephanie.wills@dtc.ox.ac.uk

>  <submitter_institution>  (255) 
University of Oxford

>  <generation_date>  (255) 
2020-06-04

>  <method>  (255) 
Fragment network

>  <ref_mols>  (255) 
x0176_0B,x0212_0B

>  <ref_pdb>  (255) 
references/x0176-0B-x0212-0B-316227.holo_minimised_nolig.pdb

>  <original SMILES>  (255) 
CCCN(Cc1ccccc1)C(=O)Nc1ccc(C(C)=O)cc1

>  <synthon>  (255) 
[Xe]c1ccccc1

>  <original_name>  (255) 
x0176-0B-x0212-0B-316227

>  <comRMSD_score>  (255) 
0.7126822866233369

>  <IF_score>  (255) 
0.675

>  <SuCOS_score>  (255) 
0.4885936614949632

>  <compound_ID>  (255) 
REAL:Z281068646

$$$$

     RDKit          3D

 24 25  0  0  0  0  0  0  0  0999 V2000
  -12.6360    6.4530  -75.3660 N   0  0  0  0  0  0  0  0  0  0  0  0
  -13.7320    5.8530  -75.9160 C   0  0  0  0  0  0  0  0  0  0  0  0
  -14.8490    6.3250  -75.7650 O   0  0  0  0  0  0  0  0  0  0  0  0
  -13.5350    4.5760  -76.7170 C   0  0  0  0  0  0  0  0  0  0  0  0
  -12.2250    4.1570  -76.8440 C   0  0  0  0  0  0  0  0  0  0  0  0
  -11.5030    4.6620  -77.9080 C   0  0  0  0  0  0  0  0  0  0  0  0
  -11.6180    3.2530  -75.9510 C   0  0  0  0  0  0  0  0  0  0  0  0
  -10.2100    4.2880  -78.1010 C   0  0  0  0  0  0  0  0  0  0  0  0
  -10.2940    2.8740  -76.1500 C   0  0  0  0  0  0  0  0  0  0  0  0
   -9.5970    3.4050  -77.2420 C   0  0  0  0  0  0  0  0  0  0  0  0
   -8.2960    3.0690  -77.4950 N   0  0  0  0  0  0  0  0  0  0  0  0
   -7.7010    3.5360  -78.5520 C   0  0  0  0  0  0  0  0  0  0  0  0
   -8.3120    4.2910  -79.2960 O   0  0  0  0  0  0  0  0  0  0  0  0
   -6.4210    3.2060  -78.8980 C   0  0  0  0  0  0  0  0  0  0  0  0
   -6.3170    1.8340  -78.9640 C   0  0  1  0  0  0  0  0  0  0  0  0
   -6.3380    1.1950  -77.7270 C   0  0  0  0  0  0  0  0  0  0  0  0
   -7.5030    1.2260  -79.7330 C   0  0  0  0  0  0  0  0  0  0  0  0
   -5.9940   -0.1870  -77.6550 O   0  0  0  0  0  0  0  0  0  0  0  0
   -6.6820    1.9280  -76.6510 O   0  0  0  0  0  0  0  0  0  0  0  0
   -8.0290    0.0080  -79.2510 C   0  0  0  0  0  0  0  0  0  0  0  0
   -8.0620    1.8290  -80.8740 C   0  0  0  0  0  0  0  0  0  0  0  0
   -9.1820   -0.6830  -79.9150 C   0  0  0  0  0  0  0  0  0  0  0  0
   -9.1180    1.2300  -81.5180 C   0  0  0  0  0  0  0  0  0  0  0  0
   -9.7060    0.0370  -81.1200 C   0  0  0  0  0  0  0  0  0  0  0  0
  1  2  1  0
  2  3  2  0
  2  4  1  0
  4  5  1  0
  5  6  2  0
  5  7  1  0
  6  8  1  0
  7  9  2  0
  8 10  2  0
  9 10  1  0
 10 11  1  0
 11 12  1  0
 12 13  2  0
 12 14  1  0
 15 14  1  1
 15 16  1  0
 15 17  1  0
 16 18  2  0
 16 19  1  0
 17 20  2  0
 17 21  1  0
 20 22  1  0
 21 23  2  0
 22 24  2  0
 23 24  1  0
M  END
>  <ref_url>  (256) 
https://fakepage.com

>  <submitter_name>  (256) 
Steph Wills

>  <submitter_email>  (256) 
stephanie.wills@dtc.ox.ac.uk

>  <submitter_institution>  (256) 
University of Oxford

>  <generation_date>  (256) 
2020-06-04

>  <method>  (256) 
Fragment network

>  <ref_mols>  (256) 
x0176_0B,x0212_0B

>  <ref_pdb>  (256) 
references/x0176-0B-x0212-0B-316280.holo_minimised_nolig.pdb

>  <original SMILES>  (256) 
NC(=O)Cc1ccc(NC(=O)CC(C(=O)O)c2ccccc2)cc1

>  <synthon>  (256) 
[Xe]c1ccccc1

>  <original_name>  (256) 
x0176-0B-x0212-0B-316280

>  <comRMSD_score>  (256) 
0.886333388178512

>  <IF_score>  (256) 
0.25

>  <SuCOS_score>  (256) 
0.5039681353976051

>  <compound_ID>  (256) 
REAL:Z369440602

$$$$

     RDKit          3D

 21 22  0  0  0  0  0  0  0  0999 V2000
  -14.6620    5.8510  -78.2890 C   0  0  0  0  0  0  0  0  0  0  0  0
  -13.9970    4.9920  -77.7050 O   0  0  0  0  0  0  0  0  0  0  0  0
  -12.9120    5.5400  -77.0890 C   0  0  0  0  0  0  0  0  0  0  0  0
  -12.9100    6.6930  -76.7090 O   0  0  0  0  0  0  0  0  0  0  0  0
  -11.7530    4.7350  -76.8800 C   0  0  0  0  0  0  0  0  0  0  0  0
  -10.6580    4.7640  -77.7650 C   0  0  0  0  0  0  0  0  0  0  0  0
  -11.6550    3.9040  -75.7570 C   0  0  0  0  0  0  0  0  0  0  0  0
   -9.5050    4.0150  -77.4990 C   0  0  0  0  0  0  0  0  0  0  0  0
  -10.4920    3.1610  -75.5090 C   0  0  0  0  0  0  0  0  0  0  0  0
   -9.3940    3.2240  -76.3660 C   0  0  0  0  0  0  0  0  0  0  0  0
   -8.2430    2.4960  -75.9970 N   0  0  0  0  0  0  0  0  0  0  0  0
   -7.5520    1.4890  -76.6000 C   0  0  0  0  0  0  0  0  0  0  0  0
   -8.1070    1.1280  -77.7670 C   0  0  0  0  0  0  0  0  0  0  0  0
   -9.6210    0.0300  -77.6870 Br  0  0  0  0  0  0  0  0  0  0  0  0
   -7.5940    1.5570  -78.9750 C   0  0  0  0  0  0  0  0  0  0  0  0
   -8.2110    1.1490  -80.1010 C   0  0  0  0  0  0  0  0  0  0  0  0
   -8.5220    1.9830  -81.1540 C   0  0  0  0  0  0  0  0  0  0  0  0
   -8.5410   -0.2020  -80.1280 C   0  0  0  0  0  0  0  0  0  0  0  0
   -9.1840    1.4530  -82.2350 C   0  0  0  0  0  0  0  0  0  0  0  0
   -9.2010   -0.7690  -81.1950 C   0  0  0  0  0  0  0  0  0  0  0  0
   -9.5630   -0.0020  -82.2960 C   0  0  0  0  0  0  0  0  0  0  0  0
  1  2  1  0
  2  3  1  0
  3  4  2  0
  3  5  1  0
  5  6  2  0
  5  7  1  0
  6  8  1  0
  7  9  2  0
  8 10  2  0
  9 10  1  0
 10 11  1  0
 11 12  2  3
 12 13  1  0
 13 14  1  0
 13 15  2  3
 15 16  1  0
 16 17  2  0
 16 18  1  0
 17 19  1  0
 18 20  2  0
 19 21  2  0
 20 21  1  0
M  END
>  <ref_url>  (257) 
https://fakepage.com

>  <submitter_name>  (257) 
Steph Wills

>  <submitter_email>  (257) 
stephanie.wills@dtc.ox.ac.uk

>  <submitter_institution>  (257) 
University of Oxford

>  <generation_date>  (257) 
2020-06-04

>  <method>  (257) 
Fragment network

>  <ref_mols>  (257) 
x0176_0B,x0212_0B

>  <ref_pdb>  (257) 
references/x0176-0B-x0212-0B-317482.holo_minimised_nolig.pdb

>  <original SMILES>  (257) 
COC(=O)c1ccc(N=CC(Br)=Cc2ccccc2)cc1

>  <synthon>  (257) 
[Xe]c1ccccc1

>  <original_name>  (257) 
x0176-0B-x0212-0B-317482

>  <comRMSD_score>  (257) 
0.8337436656431044

>  <IF_score>  (257) 
0.8

>  <SuCOS_score>  (257) 
0.4256203311197468

>  <compound_ID>  (257) 
MOLPORT:044-298-184

$$$$

     RDKit          3D

 25 26  0  0  0  0  0  0  0  0999 V2000
  -12.7220    6.4640  -75.0940 N   0  0  0  0  0  0  0  0  0  0  0  0
  -12.9900    6.0570  -76.1450 C   0  0  0  0  0  0  0  0  0  0  0  0
  -13.8940    7.0670  -76.5800 O   0  0  0  0  0  0  0  0  0  0  0  0
  -12.9520    5.1160  -77.3380 C   0  0  0  0  0  0  0  0  0  0  0  0
  -11.7780    4.1350  -77.1040 C   0  0  0  0  0  0  0  0  0  0  0  0
  -11.7950    3.1580  -75.9550 C   0  0  0  0  0  0  0  0  0  0  0  0
  -10.6790    4.1370  -77.9520 C   0  0  0  0  0  0  0  0  0  0  0  0
  -10.7050    2.3050  -75.8100 C   0  0  0  0  0  0  0  0  0  0  0  0
   -9.6010    3.2730  -77.7880 C   0  0  0  0  0  0  0  0  0  0  0  0
   -9.5730    2.3390  -76.7330 C   0  0  0  0  0  0  0  0  0  0  0  0
   -8.5120    1.4360  -76.5160 N   0  0  0  0  0  0  0  0  0  0  0  0
   -7.2940    1.5740  -77.1290 C   0  0  0  0  0  0  0  0  0  0  0  0
   -6.3010    0.8510  -77.1720 O   0  0  0  0  0  0  0  0  0  0  0  0
   -7.2140    2.7790  -77.8040 C   0  0  0  0  0  0  0  0  0  0  0  0
   -6.8970    2.6850  -79.1650 C   0  0  2  0  0  0  0  0  0  0  0  0
   -7.4140    1.5220  -79.9950 C   0  0  0  0  0  0  0  0  0  0  0  0
   -5.5080    2.8260  -79.2390 C   0  0  0  0  0  0  0  0  0  0  0  0
   -7.6370    0.2350  -79.4680 C   0  0  0  0  0  0  0  0  0  0  0  0
   -7.6680    1.7530  -81.3600 C   0  0  0  0  0  0  0  0  0  0  0  0
   -5.1100    4.0890  -79.5610 F   0  0  0  0  0  0  0  0  0  0  0  0
   -4.8660    2.5020  -78.0830 F   0  0  0  0  0  0  0  0  0  0  0  0
   -4.9800    2.0130  -80.1990 F   0  0  0  0  0  0  0  0  0  0  0  0
   -8.1030   -0.7720  -80.3900 C   0  0  0  0  0  0  0  0  0  0  0  0
   -8.1210    0.7410  -82.2290 C   0  0  0  0  0  0  0  0  0  0  0  0
   -8.3360   -0.5330  -81.7500 C   0  0  0  0  0  0  0  0  0  0  0  0
  1  2  1  0
  2  3  2  0
  2  4  1  0
  4  5  1  0
  5  6  2  0
  5  7  1  0
  6  8  1  0
  7  9  2  0
  8 10  2  0
  9 10  1  0
 10 11  1  0
 11 12  1  0
 12 13  2  0
 12 14  1  0
 15 14  1  1
 15 16  1  0
 15 17  1  0
 16 18  2  0
 16 19  1  0
 17 20  1  0
 17 21  1  0
 17 22  1  0
 18 23  1  0
 19 24  2  0
 23 25  2  0
 24 25  1  0
M  END
>  <ref_url>  (258) 
https://fakepage.com

>  <submitter_name>  (258) 
Steph Wills

>  <submitter_email>  (258) 
stephanie.wills@dtc.ox.ac.uk

>  <submitter_institution>  (258) 
University of Oxford

>  <generation_date>  (258) 
2020-06-04

>  <method>  (258) 
Fragment network

>  <ref_mols>  (258) 
x0176_0B,x0212_0B

>  <ref_pdb>  (258) 
references/x0176-0B-x0212-0B-318339.holo_minimised_nolig.pdb

>  <original SMILES>  (258) 
NC(=O)Cc1ccc(NC(=O)CC(c2ccccc2)C(F)(F)F)cc1

>  <synthon>  (258) 
[Xe]c1ccccc1

>  <original_name>  (258) 
x0176-0B-x0212-0B-318339

>  <comRMSD_score>  (258) 
0.7627300199502659

>  <IF_score>  (258) 
0.3125

>  <SuCOS_score>  (258) 
0.4915727133538908

>  <compound_ID>  (258) 
REAL:Z1101652276

$$$$

     RDKit          3D

 19 20  0  0  0  0  0  0  0  0999 V2000
  -13.6800    5.8100  -76.0740 C   0  0  0  0  0  0  0  0  0  0  0  0
  -12.8840    5.6420  -77.3470 C   0  0  0  0  0  0  0  0  0  0  0  0
  -11.8530    4.5830  -77.1630 C   0  0  0  0  0  0  0  0  0  0  0  0
  -11.8760    3.7820  -76.0130 C   0  0  0  0  0  0  0  0  0  0  0  0
  -10.8800    4.4010  -78.1360 C   0  0  0  0  0  0  0  0  0  0  0  0
  -10.9250    2.8030  -75.8450 C   0  0  0  0  0  0  0  0  0  0  0  0
   -9.9310    3.4220  -77.9720 C   0  0  0  0  0  0  0  0  0  0  0  0
   -9.9840    2.6490  -76.8260 C   0  0  0  0  0  0  0  0  0  0  0  0
   -9.0700    1.7130  -76.6490 O   0  0  0  0  0  0  0  0  0  0  0  0
   -7.9370    2.3000  -76.1010 C   0  0  0  0  0  0  0  0  0  0  0  0
   -7.2870    3.1590  -77.1470 C   0  0  0  0  0  0  0  0  0  0  0  0
   -6.6800    2.4370  -78.0000 N   0  0  0  0  0  0  0  0  0  0  0  0
   -6.9080    2.7320  -79.4120 C   0  0  0  0  0  0  0  0  0  0  0  0
   -7.7920    1.6980  -80.0470 C   0  0  0  0  0  0  0  0  0  0  0  0
   -8.3910    1.9830  -81.3590 C   0  0  0  0  0  0  0  0  0  0  0  0
   -8.1080    0.4450  -79.4820 C   0  0  0  0  0  0  0  0  0  0  0  0
   -9.2080    1.0940  -82.0130 C   0  0  0  0  0  0  0  0  0  0  0  0
   -8.9490   -0.4520  -80.1680 C   0  0  0  0  0  0  0  0  0  0  0  0
   -9.4920   -0.1320  -81.4170 C   0  0  0  0  0  0  0  0  0  0  0  0
  1  2  1  0
  2  3  1  0
  3  4  2  0
  3  5  1  0
  4  6  1  0
  5  7  2  0
  6  8  2  0
  7  8  1  0
  8  9  1  0
  9 10  1  0
 10 11  1  0
 11 12  1  0
 12 13  1  0
 13 14  1  0
 14 15  2  0
 14 16  1  0
 15 17  1  0
 16 18  2  0
 17 19  2  0
 18 19  1  0
M  END
>  <ref_url>  (259) 
https://fakepage.com

>  <submitter_name>  (259) 
Steph Wills

>  <submitter_email>  (259) 
stephanie.wills@dtc.ox.ac.uk

>  <submitter_institution>  (259) 
University of Oxford

>  <generation_date>  (259) 
2020-06-04

>  <method>  (259) 
Fragment network

>  <ref_mols>  (259) 
x0176_0B,x0212_0B

>  <ref_pdb>  (259) 
references/x0176-0B-x0212-0B-318641.holo_minimised_nolig.pdb

>  <original SMILES>  (259) 
CCc1ccc(OCCNCc2ccccc2)cc1

>  <synthon>  (259) 
[Xe]c1ccccc1

>  <original_name>  (259) 
x0176-0B-x0212-0B-318641

>  <comRMSD_score>  (259) 
0.7825398447974717

>  <IF_score>  (259) 
0.5

>  <SuCOS_score>  (259) 
0.5117243402213442

>  <compound_ID>  (259) 
CHEMSPACE-BB:CSMB00011703149

$$$$

     RDKit          3D

 21 22  0  0  0  0  0  0  0  0999 V2000
  -12.6110    6.4400  -73.7000 C   0  0  0  0  0  0  0  0  0  0  0  0
  -13.0160    7.0580  -75.0490 C   0  0  0  0  0  0  0  0  0  0  0  0
  -13.7540    6.0740  -75.9930 C   0  0  0  0  0  0  0  0  0  0  0  0
  -13.0070    5.5120  -77.1600 C   0  0  0  0  0  0  0  0  0  0  0  0
  -11.9600    4.6550  -76.8470 C   0  0  0  0  0  0  0  0  0  0  0  0
  -12.1430    3.6950  -75.7530 C   0  0  0  0  0  0  0  0  0  0  0  0
  -10.7470    4.6580  -77.5070 C   0  0  0  0  0  0  0  0  0  0  0  0
  -11.1090    2.8400  -75.4110 C   0  0  0  0  0  0  0  0  0  0  0  0
   -9.7520    3.7800  -77.1190 C   0  0  0  0  0  0  0  0  0  0  0  0
   -9.9060    2.8580  -76.0660 C   0  0  0  0  0  0  0  0  0  0  0  0
   -9.0080    2.1180  -75.7640 O   0  0  0  0  0  0  0  0  0  0  0  0
   -8.3680    1.5420  -76.8630 C   0  0  0  0  0  0  0  0  0  0  0  0
   -7.8500    2.7360  -77.5970 C   0  0  0  0  0  0  0  0  0  0  0  0
   -6.6290    2.5860  -78.1360 N   0  0  0  0  0  0  0  0  0  0  0  0
   -6.7460    2.4900  -79.5670 C   0  0  0  0  0  0  0  0  0  0  0  0
   -7.7480    1.6040  -80.1210 C   0  0  0  0  0  0  0  0  0  0  0  0
   -8.1610    0.3390  -79.6240 C   0  0  0  0  0  0  0  0  0  0  0  0
   -8.3990    2.0300  -81.2900 C   0  0  0  0  0  0  0  0  0  0  0  0
   -9.1340   -0.4550  -80.2180 C   0  0  0  0  0  0  0  0  0  0  0  0
   -9.3740    1.2310  -81.8880 C   0  0  0  0  0  0  0  0  0  0  0  0
   -9.7410    0.0040  -81.3620 C   0  0  0  0  0  0  0  0  0  0  0  0
  1  2  1  0
  2  3  1  0
  3  4  1  0
  4  5  1  0
  5  6  2  0
  5  7  1  0
  6  8  1  0
  7  9  2  0
  8 10  2  0
  9 10  1  0
 10 11  1  0
 11 12  1  0
 12 13  1  0
 13 14  1  0
 14 15  1  0
 15 16  1  0
 16 17  2  0
 16 18  1  0
 17 19  1  0
 18 20  2  0
 19 21  2  0
 20 21  1  0
M  END
>  <ref_url>  (260) 
https://fakepage.com

>  <submitter_name>  (260) 
Steph Wills

>  <submitter_email>  (260) 
stephanie.wills@dtc.ox.ac.uk

>  <submitter_institution>  (260) 
University of Oxford

>  <generation_date>  (260) 
2020-06-04

>  <method>  (260) 
Fragment network

>  <ref_mols>  (260) 
x0176_0B,x0212_0B

>  <ref_pdb>  (260) 
references/x0176-0B-x0212-0B-321381.holo_minimised_nolig.pdb

>  <original SMILES>  (260) 
CCCCc1ccc(OCCNCc2ccccc2)cc1

>  <synthon>  (260) 
[Xe]c1ccccc1

>  <original_name>  (260) 
x0176-0B-x0212-0B-321381

>  <comRMSD_score>  (260) 
0.7798708107638597

>  <IF_score>  (260) 
0.675

>  <SuCOS_score>  (260) 
0.5288986354529817

>  <compound_ID>  (260) 
CHEMSPACE-BB:CSMB00013024058

$$$$

     RDKit          3D

 21 22  0  0  0  0  0  0  0  0999 V2000
   -5.8250    0.9780  -76.1010 C   0  0  0  0  0  0  0  0  0  0  0  0
   -7.1790    0.7730  -76.7910 C   0  0  0  0  0  0  0  0  0  0  0  0
   -7.5370    2.0040  -77.5070 N   0  0  0  0  0  0  0  0  0  0  0  0
   -7.1640    2.2030  -78.8450 C   0  0  0  0  0  0  0  0  0  0  0  0
   -8.0630    3.1360  -76.8860 C   0  0  0  0  0  0  0  0  0  0  0  0
   -7.9640    1.5040  -79.7330 C   0  0  0  0  0  0  0  0  0  0  0  0
   -9.4220    3.3450  -76.8260 C   0  0  0  0  0  0  0  0  0  0  0  0
   -8.2270    1.9880  -81.0180 C   0  0  0  0  0  0  0  0  0  0  0  0
   -8.5170    0.2890  -79.3000 C   0  0  0  0  0  0  0  0  0  0  0  0
  -10.4230    2.7530  -75.8770 C   0  0  0  0  0  0  0  0  0  0  0  0
  -10.0050    4.2930  -77.8200 C   0  0  0  0  0  0  0  0  0  0  0  0
   -9.0380    1.2570  -81.8540 C   0  0  0  0  0  0  0  0  0  0  0  0
   -9.3410   -0.4740  -80.1110 C   0  0  0  0  0  0  0  0  0  0  0  0
  -11.7770    3.1230  -75.9790 C   0  0  0  0  0  0  0  0  0  0  0  0
  -11.3260    4.5970  -77.8490 C   0  0  0  0  0  0  0  0  0  0  0  0
   -9.6300   -0.0370  -81.3770 C   0  0  0  0  0  0  0  0  0  0  0  0
  -12.2150    4.0420  -76.9580 C   0  0  0  0  0  0  0  0  0  0  0  0
  -13.5410    4.4250  -77.0700 C   0  0  2  0  0  0  0  0  0  0  0  0
  -13.9130    5.0270  -78.4270 C   0  0  0  0  0  0  0  0  0  0  0  0
  -13.8050    5.5980  -76.0950 C   0  0  0  0  0  0  0  0  0  0  0  0
  -12.6120    6.2480  -75.5480 N   0  0  0  0  0  0  0  0  0  0  0  0
  1  2  1  0
  2  3  1  0
  3  4  1  0
  3  5  1  0
  4  6  1  0
  5  7  1  0
  6  8  2  0
  6  9  1  0
  7 10  2  0
  7 11  1  0
  8 12  1  0
  9 13  2  0
 10 14  1  0
 11 15  2  0
 12 16  2  0
 13 16  1  0
 14 17  2  0
 15 17  1  0
 17 18  1  0
 18 19  1  6
 18 20  1  0
 20 21  1  0
M  END
>  <ref_url>  (261) 
https://fakepage.com

>  <submitter_name>  (261) 
Steph Wills

>  <submitter_email>  (261) 
stephanie.wills@dtc.ox.ac.uk

>  <submitter_institution>  (261) 
University of Oxford

>  <generation_date>  (261) 
2020-06-04

>  <method>  (261) 
Fragment network

>  <ref_mols>  (261) 
x0176_0B,x0212_0B

>  <ref_pdb>  (261) 
references/x0176-0B-x0212-0B-322351.holo_minimised_nolig.pdb

>  <original SMILES>  (261) 
CCN(Cc1ccccc1)Cc1ccc(C(C)CN)cc1

>  <synthon>  (261) 
[Xe]c1ccccc1

>  <original_name>  (261) 
x0176-0B-x0212-0B-322351

>  <comRMSD_score>  (261) 
0.8232260726353767

>  <IF_score>  (261) 
0.375

>  <SuCOS_score>  (261) 
0.5654746686275891

>  <compound_ID>  (261) 
CHEMSPACE-BB:CSMB00013842628

$$$$

     RDKit          3D

 21 22  0  0  0  0  0  0  0  0999 V2000
  -14.8010    6.8280  -77.4610 C   0  0  0  0  0  0  0  0  0  0  0  0
  -13.9650    5.8560  -76.6340 C   0  0  0  0  0  0  0  0  0  0  0  0
  -13.3220    4.8020  -77.5160 C   0  0  0  0  0  0  0  0  0  0  0  0
  -13.8950    4.3720  -78.5130 O   0  0  0  0  0  0  0  0  0  0  0  0
  -11.9720    4.2630  -77.1810 C   0  0  0  0  0  0  0  0  0  0  0  0
  -11.8310    3.4450  -76.0560 C   0  0  0  0  0  0  0  0  0  0  0  0
  -10.8560    4.5490  -77.9580 C   0  0  0  0  0  0  0  0  0  0  0  0
  -10.5840    2.9190  -75.7170 C   0  0  0  0  0  0  0  0  0  0  0  0
   -9.6210    4.0250  -77.6180 C   0  0  0  0  0  0  0  0  0  0  0  0
   -9.4780    3.2120  -76.5010 C   0  0  0  0  0  0  0  0  0  0  0  0
   -8.2040    2.7440  -76.2560 N   0  0  0  0  0  0  0  0  0  0  0  0
   -7.6630    1.6980  -76.9240 C   0  0  0  0  0  0  0  0  0  0  0  0
   -7.9390    0.5170  -76.7690 O   0  0  0  0  0  0  0  0  0  0  0  0
   -6.7270    2.1400  -77.8300 N   0  0  0  0  0  0  0  0  0  0  0  0
   -7.0970    2.5790  -79.1550 C   0  0  0  0  0  0  0  0  0  0  0  0
   -7.4720    1.4200  -80.0410 C   0  0  0  0  0  0  0  0  0  0  0  0
   -7.6060    1.6370  -81.4110 C   0  0  0  0  0  0  0  0  0  0  0  0
   -7.6960    0.1260  -79.5350 C   0  0  0  0  0  0  0  0  0  0  0  0
   -7.9570    0.5990  -82.2740 C   0  0  0  0  0  0  0  0  0  0  0  0
   -8.0510   -0.9190  -80.3980 C   0  0  0  0  0  0  0  0  0  0  0  0
   -8.1810   -0.6810  -81.7670 C   0  0  0  0  0  0  0  0  0  0  0  0
  1  2  1  0
  2  3  1  0
  3  4  2  0
  3  5  1  0
  5  6  2  0
  5  7  1  0
  6  8  1  0
  7  9  2  0
  8 10  2  0
  9 10  1  0
 10 11  1  0
 11 12  1  0
 12 13  2  0
 12 14  1  0
 14 15  1  0
 15 16  1  0
 16 17  2  0
 16 18  1  0
 17 19  1  0
 18 20  2  0
 19 21  2  0
 20 21  1  0
M  END
>  <ref_url>  (262) 
https://fakepage.com

>  <submitter_name>  (262) 
Steph Wills

>  <submitter_email>  (262) 
stephanie.wills@dtc.ox.ac.uk

>  <submitter_institution>  (262) 
University of Oxford

>  <generation_date>  (262) 
2020-06-04

>  <method>  (262) 
Fragment network

>  <ref_mols>  (262) 
x0176_0B,x0212_0B

>  <ref_pdb>  (262) 
references/x0176-0B-x0212-0B-324974.holo_minimised_nolig.pdb

>  <original SMILES>  (262) 
CCC(=O)c1ccc(NC(=O)NCc2ccccc2)cc1

>  <synthon>  (262) 
[Xe]c1ccccc1

>  <original_name>  (262) 
x0176-0B-x0212-0B-324974

>  <comRMSD_score>  (262) 
0.8792653059576896

>  <IF_score>  (262) 
0.3333333333333333

>  <SuCOS_score>  (262) 
0.4328693233760843

>  <compound_ID>  (262) 
REAL:PV-001949375918

$$$$

     RDKit          3D

 20 21  0  0  0  0  0  0  0  0999 V2000
  -13.4140    5.6300  -76.3610 C   0  0  0  0  0  0  0  0  0  0  0  0
  -12.7750    4.7560  -77.4290 C   0  0  2  0  0  0  0  0  0  0  0  0
  -13.7920    3.8370  -77.8490 O   0  0  0  0  0  0  0  0  0  0  0  0
  -11.6370    4.0430  -77.0490 C   0  0  0  0  0  0  0  0  0  0  0  0
  -11.7060    3.0510  -76.0740 C   0  0  0  0  0  0  0  0  0  0  0  0
  -10.3820    4.2880  -77.6160 C   0  0  0  0  0  0  0  0  0  0  0  0
  -10.6170    2.3150  -75.6490 C   0  0  0  0  0  0  0  0  0  0  0  0
   -9.2390    3.5700  -77.2150 C   0  0  0  0  0  0  0  0  0  0  0  0
   -9.3940    2.5880  -76.2290 C   0  0  0  0  0  0  0  0  0  0  0  0
   -8.1470    3.7810  -77.6920 O   0  0  0  0  0  0  0  0  0  0  0  0
   -7.0010    3.7280  -76.8440 C   0  0  0  0  0  0  0  0  0  0  0  0
   -6.2280    2.5750  -76.8340 C   0  0  0  0  0  0  0  0  0  0  0  0
   -6.8300    1.7620  -77.5060 O   0  0  0  0  0  0  0  0  0  0  0  0
   -6.8640    2.0870  -78.8950 C   0  0  0  0  0  0  0  0  0  0  0  0
   -7.7840    1.4070  -79.6730 C   0  0  0  0  0  0  0  0  0  0  0  0
   -8.2870    0.2060  -79.2180 C   0  0  0  0  0  0  0  0  0  0  0  0
   -8.2300    1.8880  -80.9020 C   0  0  0  0  0  0  0  0  0  0  0  0
   -9.2790   -0.6380  -79.9260 C   0  0  0  0  0  0  0  0  0  0  0  0
   -9.1540    1.1740  -81.6440 C   0  0  0  0  0  0  0  0  0  0  0  0
   -9.7210   -0.0560  -81.2520 C   0  0  0  0  0  0  0  0  0  0  0  0
  2  1  1  1
  2  3  1  0
  2  4  1  0
  4  5  2  0
  4  6  1  0
  5  7  1  0
  6  8  2  0
  7  9  2  0
  8  9  1  0
  8 10  1  0
 10 11  1  0
 11 12  1  0
 12 13  1  0
 13 14  1  0
 14 15  1  0
 15 16  2  0
 15 17  1  0
 16 18  1  0
 17 19  2  0
 18 20  2  0
 19 20  1  0
M  END
>  <ref_url>  (263) 
https://fakepage.com

>  <submitter_name>  (263) 
Steph Wills

>  <submitter_email>  (263) 
stephanie.wills@dtc.ox.ac.uk

>  <submitter_institution>  (263) 
University of Oxford

>  <generation_date>  (263) 
2020-06-04

>  <method>  (263) 
Fragment network

>  <ref_mols>  (263) 
x0176_0B,x0212_0B

>  <ref_pdb>  (263) 
references/x0176-0B-x0212-0B-326633.holo_minimised_nolig.pdb

>  <original SMILES>  (263) 
CC(O)c1cccc(OCCOCc2ccccc2)c1

>  <synthon>  (263) 
[Xe]c1ccccc1

>  <original_name>  (263) 
x0176-0B-x0212-0B-326633

>  <comRMSD_score>  (263) 
0.7858164958928961

>  <IF_score>  (263) 
0.125

>  <SuCOS_score>  (263) 
0.4528635393636166

>  <compound_ID>  (263) 
CHEMSPACE-BB:CSMB00014805907, CHEMSPACE-BB:CSMB00014805937, CHEMSPACE-BB:CSMB00014805938

$$$$

     RDKit          3D

 25 26  0  0  0  0  0  0  0  0999 V2000
  -13.5930    5.8680  -76.3090 C   0  0  0  0  0  0  0  0  0  0  0  0
  -13.1130    5.1060  -77.5290 C   0  0  0  0  0  0  0  0  0  0  0  0
  -11.8890    4.3350  -77.1620 C   0  0  0  0  0  0  0  0  0  0  0  0
  -10.7090    4.4980  -77.8720 C   0  0  0  0  0  0  0  0  0  0  0  0
  -11.9390    3.4460  -76.0860 C   0  0  0  0  0  0  0  0  0  0  0  0
   -9.5840    3.7770  -77.5010 C   0  0  0  0  0  0  0  0  0  0  0  0
  -10.8100    2.7250  -75.7180 C   0  0  0  0  0  0  0  0  0  0  0  0
   -9.6400    2.8940  -76.4230 C   0  0  0  0  0  0  0  0  0  0  0  0
   -8.4770    2.2260  -76.1240 N   0  0  0  0  0  0  0  0  0  0  0  0
   -7.2910    2.5160  -76.6980 C   0  0  0  0  0  0  0  0  0  0  0  0
   -6.5260    3.4310  -76.4170 O   0  0  0  0  0  0  0  0  0  0  0  0
   -7.0480    1.5980  -77.6800 N   0  0  0  0  0  0  0  0  0  0  0  0
   -6.7180    1.9350  -79.0540 C   0  0  1  0  0  0  0  0  0  0  0  0
   -7.6880    1.2280  -79.9920 C   0  0  0  0  0  0  0  0  0  0  0  0
   -6.5390    3.4370  -79.2740 C   0  0  2  0  0  0  0  0  0  0  0  0
   -8.1470    1.7240  -81.2290 C   0  0  0  0  0  0  0  0  0  0  0  0
   -8.1560   -0.0320  -79.5800 C   0  0  0  0  0  0  0  0  0  0  0  0
   -7.7460    3.9880  -80.0160 C   0  0  0  0  0  0  0  0  0  0  0  0
   -5.2490    3.7180  -80.0300 C   0  0  0  0  0  0  0  0  0  0  0  0
   -9.0230    0.9790  -82.0030 C   0  0  0  0  0  0  0  0  0  0  0  0
   -9.0320   -0.7700  -80.3580 C   0  0  0  0  0  0  0  0  0  0  0  0
   -4.7160    2.9560  -80.8280 O   0  0  0  0  0  0  0  0  0  0  0  0
   -4.7480    4.9310  -79.6760 O   0  0  0  0  0  0  0  0  0  0  0  0
   -9.4650   -0.2670  -81.5700 C   0  0  0  0  0  0  0  0  0  0  0  0
   -4.3340    4.9440  -78.3130 C   0  0  0  0  0  0  0  0  0  0  0  0
  1  2  1  0
  2  3  1  0
  3  4  2  0
  3  5  1  0
  4  6  1  0
  5  7  2  0
  6  8  2  0
  7  8  1  0
  8  9  1  0
  9 10  1  0
 10 11  2  0
 10 12  1  0
 13 12  1  1
 13 14  1  0
 13 15  1  0
 14 16  2  0
 14 17  1  0
 15 18  1  6
 15 19  1  0
 16 20  1  0
 17 21  2  0
 19 22  2  0
 19 23  1  0
 20 24  2  0
 21 24  1  0
 23 25  1  0
M  END
>  <ref_url>  (264) 
https://fakepage.com

>  <submitter_name>  (264) 
Steph Wills

>  <submitter_email>  (264) 
stephanie.wills@dtc.ox.ac.uk

>  <submitter_institution>  (264) 
University of Oxford

>  <generation_date>  (264) 
2020-06-04

>  <method>  (264) 
Fragment network

>  <ref_mols>  (264) 
x0176_0B,x0212_0B

>  <ref_pdb>  (264) 
references/x0176-0B-x0212-0B-327465.holo_minimised_nolig.pdb

>  <original SMILES>  (264) 
CCc1ccc(NC(=O)NC(c2ccccc2)C(C)C(=O)OC)cc1

>  <synthon>  (264) 
[Xe]c1ccccc1

>  <original_name>  (264) 
x0176-0B-x0212-0B-327465

>  <comRMSD_score>  (264) 
0.6698843508235283

>  <IF_score>  (264) 
0.4

>  <SuCOS_score>  (264) 
0.5061904666158659

>  <compound_ID>  (264) 
REAL:Z1385628638

$$$$

     RDKit          3D

 19 20  0  0  0  0  0  0  0  0999 V2000
   -6.9310    0.9960  -76.8480 C   0  0  0  0  0  0  0  0  0  0  0  0
   -7.6020    1.9680  -77.5750 N   0  0  0  0  0  0  0  0  0  0  0  0
   -7.1830    2.1820  -78.9550 C   0  0  0  0  0  0  0  0  0  0  0  0
   -8.1540    3.1470  -77.0800 C   0  0  0  0  0  0  0  0  0  0  0  0
   -8.0170    1.4890  -79.8120 C   0  0  0  0  0  0  0  0  0  0  0  0
   -9.4730    3.3630  -76.7730 C   0  0  0  0  0  0  0  0  0  0  0  0
   -8.3990    1.9610  -81.0750 C   0  0  0  0  0  0  0  0  0  0  0  0
   -8.5290    0.2480  -79.4270 C   0  0  0  0  0  0  0  0  0  0  0  0
  -10.0390    4.3820  -77.5050 C   0  0  0  0  0  0  0  0  0  0  0  0
  -10.2280    2.6670  -75.8170 C   0  0  0  0  0  0  0  0  0  0  0  0
   -9.2440    1.2650  -81.9330 C   0  0  0  0  0  0  0  0  0  0  0  0
   -9.3700   -0.4550  -80.2660 C   0  0  0  0  0  0  0  0  0  0  0  0
  -11.3280    4.7810  -77.3380 C   0  0  0  0  0  0  0  0  0  0  0  0
  -11.5700    3.0270  -75.6030 C   0  0  0  0  0  0  0  0  0  0  0  0
   -9.7360    0.0300  -81.5040 C   0  0  0  0  0  0  0  0  0  0  0  0
  -12.1500    4.0770  -76.3360 C   0  0  0  0  0  0  0  0  0  0  0  0
  -13.5730    4.6050  -76.2240 C   0  0  0  0  0  0  0  0  0  0  0  0
  -13.3700    6.0870  -76.1190 C   0  0  0  0  0  0  0  0  0  0  0  0
  -12.6570    6.5020  -75.1240 N   0  0  0  0  0  0  0  0  0  0  0  0
  1  2  1  0
  2  3  1  0
  2  4  1  0
  3  5  1  0
  4  6  1  0
  5  7  2  0
  5  8  1  0
  6  9  2  0
  6 10  1  0
  7 11  1  0
  8 12  2  0
  9 13  1  0
 10 14  2  0
 11 15  2  0
 12 15  1  0
 13 16  2  0
 14 16  1  0
 16 17  1  0
 17 18  1  0
 18 19  1  0
M  END
>  <ref_url>  (265) 
https://fakepage.com

>  <submitter_name>  (265) 
Steph Wills

>  <submitter_email>  (265) 
stephanie.wills@dtc.ox.ac.uk

>  <submitter_institution>  (265) 
University of Oxford

>  <generation_date>  (265) 
2020-06-04

>  <method>  (265) 
Fragment network

>  <ref_mols>  (265) 
x0176_0B,x0212_0B

>  <ref_pdb>  (265) 
references/x0176-0B-x0212-0B-328276.holo_minimised_nolig.pdb

>  <original SMILES>  (265) 
CN(Cc1ccccc1)Cc1ccc(CCN)cc1

>  <synthon>  (265) 
[Xe]c1ccccc1

>  <original_name>  (265) 
x0176-0B-x0212-0B-328276

>  <comRMSD_score>  (265) 
0.857284480204791

>  <IF_score>  (265) 
0.675

>  <SuCOS_score>  (265) 
0.5355231384174717

>  <compound_ID>  (265) 
CHEMSPACE-BB:CSMB00012038306

$$$$

     RDKit          3D

 20 21  0  0  0  0  0  0  0  0999 V2000
  -13.6690    5.6890  -76.1540 C   0  0  0  0  0  0  0  0  0  0  0  0
  -13.0910    5.0670  -77.4200 C   0  0  2  0  0  0  0  0  0  0  0  0
  -14.0530    4.1660  -78.0580 N   0  0  0  0  0  0  0  0  0  0  0  0
  -11.7980    4.3620  -77.1340 C   0  0  0  0  0  0  0  0  0  0  0  0
  -11.7140    3.4300  -76.0890 C   0  0  0  0  0  0  0  0  0  0  0  0
  -10.6680    4.6240  -77.8930 C   0  0  0  0  0  0  0  0  0  0  0  0
  -10.5080    2.7780  -75.8230 C   0  0  0  0  0  0  0  0  0  0  0  0
   -9.4740    3.9790  -77.6320 C   0  0  0  0  0  0  0  0  0  0  0  0
   -9.3870    3.0600  -76.6030 C   0  0  0  0  0  0  0  0  0  0  0  0
   -8.2060    2.4080  -76.3250 N   0  0  0  0  0  0  0  0  0  0  0  0
   -7.0300    2.7480  -76.9210 C   0  0  0  0  0  0  0  0  0  0  0  0
   -6.3550    3.7420  -76.7050 O   0  0  0  0  0  0  0  0  0  0  0  0
   -6.6800    1.7850  -77.8380 N   0  0  0  0  0  0  0  0  0  0  0  0
   -6.2950    2.0950  -79.1970 C   0  0  0  0  0  0  0  0  0  0  0  0
   -7.0120    1.1480  -80.1160 C   0  0  0  0  0  0  0  0  0  0  0  0
   -7.4540   -0.1020  -79.6390 C   0  0  0  0  0  0  0  0  0  0  0  0
   -7.2800    1.4920  -81.4600 C   0  0  0  0  0  0  0  0  0  0  0  0
   -8.1460   -0.9770  -80.4740 C   0  0  0  0  0  0  0  0  0  0  0  0
   -7.9730    0.6030  -82.2940 C   0  0  0  0  0  0  0  0  0  0  0  0
   -8.4060   -0.6270  -81.7960 C   0  0  0  0  0  0  0  0  0  0  0  0
  2  1  1  1
  2  3  1  0
  2  4  1  0
  4  5  2  0
  4  6  1  0
  5  7  1  0
  6  8  2  0
  7  9  2  0
  8  9  1  0
  9 10  1  0
 10 11  1  0
 11 12  2  0
 11 13  1  0
 13 14  1  0
 14 15  1  0
 15 16  2  0
 15 17  1  0
 16 18  1  0
 17 19  2  0
 18 20  2  0
 19 20  1  0
M  END
>  <ref_url>  (266) 
https://fakepage.com

>  <submitter_name>  (266) 
Steph Wills

>  <submitter_email>  (266) 
stephanie.wills@dtc.ox.ac.uk

>  <submitter_institution>  (266) 
University of Oxford

>  <generation_date>  (266) 
2020-06-04

>  <method>  (266) 
Fragment network

>  <ref_mols>  (266) 
x0176_0B,x0212_0B

>  <ref_pdb>  (266) 
references/x0176-0B-x0212-0B-328452.holo_minimised_nolig.pdb

>  <original SMILES>  (266) 
CC(N)c1ccc(NC(=O)NCc2ccccc2)cc1

>  <synthon>  (266) 
[Xe]c1ccccc1

>  <original_name>  (266) 
x0176-0B-x0212-0B-328452

>  <comRMSD_score>  (266) 
0.9177281969506328

>  <IF_score>  (266) 
0.1875

>  <SuCOS_score>  (266) 
0.4107481921803141

>  <compound_ID>  (266) 
CHEMSPACE-BB:CSMB00011458252, CHEMSPACE-BB:CSMB00117313287, CHEMSPACE-BB:CSMB00117313436

$$$$

     RDKit          3D

 21 22  0  0  0  0  0  0  0  0999 V2000
   -5.4910    3.0610  -77.4620 C   0  0  0  0  0  0  0  0  0  0  0  0
   -6.7250    2.4180  -77.8940 N   0  0  0  0  0  0  0  0  0  0  0  0
   -7.8650    2.8330  -77.0840 C   0  0  0  0  0  0  0  0  0  0  0  0
   -6.9500    2.6230  -79.3340 C   0  0  0  0  0  0  0  0  0  0  0  0
   -9.1590    2.0320  -77.3010 C   0  0  0  0  0  0  0  0  0  0  0  0
   -7.8850    1.6750  -80.0470 C   0  0  0  0  0  0  0  0  0  0  0  0
   -9.4650    1.0570  -76.1300 C   0  0  0  0  0  0  0  0  0  0  0  0
   -8.4610    2.0640  -81.2530 C   0  0  0  0  0  0  0  0  0  0  0  0
   -8.1980    0.4030  -79.5320 C   0  0  0  0  0  0  0  0  0  0  0  0
  -10.3420    1.7950  -75.3100 O   0  0  0  0  0  0  0  0  0  0  0  0
   -9.3230    1.2190  -81.9300 C   0  0  0  0  0  0  0  0  0  0  0  0
   -9.0690   -0.4450  -80.2170 C   0  0  0  0  0  0  0  0  0  0  0  0
  -10.5430    2.8560  -76.0820 C   0  0  0  0  0  0  0  0  0  0  0  0
   -9.6330   -0.0340  -81.4190 C   0  0  0  0  0  0  0  0  0  0  0  0
   -9.5570    3.2640  -76.9600 C   0  0  0  0  0  0  0  0  0  0  0  0
  -11.7490    3.5270  -76.0110 C   0  0  0  0  0  0  0  0  0  0  0  0
   -9.7540    4.3370  -77.7900 C   0  0  0  0  0  0  0  0  0  0  0  0
  -11.9560    4.6230  -76.8520 C   0  0  0  0  0  0  0  0  0  0  0  0
  -10.9480    5.0090  -77.7300 C   0  0  0  0  0  0  0  0  0  0  0  0
  -13.2390    5.3820  -76.8390 C   0  0  0  0  0  0  0  0  0  0  0  0
  -13.1110    6.5660  -76.0210 N   0  0  0  0  0  0  0  0  0  0  0  0
  1  2  1  0
  2  3  1  0
  2  4  1  0
  3  5  1  0
  4  6  1  0
  5  7  1  0
  6  8  2  0
  6  9  1  0
  7 10  1  0
  8 11  1  0
  9 12  2  0
 10 13  1  0
 11 14  2  0
 12 14  1  0
 13 15  2  0
 13 16  1  0
 15 17  1  0
 16 18  2  0
 17 19  2  0
 18 19  1  0
 18 20  1  0
 20 21  1  0
M  END
>  <ref_url>  (267) 
https://fakepage.com

>  <submitter_name>  (267) 
Steph Wills

>  <submitter_email>  (267) 
stephanie.wills@dtc.ox.ac.uk

>  <submitter_institution>  (267) 
University of Oxford

>  <generation_date>  (267) 
2020-06-04

>  <method>  (267) 
Fragment network

>  <ref_mols>  (267) 
x0176_0B,x0212_0B

>  <ref_pdb>  (267) 
references/x0176-0B-x0212-0B-332518.holo_minimised_nolig.pdb

>  <original SMILES>  (267) 
CN(CCCOc1cccc(CN)c1)Cc1ccccc1

>  <synthon>  (267) 
[Xe]c1ccccc1

>  <original_name>  (267) 
x0176-0B-x0212-0B-332518

>  <comRMSD_score>  (267) 
0.8573095681562012

>  <IF_score>  (267) 
0.9

>  <SuCOS_score>  (267) 
0.5154853339140552

>  <compound_ID>  (267) 
CHEMSPACE-BB:CSMB00011280571

$$$$

     RDKit          3D

 24 25  0  0  0  0  0  0  0  0999 V2000
  -13.5700    6.0160  -76.2400 C   0  0  0  0  0  0  0  0  0  0  0  0
  -13.2230    5.0150  -77.3390 C   0  0  0  0  0  0  0  0  0  0  0  0
  -11.8790    4.3310  -77.0180 C   0  0  0  0  0  0  0  0  0  0  0  0
  -11.7590    3.3260  -75.9070 C   0  0  0  0  0  0  0  0  0  0  0  0
  -10.7550    4.6520  -77.7660 C   0  0  0  0  0  0  0  0  0  0  0  0
  -10.5210    2.7420  -75.6560 C   0  0  0  0  0  0  0  0  0  0  0  0
   -9.5300    4.0600  -77.5030 C   0  0  0  0  0  0  0  0  0  0  0  0
   -9.3750    3.1300  -76.4850 C   0  0  0  0  0  0  0  0  0  0  0  0
   -8.1180    2.6020  -76.3000 N   0  0  0  0  0  0  0  0  0  0  0  0
   -7.2070    2.8530  -77.3980 C   0  0  0  0  0  0  0  0  0  0  0  0
   -6.8040    3.9110  -77.8360 O   0  0  0  0  0  0  0  0  0  0  0  0
   -6.8010    1.6230  -77.9450 N   0  0  0  0  0  0  0  0  0  0  0  0
   -6.4370    1.6300  -79.3640 C   0  0  2  0  0  0  0  0  0  0  0  0
   -7.1530    0.8630  -80.2460 C   0  0  0  0  0  0  0  0  0  0  0  0
   -5.0100    1.0720  -79.5130 C   0  0  1  0  0  0  0  0  0  0  0  0
   -7.4590    1.3760  -81.6370 C   0  0  0  0  0  0  0  0  0  0  0  0
   -7.6130   -0.4160  -79.8310 C   0  0  0  0  0  0  0  0  0  0  0  0
   -4.9030    0.0270  -78.5350 O   0  0  0  0  0  0  0  0  0  0  0  0
   -4.8380    0.3880  -80.8550 C   0  0  0  0  0  0  0  0  0  0  0  0
   -8.1880    0.5380  -82.4520 C   0  0  0  0  0  0  0  0  0  0  0  0
   -8.3550   -1.2420  -80.6810 C   0  0  0  0  0  0  0  0  0  0  0  0
   -4.7290    1.2790  -81.9250 C   0  0  0  0  0  0  0  0  0  0  0  0
   -3.5010   -0.3750  -80.8180 C   0  0  0  0  0  0  0  0  0  0  0  0
   -8.6040   -0.7280  -81.9440 C   0  0  0  0  0  0  0  0  0  0  0  0
  1  2  1  0
  2  3  1  0
  3  4  2  0
  3  5  1  0
  4  6  1  0
  5  7  2  0
  6  8  2  0
  7  8  1  0
  8  9  1  0
  9 10  1  0
 10 11  2  0
 10 12  1  0
 13 12  1  1
 13 14  1  0
 13 15  1  0
 14 16  2  0
 14 17  1  0
 15 18  1  1
 15 19  1  0
 16 20  1  0
 17 21  2  0
 19 22  1  0
 19 23  1  0
 20 24  2  0
 21 24  1  0
M  END
>  <ref_url>  (268) 
https://fakepage.com

>  <submitter_name>  (268) 
Steph Wills

>  <submitter_email>  (268) 
stephanie.wills@dtc.ox.ac.uk

>  <submitter_institution>  (268) 
University of Oxford

>  <generation_date>  (268) 
2020-06-04

>  <method>  (268) 
Fragment network

>  <ref_mols>  (268) 
x0176_0B,x0212_0B

>  <ref_pdb>  (268) 
references/x0176-0B-x0212-0B-332640.holo_minimised_nolig.pdb

>  <original SMILES>  (268) 
CCc1ccc(NC(=O)NC(c2ccccc2)C(O)C(C)C)cc1

>  <synthon>  (268) 
[Xe]c1ccccc1

>  <original_name>  (268) 
x0176-0B-x0212-0B-332640

>  <comRMSD_score>  (268) 
0.8959465240253139

>  <IF_score>  (268) 
0.3095238095238095

>  <SuCOS_score>  (268) 
0.4310002072504323

>  <compound_ID>  (268) 
REAL:PV-001941295660

$$$$

     RDKit          3D

 19 20  0  0  0  0  0  0  0  0999 V2000
  -14.3390    5.5840  -77.2290 N   0  0  0  0  0  0  0  0  0  0  0  0
  -13.1320    4.9690  -77.1260 C   0  0  0  0  0  0  0  0  0  0  0  0
  -11.7740    4.3200  -77.0430 C   0  0  0  0  0  0  0  0  0  0  0  0
  -11.5140    3.3630  -75.9150 C   0  0  0  0  0  0  0  0  0  0  0  0
  -10.7970    4.5970  -77.9750 C   0  0  0  0  0  0  0  0  0  0  0  0
  -10.2490    2.7700  -75.8500 C   0  0  0  0  0  0  0  0  0  0  0  0
   -9.5740    3.9920  -77.8660 C   0  0  0  0  0  0  0  0  0  0  0  0
   -9.3180    3.1110  -76.8350 C   0  0  0  0  0  0  0  0  0  0  0  0
   -7.6910    2.4840  -76.9230 S   0  0  0  0  0  0  0  0  0  0  0  0
   -7.7850    1.0450  -76.8140 O   0  0  0  0  0  0  0  0  0  0  0  0
   -6.8900    3.2800  -76.0220 O   0  0  0  0  0  0  0  0  0  0  0  0
   -7.3820    2.8660  -78.2830 O   0  0  0  0  0  0  0  0  0  0  0  0
   -6.6420    1.9620  -79.0280 C   0  0  0  0  0  0  0  0  0  0  0  0
   -7.2400    1.1240  -79.9740 C   0  0  0  0  0  0  0  0  0  0  0  0
   -7.4780    1.6260  -81.3980 C   0  0  0  0  0  0  0  0  0  0  0  0
   -7.6090   -0.1810  -79.6080 C   0  0  0  0  0  0  0  0  0  0  0  0
   -8.1090    0.6460  -82.3960 C   0  0  0  0  0  0  0  0  0  0  0  0
   -8.1920   -1.0720  -80.5180 C   0  0  0  0  0  0  0  0  0  0  0  0
   -8.4410   -0.7230  -81.8450 C   0  0  0  0  0  0  0  0  0  0  0  0
  1  2  3  0
  2  3  1  0
  3  4  2  0
  3  5  1  0
  4  6  1  0
  5  7  2  0
  6  8  2  0
  7  8  1  0
  8  9  1  0
  9 10  2  0
  9 11  2  0
  9 12  1  0
 12 13  1  0
 13 14  1  0
 14 15  2  0
 14 16  1  0
 15 17  1  0
 16 18  2  0
 17 19  2  0
 18 19  1  0
M  END
>  <ref_url>  (269) 
https://fakepage.com

>  <submitter_name>  (269) 
Steph Wills

>  <submitter_email>  (269) 
stephanie.wills@dtc.ox.ac.uk

>  <submitter_institution>  (269) 
University of Oxford

>  <generation_date>  (269) 
2020-06-04

>  <method>  (269) 
Fragment network

>  <ref_mols>  (269) 
x0176_0B,x0212_0B

>  <ref_pdb>  (269) 
references/x0176-0B-x0212-0B-333186.holo_minimised_nolig.pdb

>  <original SMILES>  (269) 
N#Cc1ccc(S(=O)(=O)OCc2ccccc2)cc1

>  <synthon>  (269) 
[Xe]c1ccccc1

>  <original_name>  (269) 
x0176-0B-x0212-0B-333186

>  <comRMSD_score>  (269) 
0.9437292321616202

>  <IF_score>  (269) 
0.3125

>  <SuCOS_score>  (269) 
0.4016484485282309

>  <compound_ID>  (269) 
CHEMSPACE-BB:CSMB00114033487

$$$$

     RDKit          3D

 20 21  0  0  0  0  0  0  0  0999 V2000
   -6.1160    4.4840  -76.0090 C   0  0  0  0  0  0  0  0  0  0  0  0
   -6.1520    3.1680  -76.7950 C   0  0  0  0  0  0  0  0  0  0  0  0
   -7.3490    3.0830  -77.6470 N   0  0  0  0  0  0  0  0  0  0  0  0
   -6.9950    2.7560  -79.0500 C   0  0  0  0  0  0  0  0  0  0  0  0
   -8.2990    2.3460  -77.0250 C   0  0  0  0  0  0  0  0  0  0  0  0
   -7.8620    1.7710  -79.8230 C   0  0  0  0  0  0  0  0  0  0  0  0
   -9.5270    2.9430  -76.9280 C   0  0  0  0  0  0  0  0  0  0  0  0
   -8.2400    0.5270  -79.2930 C   0  0  0  0  0  0  0  0  0  0  0  0
   -8.2970    2.1060  -81.1050 C   0  0  0  0  0  0  0  0  0  0  0  0
   -9.8370    4.0000  -77.7940 C   0  0  0  0  0  0  0  0  0  0  0  0
  -10.5320    2.5810  -76.0370 C   0  0  0  0  0  0  0  0  0  0  0  0
   -9.0810   -0.4000  -80.0700 C   0  0  0  0  0  0  0  0  0  0  0  0
   -9.0850    1.2400  -81.8440 C   0  0  0  0  0  0  0  0  0  0  0  0
  -11.0000    4.7080  -77.8770 C   0  0  0  0  0  0  0  0  0  0  0  0
  -11.7590    3.2740  -76.0780 C   0  0  0  0  0  0  0  0  0  0  0  0
   -9.4810    0.0030  -81.3410 C   0  0  0  0  0  0  0  0  0  0  0  0
  -11.9930    4.3360  -77.0040 C   0  0  0  0  0  0  0  0  0  0  0  0
  -13.1990    5.0060  -77.0490 C   0  0  1  0  0  0  0  0  0  0  0  0
  -13.4050    5.7840  -75.7850 C   0  0  0  0  0  0  0  0  0  0  0  0
  -13.3160    5.8100  -78.1870 N   0  0  0  0  0  0  0  0  0  0  0  0
  1  2  1  0
  2  3  1  0
  3  4  1  0
  3  5  1  0
  4  6  1  0
  5  7  1  0
  6  8  2  0
  6  9  1  0
  7 10  2  0
  7 11  1  0
  8 12  1  0
  9 13  2  0
 10 14  1  0
 11 15  2  0
 12 16  2  0
 13 16  1  0
 14 17  2  0
 15 17  1  0
 17 18  1  0
 18 19  1  1
 18 20  1  0
M  END
>  <ref_url>  (270) 
https://fakepage.com

>  <submitter_name>  (270) 
Steph Wills

>  <submitter_email>  (270) 
stephanie.wills@dtc.ox.ac.uk

>  <submitter_institution>  (270) 
University of Oxford

>  <generation_date>  (270) 
2020-06-04

>  <method>  (270) 
Fragment network

>  <ref_mols>  (270) 
x0176_0B,x0212_0B

>  <ref_pdb>  (270) 
references/x0176-0B-x0212-0B-333356.holo_minimised_nolig.pdb

>  <original SMILES>  (270) 
CCN(Cc1ccccc1)Cc1ccc(C(C)N)cc1

>  <synthon>  (270) 
[Xe]c1ccccc1

>  <original_name>  (270) 
x0176-0B-x0212-0B-333356

>  <comRMSD_score>  (270) 
0.995758461196026

>  <IF_score>  (270) 
0.25

>  <SuCOS_score>  (270) 
0.5172568623716481

>  <compound_ID>  (270) 
CHEMSPACE-BB:CSMB00010092798

$$$$

     RDKit          3D

 24 25  0  0  0  0  0  0  0  0999 V2000
  -12.6580    6.2520  -73.8530 C   0  0  0  0  0  0  0  0  0  0  0  0
  -12.7600    6.3080  -75.0860 O   0  0  0  0  0  0  0  0  0  0  0  0
  -13.7660    5.4940  -75.7480 C   0  0  0  0  0  0  0  0  0  0  0  0
  -14.8820    5.2510  -75.3170 O   0  0  0  0  0  0  0  0  0  0  0  0
  -13.2410    4.9780  -77.0640 C   0  0  0  0  0  0  0  0  0  0  0  0
  -13.9810    4.7050  -78.2290 C   0  0  0  0  0  0  0  0  0  0  0  0
  -13.1130    5.9070  -78.2180 C   0  0  0  0  0  0  0  0  0  0  0  0
  -11.8830    4.3270  -76.8780 C   0  0  0  0  0  0  0  0  0  0  0  0
  -10.8140    4.5780  -77.7270 C   0  0  0  0  0  0  0  0  0  0  0  0
  -11.7270    3.4520  -75.7910 C   0  0  0  0  0  0  0  0  0  0  0  0
   -9.5040    3.8850  -77.4130 C   0  0  0  0  0  0  0  0  0  0  0  0
  -10.5150    2.8190  -75.5180 C   0  0  0  0  0  0  0  0  0  0  0  0
   -9.4160    3.0480  -76.3250 C   0  0  0  0  0  0  0  0  0  0  0  0
   -8.0920    2.4910  -76.1730 N   0  0  0  0  0  0  0  0  0  0  0  0
   -7.4430    1.7970  -77.2410 C   0  0  0  0  0  0  0  0  0  0  0  0
   -7.0740    0.6370  -77.2440 O   0  0  0  0  0  0  0  0  0  0  0  0
   -7.2400    2.5710  -78.3470 N   0  0  0  0  0  0  0  0  0  0  0  0
   -6.4010    2.1750  -79.4760 C   0  0  0  0  0  0  0  0  0  0  0  0
   -7.0630    1.2220  -80.2450 C   0  0  0  0  0  0  0  0  0  0  0  0
   -7.3830   -0.0440  -79.7390 C   0  0  0  0  0  0  0  0  0  0  0  0
   -7.4160    1.5450  -81.5480 C   0  0  0  0  0  0  0  0  0  0  0  0
   -8.0490   -0.9770  -80.5400 C   0  0  0  0  0  0  0  0  0  0  0  0
   -8.0740    0.6100  -82.3540 C   0  0  0  0  0  0  0  0  0  0  0  0
   -8.3920   -0.6500  -81.8470 C   0  0  0  0  0  0  0  0  0  0  0  0
  1  2  1  0
  2  3  1  0
  3  4  2  0
  5  3  1  0
  5  6  1  0
  5  7  1  0
  5  8  1  0
  8  9  2  0
  8 10  1  0
  9 11  1  0
 10 12  2  0
 11 13  2  0
 12 13  1  0
 13 14  1  0
 14 15  1  0
 15 16  2  0
 15 17  1  0
 17 18  1  0
 18 19  1  0
 19 20  2  0
 19 21  1  0
 20 22  1  0
 21 23  2  0
 22 24  2  0
 23 24  1  0
M  END
>  <ref_url>  (271) 
https://fakepage.com

>  <submitter_name>  (271) 
Steph Wills

>  <submitter_email>  (271) 
stephanie.wills@dtc.ox.ac.uk

>  <submitter_institution>  (271) 
University of Oxford

>  <generation_date>  (271) 
2020-06-04

>  <method>  (271) 
Fragment network

>  <ref_mols>  (271) 
x0176_0B,x0212_0B

>  <ref_pdb>  (271) 
references/x0176-0B-x0212-0B-333463.holo_minimised_nolig.pdb

>  <original SMILES>  (271) 
COC(=O)C(C)(C)c1ccc(NC(=O)NCc2ccccc2)cc1

>  <synthon>  (271) 
[Xe]c1ccccc1

>  <original_name>  (271) 
x0176-0B-x0212-0B-333463

>  <comRMSD_score>  (271) 
0.8363087105006494

>  <IF_score>  (271) 
0.2142857142857142

>  <SuCOS_score>  (271) 
0.4827244601544848

>  <compound_ID>  (271) 
REAL:Z1278144011

$$$$

     RDKit          3D

 22 23  0  0  0  0  0  0  0  0999 V2000
  -10.6950    0.1680  -77.4440 C   0  0  0  0  0  0  0  0  0  0  0  0
  -11.7890    0.7810  -78.3230 C   0  0  2  0  0  0  0  0  0  0  0  0
  -12.9030    1.3130  -77.3280 C   0  0  0  0  0  0  0  0  0  0  0  0
  -12.3090   -0.2400  -79.4090 C   0  0  0  0  0  0  0  0  0  0  0  0
  -13.3060    2.5110  -77.4770 O   0  0  0  0  0  0  0  0  0  0  0  0
  -11.3510   -0.5360  -80.5500 N   0  0  0  0  0  0  0  0  0  0  0  0
  -12.5670    3.5760  -76.8120 C   0  0  0  0  0  0  0  0  0  0  0  0
  -11.5160   -1.9360  -80.9660 C   0  0  0  0  0  0  0  0  0  0  0  0
  -10.0930    0.2060  -80.4880 C   0  0  0  0  0  0  0  0  0  0  0  0
  -11.2080    3.4030  -76.8040 C   0  0  0  0  0  0  0  0  0  0  0  0
   -9.3460   -0.0880  -79.3720 C   0  0  0  0  0  0  0  0  0  0  0  0
   -9.6140    1.1580  -81.4100 C   0  0  0  0  0  0  0  0  0  0  0  0
  -10.2740    4.1090  -77.6960 C   0  0  0  0  0  0  0  0  0  0  0  0
  -10.7410    2.4810  -75.8970 C   0  0  0  0  0  0  0  0  0  0  0  0
   -8.1670    0.5600  -79.1290 C   0  0  0  0  0  0  0  0  0  0  0  0
   -8.4140    1.8390  -81.1790 C   0  0  0  0  0  0  0  0  0  0  0  0
   -8.9190    3.7900  -77.5780 C   0  0  0  0  0  0  0  0  0  0  0  0
   -9.4000    2.2060  -75.8220 C   0  0  0  0  0  0  0  0  0  0  0  0
   -7.6290    1.6060  -80.0470 C   0  0  0  0  0  0  0  0  0  0  0  0
   -8.4920    2.8480  -76.6480 C   0  0  0  0  0  0  0  0  0  0  0  0
   -6.4440    2.2690  -79.7460 C   0  0  0  0  0  0  0  0  0  0  0  0
   -6.5440    2.6130  -78.3260 N   0  0  0  0  0  0  0  0  0  0  0  0
  2  1  1  1
  2  3  1  0
  2  4  1  0
  3  5  1  0
  4  6  1  0
  5  7  1  0
  6  8  1  0
  6  9  1  0
  7 10  1  0
  9 11  2  0
  9 12  1  0
 10 13  2  0
 10 14  1  0
 11 15  1  0
 12 16  2  0
 13 17  1  0
 14 18  2  0
 15 19  2  0
 16 19  1  0
 17 20  2  0
 18 20  1  0
 19 21  1  0
 21 22  1  0
M  END
>  <ref_url>  (272) 
https://fakepage.com

>  <submitter_name>  (272) 
Steph Wills

>  <submitter_email>  (272) 
stephanie.wills@dtc.ox.ac.uk

>  <submitter_institution>  (272) 
University of Oxford

>  <generation_date>  (272) 
2020-06-04

>  <method>  (272) 
Fragment network

>  <ref_mols>  (272) 
x0176_0B,x0212_0B

>  <ref_pdb>  (272) 
references/x0176-0B-x0212-0B-333764.holo_minimised_nolig.pdb

>  <original SMILES>  (272) 
CC(COCc1ccccc1)CN(C)c1ccc(CN)cc1

>  <synthon>  (272) 
[Xe]c1ccccc1

>  <original_name>  (272) 
x0176-0B-x0212-0B-333764

>  <comRMSD_score>  (272) 
0.9716766437452315

>  <IF_score>  (272) 
0.55

>  <SuCOS_score>  (272) 
0.3978815830598305

>  <compound_ID>  (272) 
CHEMSPACE-BB:CSMB00028881770

$$$$

     RDKit          3D

 23 24  0  0  0  0  0  0  0  0999 V2000
  -13.5410    5.6940  -75.7550 C   0  0  0  0  0  0  0  0  0  0  0  0
  -13.0440    5.2340  -77.0910 C   0  0  0  0  0  0  0  0  0  0  0  0
  -14.0870    4.5120  -77.9020 C   0  0  0  0  0  0  0  0  0  0  0  0
  -11.7640    4.4370  -76.8980 C   0  0  0  0  0  0  0  0  0  0  0  0
  -10.6970    4.8620  -77.5940 C   0  0  0  0  0  0  0  0  0  0  0  0
  -11.5830    3.3330  -76.0850 C   0  0  0  0  0  0  0  0  0  0  0  0
   -9.4840    4.2220  -77.5010 C   0  0  0  0  0  0  0  0  0  0  0  0
  -10.3290    2.7050  -76.0150 C   0  0  0  0  0  0  0  0  0  0  0  0
   -9.1680    3.1120  -76.7330 C   0  0  0  0  0  0  0  0  0  0  0  0
   -8.3980    2.3580  -76.4040 N   0  0  0  0  0  0  0  0  0  0  0  0
   -7.1250    2.5630  -76.8100 C   0  0  0  0  0  0  0  0  0  0  0  0
   -6.3670    3.4340  -76.4050 O   0  0  0  0  0  0  0  0  0  0  0  0
   -6.7680    1.6260  -77.7790 N   0  0  0  0  0  0  0  0  0  0  0  0
   -6.4520    2.0560  -79.1640 C   0  0  1  0  0  0  0  0  0  0  0  0
   -6.7090    3.5250  -79.4290 C   0  0  0  0  0  0  0  0  0  0  0  0
   -4.9630    1.7800  -79.3770 C   0  0  0  0  0  0  0  0  0  0  0  0
   -7.2110    1.0980  -80.1070 C   0  0  0  0  0  0  0  0  0  0  0  0
   -4.6280    1.9810  -80.5410 O   0  0  0  0  0  0  0  0  0  0  0  0
   -7.5200    1.4380  -81.4200 C   0  0  0  0  0  0  0  0  0  0  0  0
   -7.6240   -0.1540  -79.6340 C   0  0  0  0  0  0  0  0  0  0  0  0
   -8.2110    0.5650  -82.2410 C   0  0  0  0  0  0  0  0  0  0  0  0
   -8.3260   -1.0370  -80.4660 C   0  0  0  0  0  0  0  0  0  0  0  0
   -8.6220   -0.6740  -81.7780 C   0  0  0  0  0  0  0  0  0  0  0  0
  1  2  1  0
  2  3  1  0
  2  4  1  0
  4  5  2  0
  4  6  1  0
  5  7  1  0
  6  8  2  0
  7  9  2  0
  8  9  1  0
  9 10  1  0
 10 11  1  0
 11 12  2  0
 11 13  1  0
 14 13  1  0
 14 15  1  1
 14 16  1  0
 14 17  1  0
 16 18  1  0
 17 19  2  0
 17 20  1  0
 19 21  1  0
 20 22  2  0
 21 23  2  0
 22 23  1  0
M  END
>  <ref_url>  (273) 
https://fakepage.com

>  <submitter_name>  (273) 
Steph Wills

>  <submitter_email>  (273) 
stephanie.wills@dtc.ox.ac.uk

>  <submitter_institution>  (273) 
University of Oxford

>  <generation_date>  (273) 
2020-06-04

>  <method>  (273) 
Fragment network

>  <ref_mols>  (273) 
x0176_0B,x0212_0B

>  <ref_pdb>  (273) 
references/x0176-0B-x0212-0B-334434.holo_minimised_nolig.pdb

>  <original SMILES>  (273) 
CC(C)c1ccc(NC(=O)NC(C)(CO)c2ccccc2)cc1

>  <synthon>  (273) 
[Xe]c1ccccc1

>  <original_name>  (273) 
x0176-0B-x0212-0B-334434

>  <comRMSD_score>  (273) 
0.9186335640504318

>  <IF_score>  (273) 
0.5

>  <SuCOS_score>  (273) 
0.4486505874373514

>  <compound_ID>  (273) 
REAL:Z1230254492

$$$$

     RDKit          3D

 24 25  0  0  0  0  0  0  0  0999 V2000
  -12.9550    5.8280  -78.1990 C   0  0  0  0  0  0  0  0  0  0  0  0
  -13.1020    4.8110  -77.1170 C   0  0  0  0  0  0  0  0  0  0  0  0
  -13.5420    5.4720  -75.8520 C   0  0  0  0  0  0  0  0  0  0  0  0
  -11.8170    4.0260  -76.8860 C   0  0  0  0  0  0  0  0  0  0  0  0
  -11.8100    3.0250  -75.9560 C   0  0  0  0  0  0  0  0  0  0  0  0
  -10.6470    4.2630  -77.5590 C   0  0  0  0  0  0  0  0  0  0  0  0
  -10.6700    2.2820  -75.7070 C   0  0  0  0  0  0  0  0  0  0  0  0
   -9.5160    3.4950  -77.2820 C   0  0  0  0  0  0  0  0  0  0  0  0
   -9.4190    2.4300  -76.3320 C   0  0  0  0  0  0  0  0  0  0  0  0
   -8.3190    2.1310  -76.4830 N   0  0  0  0  0  0  0  0  0  0  0  0
   -7.3340    2.9150  -76.9660 C   0  0  0  0  0  0  0  0  0  0  0  0
   -6.5900    3.6270  -76.3060 O   0  0  0  0  0  0  0  0  0  0  0  0
   -7.2850    2.7980  -78.3540 N   0  0  0  0  0  0  0  0  0  0  0  0
   -6.2840    1.9180  -78.9930 C   0  0  2  0  0  0  0  0  0  0  0  0
   -5.1410    2.6480  -79.6740 C   0  0  0  0  0  0  0  0  0  0  0  0
   -7.0380    1.0280  -79.9850 C   0  0  0  0  0  0  0  0  0  0  0  0
   -5.3870    4.0250  -79.7710 C   0  0  0  0  0  0  0  0  0  0  0  0
   -7.5360   -0.2050  -79.5380 C   0  0  0  0  0  0  0  0  0  0  0  0
   -7.2520    1.4390  -81.3350 C   0  0  0  0  0  0  0  0  0  0  0  0
   -6.7340    4.3090  -79.9150 C   0  0  0  0  0  0  0  0  0  0  0  0
   -8.2400   -1.0430  -80.3940 C   0  0  0  0  0  0  0  0  0  0  0  0
   -7.9610    0.6100  -82.2390 C   0  0  0  0  0  0  0  0  0  0  0  0
   -7.8770    4.4620  -79.9890 N   0  0  0  0  0  0  0  0  0  0  0  0
   -8.4630   -0.6170  -81.8150 C   0  0  0  0  0  0  0  0  0  0  0  0
  1  2  1  0
  2  3  1  0
  2  4  1  0
  4  5  2  0
  4  6  1  0
  5  7  1  0
  6  8  2  0
  7  9  2  0
  8  9  1  0
  9 10  1  0
 10 11  1  0
 11 12  2  0
 11 13  1  0
 13 14  1  0
 14 15  1  6
 14 16  1  0
 15 17  1  0
 16 18  2  0
 16 19  1  0
 17 20  1  0
 18 21  1  0
 19 22  2  0
 20 23  3  0
 21 24  2  0
 22 24  1  0
M  END
>  <ref_url>  (274) 
https://fakepage.com

>  <submitter_name>  (274) 
Steph Wills

>  <submitter_email>  (274) 
stephanie.wills@dtc.ox.ac.uk

>  <submitter_institution>  (274) 
University of Oxford

>  <generation_date>  (274) 
2020-06-04

>  <method>  (274) 
Fragment network

>  <ref_mols>  (274) 
x0176_0B,x0212_0B

>  <ref_pdb>  (274) 
references/x0176-0B-x0212-0B-337102.holo_minimised_nolig.pdb

>  <original SMILES>  (274) 
CC(C)c1ccc(NC(=O)NC(CCC#N)c2ccccc2)cc1

>  <synthon>  (274) 
[Xe]c1ccccc1

>  <original_name>  (274) 
x0176-0B-x0212-0B-337102

>  <comRMSD_score>  (274) 
0.9604772468240292

>  <IF_score>  (274) 
0.25

>  <SuCOS_score>  (274) 
0.4549630608890906

>  <compound_ID>  (274) 
REAL:Z1487502313

$$$$

     RDKit          3D

 22 23  0  0  0  0  0  0  0  0999 V2000
  -12.6080    6.3700  -73.6420 C   0  0  0  0  0  0  0  0  0  0  0  0
  -13.0440    6.7220  -75.0630 C   0  0  0  0  0  0  0  0  0  0  0  0
  -13.4970    5.5740  -75.7830 O   0  0  0  0  0  0  0  0  0  0  0  0
  -12.9190    5.4390  -76.9860 C   0  0  0  0  0  0  0  0  0  0  0  0
  -13.3170    5.9380  -78.0210 O   0  0  0  0  0  0  0  0  0  0  0  0
  -11.6620    4.5570  -76.8520 C   0  0  0  0  0  0  0  0  0  0  0  0
  -11.6550    3.5440  -75.7550 C   0  0  0  0  0  0  0  0  0  0  0  0
  -10.5730    4.6710  -77.6920 C   0  0  0  0  0  0  0  0  0  0  0  0
  -10.5340    2.7380  -75.6110 C   0  0  0  0  0  0  0  0  0  0  0  0
   -9.4750    3.8330  -77.4990 C   0  0  0  0  0  0  0  0  0  0  0  0
   -9.4430    2.8710  -76.4650 C   0  0  0  0  0  0  0  0  0  0  0  0
   -8.5040    2.1300  -76.2640 O   0  0  0  0  0  0  0  0  0  0  0  0
   -7.5800    2.0390  -77.3360 C   0  0  0  0  0  0  0  0  0  0  0  0
   -6.7390    3.2500  -77.6880 C   0  0  0  0  0  0  0  0  0  0  0  0
   -6.9490    3.4190  -78.8840 O   0  0  0  0  0  0  0  0  0  0  0  0
   -6.6580    2.2670  -79.6760 C   0  0  0  0  0  0  0  0  0  0  0  0
   -7.7060    1.5290  -80.2490 C   0  0  0  0  0  0  0  0  0  0  0  0
   -8.1420    0.1980  -79.6990 C   0  0  0  0  0  0  0  0  0  0  0  0
   -8.3640    2.0250  -81.3560 C   0  0  0  0  0  0  0  0  0  0  0  0
   -9.1870   -0.4890  -80.3220 C   0  0  0  0  0  0  0  0  0  0  0  0
   -9.3920    1.3000  -81.9370 C   0  0  0  0  0  0  0  0  0  0  0  0
   -9.8060    0.0650  -81.4360 C   0  0  0  0  0  0  0  0  0  0  0  0
  1  2  1  0
  2  3  1  0
  3  4  1  0
  4  5  2  0
  4  6  1  0
  6  7  2  0
  6  8  1  0
  7  9  1  0
  8 10  2  0
  9 11  2  0
 10 11  1  0
 11 12  1  0
 12 13  1  0
 13 14  1  0
 14 15  1  0
 15 16  1  0
 16 17  1  0
 17 18  2  0
 17 19  1  0
 18 20  1  0
 19 21  2  0
 20 22  2  0
 21 22  1  0
M  END
>  <ref_url>  (275) 
https://fakepage.com

>  <submitter_name>  (275) 
Steph Wills

>  <submitter_email>  (275) 
stephanie.wills@dtc.ox.ac.uk

>  <submitter_institution>  (275) 
University of Oxford

>  <generation_date>  (275) 
2020-06-04

>  <method>  (275) 
Fragment network

>  <ref_mols>  (275) 
x0176_0B,x0212_0B

>  <ref_pdb>  (275) 
references/x0176-0B-x0212-0B-338355.holo_minimised_nolig.pdb

>  <original SMILES>  (275) 
CCOC(=O)c1ccc(OCCOCc2ccccc2)cc1

>  <synthon>  (275) 
[Xe]c1ccccc1

>  <original_name>  (275) 
x0176-0B-x0212-0B-338355

>  <comRMSD_score>  (275) 
0.5683943922886503

>  <IF_score>  (275) 
0.8

>  <SuCOS_score>  (275) 
0.4930373743285383

>  <compound_ID>  (275) 
CHEMSPACE-BB:CSMB00014804004

$$$$

     RDKit          3D

 25 26  0  0  0  0  0  0  0  0999 V2000
  -13.0230    5.6660  -76.4890 C   0  0  0  0  0  0  0  0  0  0  0  0
  -13.1160    4.3160  -77.1620 C   0  0  0  0  0  0  0  0  0  0  0  0
  -14.0880    4.0540  -77.8780 O   0  0  0  0  0  0  0  0  0  0  0  0
  -12.0210    3.2940  -76.9520 C   0  0  0  0  0  0  0  0  0  0  0  0
  -11.1890    2.8410  -77.9940 C   0  0  0  0  0  0  0  0  0  0  0  0
  -11.8020    2.7580  -75.6730 C   0  0  0  0  0  0  0  0  0  0  0  0
  -10.1800    1.8950  -77.7630 C   0  0  0  0  0  0  0  0  0  0  0  0
  -10.7800    1.8060  -75.4480 C   0  0  0  0  0  0  0  0  0  0  0  0
   -9.9580    1.3700  -76.4900 C   0  0  0  0  0  0  0  0  0  0  0  0
   -8.9030    0.4280  -76.3480 N   0  0  0  0  0  0  0  0  0  0  0  0
   -7.5970    0.5250  -76.8120 C   0  0  0  0  0  0  0  0  0  0  0  0
   -6.7920   -0.4040  -76.7690 O   0  0  0  0  0  0  0  0  0  0  0  0
   -7.2070    1.7590  -77.3670 N   0  0  0  0  0  0  0  0  0  0  0  0
   -7.8300    2.9520  -76.8060 C   0  0  0  0  0  0  0  0  0  0  0  0
   -6.7940    1.9150  -78.7640 C   0  0  0  0  0  0  0  0  0  0  0  0
   -8.7550    3.6080  -77.8390 C   0  0  0  0  0  0  0  0  0  0  0  0
   -7.7230    1.2530  -79.7450 C   0  0  0  0  0  0  0  0  0  0  0  0
  -10.1270    3.8050  -77.3650 N   0  0  0  0  0  0  0  0  0  0  0  0
   -8.0520    1.9090  -80.9490 C   0  0  0  0  0  0  0  0  0  0  0  0
   -8.2830   -0.0080  -79.4990 C   0  0  0  0  0  0  0  0  0  0  0  0
  -10.7600    4.8970  -78.1110 C   0  0  0  0  0  0  0  0  0  0  0  0
  -10.2250    3.8980  -75.8990 C   0  0  0  0  0  0  0  0  0  0  0  0
   -8.9100    1.3100  -81.8600 C   0  0  0  0  0  0  0  0  0  0  0  0
   -9.1410   -0.6000  -80.4090 C   0  0  0  0  0  0  0  0  0  0  0  0
   -9.4500    0.0580  -81.5810 C   0  0  0  0  0  0  0  0  0  0  0  0
  1  2  1  0
  2  3  2  0
  2  4  1  0
  4  5  2  0
  4  6  1  0
  5  7  1  0
  6  8  2  0
  7  9  2  0
  8  9  1  0
  9 10  1  0
 10 11  1  0
 11 12  2  0
 11 13  1  0
 13 14  1  0
 13 15  1  0
 14 16  1  0
 15 17  1  0
 16 18  1  0
 17 19  2  0
 17 20  1  0
 18 21  1  0
 18 22  1  0
 19 23  1  0
 20 24  2  0
 23 25  2  0
 24 25  1  0
M  END
>  <ref_url>  (276) 
https://fakepage.com

>  <submitter_name>  (276) 
Steph Wills

>  <submitter_email>  (276) 
stephanie.wills@dtc.ox.ac.uk

>  <submitter_institution>  (276) 
University of Oxford

>  <generation_date>  (276) 
2020-06-04

>  <method>  (276) 
Fragment network

>  <ref_mols>  (276) 
x0176_0B,x0212_0B

>  <ref_pdb>  (276) 
references/x0176-0B-x0212-0B-338817.holo_minimised_nolig.pdb

>  <original SMILES>  (276) 
CC(=O)c1ccc(NC(=O)N(CCN(C)C)Cc2ccccc2)cc1

>  <synthon>  (276) 
[Xe]c1ccccc1

>  <original_name>  (276) 
x0176-0B-x0212-0B-338817

>  <comRMSD_score>  (276) 
0.9539955792441548

>  <IF_score>  (276) 
0.3333333333333333

>  <SuCOS_score>  (276) 
0.4732302505110987

>  <compound_ID>  (276) 
REAL:Z362003598, MOLPORT:028-246-256

$$$$

     RDKit          3D

 22 23  0  0  0  0  0  0  0  0999 V2000
  -13.7850    6.8430  -72.8970 O   0  0  0  0  0  0  0  0  0  0  0  0
  -12.7950    6.4460  -73.8380 C   0  0  0  0  0  0  0  0  0  0  0  0
  -12.9900    6.8040  -75.3010 C   0  0  0  0  0  0  0  0  0  0  0  0
  -13.1830    5.6170  -76.2000 C   0  0  0  0  0  0  0  0  0  0  0  0
  -12.1470    5.2260  -77.0400 C   0  0  0  0  0  0  0  0  0  0  0  0
  -11.2880    4.1920  -76.6410 C   0  0  0  0  0  0  0  0  0  0  0  0
  -11.6600    3.3380  -75.6020 C   0  0  0  0  0  0  0  0  0  0  0  0
  -10.0480    3.9810  -77.2730 C   0  0  0  0  0  0  0  0  0  0  0  0
  -10.8460    2.3000  -75.1720 C   0  0  0  0  0  0  0  0  0  0  0  0
   -9.1820    2.9750  -76.8980 C   0  0  0  0  0  0  0  0  0  0  0  0
   -9.6190    4.6270  -78.1840 O   0  0  0  0  0  0  0  0  0  0  0  0
   -9.5120    2.1230  -75.8830 C   0  0  0  0  0  0  0  0  0  0  0  0
   -8.8660    3.7930  -79.0720 C   0  0  0  0  0  0  0  0  0  0  0  0
   -7.6020    3.5410  -78.5490 C   0  0  0  0  0  0  0  0  0  0  0  0
   -6.7390    3.2770  -79.3550 O   0  0  0  0  0  0  0  0  0  0  0  0
   -6.5210    1.8810  -79.4930 C   0  0  0  0  0  0  0  0  0  0  0  0
   -7.6330    1.3290  -80.1390 C   0  0  0  0  0  0  0  0  0  0  0  0
   -8.1960    1.9540  -81.2440 C   0  0  0  0  0  0  0  0  0  0  0  0
   -8.1860    0.1190  -79.6710 C   0  0  0  0  0  0  0  0  0  0  0  0
   -9.3700    1.3240  -81.9140 C   0  0  0  0  0  0  0  0  0  0  0  0
   -9.2930   -0.4700  -80.3000 C   0  0  0  0  0  0  0  0  0  0  0  0
   -9.8820    0.1280  -81.4160 C   0  0  0  0  0  0  0  0  0  0  0  0
  1  2  1  0
  2  3  1  0
  3  4  1  0
  4  5  3  0
  5  6  1  0
  6  7  2  0
  6  8  1  0
  7  9  1  0
  8 10  2  0
  8 11  1  0
  9 12  2  0
 10 12  1  0
 11 13  1  0
 13 14  1  0
 14 15  1  0
 15 16  1  0
 16 17  1  0
 17 18  2  0
 17 19  1  0
 18 20  1  0
 19 21  2  0
 20 22  2  0
 21 22  1  0
M  END
>  <ref_url>  (277) 
https://fakepage.com

>  <submitter_name>  (277) 
Steph Wills

>  <submitter_email>  (277) 
stephanie.wills@dtc.ox.ac.uk

>  <submitter_institution>  (277) 
University of Oxford

>  <generation_date>  (277) 
2020-06-04

>  <method>  (277) 
Fragment network

>  <ref_mols>  (277) 
x0176_0B,x0212_0B

>  <ref_pdb>  (277) 
references/x0176-0B-x0212-0B-340200.holo_minimised_nolig.pdb

>  <original SMILES>  (277) 
OCCC#Cc1ccccc1OCCOCc1ccccc1

>  <synthon>  (277) 
[Xe]c1ccccc1

>  <original_name>  (277) 
x0176-0B-x0212-0B-340200

>  <comRMSD_score>  (277) 
0.8269969322348942

>  <IF_score>  (277) 
0.675

>  <SuCOS_score>  (277) 
0.5054145331293707

>  <compound_ID>  (277) 
CHEMSPACE-BB:CSMB00014806940

$$$$

     RDKit          3D

 24 25  0  0  0  0  0  0  0  0999 V2000
  -11.9060    6.7140  -73.6750 C   0  0  0  0  0  0  0  0  0  0  0  0
  -13.2400    6.3280  -73.9400 O   0  0  0  0  0  0  0  0  0  0  0  0
  -13.4980    6.7200  -75.2140 C   0  0  0  0  0  0  0  0  0  0  0  0
  -13.5760    7.8860  -75.5570 O   0  0  0  0  0  0  0  0  0  0  0  0
  -13.6520    5.5500  -76.1440 C   0  0  0  0  0  0  0  0  0  0  0  0
  -12.5750    5.5090  -77.2220 C   0  0  0  0  0  0  0  0  0  0  0  0
  -11.5690    4.4110  -77.0240 C   0  0  0  0  0  0  0  0  0  0  0  0
  -11.5190    3.6610  -75.8420 C   0  0  0  0  0  0  0  0  0  0  0  0
  -10.6640    4.1280  -78.0410 C   0  0  0  0  0  0  0  0  0  0  0  0
  -10.5810    2.6380  -75.6920 C   0  0  0  0  0  0  0  0  0  0  0  0
   -9.7300    3.1090  -77.8880 C   0  0  0  0  0  0  0  0  0  0  0  0
   -9.6850    2.3540  -76.7140 C   0  0  0  0  0  0  0  0  0  0  0  0
   -8.7690    1.3090  -76.4980 N   0  0  0  0  0  0  0  0  0  0  0  0
   -7.5260    1.2260  -77.0560 C   0  0  0  0  0  0  0  0  0  0  0  0
   -6.7880    0.2450  -77.0190 O   0  0  0  0  0  0  0  0  0  0  0  0
   -7.1920    2.4130  -77.6960 N   0  0  0  0  0  0  0  0  0  0  0  0
   -7.6680    3.6990  -77.2280 C   0  0  0  0  0  0  0  0  0  0  0  0
   -6.8490    2.3630  -79.1200 C   0  0  0  0  0  0  0  0  0  0  0  0
   -7.7920    1.5100  -79.9360 C   0  0  0  0  0  0  0  0  0  0  0  0
   -8.2620    1.9760  -81.1700 C   0  0  0  0  0  0  0  0  0  0  0  0
   -8.2110    0.2490  -79.4860 C   0  0  0  0  0  0  0  0  0  0  0  0
   -9.1220    1.2000  -81.9260 C   0  0  0  0  0  0  0  0  0  0  0  0
   -9.0770   -0.5230  -80.2500 C   0  0  0  0  0  0  0  0  0  0  0  0
   -9.5320   -0.0480  -81.4690 C   0  0  0  0  0  0  0  0  0  0  0  0
  1  2  1  0
  2  3  1  0
  3  4  2  0
  3  5  1  0
  5  6  1  0
  6  7  1  0
  7  8  2  0
  7  9  1  0
  8 10  1  0
  9 11  2  0
 10 12  2  0
 11 12  1  0
 12 13  1  0
 13 14  1  0
 14 15  2  0
 14 16  1  0
 16 17  1  0
 16 18  1  0
 18 19  1  0
 19 20  2  0
 19 21  1  0
 20 22  1  0
 21 23  2  0
 22 24  2  0
 23 24  1  0
M  END
>  <ref_url>  (278) 
https://fakepage.com

>  <submitter_name>  (278) 
Steph Wills

>  <submitter_email>  (278) 
stephanie.wills@dtc.ox.ac.uk

>  <submitter_institution>  (278) 
University of Oxford

>  <generation_date>  (278) 
2020-06-04

>  <method>  (278) 
Fragment network

>  <ref_mols>  (278) 
x0176_0B,x0212_0B

>  <ref_pdb>  (278) 
references/x0176-0B-x0212-0B-340582.holo_minimised_nolig.pdb

>  <original SMILES>  (278) 
COC(=O)CCc1ccc(NC(=O)N(C)Cc2ccccc2)cc1

>  <synthon>  (278) 
[Xe]c1ccccc1

>  <original_name>  (278) 
x0176-0B-x0212-0B-340582

>  <comRMSD_score>  (278) 
0.796422475825488

>  <IF_score>  (278) 
0.4166666666666667

>  <SuCOS_score>  (278) 
0.5739582659722826

>  <compound_ID>  (278) 
REAL:Z1132537512

$$$$

     RDKit          3D

 21 22  0  0  0  0  0  0  0  0999 V2000
  -12.5630    6.4410  -73.6530 C   0  0  0  0  0  0  0  0  0  0  0  0
  -12.5060    5.5620  -74.7070 N   0  0  0  0  0  0  0  0  0  0  0  0
  -12.4180    4.1820  -74.2390 C   0  0  0  0  0  0  0  0  0  0  0  0
  -12.9950    6.0240  -75.9500 C   0  0  0  0  0  0  0  0  0  0  0  0
  -12.4810    5.3440  -77.0600 C   0  0  0  0  0  0  0  0  0  0  0  0
  -11.6570    4.2370  -76.7810 C   0  0  0  0  0  0  0  0  0  0  0  0
  -12.1640    3.0920  -76.1640 C   0  0  0  0  0  0  0  0  0  0  0  0
  -10.2750    4.2240  -77.1000 C   0  0  0  0  0  0  0  0  0  0  0  0
  -11.4320    1.9700  -75.8370 C   0  0  0  0  0  0  0  0  0  0  0  0
   -9.4560    3.1250  -76.7830 C   0  0  0  0  0  0  0  0  0  0  0  0
   -9.9550    1.9950  -76.1750 C   0  0  0  0  0  0  0  0  0  0  0  0
   -8.0000    3.1160  -77.0560 C   0  0  0  0  0  0  0  0  0  0  0  0
   -7.2050    3.9920  -76.3090 O   0  0  0  0  0  0  0  0  0  0  0  0
   -7.5010    2.2040  -77.9420 N   0  0  0  0  0  0  0  0  0  0  0  0
   -7.1800    2.4720  -79.3420 C   0  0  0  0  0  0  0  0  0  0  0  0
   -8.0070    1.6350  -80.0550 C   0  0  0  0  0  0  0  0  0  0  0  0
   -8.5030    2.0210  -81.2790 C   0  0  0  0  0  0  0  0  0  0  0  0
   -8.3570    0.3840  -79.5390 C   0  0  0  0  0  0  0  0  0  0  0  0
   -9.3380    1.2110  -82.0090 C   0  0  0  0  0  0  0  0  0  0  0  0
   -9.2030   -0.4540  -80.2650 C   0  0  0  0  0  0  0  0  0  0  0  0
   -9.6840   -0.0280  -81.4930 C   0  0  0  0  0  0  0  0  0  0  0  0
  1  2  1  0
  2  3  1  0
  2  4  1  0
  4  5  1  0
  5  6  1  0
  6  7  2  0
  6  8  1  0
  7  9  1  0
  8 10  2  0
  9 11  2  0
 10 11  1  0
 10 12  1  0
 12 13  2  0
 12 14  1  0
 14 15  1  0
 15 16  1  0
 16 17  2  0
 16 18  1  0
 17 19  1  0
 18 20  2  0
 19 21  2  0
 20 21  1  0
M  END
>  <ref_url>  (279) 
https://fakepage.com

>  <submitter_name>  (279) 
Steph Wills

>  <submitter_email>  (279) 
stephanie.wills@dtc.ox.ac.uk

>  <submitter_institution>  (279) 
University of Oxford

>  <generation_date>  (279) 
2020-06-04

>  <method>  (279) 
Fragment network

>  <ref_mols>  (279) 
x0176_0B,x0212_0B

>  <ref_pdb>  (279) 
references/x0176-0B-x0212-0B-344077.holo_minimised_nolig.pdb

>  <original SMILES>  (279) 
CN(C)CCc1cccc(C(=O)NCc2ccccc2)c1

>  <synthon>  (279) 
[Xe]c1ccccc1

>  <original_name>  (279) 
x0176-0B-x0212-0B-344077

>  <comRMSD_score>  (279) 
0.9131059327616066

>  <IF_score>  (279) 
0.8

>  <SuCOS_score>  (279) 
0.5550132257080863

>  <compound_ID>  (279) 
REAL:PV-001820934568

$$$$

     RDKit          3D

 22 23  0  0  0  0  0  0  0  0999 V2000
  -13.7220    5.9460  -76.3620 C   0  0  0  0  0  0  0  0  0  0  0  0
  -13.4040    4.6600  -77.0800 C   0  0  0  0  0  0  0  0  0  0  0  0
  -14.3950    3.9940  -77.8690 O   0  0  0  0  0  0  0  0  0  0  0  0
  -12.0370    4.1020  -76.9270 C   0  0  0  0  0  0  0  0  0  0  0  0
  -11.0190    4.5820  -77.7230 C   0  0  0  0  0  0  0  0  0  0  0  0
  -11.7750    3.1030  -75.9790 C   0  0  0  0  0  0  0  0  0  0  0  0
   -9.7500    4.0760  -77.5730 C   0  0  0  0  0  0  0  0  0  0  0  0
  -10.4890    2.5930  -75.8310 C   0  0  0  0  0  0  0  0  0  0  0  0
   -9.4760    3.0950  -76.6420 C   0  0  0  0  0  0  0  0  0  0  0  0
   -8.1920    2.7510  -76.6530 O   0  0  0  0  0  0  0  0  0  0  0  0
   -7.3910    3.4610  -77.5860 C   0  0  0  0  0  0  0  0  0  0  0  0
   -7.8110    3.2880  -79.0630 C   0  0  1  0  0  0  0  0  0  0  0  0
   -8.9140    3.9550  -79.6020 C   0  0  0  0  0  0  0  0  0  0  0  0
   -6.6030    3.7320  -79.8990 C   0  0  0  0  0  0  0  0  0  0  0  0
   -5.9310    2.7420  -80.0560 O   0  0  0  0  0  0  0  0  0  0  0  0
   -6.4770    1.7310  -79.2220 C   0  0  0  0  0  0  0  0  0  0  0  0
   -7.5530    1.1450  -79.8900 C   0  0  0  0  0  0  0  0  0  0  0  0
   -8.0740   -0.0500  -79.4100 C   0  0  0  0  0  0  0  0  0  0  0  0
   -8.1100    1.7410  -81.0220 C   0  0  0  0  0  0  0  0  0  0  0  0
   -9.1470   -0.6620  -80.0430 C   0  0  0  0  0  0  0  0  0  0  0  0
   -9.1710    1.1230  -81.6390 C   0  0  0  0  0  0  0  0  0  0  0  0
   -9.6980   -0.0730  -81.1630 C   0  0  0  0  0  0  0  0  0  0  0  0
  1  2  1  0
  2  3  2  0
  2  4  1  0
  4  5  2  0
  4  6  1  0
  5  7  1  0
  6  8  2  0
  7  9  2  0
  8  9  1  0
  9 10  1  0
 10 11  1  0
 11 12  1  0
 12 13  1  6
 12 14  1  0
 14 15  1  0
 15 16  1  0
 16 17  1  0
 17 18  2  0
 17 19  1  0
 18 20  1  0
 19 21  2  0
 20 22  2  0
 21 22  1  0
M  END
>  <ref_url>  (280) 
https://fakepage.com

>  <submitter_name>  (280) 
Steph Wills

>  <submitter_email>  (280) 
stephanie.wills@dtc.ox.ac.uk

>  <submitter_institution>  (280) 
University of Oxford

>  <generation_date>  (280) 
2020-06-04

>  <method>  (280) 
Fragment network

>  <ref_mols>  (280) 
x0176_0B,x0212_0B

>  <ref_pdb>  (280) 
references/x0176-0B-x0212-0B-346027.holo_minimised_nolig.pdb

>  <original SMILES>  (280) 
CC(=O)c1ccc(OCC(C)COCc2ccccc2)cc1

>  <synthon>  (280) 
[Xe]c1ccccc1

>  <original_name>  (280) 
x0176-0B-x0212-0B-346027

>  <comRMSD_score>  (280) 
0.8288775280593251

>  <IF_score>  (280) 
0.25

>  <SuCOS_score>  (280) 
0.4462266625994558

>  <compound_ID>  (280) 
REAL:PV-001915340572, CHEMSPACE-BB:CSMB00033286071

$$$$

     RDKit          3D

 21 22  0  0  0  0  0  0  0  0999 V2000
  -14.7260    4.5420  -75.2400 C   0  0  0  0  0  0  0  0  0  0  0  0
  -13.5340    5.2900  -75.8180 C   0  0  0  0  0  0  0  0  0  0  0  0
  -13.0630    4.7150  -77.1590 C   0  0  1  0  0  0  0  0  0  0  0  0
  -13.0940    5.7810  -78.2370 C   0  0  0  0  0  0  0  0  0  0  0  0
  -11.6710    4.1080  -77.0570 C   0  0  0  0  0  0  0  0  0  0  0  0
  -11.3220    3.2070  -76.0430 C   0  0  0  0  0  0  0  0  0  0  0  0
  -10.7060    4.4540  -78.0010 C   0  0  0  0  0  0  0  0  0  0  0  0
  -10.0320    2.6660  -75.9800 C   0  0  0  0  0  0  0  0  0  0  0  0
   -9.4250    3.9170  -77.9380 C   0  0  0  0  0  0  0  0  0  0  0  0
   -9.0790    3.0250  -76.9340 C   0  0  0  0  0  0  0  0  0  0  0  0
   -7.7880    2.5980  -77.0180 O   0  0  0  0  0  0  0  0  0  0  0  0
   -6.7280    3.5370  -76.8010 C   0  0  0  0  0  0  0  0  0  0  0  0
   -5.9350    3.8410  -78.0740 C   0  0  0  0  0  0  0  0  0  0  0  0
   -6.5980    3.3280  -79.2200 O   0  0  0  0  0  0  0  0  0  0  0  0
   -6.4930    1.9190  -79.2220 C   0  0  0  0  0  0  0  0  0  0  0  0
   -7.6140    1.2710  -79.9730 C   0  0  0  0  0  0  0  0  0  0  0  0
   -8.1160    1.8170  -81.1580 C   0  0  0  0  0  0  0  0  0  0  0  0
   -8.1660    0.0870  -79.4800 C   0  0  0  0  0  0  0  0  0  0  0  0
   -9.1370    1.1720  -81.8210 C   0  0  0  0  0  0  0  0  0  0  0  0
   -9.1980   -0.5530  -80.1520 C   0  0  0  0  0  0  0  0  0  0  0  0
   -9.6820   -0.0070  -81.3250 C   0  0  0  0  0  0  0  0  0  0  0  0
  1  2  1  0
  2  3  1  0
  3  4  1  6
  3  5  1  0
  5  6  2  0
  5  7  1  0
  6  8  1  0
  7  9  2  0
  8 10  2  0
  9 10  1  0
 10 11  1  0
 11 12  1  0
 12 13  1  0
 13 14  1  0
 14 15  1  0
 15 16  1  0
 16 17  2  0
 16 18  1  0
 17 19  1  0
 18 20  2  0
 19 21  2  0
 20 21  1  0
M  END
>  <ref_url>  (281) 
https://fakepage.com

>  <submitter_name>  (281) 
Steph Wills

>  <submitter_email>  (281) 
stephanie.wills@dtc.ox.ac.uk

>  <submitter_institution>  (281) 
University of Oxford

>  <generation_date>  (281) 
2020-06-04

>  <method>  (281) 
Fragment network

>  <ref_mols>  (281) 
x0176_0B,x0212_0B

>  <ref_pdb>  (281) 
references/x0176-0B-x0212-0B-347096.holo_minimised_nolig.pdb

>  <original SMILES>  (281) 
CCC(C)c1ccc(OCCOCc2ccccc2)cc1

>  <synthon>  (281) 
[Xe]c1ccccc1

>  <original_name>  (281) 
x0176-0B-x0212-0B-347096

>  <comRMSD_score>  (281) 
0.6728487135339914

>  <IF_score>  (281) 
0.25

>  <SuCOS_score>  (281) 
0.495951376433312

>  <compound_ID>  (281) 
CHEMSPACE-BB:CSMB00014808795

$$$$

     RDKit          3D

 24 25  0  0  0  0  0  0  0  0999 V2000
   -4.5380    0.4460  -80.1360 C   0  0  0  0  0  0  0  0  0  0  0  0
   -4.8660    1.8520  -79.6500 C   0  0  0  0  0  0  0  0  0  0  0  0
   -4.4760    2.8650  -80.6880 C   0  0  0  0  0  0  0  0  0  0  0  0
   -6.3390    1.9530  -79.3020 C   0  0  2  0  0  0  0  0  0  0  0  0
   -6.7280    1.6240  -77.9930 C   0  0  0  0  0  0  0  0  0  0  0  0
   -7.1450    1.0200  -80.1950 C   0  0  0  0  0  0  0  0  0  0  0  0
   -6.9170    2.5970  -77.0300 C   0  0  0  0  0  0  0  0  0  0  0  0
   -7.5680   -0.2290  -79.7320 C   0  0  0  0  0  0  0  0  0  0  0  0
   -7.4830    1.4260  -81.5000 C   0  0  0  0  0  0  0  0  0  0  0  0
   -5.9850    3.5910  -76.9870 O   0  0  0  0  0  0  0  0  0  0  0  0
   -8.0460    2.4200  -76.2130 N   0  0  0  0  0  0  0  0  0  0  0  0
   -8.3170   -1.0670  -80.5490 C   0  0  0  0  0  0  0  0  0  0  0  0
   -8.2290    0.5770  -82.3020 C   0  0  0  0  0  0  0  0  0  0  0  0
   -9.2590    3.0330  -76.3520 C   0  0  0  0  0  0  0  0  0  0  0  0
   -8.6520   -0.6700  -81.8350 C   0  0  0  0  0  0  0  0  0  0  0  0
   -9.2360    4.0510  -77.4700 C   0  0  0  0  0  0  0  0  0  0  0  0
  -10.3970    2.7820  -75.5920 C   0  0  0  0  0  0  0  0  0  0  0  0
  -10.5470    4.7780  -77.7000 C   0  0  0  0  0  0  0  0  0  0  0  0
  -11.5770    3.4740  -75.8420 C   0  0  0  0  0  0  0  0  0  0  0  0
  -11.7190    4.4430  -76.8430 C   0  0  0  0  0  0  0  0  0  0  0  0
  -13.0260    5.1420  -77.0640 C   0  0  0  0  0  0  0  0  0  0  0  0
  -13.5630    5.6870  -75.8960 C   0  0  0  0  0  0  0  0  0  0  0  0
  -12.8350    6.7740  -75.4280 N   0  0  0  0  0  0  0  0  0  0  0  0
  -14.5660    5.2720  -75.3080 O   0  0  0  0  0  0  0  0  0  0  0  0
  1  2  1  0
  2  3  1  0
  2  4  1  0
  4  5  1  1
  4  6  1  0
  5  7  1  0
  6  8  2  0
  6  9  1  0
  7 10  2  0
  7 11  1  0
  8 12  1  0
  9 13  2  0
 11 14  1  0
 12 15  2  0
 13 15  1  0
 14 16  2  0
 14 17  1  0
 16 18  1  0
 17 19  2  0
 18 20  2  0
 19 20  1  0
 20 21  1  0
 21 22  1  0
 22 23  1  0
 22 24  2  0
M  END
>  <ref_url>  (282) 
https://fakepage.com

>  <submitter_name>  (282) 
Steph Wills

>  <submitter_email>  (282) 
stephanie.wills@dtc.ox.ac.uk

>  <submitter_institution>  (282) 
University of Oxford

>  <generation_date>  (282) 
2020-06-04

>  <method>  (282) 
Fragment network

>  <ref_mols>  (282) 
x0176_0B,x0212_0B

>  <ref_pdb>  (282) 
references/x0176-0B-x0212-0B-347612.holo_minimised_nolig.pdb

>  <original SMILES>  (282) 
CC(C)C(CC(=O)Nc1ccc(CC(N)=O)cc1)c1ccccc1

>  <synthon>  (282) 
[Xe]c1ccccc1

>  <original_name>  (282) 
x0176-0B-x0212-0B-347612

>  <comRMSD_score>  (282) 
0.8414290897297751

>  <IF_score>  (282) 
0.5833333333333333

>  <SuCOS_score>  (282) 
0.4581118149920874

>  <compound_ID>  (282) 
REAL:Z1101652258

$$$$

     RDKit          3D

 19 20  0  0  0  0  0  0  0  0999 V2000
  -12.5020    6.3300  -73.7450 C   0  0  0  0  0  0  0  0  0  0  0  0
  -12.5160    6.3870  -75.1670 O   0  0  0  0  0  0  0  0  0  0  0  0
  -13.7430    5.9260  -75.7300 C   0  0  0  0  0  0  0  0  0  0  0  0
  -13.5560    4.6680  -76.5640 C   0  0  0  0  0  0  0  0  0  0  0  0
  -12.1350    4.1820  -76.5790 C   0  0  0  0  0  0  0  0  0  0  0  0
  -11.2660    4.7700  -77.4660 C   0  0  0  0  0  0  0  0  0  0  0  0
  -11.6710    3.1560  -75.7310 C   0  0  0  0  0  0  0  0  0  0  0  0
   -9.9690    4.3570  -77.5140 C   0  0  0  0  0  0  0  0  0  0  0  0
  -10.3280    2.7470  -75.7860 C   0  0  0  0  0  0  0  0  0  0  0  0
   -9.4780    3.3730  -76.6930 C   0  0  0  0  0  0  0  0  0  0  0  0
   -8.0300    3.1110  -76.8830 C   0  0  0  0  0  0  0  0  0  0  0  0
   -7.7600    1.9450  -77.6200 O   0  0  0  0  0  0  0  0  0  0  0  0
   -7.2840    2.2700  -78.9210 C   0  0  0  0  0  0  0  0  0  0  0  0
   -8.1120    1.5030  -79.8900 C   0  0  0  0  0  0  0  0  0  0  0  0
   -8.4330    2.0020  -81.1510 C   0  0  0  0  0  0  0  0  0  0  0  0
   -8.5750    0.2480  -79.4910 C   0  0  0  0  0  0  0  0  0  0  0  0
   -9.2220    1.2330  -81.9950 C   0  0  0  0  0  0  0  0  0  0  0  0
   -9.3620   -0.5130  -80.3380 C   0  0  0  0  0  0  0  0  0  0  0  0
   -9.6820   -0.0150  -81.5830 C   0  0  0  0  0  0  0  0  0  0  0  0
  1  2  1  0
  2  3  1  0
  3  4  1  0
  4  5  1  0
  5  6  2  0
  5  7  1  0
  6  8  1  0
  7  9  2  0
  8 10  2  0
  9 10  1  0
 10 11  1  0
 11 12  1  0
 12 13  1  0
 13 14  1  0
 14 15  2  0
 14 16  1  0
 15 17  1  0
 16 18  2  0
 17 19  2  0
 18 19  1  0
M  END
>  <ref_url>  (283) 
https://fakepage.com

>  <submitter_name>  (283) 
Steph Wills

>  <submitter_email>  (283) 
stephanie.wills@dtc.ox.ac.uk

>  <submitter_institution>  (283) 
University of Oxford

>  <generation_date>  (283) 
2020-06-04

>  <method>  (283) 
Fragment network

>  <ref_mols>  (283) 
x0176_0B,x0212_0B

>  <ref_pdb>  (283) 
references/x0176-0B-x0212-0B-349439.holo_minimised_nolig.pdb

>  <original SMILES>  (283) 
COCCc1ccc(COCc2ccccc2)cc1

>  <synthon>  (283) 
[Xe]c1ccccc1

>  <original_name>  (283) 
x0176-0B-x0212-0B-349439

>  <comRMSD_score>  (283) 
0.7817700002771492

>  <IF_score>  (283) 
0.8

>  <SuCOS_score>  (283) 
0.4800029973718213

>  <compound_ID>  (283) 
CHEMSPACE-BB:CSMB00114106516

$$$$

     RDKit          3D

 24 25  0  0  0  0  0  0  0  0999 V2000
   -7.6670    3.4310  -78.0190 C   0  0  0  0  0  0  0  0  0  0  0  0
   -6.4470    2.7290  -78.1920 O   0  0  0  0  0  0  0  0  0  0  0  0
   -6.2680    2.3520  -79.4760 C   0  0  0  0  0  0  0  0  0  0  0  0
   -7.5020    1.5660  -79.8920 C   0  0  0  0  0  0  0  0  0  0  0  0
   -7.8560    0.4700  -78.8880 C   0  0  0  0  0  0  0  0  0  0  0  0
   -8.2620    1.7750  -81.0240 C   0  0  0  0  0  0  0  0  0  0  0  0
   -9.0690   -0.3170  -79.2190 C   0  0  0  0  0  0  0  0  0  0  0  0
   -9.3770    0.9750  -81.2430 C   0  0  0  0  0  0  0  0  0  0  0  0
   -9.7940   -0.0490  -80.3560 C   0  0  0  0  0  0  0  0  0  0  0  0
  -10.9470   -0.7990  -80.6000 N   0  0  0  0  0  0  0  0  0  0  0  0
  -11.9970   -0.9780  -79.6720 C   0  0  0  0  0  0  0  0  0  0  0  0
  -13.0320   -1.9540  -79.7920 O   0  0  0  0  0  0  0  0  0  0  0  0
  -11.9600   -0.0900  -78.5490 C   0  0  0  0  0  0  0  0  0  0  0  0
  -13.2830    0.1840  -77.9230 N   0  0  0  0  0  0  0  0  0  0  0  0
  -14.0480    1.3640  -78.0670 C   0  0  0  0  0  0  0  0  0  0  0  0
  -14.9390    1.5270  -79.1680 O   0  0  0  0  0  0  0  0  0  0  0  0
  -13.9810    2.2690  -77.2020 O   0  0  0  0  0  0  0  0  0  0  0  0
  -13.2260    3.4680  -77.5270 C   0  0  0  0  0  0  0  0  0  0  0  0
  -11.8830    3.4030  -77.1780 C   0  0  0  0  0  0  0  0  0  0  0  0
  -11.4860    2.4840  -76.0650 C   0  0  0  0  0  0  0  0  0  0  0  0
  -10.9100    4.1480  -77.8250 C   0  0  0  0  0  0  0  0  0  0  0  0
  -10.1550    2.3910  -75.7000 C   0  0  0  0  0  0  0  0  0  0  0  0
   -9.5930    4.0130  -77.4160 C   0  0  0  0  0  0  0  0  0  0  0  0
   -9.2110    3.1500  -76.3690 C   0  0  0  0  0  0  0  0  0  0  0  0
  1  2  1  0
  2  3  1  0
  3  4  1  0
  4  5  2  0
  4  6  1  0
  5  7  1  0
  6  8  2  0
  7  9  2  0
  8  9  1  0
  9 10  1  0
 10 11  1  0
 11 12  2  0
 11 13  1  0
 13 14  1  0
 14 15  1  0
 15 16  2  0
 15 17  1  0
 17 18  1  0
 18 19  1  0
 19 20  2  0
 19 21  1  0
 20 22  1  0
 21 23  2  0
 22 24  2  0
 23 24  1  0
M  END
>  <ref_url>  (284) 
https://fakepage.com

>  <submitter_name>  (284) 
Steph Wills

>  <submitter_email>  (284) 
stephanie.wills@dtc.ox.ac.uk

>  <submitter_institution>  (284) 
University of Oxford

>  <generation_date>  (284) 
2020-06-04

>  <method>  (284) 
Fragment network

>  <ref_mols>  (284) 
x0176_0B,x0212_0B

>  <ref_pdb>  (284) 
references/x0176-0B-x0212-0B-351712.holo_minimised_nolig.pdb

>  <original SMILES>  (284) 
COCc1ccc(NC(=O)CNC(=O)OCc2ccccc2)cc1

>  <synthon>  (284) 
[Xe]c1ccccc1

>  <original_name>  (284) 
x0176-0B-x0212-0B-351712

>  <comRMSD_score>  (284) 
0.924573759287834

>  <IF_score>  (284) 
0.375

>  <SuCOS_score>  (284) 
0.3774888662153164

>  <compound_ID>  (284) 
MOLPORT:039-004-973

$$$$

     RDKit          3D

 27 28  0  0  0  0  0  0  0  0999 V2000
  -16.0290    6.5500  -73.8470 C   0  0  0  0  0  0  0  0  0  0  0  0
  -15.0120    6.3920  -72.8570 O   0  0  0  0  0  0  0  0  0  0  0  0
  -13.8600    7.2080  -73.1170 C   0  0  0  0  0  0  0  0  0  0  0  0
  -13.8580    8.5610  -72.7780 O   0  0  0  0  0  0  0  0  0  0  0  0
  -12.6480    6.5230  -73.7750 C   0  0  0  0  0  0  0  0  0  0  0  0
  -12.7010    6.6900  -75.2160 N   0  0  0  0  0  0  0  0  0  0  0  0
  -13.3810    5.6010  -75.8790 C   0  0  0  0  0  0  0  0  0  0  0  0
  -14.2990    4.8930  -75.4720 O   0  0  0  0  0  0  0  0  0  0  0  0
  -12.9210    5.3320  -77.1470 C   0  0  0  0  0  0  0  0  0  0  0  0
  -11.8180    4.4840  -77.0960 C   0  0  0  0  0  0  0  0  0  0  0  0
  -10.6450    4.7280  -77.9800 C   0  0  0  0  0  0  0  0  0  0  0  0
  -11.7910    3.3760  -76.2300 C   0  0  0  0  0  0  0  0  0  0  0  0
   -9.6060    3.8530  -77.9080 C   0  0  0  0  0  0  0  0  0  0  0  0
  -10.6820    2.5170  -76.2100 C   0  0  0  0  0  0  0  0  0  0  0  0
   -9.5940    2.7590  -77.0560 C   0  0  0  0  0  0  0  0  0  0  0  0
   -8.4570    2.0380  -77.1820 N   0  0  0  0  0  0  0  0  0  0  0  0
   -7.2820    2.7070  -77.6490 C   0  0  0  0  0  0  0  0  0  0  0  0
   -6.3320    3.4460  -76.8850 O   0  0  0  0  0  0  0  0  0  0  0  0
   -7.0430    2.6130  -79.0300 C   0  0  0  0  0  0  0  0  0  0  0  0
   -7.0650    3.9680  -79.7040 C   0  0  0  0  0  0  0  0  0  0  0  0
   -5.8820    1.9830  -79.1260 C   0  0  0  0  0  0  0  0  0  0  0  0
   -7.9920    1.7100  -79.8390 C   0  0  0  0  0  0  0  0  0  0  0  0
   -8.3950    2.1890  -81.0980 C   0  0  0  0  0  0  0  0  0  0  0  0
   -8.4450    0.4570  -79.3700 C   0  0  0  0  0  0  0  0  0  0  0  0
   -9.3150    1.3790  -81.9740 C   0  0  0  0  0  0  0  0  0  0  0  0
   -9.3020   -0.3560  -80.1190 C   0  0  0  0  0  0  0  0  0  0  0  0
   -9.7370    0.0600  -81.3680 C   0  0  0  0  0  0  0  0  0  0  0  0
  1  2  1  0
  2  3  1  0
  3  4  2  0
  3  5  1  0
  5  6  1  0
  6  7  1  0
  7  8  2  0
  7  9  1  0
  9 10  1  0
 10 11  2  0
 10 12  1  0
 11 13  1  0
 12 14  2  0
 13 15  2  0
 14 15  1  0
 15 16  1  0
 16 17  1  0
 17 18  2  0
 19 17  1  0
 19 20  1  0
 19 21  1  0
 19 22  1  0
 22 23  2  0
 22 24  1  0
 23 25  1  0
 24 26  2  0
 25 27  2  0
 26 27  1  0
M  END
>  <ref_url>  (285) 
https://fakepage.com

>  <submitter_name>  (285) 
Steph Wills

>  <submitter_email>  (285) 
stephanie.wills@dtc.ox.ac.uk

>  <submitter_institution>  (285) 
University of Oxford

>  <generation_date>  (285) 
2020-06-04

>  <method>  (285) 
Fragment network

>  <ref_mols>  (285) 
x0176_0B,x0212_0B

>  <ref_pdb>  (285) 
references/x0176-0B-x0212-0B-353087.holo_minimised_nolig.pdb

>  <original SMILES>  (285) 
COC(=O)CNC(=O)Cc1ccc(NC(=O)C(C)(C)c2ccccc2)cc1

>  <synthon>  (285) 
[Xe]c1ccccc1

>  <original_name>  (285) 
x0176-0B-x0212-0B-353087

>  <comRMSD_score>  (285) 
0.6577513320509618

>  <IF_score>  (285) 
0.675

>  <SuCOS_score>  (285) 
0.5840978083087842

>  <compound_ID>  (285) 
REAL:Z452363126

$$$$

     RDKit          3D

 24 25  0  0  0  0  0  0  0  0999 V2000
   -5.8710    0.4280  -77.6380 C   0  0  0  0  0  0  0  0  0  0  0  0
   -6.3400    1.7190  -77.8400 N   0  0  0  0  0  0  0  0  0  0  0  0
   -6.4810    2.2100  -79.2090 C   0  0  0  0  0  0  0  0  0  0  0  0
   -7.0510    2.4920  -76.9330 C   0  0  0  0  0  0  0  0  0  0  0  0
   -7.0820    1.2880  -80.0670 C   0  0  0  0  0  0  0  0  0  0  0  0
   -6.5560    3.7300  -76.4050 O   0  0  0  0  0  0  0  0  0  0  0  0
   -8.3180    1.9190  -76.5830 N   0  0  0  0  0  0  0  0  0  0  0  0
   -7.4800   -0.0000  -79.6520 C   0  0  0  0  0  0  0  0  0  0  0  0
   -7.3450    1.5990  -81.4120 C   0  0  0  0  0  0  0  0  0  0  0  0
   -9.5270    2.7090  -76.6850 C   0  0  0  0  0  0  0  0  0  0  0  0
   -8.0980   -0.9530  -80.4760 C   0  0  0  0  0  0  0  0  0  0  0  0
   -7.9570    0.6610  -82.2520 C   0  0  0  0  0  0  0  0  0  0  0  0
   -9.5080    3.6730  -77.6890 C   0  0  0  0  0  0  0  0  0  0  0  0
  -10.6460    2.5590  -75.8730 C   0  0  0  0  0  0  0  0  0  0  0  0
   -8.3330   -0.6010  -81.8070 C   0  0  0  0  0  0  0  0  0  0  0  0
  -10.5640    4.5190  -77.9420 C   0  0  0  0  0  0  0  0  0  0  0  0
  -11.7610    3.3770  -76.0610 C   0  0  0  0  0  0  0  0  0  0  0  0
  -11.7580    4.3510  -77.0660 C   0  0  0  0  0  0  0  0  0  0  0  0
  -12.9010    5.2990  -77.3690 C   0  0  0  0  0  0  0  0  0  0  0  0
  -13.6280    5.5680  -76.0710 C   0  0  0  0  0  0  0  0  0  0  0  0
  -12.8710    6.0650  -75.0240 C   0  0  0  0  0  0  0  0  0  0  0  0
  -11.8580    5.2350  -74.7080 F   0  0  0  0  0  0  0  0  0  0  0  0
  -12.4000    7.2910  -75.3330 F   0  0  0  0  0  0  0  0  0  0  0  0
  -13.6080    6.2190  -73.9090 F   0  0  0  0  0  0  0  0  0  0  0  0
  1  2  1  0
  2  3  1  0
  2  4  1  0
  3  5  1  0
  4  6  2  0
  4  7  1  0
  5  8  2  0
  5  9  1  0
  7 10  1  0
  8 11  1  0
  9 12  2  0
 10 13  2  0
 10 14  1  0
 11 15  2  0
 12 15  1  0
 13 16  1  0
 14 17  2  0
 16 18  2  0
 17 18  1  0
 18 19  1  0
 19 20  1  0
 20 21  1  0
 21 22  1  0
 21 23  1  0
 21 24  1  0
M  END
>  <ref_url>  (286) 
https://fakepage.com

>  <submitter_name>  (286) 
Steph Wills

>  <submitter_email>  (286) 
stephanie.wills@dtc.ox.ac.uk

>  <submitter_institution>  (286) 
University of Oxford

>  <generation_date>  (286) 
2020-06-04

>  <method>  (286) 
Fragment network

>  <ref_mols>  (286) 
x0176_0B,x0212_0B

>  <ref_pdb>  (286) 
references/x0176-0B-x0212-0B-354106.holo_minimised_nolig.pdb

>  <original SMILES>  (286) 
CN(Cc1ccccc1)C(=O)Nc1ccc(CCC(F)(F)F)cc1

>  <synthon>  (286) 
[Xe]c1ccccc1

>  <original_name>  (286) 
x0176-0B-x0212-0B-354106

>  <comRMSD_score>  (286) 
0.9826328917759672

>  <IF_score>  (286) 
0.25

>  <SuCOS_score>  (286) 
0.4816165398591193

>  <compound_ID>  (286) 
REAL:Z1375424117

$$$$

     RDKit          3D

 20 21  0  0  0  0  0  0  0  0999 V2000
  -13.3400    6.2700  -77.0690 C   0  0  0  0  0  0  0  0  0  0  0  0
  -13.2100    4.8390  -77.5670 C   0  0  0  0  0  0  0  0  0  0  0  0
  -13.9480    4.3280  -78.4040 O   0  0  0  0  0  0  0  0  0  0  0  0
  -12.1090    4.1270  -76.9260 C   0  0  0  0  0  0  0  0  0  0  0  0
  -11.5210    3.4470  -76.1800 C   0  0  0  0  0  0  0  0  0  0  0  0
  -11.0240    4.5180  -77.7620 C   0  0  0  0  0  0  0  0  0  0  0  0
  -10.3610    2.8570  -75.7110 C   0  0  0  0  0  0  0  0  0  0  0  0
   -9.6860    4.0920  -77.5570 C   0  0  0  0  0  0  0  0  0  0  0  0
   -9.3300    3.2470  -76.5030 C   0  0  0  0  0  0  0  0  0  0  0  0
   -8.0510    2.8080  -76.2260 N   0  0  0  0  0  0  0  0  0  0  0  0
   -7.2700    2.0990  -77.0490 C   0  0  0  0  0  0  0  0  0  0  0  0
   -6.4850    0.6580  -76.7580 S   0  0  0  0  0  0  0  0  0  0  0  0
   -7.1160    2.6800  -78.2670 N   0  0  0  0  0  0  0  0  0  0  0  0
   -6.2730    2.2170  -79.3410 C   0  0  0  0  0  0  0  0  0  0  0  0
   -7.0040    1.2200  -80.1820 C   0  0  0  0  0  0  0  0  0  0  0  0
   -7.4390   -0.1310  -79.6200 C   0  0  0  0  0  0  0  0  0  0  0  0
   -7.3250    1.5100  -81.5200 C   0  0  0  0  0  0  0  0  0  0  0  0
   -8.1290   -1.0440  -80.4150 C   0  0  0  0  0  0  0  0  0  0  0  0
   -8.0180    0.5900  -82.3330 C   0  0  0  0  0  0  0  0  0  0  0  0
   -8.4230   -0.6540  -81.8330 C   0  0  0  0  0  0  0  0  0  0  0  0
  1  2  1  0
  2  3  2  0
  2  4  1  0
  4  5  2  0
  4  6  1  0
  5  7  1  0
  6  8  2  0
  7  9  2  0
  8  9  1  0
  9 10  1  0
 10 11  1  0
 11 12  2  0
 11 13  1  0
 13 14  1  0
 14 15  1  0
 15 16  2  0
 15 17  1  0
 16 18  1  0
 17 19  2  0
 18 20  2  0
 19 20  1  0
M  END
>  <ref_url>  (287) 
https://fakepage.com

>  <submitter_name>  (287) 
Steph Wills

>  <submitter_email>  (287) 
stephanie.wills@dtc.ox.ac.uk

>  <submitter_institution>  (287) 
University of Oxford

>  <generation_date>  (287) 
2020-06-04

>  <method>  (287) 
Fragment network

>  <ref_mols>  (287) 
x0176_0B,x0212_0B

>  <ref_pdb>  (287) 
references/x0176-0B-x0212-0B-356942.holo_minimised_nolig.pdb

>  <original SMILES>  (287) 
CC(=O)c1ccc(NC(=S)NCc2ccccc2)cc1

>  <synthon>  (287) 
[Xe]c1ccccc1

>  <original_name>  (287) 
x0176-0B-x0212-0B-356942

>  <comRMSD_score>  (287) 
0.9704076687033444

>  <IF_score>  (287) 
0.1875

>  <SuCOS_score>  (287) 
0.4029349872508282

>  <compound_ID>  (287) 
MOLPORT:001-597-451

$$$$

     RDKit          3D

 21 22  0  0  0  0  0  0  0  0999 V2000
   -5.4400    1.6800  -77.4880 C   0  0  0  0  0  0  0  0  0  0  0  0
   -6.7220    2.0970  -77.7540 N   0  0  0  0  0  0  0  0  0  0  0  0
   -6.9610    2.5010  -79.1420 C   0  0  0  0  0  0  0  0  0  0  0  0
   -7.6950    2.5700  -76.7910 C   0  0  0  0  0  0  0  0  0  0  0  0
   -7.9060    1.6380  -79.9370 C   0  0  0  0  0  0  0  0  0  0  0  0
   -7.5320    3.5010  -76.0270 O   0  0  0  0  0  0  0  0  0  0  0  0
   -8.8820    1.9060  -76.8050 N   0  0  0  0  0  0  0  0  0  0  0  0
   -8.3190    0.3860  -79.4640 C   0  0  0  0  0  0  0  0  0  0  0  0
   -8.3960    2.0780  -81.1750 C   0  0  0  0  0  0  0  0  0  0  0  0
   -9.9400    2.7180  -76.7990 C   0  0  0  0  0  0  0  0  0  0  0  0
   -9.1990   -0.4240  -80.1900 C   0  0  0  0  0  0  0  0  0  0  0  0
   -9.2650    1.2690  -81.8850 C   0  0  0  0  0  0  0  0  0  0  0  0
   -9.8120    3.7860  -77.6810 C   0  0  0  0  0  0  0  0  0  0  0  0
  -11.0470    2.5390  -75.9980 C   0  0  0  0  0  0  0  0  0  0  0  0
   -9.6780    0.0240  -81.4120 C   0  0  0  0  0  0  0  0  0  0  0  0
  -10.8300    4.7060  -77.7660 C   0  0  0  0  0  0  0  0  0  0  0  0
  -12.0760    3.4710  -76.0860 C   0  0  0  0  0  0  0  0  0  0  0  0
  -11.9610    4.5570  -76.9770 C   0  0  0  0  0  0  0  0  0  0  0  0
  -12.9740    5.4990  -77.0870 C   0  0  0  0  0  0  0  0  0  0  0  0
  -13.5380    5.7360  -75.8440 C   0  0  0  0  0  0  0  0  0  0  0  0
  -13.9860    5.9230  -74.7930 N   0  0  0  0  0  0  0  0  0  0  0  0
  1  2  1  0
  2  3  1  0
  2  4  1  0
  3  5  1  0
  4  6  2  0
  4  7  1  0
  5  8  2  0
  5  9  1  0
  7 10  1  0
  8 11  1  0
  9 12  2  0
 10 13  2  0
 10 14  1  0
 11 15  2  0
 12 15  1  0
 13 16  1  0
 14 17  2  0
 16 18  2  0
 17 18  1  0
 18 19  1  0
 19 20  1  0
 20 21  3  0
M  END
>  <ref_url>  (288) 
https://fakepage.com

>  <submitter_name>  (288) 
Steph Wills

>  <submitter_email>  (288) 
stephanie.wills@dtc.ox.ac.uk

>  <submitter_institution>  (288) 
University of Oxford

>  <generation_date>  (288) 
2020-06-04

>  <method>  (288) 
Fragment network

>  <ref_mols>  (288) 
x0176_0B,x0212_0B

>  <ref_pdb>  (288) 
references/x0176-0B-x0212-0B-358634.holo_minimised_nolig.pdb

>  <original SMILES>  (288) 
CN(Cc1ccccc1)C(=O)Nc1ccc(CC#N)cc1

>  <synthon>  (288) 
[Xe]c1ccccc1

>  <original_name>  (288) 
x0176-0B-x0212-0B-358634

>  <comRMSD_score>  (288) 
0.8324862187134545

>  <IF_score>  (288) 
0.675

>  <SuCOS_score>  (288) 
0.5061925199841467

>  <compound_ID>  (288) 
CHEMSPACE-BB:CSMB00155375944, REAL:Z412381430

$$$$

     RDKit          3D

 28 29  0  0  0  0  0  0  0  0999 V2000
   -5.9880    4.7990  -79.8580 C   0  0  0  0  0  0  0  0  0  0  0  0
   -7.3100    4.1570  -79.4310 C   0  0  0  0  0  0  0  0  0  0  0  0
   -7.8720    3.2350  -80.4570 C   0  0  0  0  0  0  0  0  0  0  0  0
   -7.1580    3.5810  -78.0140 C   0  0  2  0  0  0  0  0  0  0  0  0
   -5.8060    3.1440  -77.7220 N   0  0  0  0  0  0  0  0  0  0  0  0
   -7.9670    2.4770  -77.7060 C   0  0  0  0  0  0  0  0  0  0  0  0
   -5.6700    1.8220  -77.3410 C   0  0  0  0  0  0  0  0  0  0  0  0
   -8.1670    1.3760  -78.5710 O   0  0  0  0  0  0  0  0  0  0  0  0
   -8.5560    2.5900  -76.4990 N   0  0  0  0  0  0  0  0  0  0  0  0
   -5.1080    1.4370  -76.3190 O   0  0  0  0  0  0  0  0  0  0  0  0
   -6.2860    1.0230  -78.2940 N   0  0  0  0  0  0  0  0  0  0  0  0
   -9.7260    3.2560  -76.5500 C   0  0  0  0  0  0  0  0  0  0  0  0
   -6.2850    1.4270  -79.7110 C   0  0  0  0  0  0  0  0  0  0  0  0
  -10.7460    2.9690  -75.6770 C   0  0  0  0  0  0  0  0  0  0  0  0
   -9.8670    4.2210  -77.5110 C   0  0  0  0  0  0  0  0  0  0  0  0
   -7.4760    0.9830  -80.2930 C   0  0  0  0  0  0  0  0  0  0  0  0
  -11.9360    3.6860  -75.7910 C   0  0  0  0  0  0  0  0  0  0  0  0
  -11.0320    4.9070  -77.5980 C   0  0  0  0  0  0  0  0  0  0  0  0
   -8.1330   -0.3050  -79.7860 C   0  0  0  0  0  0  0  0  0  0  0  0
   -8.1210    1.6820  -81.3500 C   0  0  0  0  0  0  0  0  0  0  0  0
  -12.1130    4.6850  -76.7670 C   0  0  0  0  0  0  0  0  0  0  0  0
   -9.4230   -0.7870  -80.4080 C   0  0  0  0  0  0  0  0  0  0  0  0
   -9.3050    1.2230  -81.9120 C   0  0  0  0  0  0  0  0  0  0  0  0
  -13.2900    5.4120  -76.9060 C   0  0  0  0  0  0  0  0  0  0  0  0
   -9.9500    0.0770  -81.5040 C   0  0  0  0  0  0  0  0  0  0  0  0
  -13.6740    5.9120  -75.6890 C   0  0  0  0  0  0  0  0  0  0  0  0
  -12.7130    6.5220  -74.9470 N   0  0  0  0  0  0  0  0  0  0  0  0
  -14.9740    5.7800  -75.2760 O   0  0  0  0  0  0  0  0  0  0  0  0
  1  2  1  0
  2  3  1  0
  2  4  1  0
  4  5  1  6
  4  6  1  0
  5  7  1  0
  6  8  2  0
  6  9  1  0
  7 10  2  0
  7 11  1  0
  9 12  1  0
 11 13  1  0
 12 14  2  0
 12 15  1  0
 13 16  1  0
 14 17  1  0
 15 18  2  0
 16 19  2  0
 16 20  1  0
 17 21  2  0
 18 21  1  0
 19 22  1  0
 20 23  2  0
 21 24  1  0
 22 25  2  0
 23 25  1  0
 24 26  1  0
 26 27  1  0
 26 28  2  0
M  END
>  <ref_url>  (289) 
https://fakepage.com

>  <submitter_name>  (289) 
Steph Wills

>  <submitter_email>  (289) 
stephanie.wills@dtc.ox.ac.uk

>  <submitter_institution>  (289) 
University of Oxford

>  <generation_date>  (289) 
2020-06-04

>  <method>  (289) 
Fragment network

>  <ref_mols>  (289) 
x0176_0B,x0212_0B

>  <ref_pdb>  (289) 
references/x0176-0B-x0212-0B-359723.holo_minimised_nolig.pdb

>  <original SMILES>  (289) 
CC(C)C(NC(=O)NCc1ccccc1)C(=O)Nc1ccc(CC(N)=O)cc1

>  <synthon>  (289) 
[Xe]c1ccccc1

>  <original_name>  (289) 
x0176-0B-x0212-0B-359723

>  <comRMSD_score>  (289) 
0.9039098175887532

>  <IF_score>  (289) 
0.675

>  <SuCOS_score>  (289) 
0.4954797244198008

>  <compound_ID>  (289) 
REAL:Z367375052

$$$$

     RDKit          3D

 21 22  0  0  0  0  0  0  0  0999 V2000
  -12.6460    6.2760  -73.9040 C   0  0  0  0  0  0  0  0  0  0  0  0
  -12.9520    6.1980  -75.4080 C   0  0  0  0  0  0  0  0  0  0  0  0
  -13.0480    5.0930  -75.9520 O   0  0  0  0  0  0  0  0  0  0  0  0
  -12.4390    4.9220  -77.1660 C   0  0  0  0  0  0  0  0  0  0  0  0
  -12.8380    5.3580  -78.2300 O   0  0  0  0  0  0  0  0  0  0  0  0
  -11.2590    4.1560  -77.0330 C   0  0  0  0  0  0  0  0  0  0  0  0
  -11.2040    3.1770  -76.0260 C   0  0  0  0  0  0  0  0  0  0  0  0
  -10.1220    4.3370  -77.8760 C   0  0  0  0  0  0  0  0  0  0  0  0
  -10.0550    2.4030  -75.8540 C   0  0  0  0  0  0  0  0  0  0  0  0
   -8.9690    3.5450  -77.6790 C   0  0  0  0  0  0  0  0  0  0  0  0
   -8.9650    2.6010  -76.6760 C   0  0  0  0  0  0  0  0  0  0  0  0
   -7.5150    3.7100  -78.6420 S   0  0  0  0  0  0  0  0  0  0  0  0
   -7.8900    4.1940  -79.9400 O   0  0  0  0  0  0  0  0  0  0  0  0
   -6.4570    4.2820  -77.8350 O   0  0  0  0  0  0  0  0  0  0  0  0
   -7.1310    2.0130  -78.7990 C   0  0  0  0  0  0  0  0  0  0  0  0
   -8.0200    1.3040  -79.7580 C   0  0  0  0  0  0  0  0  0  0  0  0
   -8.6390    0.0220  -79.3110 C   0  0  0  0  0  0  0  0  0  0  0  0
   -8.3030    1.7720  -81.0550 C   0  0  0  0  0  0  0  0  0  0  0  0
   -9.4690   -0.6620  -80.1840 C   0  0  0  0  0  0  0  0  0  0  0  0
   -9.1380    1.0400  -81.8840 C   0  0  0  0  0  0  0  0  0  0  0  0
   -9.7130   -0.1570  -81.4480 C   0  0  0  0  0  0  0  0  0  0  0  0
  1  2  1  0
  2  3  1  0
  3  4  1  0
  4  5  2  0
  4  6  1  0
  6  7  2  0
  6  8  1  0
  7  9  1  0
  8 10  2  0
  9 11  2  0
 10 11  1  0
 10 12  1  0
 12 13  2  0
 12 14  2  0
 12 15  1  0
 15 16  1  0
 16 17  2  0
 16 18  1  0
 17 19  1  0
 18 20  2  0
 19 21  2  0
 20 21  1  0
M  END
>  <ref_url>  (290) 
https://fakepage.com

>  <submitter_name>  (290) 
Steph Wills

>  <submitter_email>  (290) 
stephanie.wills@dtc.ox.ac.uk

>  <submitter_institution>  (290) 
University of Oxford

>  <generation_date>  (290) 
2020-06-04

>  <method>  (290) 
Fragment network

>  <ref_mols>  (290) 
x0176_0B,x0212_0B

>  <ref_pdb>  (290) 
references/x0176-0B-x0212-0B-361185.holo_minimised_nolig.pdb

>  <original SMILES>  (290) 
CCOC(=O)c1cccc(S(=O)(=O)Cc2ccccc2)c1

>  <synthon>  (290) 
[Xe]c1ccccc1

>  <original_name>  (290) 
x0176-0B-x0212-0B-361185

>  <comRMSD_score>  (290) 
0.5729512939030541

>  <IF_score>  (290) 
0.25

>  <SuCOS_score>  (290) 
0.5001263709080135

>  <compound_ID>  (290) 
REAL:Z1153216808

$$$$

     RDKit          3D

 20 21  0  0  0  0  0  0  0  0999 V2000
  -13.5630    5.8370  -75.8650 C   0  0  0  0  0  0  0  0  0  0  0  0
  -12.8620    5.6260  -77.1660 C   0  0  0  0  0  0  0  0  0  0  0  0
  -11.7060    4.6580  -76.9720 C   0  0  0  0  0  0  0  0  0  0  0  0
  -11.8550    3.7220  -75.9510 C   0  0  0  0  0  0  0  0  0  0  0  0
  -10.5660    4.6870  -77.7500 C   0  0  0  0  0  0  0  0  0  0  0  0
  -10.8380    2.7990  -75.7100 C   0  0  0  0  0  0  0  0  0  0  0  0
   -9.5650    3.7720  -77.5090 C   0  0  0  0  0  0  0  0  0  0  0  0
   -9.6920    2.8200  -76.4880 C   0  0  0  0  0  0  0  0  0  0  0  0
   -8.6150    1.9700  -76.3610 N   0  0  0  0  0  0  0  0  0  0  0  0
   -7.3540    2.0640  -76.8200 C   0  0  0  0  0  0  0  0  0  0  0  0
   -5.9730    1.3400  -76.2450 S   0  0  0  0  0  0  0  0  0  0  0  0
   -7.2010    2.9370  -77.9810 N   0  0  0  0  0  0  0  0  0  0  0  0
   -6.6900    2.2770  -79.1910 C   0  0  0  0  0  0  0  0  0  0  0  0
   -5.5270    2.3620  -79.5960 O   0  0  0  0  0  0  0  0  0  0  0  0
   -7.7710    1.4390  -79.9260 C   0  0  0  0  0  0  0  0  0  0  0  0
   -8.3080    2.0940  -81.2080 C   0  0  0  0  0  0  0  0  0  0  0  0
   -8.2340    0.1900  -79.4850 C   0  0  0  0  0  0  0  0  0  0  0  0
   -9.3690    1.2970  -81.9660 C   0  0  0  0  0  0  0  0  0  0  0  0
   -9.2070   -0.5230  -80.1930 C   0  0  0  0  0  0  0  0  0  0  0  0
   -9.7760   -0.0430  -81.3720 C   0  0  0  0  0  0  0  0  0  0  0  0
  1  2  1  0
  2  3  1  0
  3  4  2  0
  3  5  1  0
  4  6  1  0
  5  7  2  0
  6  8  2  0
  7  8  1  0
  8  9  1  0
  9 10  1  0
 10 11  2  0
 10 12  1  0
 12 13  1  0
 13 14  2  0
 13 15  1  0
 15 16  2  0
 15 17  1  0
 16 18  1  0
 17 19  2  0
 18 20  2  0
 19 20  1  0
M  END
>  <ref_url>  (291) 
https://fakepage.com

>  <submitter_name>  (291) 
Steph Wills

>  <submitter_email>  (291) 
stephanie.wills@dtc.ox.ac.uk

>  <submitter_institution>  (291) 
University of Oxford

>  <generation_date>  (291) 
2020-06-04

>  <method>  (291) 
Fragment network

>  <ref_mols>  (291) 
x0176_0B,x0212_0B

>  <ref_pdb>  (291) 
references/x0176-0B-x0212-0B-361938.holo_minimised_nolig.pdb

>  <original SMILES>  (291) 
CCc1ccc(NC(=S)NC(=O)c2ccccc2)cc1

>  <synthon>  (291) 
[Xe]c1ccccc1

>  <original_name>  (291) 
x0176-0B-x0212-0B-361938

>  <comRMSD_score>  (291) 
0.7576240547483521

>  <IF_score>  (291) 
0.8

>  <SuCOS_score>  (291) 
0.504987160312709

>  <compound_ID>  (291) 
MOLPORT:002-119-136

$$$$

     RDKit          3D

 23 24  0  0  0  0  0  0  0  0999 V2000
  -13.4970    6.0350  -76.1120 C   0  0  0  0  0  0  0  0  0  0  0  0
  -13.0090    5.1510  -77.2340 C   0  0  0  0  0  0  0  0  0  0  0  0
  -13.6760    5.1810  -78.5020 O   0  0  0  0  0  0  0  0  0  0  0  0
  -11.8150    4.2330  -76.9890 C   0  0  0  0  0  0  0  0  0  0  0  0
  -10.6440    4.4360  -77.9460 C   0  0  0  0  0  0  0  0  0  0  0  0
  -11.7680    3.2810  -75.9760 C   0  0  0  0  0  0  0  0  0  0  0  0
   -9.4810    3.5330  -77.6890 C   0  0  0  0  0  0  0  0  0  0  0  0
  -10.6360    2.4800  -75.8130 C   0  0  0  0  0  0  0  0  0  0  0  0
   -9.5230    2.5980  -76.6430 C   0  0  0  0  0  0  0  0  0  0  0  0
   -8.4780    1.7280  -76.3520 N   0  0  0  0  0  0  0  0  0  0  0  0
   -7.2140    1.8080  -76.8530 C   0  0  0  0  0  0  0  0  0  0  0  0
   -6.0560    1.1060  -76.3920 O   0  0  0  0  0  0  0  0  0  0  0  0
   -7.1810    2.6910  -77.9270 N   0  0  0  0  0  0  0  0  0  0  0  0
   -6.5370    2.5660  -79.1370 C   0  0  2  0  0  0  0  0  0  0  0  0
   -5.0330    2.4230  -78.9920 C   0  0  0  0  0  0  0  0  0  0  0  0
   -6.8330    3.8860  -79.8650 C   0  0  0  0  0  0  0  0  0  0  0  0
   -7.1240    1.4290  -79.9910 C   0  0  0  0  0  0  0  0  0  0  0  0
   -5.8390    4.8700  -79.5640 O   0  0  0  0  0  0  0  0  0  0  0  0
   -7.4090    1.6500  -81.4540 C   0  0  0  0  0  0  0  0  0  0  0  0
   -7.4320    0.1610  -79.4690 C   0  0  0  0  0  0  0  0  0  0  0  0
   -7.9530    0.6270  -82.2380 C   0  0  0  0  0  0  0  0  0  0  0  0
   -7.9820   -0.8350  -80.2940 C   0  0  0  0  0  0  0  0  0  0  0  0
   -8.2380   -0.6120  -81.6560 C   0  0  0  0  0  0  0  0  0  0  0  0
  1  2  1  0
  2  3  2  0
  2  4  1  0
  4  5  2  0
  4  6  1  0
  5  7  1  0
  6  8  2  0
  7  9  2  0
  8  9  1  0
  9 10  1  0
 10 11  1  0
 11 12  2  0
 11 13  1  0
 14 13  1  0
 14 15  1  1
 14 16  1  0
 14 17  1  0
 16 18  1  0
 17 19  2  0
 17 20  1  0
 19 21  1  0
 20 22  2  0
 21 23  2  0
 22 23  1  0
M  END
>  <ref_url>  (292) 
https://fakepage.com

>  <submitter_name>  (292) 
Steph Wills

>  <submitter_email>  (292) 
stephanie.wills@dtc.ox.ac.uk

>  <submitter_institution>  (292) 
University of Oxford

>  <generation_date>  (292) 
2020-06-04

>  <method>  (292) 
Fragment network

>  <ref_mols>  (292) 
x0176_0B,x0212_0B

>  <ref_pdb>  (292) 
references/x0176-0B-x0212-0B-362585.holo_minimised_nolig.pdb

>  <original SMILES>  (292) 
CC(=O)c1ccc(NC(=O)NC(C)(CO)c2ccccc2)cc1

>  <synthon>  (292) 
[Xe]c1ccccc1

>  <original_name>  (292) 
x0176-0B-x0212-0B-362585

>  <comRMSD_score>  (292) 
0.8854021930615827

>  <IF_score>  (292) 
0.1875

>  <SuCOS_score>  (292) 
0.4459364480168651

>  <compound_ID>  (292) 
REAL:Z1177026552

$$$$

     RDKit          3D

 22 23  0  0  0  0  0  0  0  0999 V2000
  -12.9750    7.3230  -76.7470 C   0  0  0  0  0  0  0  0  0  0  0  0
  -13.2060    6.0880  -77.6130 C   0  0  0  0  0  0  0  0  0  0  0  0
  -14.3480    6.0380  -78.4160 C   0  0  0  0  0  0  0  0  0  0  0  0
  -13.0900    4.8400  -76.7910 C   0  0  0  0  0  0  0  0  0  0  0  0
  -14.1150    4.3050  -76.0590 O   0  0  0  0  0  0  0  0  0  0  0  0
  -11.9010    4.1390  -76.7080 C   0  0  0  0  0  0  0  0  0  0  0  0
  -10.8270    4.5200  -77.5070 C   0  0  0  0  0  0  0  0  0  0  0  0
  -11.7430    3.0490  -75.8310 C   0  0  0  0  0  0  0  0  0  0  0  0
   -9.5660    3.7600  -77.3940 C   0  0  0  0  0  0  0  0  0  0  0  0
  -10.5430    2.3370  -75.7380 C   0  0  0  0  0  0  0  0  0  0  0  0
   -9.4650    2.6990  -76.5190 C   0  0  0  0  0  0  0  0  0  0  0  0
   -8.2070    2.0110  -76.4680 N   0  0  0  0  0  0  0  0  0  0  0  0
   -7.2230    2.8070  -77.0410 C   0  0  0  0  0  0  0  0  0  0  0  0
   -6.4090    3.3930  -76.3220 O   0  0  0  0  0  0  0  0  0  0  0  0
   -7.2190    2.9050  -78.4820 N   0  0  0  0  0  0  0  0  0  0  0  0
   -6.2920    2.1100  -79.3190 C   0  0  0  0  0  0  0  0  0  0  0  0
   -6.9820    1.1730  -80.1030 C   0  0  0  0  0  0  0  0  0  0  0  0
   -7.3780   -0.0520  -79.5650 C   0  0  0  0  0  0  0  0  0  0  0  0
   -7.3000    1.4590  -81.4420 C   0  0  0  0  0  0  0  0  0  0  0  0
   -8.1260   -1.0630  -80.3920 C   0  0  0  0  0  0  0  0  0  0  0  0
   -7.9860    0.5770  -82.2780 C   0  0  0  0  0  0  0  0  0  0  0  0
   -8.4220   -0.6770  -81.8430 C   0  0  0  0  0  0  0  0  0  0  0  0
  1  2  1  0
  2  3  1  0
  2  4  1  0
  4  5  2  0
  4  6  1  0
  6  7  2  0
  6  8  1  0
  7  9  1  0
  8 10  2  0
  9 11  2  0
 10 11  1  0
 11 12  1  0
 12 13  1  0
 13 14  2  0
 13 15  1  0
 15 16  1  0
 16 17  1  0
 17 18  2  0
 17 19  1  0
 18 20  1  0
 19 21  2  0
 20 22  2  0
 21 22  1  0
M  END
>  <ref_url>  (293) 
https://fakepage.com

>  <submitter_name>  (293) 
Steph Wills

>  <submitter_email>  (293) 
stephanie.wills@dtc.ox.ac.uk

>  <submitter_institution>  (293) 
University of Oxford

>  <generation_date>  (293) 
2020-06-04

>  <method>  (293) 
Fragment network

>  <ref_mols>  (293) 
x0176_0B,x0212_0B

>  <ref_pdb>  (293) 
references/x0176-0B-x0212-0B-362993.holo_minimised_nolig.pdb

>  <original SMILES>  (293) 
CC(C)C(=O)c1ccc(NC(=O)NCc2ccccc2)cc1

>  <synthon>  (293) 
[Xe]c1ccccc1

>  <original_name>  (293) 
x0176-0B-x0212-0B-362993

>  <comRMSD_score>  (293) 
0.9787704131915352

>  <IF_score>  (293) 
0.3541666666666666

>  <SuCOS_score>  (293) 
0.4139523232104617

>  <compound_ID>  (293) 
REAL:PV-001947070441

$$$$

     RDKit          3D

 25 26  0  0  0  0  0  0  0  0999 V2000
  -14.4740    7.4710  -76.8710 C   0  0  0  0  0  0  0  0  0  0  0  0
  -13.2270    6.7150  -76.4480 C   0  0  0  0  0  0  0  0  0  0  0  0
  -13.1700    5.3830  -77.1150 C   0  0  0  0  0  0  0  0  0  0  0  0
  -14.0420    5.0650  -77.9120 O   0  0  0  0  0  0  0  0  0  0  0  0
  -12.0470    4.4760  -76.7670 C   0  0  0  0  0  0  0  0  0  0  0  0
  -12.1840    3.4860  -75.7990 C   0  0  0  0  0  0  0  0  0  0  0  0
  -10.8380    4.6350  -77.4280 C   0  0  0  0  0  0  0  0  0  0  0  0
  -11.1180    2.6620  -75.4840 C   0  0  0  0  0  0  0  0  0  0  0  0
   -9.7700    3.8030  -77.1060 C   0  0  0  0  0  0  0  0  0  0  0  0
   -9.9260    2.8190  -76.1260 C   0  0  0  0  0  0  0  0  0  0  0  0
   -8.8610    2.0590  -75.8590 O   0  0  0  0  0  0  0  0  0  0  0  0
   -7.5600    2.6140  -76.0220 C   0  0  0  0  0  0  0  0  0  0  0  0
   -6.5760    1.4610  -76.2240 C   0  0  2  0  0  0  0  0  0  0  0  0
   -5.5290    1.4430  -75.2390 O   0  0  0  0  0  0  0  0  0  0  0  0
   -5.9820    1.5810  -77.6230 C   0  0  0  0  0  0  0  0  0  0  0  0
   -6.7050    2.6490  -78.3590 N   0  0  0  0  0  0  0  0  0  0  0  0
   -8.0910    2.9020  -77.9050 C   0  0  0  0  0  0  0  0  0  0  0  0
   -6.6400    2.4320  -79.7940 C   0  0  0  0  0  0  0  0  0  0  0  0
   -8.9620    3.8180  -78.7720 C   0  0  0  0  0  0  0  0  0  0  0  0
   -7.7410    1.5420  -80.3110 C   0  0  0  0  0  0  0  0  0  0  0  0
   -8.4610    1.9650  -81.4120 C   0  0  0  0  0  0  0  0  0  0  0  0
   -8.0540    0.3080  -79.7190 C   0  0  0  0  0  0  0  0  0  0  0  0
   -9.4730    1.1790  -81.9250 C   0  0  0  0  0  0  0  0  0  0  0  0
   -9.0790   -0.4810  -80.2410 C   0  0  0  0  0  0  0  0  0  0  0  0
   -9.7890   -0.0420  -81.3490 C   0  0  0  0  0  0  0  0  0  0  0  0
  1  2  1  0
  2  3  1  0
  3  4  2  0
  3  5  1  0
  5  6  2  0
  5  7  1  0
  6  8  1  0
  7  9  2  0
  8 10  2  0
  9 10  1  0
 10 11  1  0
 11 12  1  0
 12 13  1  0
 13 14  1  1
 13 15  1  0
 15 16  1  0
 16 17  1  0
 16 18  1  0
 17 19  1  0
 18 20  1  0
 20 21  2  0
 20 22  1  0
 21 23  1  0
 22 24  2  0
 23 25  2  0
 24 25  1  0
M  END
>  <ref_url>  (294) 
https://fakepage.com

>  <submitter_name>  (294) 
Steph Wills

>  <submitter_email>  (294) 
stephanie.wills@dtc.ox.ac.uk

>  <submitter_institution>  (294) 
University of Oxford

>  <generation_date>  (294) 
2020-06-04

>  <method>  (294) 
Fragment network

>  <ref_mols>  (294) 
x0176_0B,x0212_0B

>  <ref_pdb>  (294) 
references/x0176-0B-x0212-0B-363235.holo_minimised_nolig.pdb

>  <original SMILES>  (294) 
CCC(=O)c1ccc(OCC(O)CN(CC)Cc2ccccc2)cc1

>  <synthon>  (294) 
[Xe]c1ccccc1

>  <original_name>  (294) 
x0176-0B-x0212-0B-363235

>  <comRMSD_score>  (294) 
0.8713640980120472

>  <IF_score>  (294) 
0.8

>  <SuCOS_score>  (294) 
0.4777308570523466

>  <compound_ID>  (294) 
MOLPORT:003-073-398

$$$$

     RDKit          3D

 24 25  0  0  0  0  0  0  0  0999 V2000
   -4.6910    3.5000  -79.9990 N   0  0  0  0  0  0  0  0  0  0  0  0
   -5.7660    3.5050  -79.5520 C   0  0  0  0  0  0  0  0  0  0  0  0
   -7.1670    3.5600  -78.9390 C   0  0  0  0  0  0  0  0  0  0  0  0
   -7.7460    2.2070  -78.5860 C   0  0  2  0  0  0  0  0  0  0  0  0
   -6.6370    1.4210  -77.8750 C   0  0  0  0  0  0  0  0  0  0  0  0
   -8.2710    1.4170  -79.7520 C   0  0  0  0  0  0  0  0  0  0  0  0
   -6.9330    1.6950  -76.4270 C   0  0  0  0  0  0  0  0  0  0  0  0
   -8.3950    1.9470  -81.0420 C   0  0  0  0  0  0  0  0  0  0  0  0
   -8.6530    0.0990  -79.5000 C   0  0  0  0  0  0  0  0  0  0  0  0
   -5.9560    1.9680  -75.7460 O   0  0  0  0  0  0  0  0  0  0  0  0
   -8.2950    1.6110  -76.0230 N   0  0  0  0  0  0  0  0  0  0  0  0
   -8.9040    1.1410  -82.0480 C   0  0  0  0  0  0  0  0  0  0  0  0
   -9.1570   -0.6930  -80.5050 C   0  0  0  0  0  0  0  0  0  0  0  0
   -9.3310    2.5410  -76.2420 C   0  0  0  0  0  0  0  0  0  0  0  0
   -9.2820   -0.1700  -81.7780 C   0  0  0  0  0  0  0  0  0  0  0  0
   -9.1910    3.5610  -77.1720 C   0  0  0  0  0  0  0  0  0  0  0  0
  -10.6200    2.4420  -75.4680 C   0  0  0  0  0  0  0  0  0  0  0  0
  -10.2020    4.4690  -77.3970 C   0  0  0  0  0  0  0  0  0  0  0  0
  -11.6600    3.3730  -75.6890 C   0  0  0  0  0  0  0  0  0  0  0  0
  -11.5030    4.4010  -76.6380 C   0  0  0  0  0  0  0  0  0  0  0  0
  -12.5260    5.4620  -76.9900 C   0  0  0  0  0  0  0  0  0  0  0  0
  -12.8700    6.3160  -75.9670 C   0  0  0  0  0  0  0  0  0  0  0  0
  -12.4560    5.9010  -74.6540 N   0  0  0  0  0  0  0  0  0  0  0  0
  -13.5830    7.5060  -76.3260 O   0  0  0  0  0  0  0  0  0  0  0  0
  1  2  3  0
  2  3  1  0
  4  3  1  6
  4  5  1  0
  4  6  1  0
  5  7  1  0
  6  8  2  0
  6  9  1  0
  7 10  2  0
  7 11  1  0
  8 12  1  0
  9 13  2  0
 11 14  1  0
 12 15  2  0
 13 15  1  0
 14 16  2  0
 14 17  1  0
 16 18  1  0
 17 19  2  0
 18 20  2  0
 19 20  1  0
 20 21  1  0
 21 22  1  0
 22 23  1  0
 22 24  2  0
M  END
>  <ref_url>  (295) 
https://fakepage.com

>  <submitter_name>  (295) 
Steph Wills

>  <submitter_email>  (295) 
stephanie.wills@dtc.ox.ac.uk

>  <submitter_institution>  (295) 
University of Oxford

>  <generation_date>  (295) 
2020-06-04

>  <method>  (295) 
Fragment network

>  <ref_mols>  (295) 
x0176_0B,x0212_0B

>  <ref_pdb>  (295) 
references/x0176-0B-x0212-0B-363914.holo_minimised_nolig.pdb

>  <original SMILES>  (295) 
N#CCC(CC(=O)Nc1ccc(CC(N)=O)cc1)c1ccccc1

>  <synthon>  (295) 
[Xe]c1ccccc1

>  <original_name>  (295) 
x0176-0B-x0212-0B-363914

>  <comRMSD_score>  (295) 
0.8058157357609731

>  <IF_score>  (295) 
0.8

>  <SuCOS_score>  (295) 
0.4959037898977567

>  <compound_ID>  (295) 
REAL:Z1949765778

$$$$

     RDKit          3D

 20 21  0  0  0  0  0  0  0  0999 V2000
  -12.8590    6.5410  -77.0290 O   0  0  0  0  0  0  0  0  0  0  0  0
  -12.8650    5.3170  -76.9310 C   0  0  0  0  0  0  0  0  0  0  0  0
  -11.6300    4.4760  -76.7070 C   0  0  0  0  0  0  0  0  0  0  0  0
  -10.5020    4.7080  -77.7010 C   0  0  0  0  0  0  0  0  0  0  0  0
  -11.5250    3.5610  -75.6770 C   0  0  0  0  0  0  0  0  0  0  0  0
   -9.3580    3.9380  -77.4830 C   0  0  0  0  0  0  0  0  0  0  0  0
  -10.3510    2.8400  -75.5400 C   0  0  0  0  0  0  0  0  0  0  0  0
   -9.2850    3.0270  -76.4170 C   0  0  0  0  0  0  0  0  0  0  0  0
   -8.2060    2.2550  -76.1250 O   0  0  0  0  0  0  0  0  0  0  0  0
   -7.6270    1.1530  -77.1480 S   0  0  0  0  0  0  0  0  0  0  0  0
   -6.8250    0.1910  -76.4230 O   0  0  0  0  0  0  0  0  0  0  0  0
   -8.7390    0.7310  -77.9730 O   0  0  0  0  0  0  0  0  0  0  0  0
   -6.5530    2.1960  -78.0170 C   0  0  0  0  0  0  0  0  0  0  0  0
   -6.6520    2.2740  -79.4000 C   0  0  0  0  0  0  0  0  0  0  0  0
   -7.6760    1.4630  -80.1120 C   0  0  0  0  0  0  0  0  0  0  0  0
   -8.3970    2.1270  -81.2910 C   0  0  0  0  0  0  0  0  0  0  0  0
   -7.9880    0.1450  -79.7370 C   0  0  0  0  0  0  0  0  0  0  0  0
   -9.4420    1.2520  -81.9860 C   0  0  0  0  0  0  0  0  0  0  0  0
   -8.9500   -0.6330  -80.3850 C   0  0  0  0  0  0  0  0  0  0  0  0
   -9.6890   -0.1770  -81.4670 C   0  0  0  0  0  0  0  0  0  0  0  0
  1  2  2  0
  2  3  1  0
  3  4  2  0
  3  5  1  0
  4  6  1  0
  5  7  2  0
  6  8  2  0
  7  8  1  0
  8  9  1  0
 10  9  1  0
 10 11  2  0
 10 12  2  0
 10 13  1  0
 13 14  2  3
 14 15  1  0
 15 16  2  0
 15 17  1  0
 16 18  1  0
 17 19  2  0
 18 20  2  0
 19 20  1  0
M  END
>  <ref_url>  (296) 
https://fakepage.com

>  <submitter_name>  (296) 
Steph Wills

>  <submitter_email>  (296) 
stephanie.wills@dtc.ox.ac.uk

>  <submitter_institution>  (296) 
University of Oxford

>  <generation_date>  (296) 
2020-06-04

>  <method>  (296) 
Fragment network

>  <ref_mols>  (296) 
x0176_0B,x0212_0B

>  <ref_pdb>  (296) 
references/x0176-0B-x0212-0B-364012.holo_minimised_nolig.pdb

>  <original SMILES>  (296) 
O=Cc1ccc(OS(=O)(=O)C=Cc2ccccc2)cc1

>  <synthon>  (296) 
[Xe]c1ccccc1

>  <original_name>  (296) 
x0176-0B-x0212-0B-364012

>  <comRMSD_score>  (296) 
0.6973975649773669

>  <IF_score>  (296) 
0.675

>  <SuCOS_score>  (296) 
0.4389474410039228

>  <compound_ID>  (296) 
MOLPORT:003-702-385

$$$$

     RDKit          3D

 21 22  0  0  0  0  0  0  0  0999 V2000
  -12.8990    4.9460  -74.5540 C   0  0  0  0  0  0  0  0  0  0  0  0
  -13.1230    5.6140  -75.8950 C   0  0  0  0  0  0  0  0  0  0  0  0
  -12.4640    5.0810  -76.9960 C   0  0  1  0  0  0  0  0  0  0  0  0
  -11.9530    6.1910  -77.7310 O   0  0  0  0  0  0  0  0  0  0  0  0
  -11.4370    4.1430  -76.7500 C   0  0  0  0  0  0  0  0  0  0  0  0
  -11.5740    3.2200  -75.6980 C   0  0  0  0  0  0  0  0  0  0  0  0
  -10.2410    4.0550  -77.5010 C   0  0  0  0  0  0  0  0  0  0  0  0
  -10.5640    2.2970  -75.4420 C   0  0  0  0  0  0  0  0  0  0  0  0
   -9.2260    3.1680  -77.2790 C   0  0  0  0  0  0  0  0  0  0  0  0
   -9.9230    4.7280  -78.4470 O   0  0  0  0  0  0  0  0  0  0  0  0
   -9.3180    2.2610  -76.2630 C   0  0  0  0  0  0  0  0  0  0  0  0
   -8.8130    4.1180  -79.1580 C   0  0  0  0  0  0  0  0  0  0  0  0
   -7.5830    3.9540  -78.4580 C   0  0  0  0  0  0  0  0  0  0  0  0
   -7.2600    2.5800  -78.2830 O   0  0  0  0  0  0  0  0  0  0  0  0
   -6.6750    2.0330  -79.4390 C   0  0  0  0  0  0  0  0  0  0  0  0
   -7.7820    1.3640  -80.1730 C   0  0  0  0  0  0  0  0  0  0  0  0
   -8.2170    0.0400  -79.5710 C   0  0  0  0  0  0  0  0  0  0  0  0
   -8.3760    1.8930  -81.3080 C   0  0  0  0  0  0  0  0  0  0  0  0
   -9.3380   -0.6210  -80.3210 C   0  0  0  0  0  0  0  0  0  0  0  0
   -9.3990    1.2060  -81.9250 C   0  0  0  0  0  0  0  0  0  0  0  0
   -9.8770   -0.0170  -81.4530 C   0  0  0  0  0  0  0  0  0  0  0  0
  1  2  1  0
  2  3  1  0
  3  4  1  1
  3  5  1  0
  5  6  2  0
  5  7  1  0
  6  8  1  0
  7  9  2  0
  7 10  1  0
  8 11  2  0
  9 11  1  0
 10 12  1  0
 12 13  1  0
 13 14  1  0
 14 15  1  0
 15 16  1  0
 16 17  2  0
 16 18  1  0
 17 19  1  0
 18 20  2  0
 19 21  2  0
 20 21  1  0
M  END
>  <ref_url>  (297) 
https://fakepage.com

>  <submitter_name>  (297) 
Steph Wills

>  <submitter_email>  (297) 
stephanie.wills@dtc.ox.ac.uk

>  <submitter_institution>  (297) 
University of Oxford

>  <generation_date>  (297) 
2020-06-04

>  <method>  (297) 
Fragment network

>  <ref_mols>  (297) 
x0176_0B,x0212_0B

>  <ref_pdb>  (297) 
references/x0176-0B-x0212-0B-364118.holo_minimised_nolig.pdb

>  <original SMILES>  (297) 
CCC(O)c1ccccc1OCCOCc1ccccc1

>  <synthon>  (297) 
[Xe]c1ccccc1

>  <original_name>  (297) 
x0176-0B-x0212-0B-364118

>  <comRMSD_score>  (297) 
0.7917936852488793

>  <IF_score>  (297) 
0.575

>  <SuCOS_score>  (297) 
0.4753124533350104

>  <compound_ID>  (297) 
CHEMSPACE-BB:CSMB00014805902, CHEMSPACE-BB:CSMB00014805925, CHEMSPACE-BB:CSMB00014805926

$$$$

     RDKit          3D

 22 23  0  0  0  0  0  0  0  0999 V2000
   -6.4190    2.0090  -74.1240 C   0  0  0  0  0  0  0  0  0  0  0  0
   -7.3280    2.2580  -75.3350 C   0  0  1  0  0  0  0  0  0  0  0  0
   -6.4980    2.2780  -76.6320 C   0  0  0  0  0  0  0  0  0  0  0  0
   -8.4530    1.1970  -75.3860 C   0  0  0  0  0  0  0  0  0  0  0  0
   -7.2580    1.7350  -77.7060 O   0  0  0  0  0  0  0  0  0  0  0  0
   -9.7650    1.7910  -75.4510 O   0  0  0  0  0  0  0  0  0  0  0  0
   -6.9690    2.2680  -78.9990 C   0  0  0  0  0  0  0  0  0  0  0  0
   -9.9500    2.7720  -76.3450 C   0  0  0  0  0  0  0  0  0  0  0  0
   -7.9210    1.5490  -79.9080 C   0  0  0  0  0  0  0  0  0  0  0  0
   -9.0200    3.0720  -77.3060 C   0  0  0  0  0  0  0  0  0  0  0  0
  -11.1450    3.5060  -76.2730 C   0  0  0  0  0  0  0  0  0  0  0  0
   -8.3370    2.0770  -81.1370 C   0  0  0  0  0  0  0  0  0  0  0  0
   -8.4070    0.3010  -79.4980 C   0  0  0  0  0  0  0  0  0  0  0  0
   -9.2500    4.0840  -78.1940 C   0  0  0  0  0  0  0  0  0  0  0  0
  -11.3880    4.5460  -77.1670 C   0  0  0  0  0  0  0  0  0  0  0  0
   -9.2260    1.3560  -81.9260 C   0  0  0  0  0  0  0  0  0  0  0  0
   -9.2960   -0.4120  -80.2920 C   0  0  0  0  0  0  0  0  0  0  0  0
  -10.4190    4.8050  -78.1150 C   0  0  0  0  0  0  0  0  0  0  0  0
  -12.6480    5.4000  -77.1590 C   0  0  0  0  0  0  0  0  0  0  0  0
   -9.7030    0.1190  -81.5020 C   0  0  0  0  0  0  0  0  0  0  0  0
  -13.3260    5.5590  -75.8110 C   0  0  0  0  0  0  0  0  0  0  0  0
  -12.7190    6.6430  -75.0480 N   0  0  0  0  0  0  0  0  0  0  0  0
  2  1  1  1
  2  3  1  0
  2  4  1  0
  3  5  1  0
  4  6  1  0
  5  7  1  0
  6  8  1  0
  7  9  1  0
  8 10  2  0
  8 11  1  0
  9 12  2  0
  9 13  1  0
 10 14  1  0
 11 15  2  0
 12 16  1  0
 13 17  2  0
 14 18  2  0
 15 18  1  0
 15 19  1  0
 16 20  2  0
 17 20  1  0
 19 21  1  0
 21 22  1  0
M  END
>  <ref_url>  (298) 
https://fakepage.com

>  <submitter_name>  (298) 
Steph Wills

>  <submitter_email>  (298) 
stephanie.wills@dtc.ox.ac.uk

>  <submitter_institution>  (298) 
University of Oxford

>  <generation_date>  (298) 
2020-06-04

>  <method>  (298) 
Fragment network

>  <ref_mols>  (298) 
x0176_0B,x0212_0B

>  <ref_pdb>  (298) 
references/x0176-0B-x0212-0B-364335.holo_minimised_nolig.pdb

>  <original SMILES>  (298) 
CC(COCc1ccccc1)COc1cccc(CCN)c1

>  <synthon>  (298) 
[Xe]c1ccccc1

>  <original_name>  (298) 
x0176-0B-x0212-0B-364335

>  <comRMSD_score>  (298) 
0.5655198935492901

>  <IF_score>  (298) 
0.7083333333333333

>  <SuCOS_score>  (298) 
0.525370373600291

>  <compound_ID>  (298) 
CHEMSPACE-BB:CSMB00116409109

$$$$

     RDKit          3D

 18 19  0  0  0  0  0  0  0  0999 V2000
  -13.1070    6.4510  -76.0080 C   0  0  0  0  0  0  0  0  0  0  0  0
  -13.3550    5.0490  -76.4900 C   0  0  2  0  0  0  0  0  0  0  0  0
  -14.3600    4.4320  -75.6420 N   0  0  0  0  0  0  0  0  0  0  0  0
  -12.0330    4.3000  -76.5910 C   0  0  0  0  0  0  0  0  0  0  0  0
  -11.0560    4.9120  -77.5700 C   0  0  0  0  0  0  0  0  0  0  0  0
  -11.7410    3.1480  -75.8590 C   0  0  0  0  0  0  0  0  0  0  0  0
   -9.7900    4.1570  -77.6790 C   0  0  0  0  0  0  0  0  0  0  0  0
  -10.5170    2.5050  -76.0250 C   0  0  0  0  0  0  0  0  0  0  0  0
   -9.5740    3.0180  -76.9350 C   0  0  0  0  0  0  0  0  0  0  0  0
   -8.3870    2.3780  -77.1370 C   0  0  0  0  0  0  0  0  0  0  0  0
   -7.3180    2.9390  -77.8490 N   0  0  0  0  0  0  0  0  0  0  0  0
   -6.9300    2.6830  -79.1600 C   0  0  0  0  0  0  0  0  0  0  0  0
   -7.8650    1.6760  -79.8380 C   0  0  0  0  0  0  0  0  0  0  0  0
   -8.3760    2.1340  -81.1560 C   0  0  0  0  0  0  0  0  0  0  0  0
   -8.2560    0.4250  -79.3490 C   0  0  0  0  0  0  0  0  0  0  0  0
   -9.2300    1.3650  -81.9220 C   0  0  0  0  0  0  0  0  0  0  0  0
   -9.1320   -0.3870  -80.1110 C   0  0  0  0  0  0  0  0  0  0  0  0
   -9.6280    0.0300  -81.3590 C   0  0  0  0  0  0  0  0  0  0  0  0
  2  1  1  1
  2  3  1  0
  2  4  1  0
  4  5  2  0
  4  6  1  0
  5  7  1  0
  6  8  2  0
  7  9  2  0
  8  9  1  0
  9 10  1  0
 10 11  1  0
 11 12  1  0
 12 13  1  0
 13 14  2  0
 13 15  1  0
 14 16  1  0
 15 17  2  0
 16 18  2  0
 17 18  1  0
M  END
>  <ref_url>  (299) 
https://fakepage.com

>  <submitter_name>  (299) 
Steph Wills

>  <submitter_email>  (299) 
stephanie.wills@dtc.ox.ac.uk

>  <submitter_institution>  (299) 
University of Oxford

>  <generation_date>  (299) 
2020-06-04

>  <method>  (299) 
Fragment network

>  <ref_mols>  (299) 
x0176_0B,x0212_0B

>  <ref_pdb>  (299) 
references/x0176-0B-x0212-0B-365555.holo_minimised_nolig.pdb

>  <original SMILES>  (299) 
CC(N)c1ccc(CNCc2ccccc2)cc1

>  <synthon>  (299) 
[Xe]c1ccccc1

>  <original_name>  (299) 
x0176-0B-x0212-0B-365555

>  <comRMSD_score>  (299) 
0.9740507753928844

>  <IF_score>  (299) 
0.8

>  <SuCOS_score>  (299) 
0.5141988349310731

>  <compound_ID>  (299) 
REAL:Z2354389889, CHEMSPACE-BB:CSMB00113909779

$$$$

     RDKit          3D

 22 23  0  0  0  0  0  0  0  0999 V2000
  -13.7260    5.7680  -75.9480 C   0  0  0  0  0  0  0  0  0  0  0  0
  -13.1120    4.9670  -77.0620 C   0  0  0  0  0  0  0  0  0  0  0  0
  -13.7300    4.9430  -78.3550 O   0  0  0  0  0  0  0  0  0  0  0  0
  -11.8380    4.1860  -76.7870 C   0  0  0  0  0  0  0  0  0  0  0  0
  -10.6280    4.7180  -77.5220 C   0  0  0  0  0  0  0  0  0  0  0  0
  -11.7670    3.0850  -75.9410 C   0  0  0  0  0  0  0  0  0  0  0  0
   -9.3790    3.9430  -77.2480 C   0  0  0  0  0  0  0  0  0  0  0  0
  -10.5510    2.4250  -75.7470 C   0  0  0  0  0  0  0  0  0  0  0  0
   -9.3790    2.8460  -76.3880 C   0  0  0  0  0  0  0  0  0  0  0  0
   -8.1810    2.1950  -76.1970 N   0  0  0  0  0  0  0  0  0  0  0  0
   -7.0060    2.6150  -76.7500 C   0  0  0  0  0  0  0  0  0  0  0  0
   -6.1970    3.7130  -76.3120 O   0  0  0  0  0  0  0  0  0  0  0  0
   -6.6650    1.8070  -77.8390 N   0  0  0  0  0  0  0  0  0  0  0  0
   -6.3270    2.2010  -79.1200 C   0  0  2  0  0  0  0  0  0  0  0  0
   -6.6500    3.6900  -79.3080 C   0  0  0  0  0  0  0  0  0  0  0  0
   -7.0900    1.2340  -80.0640 C   0  0  0  0  0  0  0  0  0  0  0  0
   -5.9000    4.2120  -80.3930 O   0  0  0  0  0  0  0  0  0  0  0  0
   -7.4910   -0.0110  -79.5470 C   0  0  0  0  0  0  0  0  0  0  0  0
   -7.4230    1.5340  -81.4090 C   0  0  0  0  0  0  0  0  0  0  0  0
   -8.2500   -0.9860  -80.4050 C   0  0  0  0  0  0  0  0  0  0  0  0
   -8.1300    0.6060  -82.1900 C   0  0  0  0  0  0  0  0  0  0  0  0
   -8.5430   -0.6320  -81.7160 C   0  0  0  0  0  0  0  0  0  0  0  0
  1  2  1  0
  2  3  2  0
  2  4  1  0
  4  5  2  0
  4  6  1  0
  5  7  1  0
  6  8  2  0
  7  9  2  0
  8  9  1  0
  9 10  1  0
 10 11  1  0
 11 12  2  0
 11 13  1  0
 13 14  1  0
 14 15  1  6
 14 16  1  0
 15 17  1  0
 16 18  2  0
 16 19  1  0
 18 20  1  0
 19 21  2  0
 20 22  2  0
 21 22  1  0
M  END
>  <ref_url>  (300) 
https://fakepage.com

>  <submitter_name>  (300) 
Steph Wills

>  <submitter_email>  (300) 
stephanie.wills@dtc.ox.ac.uk

>  <submitter_institution>  (300) 
University of Oxford

>  <generation_date>  (300) 
2020-06-04

>  <method>  (300) 
Fragment network

>  <ref_mols>  (300) 
x0176_0B,x0212_0B

>  <ref_pdb>  (300) 
references/x0176-0B-x0212-0B-366493.holo_minimised_nolig.pdb

>  <original SMILES>  (300) 
CC(=O)c1ccc(NC(=O)NC(CO)c2ccccc2)cc1

>  <synthon>  (300) 
[Xe]c1ccccc1

>  <original_name>  (300) 
x0176-0B-x0212-0B-366493

>  <comRMSD_score>  (300) 
0.9557543050735712

>  <IF_score>  (300) 
0.4375

>  <SuCOS_score>  (300) 
0.4128986210907649

>  <compound_ID>  (300) 
REAL:Z1120993604

$$$$

     RDKit          3D

 23 24  0  0  0  0  0  0  0  0999 V2000
   -8.5510    0.6690  -77.3140 C   0  0  0  0  0  0  0  0  0  0  0  0
   -7.1590    1.1660  -77.6680 C   0  0  1  0  0  0  0  0  0  0  0  0
   -6.1870    0.1370  -77.4240 O   0  0  0  0  0  0  0  0  0  0  0  0
   -7.0540    1.7030  -79.0860 C   0  0  0  0  0  0  0  0  0  0  0  0
   -6.8530    2.3210  -76.7560 C   0  0  0  0  0  0  0  0  0  0  0  0
   -7.9600    1.2020  -79.9970 C   0  0  0  0  0  0  0  0  0  0  0  0
   -6.1090    2.2980  -75.7880 O   0  0  0  0  0  0  0  0  0  0  0  0
   -7.5990    3.4280  -77.2890 N   0  0  0  0  0  0  0  0  0  0  0  0
   -8.4620   -0.0830  -79.7450 C   0  0  0  0  0  0  0  0  0  0  0  0
   -8.3770    1.9210  -81.1270 C   0  0  0  0  0  0  0  0  0  0  0  0
   -8.9840    3.5340  -76.9320 C   0  0  0  0  0  0  0  0  0  0  0  0
   -9.3790   -0.6640  -80.5980 C   0  0  0  0  0  0  0  0  0  0  0  0
   -9.2960    1.3190  -81.9720 C   0  0  0  0  0  0  0  0  0  0  0  0
   -9.5700    4.3770  -77.8390 C   0  0  0  0  0  0  0  0  0  0  0  0
   -9.7230    2.9730  -75.8930 C   0  0  0  0  0  0  0  0  0  0  0  0
   -9.7830    0.0500  -81.6990 C   0  0  0  0  0  0  0  0  0  0  0  0
  -10.8930    4.7200  -77.7260 C   0  0  0  0  0  0  0  0  0  0  0  0
  -11.0790    3.3140  -75.7790 C   0  0  0  0  0  0  0  0  0  0  0  0
  -11.6660    4.2030  -76.6980 C   0  0  0  0  0  0  0  0  0  0  0  0
  -13.0020    4.5880  -76.6170 C   0  0  0  0  0  0  0  0  0  0  0  0
  -13.2140    5.5160  -75.4600 C   0  0  0  0  0  0  0  0  0  0  0  0
  -12.7740    6.8810  -75.5620 N   0  0  0  0  0  0  0  0  0  0  0  0
  -13.8130    4.9910  -74.3700 O   0  0  0  0  0  0  0  0  0  0  0  0
  2  1  1  1
  2  3  1  0
  2  4  1  0
  2  5  1  0
  4  6  1  0
  5  7  2  0
  5  8  1  0
  6  9  2  0
  6 10  1  0
  8 11  1  0
  9 12  1  0
 10 13  2  0
 11 14  2  0
 11 15  1  0
 12 16  2  0
 13 16  1  0
 14 17  1  0
 15 18  2  0
 17 19  2  0
 18 19  1  0
 19 20  1  0
 20 21  1  0
 21 22  1  0
 21 23  2  0
M  END
>  <ref_url>  (301) 
https://fakepage.com

>  <submitter_name>  (301) 
Steph Wills

>  <submitter_email>  (301) 
stephanie.wills@dtc.ox.ac.uk

>  <submitter_institution>  (301) 
University of Oxford

>  <generation_date>  (301) 
2020-06-04

>  <method>  (301) 
Fragment network

>  <ref_mols>  (301) 
x0176_0B,x0212_0B

>  <ref_pdb>  (301) 
references/x0176-0B-x0212-0B-369492.holo_minimised_nolig.pdb

>  <original SMILES>  (301) 
CC(O)(Cc1ccccc1)C(=O)Nc1ccc(CC(N)=O)cc1

>  <synthon>  (301) 
[Xe]c1ccccc1

>  <original_name>  (301) 
x0176-0B-x0212-0B-369492

>  <comRMSD_score>  (301) 
0.7095552801946965

>  <IF_score>  (301) 
0.8

>  <SuCOS_score>  (301) 
0.5257962527687068

>  <compound_ID>  (301) 
REAL:Z1269904094

$$$$

     RDKit          3D

 20 21  0  0  0  0  0  0  0  0999 V2000
  -13.5520    6.0130  -75.1320 N   0  0  0  0  0  0  0  0  0  0  0  0
  -13.9830    5.2040  -76.1450 C   0  0  0  0  0  0  0  0  0  0  0  0
  -13.1580    5.1040  -77.4050 C   0  0  0  0  0  0  0  0  0  0  0  0
  -11.8340    4.3980  -77.1570 C   0  0  0  0  0  0  0  0  0  0  0  0
  -11.7950    3.5540  -76.0530 C   0  0  0  0  0  0  0  0  0  0  0  0
  -10.7210    4.5710  -77.9640 C   0  0  0  0  0  0  0  0  0  0  0  0
  -10.6140    2.8720  -75.7530 C   0  0  0  0  0  0  0  0  0  0  0  0
   -9.5570    3.8980  -77.6650 C   0  0  0  0  0  0  0  0  0  0  0  0
   -9.4930    3.0490  -76.5610 C   0  0  0  0  0  0  0  0  0  0  0  0
   -8.3390    2.3730  -76.2340 N   0  0  0  0  0  0  0  0  0  0  0  0
   -7.1420    2.6970  -76.7580 C   0  0  0  0  0  0  0  0  0  0  0  0
   -6.2850    3.7470  -76.2990 O   0  0  0  0  0  0  0  0  0  0  0  0
   -6.7910    1.9080  -77.8020 N   0  0  0  0  0  0  0  0  0  0  0  0
   -6.4580    2.2810  -79.1660 C   0  0  0  0  0  0  0  0  0  0  0  0
   -7.1170    1.2940  -80.1550 C   0  0  0  0  0  0  0  0  0  0  0  0
   -7.4940   -0.0620  -79.5140 C   0  0  0  0  0  0  0  0  0  0  0  0
   -7.3840    1.5720  -81.5050 C   0  0  0  0  0  0  0  0  0  0  0  0
   -8.1770   -1.0780  -80.4480 C   0  0  0  0  0  0  0  0  0  0  0  0
   -8.0040    0.6290  -82.3440 C   0  0  0  0  0  0  0  0  0  0  0  0
   -8.3970   -0.6360  -81.8900 C   0  0  0  0  0  0  0  0  0  0  0  0
  1  2  3  0
  2  3  1  0
  3  4  1  0
  4  5  2  0
  4  6  1  0
  5  7  1  0
  6  8  2  0
  7  9  2  0
  8  9  1  0
  9 10  1  0
 10 11  1  0
 11 12  2  0
 11 13  1  0
 13 14  1  0
 14 15  1  0
 15 16  2  0
 15 17  1  0
 16 18  1  0
 17 19  2  0
 18 20  2  0
 19 20  1  0
M  END
>  <ref_url>  (302) 
https://fakepage.com

>  <submitter_name>  (302) 
Steph Wills

>  <submitter_email>  (302) 
stephanie.wills@dtc.ox.ac.uk

>  <submitter_institution>  (302) 
University of Oxford

>  <generation_date>  (302) 
2020-06-04

>  <method>  (302) 
Fragment network

>  <ref_mols>  (302) 
x0176_0B,x0212_0B

>  <ref_pdb>  (302) 
references/x0176-0B-x0212-0B-369872.holo_minimised_nolig.pdb

>  <original SMILES>  (302) 
N#CCc1ccc(NC(=O)NCc2ccccc2)cc1

>  <synthon>  (302) 
[Xe]c1ccccc1

>  <original_name>  (302) 
x0176-0B-x0212-0B-369872

>  <comRMSD_score>  (302) 
0.8958562093472845

>  <IF_score>  (302) 
0.25

>  <SuCOS_score>  (302) 
0.4569456362137535

>  <compound_ID>  (302) 
CHEMSPACE-BB:CSMB00000218623, REAL:Z125656808

$$$$

     RDKit          3D

 22 23  0  0  0  0  0  0  0  0999 V2000
   -7.1550    3.6470  -78.8480 C   0  0  0  0  0  0  0  0  0  0  0  0
   -7.6120    2.2460  -78.5710 C   0  0  2  0  0  0  0  0  0  0  0  0
   -6.5910    1.4530  -77.7750 C   0  0  0  0  0  0  0  0  0  0  0  0
   -8.3060    1.4500  -79.6620 C   0  0  0  0  0  0  0  0  0  0  0  0
   -6.8990    1.6330  -76.4250 C   0  0  0  0  0  0  0  0  0  0  0  0
   -8.4700    1.9450  -80.9600 C   0  0  0  0  0  0  0  0  0  0  0  0
   -8.7860    0.2020  -79.2890 C   0  0  0  0  0  0  0  0  0  0  0  0
   -5.9030    1.8570  -75.7250 O   0  0  0  0  0  0  0  0  0  0  0  0
   -8.3280    1.5360  -76.0570 N   0  0  0  0  0  0  0  0  0  0  0  0
   -9.1380    1.1590  -81.8790 C   0  0  0  0  0  0  0  0  0  0  0  0
   -9.4550   -0.6100  -80.1710 C   0  0  0  0  0  0  0  0  0  0  0  0
   -9.3370    2.4980  -76.3090 C   0  0  0  0  0  0  0  0  0  0  0  0
   -9.6740   -0.2070  -81.4680 C   0  0  0  0  0  0  0  0  0  0  0  0
  -10.4930    2.5000  -75.5320 C   0  0  0  0  0  0  0  0  0  0  0  0
   -9.2170    3.4530  -77.3190 C   0  0  0  0  0  0  0  0  0  0  0  0
  -11.5790    3.5160  -75.7850 C   0  0  0  0  0  0  0  0  0  0  0  0
  -10.2430    4.3710  -77.5230 C   0  0  0  0  0  0  0  0  0  0  0  0
  -11.4360    4.4580  -76.7970 C   0  0  0  0  0  0  0  0  0  0  0  0
  -12.4280    5.4240  -77.0640 C   0  0  0  0  0  0  0  0  0  0  0  0
  -13.3440    5.7050  -75.9160 C   0  0  0  0  0  0  0  0  0  0  0  0
  -12.6110    6.2430  -74.8050 N   0  0  0  0  0  0  0  0  0  0  0  0
  -14.7460    5.4430  -75.9960 O   0  0  0  0  0  0  0  0  0  0  0  0
  2  1  1  6
  2  3  1  0
  2  4  1  0
  3  5  1  0
  4  6  2  0
  4  7  1  0
  5  8  2  0
  5  9  1  0
  6 10  1  0
  7 11  2  0
  9 12  1  0
 10 13  2  0
 11 13  1  0
 12 14  2  0
 12 15  1  0
 14 16  1  0
 15 17  2  0
 16 18  2  0
 17 18  1  0
 18 19  1  0
 19 20  1  0
 20 21  1  0
 20 22  2  0
M  END
>  <ref_url>  (303) 
https://fakepage.com

>  <submitter_name>  (303) 
Steph Wills

>  <submitter_email>  (303) 
stephanie.wills@dtc.ox.ac.uk

>  <submitter_institution>  (303) 
University of Oxford

>  <generation_date>  (303) 
2020-06-04

>  <method>  (303) 
Fragment network

>  <ref_mols>  (303) 
x0176_0B,x0212_0B

>  <ref_pdb>  (303) 
references/x0176-0B-x0212-0B-370385.holo_minimised_nolig.pdb

>  <original SMILES>  (303) 
CC(CC(=O)Nc1ccc(CC(N)=O)cc1)c1ccccc1

>  <synthon>  (303) 
[Xe]c1ccccc1

>  <original_name>  (303) 
x0176-0B-x0212-0B-370385

>  <comRMSD_score>  (303) 
0.7459526627072248

>  <IF_score>  (303) 
0.425

>  <SuCOS_score>  (303) 
0.506376983222316

>  <compound_ID>  (303) 
REAL:Z364994644

$$$$

     RDKit          3D

 21 22  0  0  0  0  0  0  0  0999 V2000
  -12.4770    5.2130  -74.3600 C   0  0  0  0  0  0  0  0  0  0  0  0
  -13.0530    5.6710  -75.6890 C   0  0  0  0  0  0  0  0  0  0  0  0
  -12.8090    4.6790  -76.8260 C   0  0  0  0  0  0  0  0  0  0  0  0
  -11.3490    4.1360  -76.9190 C   0  0  0  0  0  0  0  0  0  0  0  0
  -10.4660    4.7550  -77.9570 C   0  0  0  0  0  0  0  0  0  0  0  0
  -10.7910    3.1100  -76.1380 C   0  0  0  0  0  0  0  0  0  0  0  0
   -9.1480    4.3040  -78.0890 C   0  0  0  0  0  0  0  0  0  0  0  0
   -9.4820    2.7490  -76.3090 C   0  0  0  0  0  0  0  0  0  0  0  0
  -11.4930    2.4660  -75.2560 O   0  0  0  0  0  0  0  0  0  0  0  0
   -8.6990    3.3290  -77.2470 C   0  0  0  0  0  0  0  0  0  0  0  0
  -11.2060    1.0700  -75.4810 C   0  0  0  0  0  0  0  0  0  0  0  0
   -9.8290    0.8850  -75.8870 C   0  0  0  0  0  0  0  0  0  0  0  0
   -9.3830    1.3870  -77.2870 C   0  0  0  0  0  0  0  0  0  0  0  0
   -7.9900    1.0840  -77.5290 O   0  0  0  0  0  0  0  0  0  0  0  0
   -7.4190    1.7460  -78.6950 C   0  0  0  0  0  0  0  0  0  0  0  0
   -8.1590    1.2300  -79.7400 C   0  0  0  0  0  0  0  0  0  0  0  0
   -8.6850   -0.0370  -79.5430 C   0  0  0  0  0  0  0  0  0  0  0  0
   -8.3950    1.9190  -80.9450 C   0  0  0  0  0  0  0  0  0  0  0  0
   -9.4500   -0.6380  -80.5200 C   0  0  0  0  0  0  0  0  0  0  0  0
   -9.1650    1.3070  -81.9230 C   0  0  0  0  0  0  0  0  0  0  0  0
   -9.6880    0.0340  -81.6980 C   0  0  0  0  0  0  0  0  0  0  0  0
  1  2  1  0
  2  3  1  0
  3  4  1  0
  4  5  2  0
  4  6  1  0
  5  7  1  0
  6  8  2  0
  6  9  1  0
  7 10  2  0
  8 10  1  0
  9 11  1  0
 11 12  1  0
 12 13  1  0
 13 14  1  0
 14 15  1  0
 15 16  1  0
 16 17  2  0
 16 18  1  0
 17 19  1  0
 18 20  2  0
 19 21  2  0
 20 21  1  0
M  END
>  <ref_url>  (304) 
https://fakepage.com

>  <submitter_name>  (304) 
Steph Wills

>  <submitter_email>  (304) 
stephanie.wills@dtc.ox.ac.uk

>  <submitter_institution>  (304) 
University of Oxford

>  <generation_date>  (304) 
2020-06-04

>  <method>  (304) 
Fragment network

>  <ref_mols>  (304) 
x0176_0B,x0212_0B

>  <ref_pdb>  (304) 
references/x0176-0B-x0212-0B-370998.holo_minimised_nolig.pdb

>  <original SMILES>  (304) 
CCCc1ccccc1OCCCOCc1ccccc1

>  <synthon>  (304) 
[Xe]c1ccccc1

>  <original_name>  (304) 
x0176-0B-x0212-0B-370998

>  <comRMSD_score>  (304) 
0.9436407155268368

>  <IF_score>  (304) 
0.8

>  <SuCOS_score>  (304) 
0.4939175951592474

>  <compound_ID>  (304) 
CHEMSPACE-BB:CSMB00022690404

$$$$

     RDKit          3D

 26 27  0  0  0  0  0  0  0  0999 V2000
  -14.6820    7.7470  -71.3060 C   0  0  0  0  0  0  0  0  0  0  0  0
  -14.2660    6.8380  -72.0370 O   0  0  0  0  0  0  0  0  0  0  0  0
  -13.8350    7.2870  -73.2540 C   0  0  0  0  0  0  0  0  0  0  0  0
  -14.2510    8.2870  -73.8200 O   0  0  0  0  0  0  0  0  0  0  0  0
  -12.8380    6.4620  -73.8140 C   0  0  0  0  0  0  0  0  0  0  0  0
  -12.7710    6.4730  -75.2870 N   0  0  0  0  0  0  0  0  0  0  0  0
  -13.5020    5.3950  -75.9790 C   0  0  0  0  0  0  0  0  0  0  0  0
  -14.6410    4.7880  -75.3690 O   0  0  0  0  0  0  0  0  0  0  0  0
  -12.9820    5.0440  -77.2270 C   0  0  0  0  0  0  0  0  0  0  0  0
  -11.7890    4.3570  -77.0620 C   0  0  0  0  0  0  0  0  0  0  0  0
  -11.5670    3.3650  -75.9600 C   0  0  0  0  0  0  0  0  0  0  0  0
  -10.5950    4.5730  -78.0080 C   0  0  0  0  0  0  0  0  0  0  0  0
  -10.3840    2.6990  -75.8050 C   0  0  0  0  0  0  0  0  0  0  0  0
   -9.4090    3.8510  -77.7810 C   0  0  0  0  0  0  0  0  0  0  0  0
   -9.3180    2.8950  -76.6450 C   0  0  0  0  0  0  0  0  0  0  0  0
   -8.1680    2.1110  -76.3110 N   0  0  0  0  0  0  0  0  0  0  0  0
   -6.8540    2.4970  -76.8390 C   0  0  0  0  0  0  0  0  0  0  0  0
   -6.0620    3.4780  -76.3550 O   0  0  0  0  0  0  0  0  0  0  0  0
   -6.4760    1.7550  -77.9280 N   0  0  0  0  0  0  0  0  0  0  0  0
   -6.4430    2.1590  -79.2710 C   0  0  0  0  0  0  0  0  0  0  0  0
   -7.0740    1.2440  -80.1130 C   0  0  0  0  0  0  0  0  0  0  0  0
   -7.3760    1.6440  -81.5370 C   0  0  0  0  0  0  0  0  0  0  0  0
   -7.4260   -0.0200  -79.6100 C   0  0  0  0  0  0  0  0  0  0  0  0
   -8.0780    0.6080  -82.4200 C   0  0  0  0  0  0  0  0  0  0  0  0
   -8.0750   -0.9520  -80.4300 C   0  0  0  0  0  0  0  0  0  0  0  0
   -8.4050   -0.7100  -81.7630 C   0  0  0  0  0  0  0  0  0  0  0  0
  1  2  1  0
  2  3  1  0
  3  4  2  0
  3  5  1  0
  5  6  1  0
  6  7  1  0
  7  8  2  0
  7  9  1  0
  9 10  1  0
 10 11  2  0
 10 12  1  0
 11 13  1  0
 12 14  2  0
 13 15  2  0
 14 15  1  0
 15 16  1  0
 16 17  1  0
 17 18  2  0
 17 19  1  0
 19 20  1  0
 20 21  1  0
 21 22  2  0
 21 23  1  0
 22 24  1  0
 23 25  2  0
 24 26  2  0
 25 26  1  0
M  END
>  <ref_url>  (305) 
https://fakepage.com

>  <submitter_name>  (305) 
Steph Wills

>  <submitter_email>  (305) 
stephanie.wills@dtc.ox.ac.uk

>  <submitter_institution>  (305) 
University of Oxford

>  <generation_date>  (305) 
2020-06-04

>  <method>  (305) 
Fragment network

>  <ref_mols>  (305) 
x0176_0B,x0212_0B

>  <ref_pdb>  (305) 
references/x0176-0B-x0212-0B-371312.holo_minimised_nolig.pdb

>  <original SMILES>  (305) 
COC(=O)CNC(=O)Cc1ccc(NC(=O)NCc2ccccc2)cc1

>  <synthon>  (305) 
[Xe]c1ccccc1

>  <original_name>  (305) 
x0176-0B-x0212-0B-371312

>  <comRMSD_score>  (305) 
0.7899728781092088

>  <IF_score>  (305) 
0.2142857142857142

>  <SuCOS_score>  (305) 
0.5365670984631904

>  <compound_ID>  (305) 
REAL:Z434491284

$$$$

     RDKit          3D

 23 24  0  0  0  0  0  0  0  0999 V2000
  -13.8950    7.3970  -72.9360 C   0  0  0  0  0  0  0  0  0  0  0  0
  -12.4870    6.5180  -73.5740 S   0  0  0  0  0  0  0  0  0  0  0  0
  -11.2860    7.2450  -73.2280 O   0  0  0  0  0  0  0  0  0  0  0  0
  -12.6490    5.1170  -73.2710 O   0  0  0  0  0  0  0  0  0  0  0  0
  -12.7270    6.6460  -75.2240 N   0  0  0  0  0  0  0  0  0  0  0  0
  -13.0800    5.4050  -75.9100 C   0  0  0  0  0  0  0  0  0  0  0  0
  -12.1160    5.1510  -77.0580 C   0  0  0  0  0  0  0  0  0  0  0  0
  -11.2420    3.8540  -76.9890 C   0  0  2  0  0  0  0  0  0  0  0  0
  -11.5040    3.0640  -75.6900 C   0  0  0  0  0  0  0  0  0  0  0  0
   -9.7840    3.9680  -77.2370 N   0  0  0  0  0  0  0  0  0  0  0  0
  -10.7350    1.7450  -75.6350 C   0  0  0  0  0  0  0  0  0  0  0  0
   -9.0700    3.4610  -76.1180 C   0  0  0  0  0  0  0  0  0  0  0  0
   -9.2400    3.3510  -78.3450 C   0  0  0  0  0  0  0  0  0  0  0  0
   -9.3140    1.9730  -76.1020 C   0  0  0  0  0  0  0  0  0  0  0  0
   -9.8350    3.0600  -79.3490 O   0  0  0  0  0  0  0  0  0  0  0  0
   -7.9210    3.0770  -78.1280 O   0  0  0  0  0  0  0  0  0  0  0  0
   -7.1500    2.6410  -79.2460 C   0  0  0  0  0  0  0  0  0  0  0  0
   -7.9960    1.6670  -79.9960 C   0  0  0  0  0  0  0  0  0  0  0  0
   -8.4980    2.0320  -81.2370 C   0  0  0  0  0  0  0  0  0  0  0  0
   -8.2980    0.4030  -79.4700 C   0  0  0  0  0  0  0  0  0  0  0  0
   -9.2930    1.1560  -81.9450 C   0  0  0  0  0  0  0  0  0  0  0  0
   -9.0990   -0.4790  -80.1890 C   0  0  0  0  0  0  0  0  0  0  0  0
   -9.5980   -0.0990  -81.4260 C   0  0  0  0  0  0  0  0  0  0  0  0
  1  2  1  0
  2  3  2  0
  2  4  2  0
  2  5  1  0
  5  6  1  0
  6  7  1  0
  8  7  1  1
  8  9  1  0
  8 10  1  0
  9 11  1  0
 10 12  1  0
 10 13  1  0
 11 14  1  0
 12 14  1  0
 13 15  2  0
 13 16  1  0
 16 17  1  0
 17 18  1  0
 18 19  2  0
 18 20  1  0
 19 21  1  0
 20 22  2  0
 21 23  2  0
 22 23  1  0
M  END
>  <ref_url>  (306) 
https://fakepage.com

>  <submitter_name>  (306) 
Steph Wills

>  <submitter_email>  (306) 
stephanie.wills@dtc.ox.ac.uk

>  <submitter_institution>  (306) 
University of Oxford

>  <generation_date>  (306) 
2020-06-04

>  <method>  (306) 
Fragment network

>  <ref_mols>  (306) 
x0176_0B,x0212_0B

>  <ref_pdb>  (306) 
references/x0176-0B-x0212-0B-372186.holo_minimised_nolig.pdb

>  <original SMILES>  (306) 
CS(=O)(=O)NCCC1CCCCN1C(=O)OCc1ccccc1

>  <synthon>  (306) 
[Xe]c1ccccc1

>  <original_name>  (306) 
x0176-0B-x0212-0B-372186

>  <comRMSD_score>  (306) 
0.7802681637792274

>  <IF_score>  (306) 
1.0

>  <SuCOS_score>  (306) 
0.6118429077839773

>  <compound_ID>  (306) 
CHEMSPACE-BB:CSMB00015037936

$$$$

     RDKit          3D

 20 21  0  0  0  0  0  0  0  0999 V2000
  -12.7900    4.9660  -76.7540 C   0  0  0  0  0  0  0  0  0  0  0  0
  -11.3430    4.4110  -76.7670 C   0  0  0  0  0  0  0  0  0  0  0  0
  -10.9500    3.4440  -75.6580 C   0  0  0  0  0  0  0  0  0  0  0  0
  -10.3800    4.7360  -77.7140 C   0  0  0  0  0  0  0  0  0  0  0  0
   -9.6130    3.0080  -75.6420 C   0  0  0  0  0  0  0  0  0  0  0  0
   -9.0760    4.2580  -77.6430 C   0  0  0  0  0  0  0  0  0  0  0  0
   -8.6840    3.4430  -76.5920 C   0  0  0  0  0  0  0  0  0  0  0  0
   -6.9240    3.0730  -76.5150 S   0  0  0  0  0  0  0  0  0  0  0  0
   -6.3940    3.5990  -77.7530 O   0  0  0  0  0  0  0  0  0  0  0  0
   -6.4790    3.7720  -75.3050 O   0  0  0  0  0  0  0  0  0  0  0  0
   -6.6760    1.5850  -76.6010 O   0  0  0  0  0  0  0  0  0  0  0  0
   -5.7180    1.3340  -77.6180 N   0  0  0  0  0  0  0  0  0  0  0  0
   -6.1620    0.7110  -78.6120 N   0  0  0  0  0  0  0  0  0  0  0  0
   -7.2290    1.4930  -78.9980 C   0  0  0  0  0  0  0  0  0  0  0  0
   -8.1780    1.1380  -80.0340 C   0  0  0  0  0  0  0  0  0  0  0  0
   -8.4400    1.8580  -81.1780 C   0  0  0  0  0  0  0  0  0  0  0  0
   -8.8090   -0.0520  -79.7070 C   0  0  0  0  0  0  0  0  0  0  0  0
   -9.3960    1.3400  -82.0300 C   0  0  0  0  0  0  0  0  0  0  0  0
   -9.7570   -0.5910  -80.5230 C   0  0  0  0  0  0  0  0  0  0  0  0
  -10.0990    0.0530  -81.6930 C   0  0  0  0  0  0  0  0  0  0  0  0
  1  2  1  0
  2  3  2  0
  2  4  1  0
  3  5  1  0
  4  6  2  0
  5  7  2  0
  6  7  1  0
  7  8  1  0
  8  9  2  0
  8 10  2  0
  8 11  1  0
 11 12  1  0
 12 13  1  0
 13 14  2  3
 14 15  1  0
 15 16  2  0
 15 17  1  0
 16 18  1  0
 17 19  2  0
 18 20  2  0
 19 20  1  0
M  END
>  <ref_url>  (307) 
https://fakepage.com

>  <submitter_name>  (307) 
Steph Wills

>  <submitter_email>  (307) 
stephanie.wills@dtc.ox.ac.uk

>  <submitter_institution>  (307) 
University of Oxford

>  <generation_date>  (307) 
2020-06-04

>  <method>  (307) 
Fragment network

>  <ref_mols>  (307) 
x0176_0B,x0212_0B

>  <ref_pdb>  (307) 
references/x0176-0B-x0212-0B-372708.holo_minimised_nolig.pdb

>  <original SMILES>  (307) 
Cc1ccc(S(=O)(=O)ONN=Cc2ccccc2)cc1

>  <synthon>  (307) 
[Xe]c1ccccc1

>  <original_name>  (307) 
x0176-0B-x0212-0B-372708

>  <comRMSD_score>  (307) 
0.8791410839305284

>  <IF_score>  (307) 
0.625

>  <SuCOS_score>  (307) 
0.3980187948249004

>  <compound_ID>  (307) 
MOLPORT:002-800-150

$$$$

     RDKit          3D

 19 20  0  0  0  0  0  0  0  0999 V2000
  -12.8090    5.5110  -77.0540 C   0  0  0  0  0  0  0  0  0  0  0  0
  -11.6110    4.6260  -76.8440 C   0  0  0  0  0  0  0  0  0  0  0  0
  -11.7100    3.6740  -75.6960 C   0  0  0  0  0  0  0  0  0  0  0  0
  -10.4860    4.6670  -77.6500 C   0  0  0  0  0  0  0  0  0  0  0  0
  -10.6370    2.8280  -75.4640 C   0  0  0  0  0  0  0  0  0  0  0  0
   -9.4400    3.7990  -77.3710 C   0  0  0  0  0  0  0  0  0  0  0  0
   -9.5250    2.9010  -76.2980 C   0  0  0  0  0  0  0  0  0  0  0  0
   -8.1580    1.8370  -76.0540 S   0  0  0  0  0  0  0  0  0  0  0  0
   -8.5610    0.6760  -75.2910 O   0  0  0  0  0  0  0  0  0  0  0  0
   -6.9500    2.6040  -75.8260 O   0  0  0  0  0  0  0  0  0  0  0  0
   -8.2770    1.4430  -77.6540 C   0  0  0  0  0  0  0  0  0  0  0  0
   -7.5470    1.9160  -78.6830 C   0  0  0  0  0  0  0  0  0  0  0  0
   -6.0030    3.2640  -78.6140 I   0  0  0  0  0  0  0  0  0  0  0  0
   -8.0860    1.2710  -79.9060 C   0  0  0  0  0  0  0  0  0  0  0  0
   -8.3690   -0.0570  -79.6800 C   0  0  0  0  0  0  0  0  0  0  0  0
   -8.3230    1.8860  -81.1320 C   0  0  0  0  0  0  0  0  0  0  0  0
   -8.9420   -0.8600  -80.7520 C   0  0  0  0  0  0  0  0  0  0  0  0
   -8.8660    1.1190  -82.1480 C   0  0  0  0  0  0  0  0  0  0  0  0
   -9.1650   -0.2280  -81.9420 C   0  0  0  0  0  0  0  0  0  0  0  0
  1  2  1  0
  2  3  2  0
  2  4  1  0
  3  5  1  0
  4  6  2  0
  5  7  2  0
  6  7  1  0
  7  8  1  0
  8  9  2  0
  8 10  2  0
  8 11  1  0
 11 12  2  3
 12 13  1  0
 12 14  1  0
 14 15  2  0
 14 16  1  0
 15 17  1  0
 16 18  2  0
 17 19  2  0
 18 19  1  0
M  END
>  <ref_url>  (308) 
https://fakepage.com

>  <submitter_name>  (308) 
Steph Wills

>  <submitter_email>  (308) 
stephanie.wills@dtc.ox.ac.uk

>  <submitter_institution>  (308) 
University of Oxford

>  <generation_date>  (308) 
2020-06-04

>  <method>  (308) 
Fragment network

>  <ref_mols>  (308) 
x0176_0B,x0212_0B

>  <ref_pdb>  (308) 
references/x0176-0B-x0212-0B-374573.holo_minimised_nolig.pdb

>  <original SMILES>  (308) 
Cc1ccc(S(=O)(=O)C=C(I)c2ccccc2)cc1

>  <synthon>  (308) 
[Xe]c1ccccc1

>  <original_name>  (308) 
x0176-0B-x0212-0B-374573

>  <comRMSD_score>  (308) 
0.7662372773608647

>  <IF_score>  (308) 
0.8333333333333333

>  <SuCOS_score>  (308) 
0.4328537960698207

>  <compound_ID>  (308) 
MOLPORT:003-803-133

$$$$

     RDKit          3D

 19 20  0  0  0  0  0  0  0  0999 V2000
  -13.4900    5.8550  -76.2330 C   0  0  0  0  0  0  0  0  0  0  0  0
  -13.0260    5.1070  -77.4890 C   0  0  0  0  0  0  0  0  0  0  0  0
  -11.7520    4.3240  -77.1920 C   0  0  0  0  0  0  0  0  0  0  0  0
  -11.8060    3.4610  -76.0960 C   0  0  0  0  0  0  0  0  0  0  0  0
  -10.5880    4.4450  -77.9450 C   0  0  0  0  0  0  0  0  0  0  0  0
  -10.6860    2.7110  -75.7490 C   0  0  0  0  0  0  0  0  0  0  0  0
   -9.4730    3.7020  -77.6010 C   0  0  0  0  0  0  0  0  0  0  0  0
   -9.5290    2.8390  -76.5040 C   0  0  0  0  0  0  0  0  0  0  0  0
   -8.3490    2.1000  -76.1920 N   0  0  0  0  0  0  0  0  0  0  0  0
   -7.1380    2.6360  -76.8000 C   0  0  0  0  0  0  0  0  0  0  0  0
   -6.3920    4.0810  -76.1310 S   0  0  0  0  0  0  0  0  0  0  0  0
   -6.5640    2.0050  -77.8720 N   0  0  0  0  0  0  0  0  0  0  0  0
   -6.6950    2.2940  -79.2330 C   0  0  0  0  0  0  0  0  0  0  0  0
   -7.2320    1.3160  -80.0770 C   0  0  0  0  0  0  0  0  0  0  0  0
   -7.4880    1.6760  -81.5210 C   0  0  0  0  0  0  0  0  0  0  0  0
   -7.5480    0.0090  -79.5990 C   0  0  0  0  0  0  0  0  0  0  0  0
   -8.0350    0.6450  -82.2950 C   0  0  0  0  0  0  0  0  0  0  0  0
   -8.1040   -0.9840  -80.4290 C   0  0  0  0  0  0  0  0  0  0  0  0
   -8.3630   -0.7150  -81.7730 C   0  0  0  0  0  0  0  0  0  0  0  0
  1  2  1  0
  2  3  1  0
  3  4  2  0
  3  5  1  0
  4  6  1  0
  5  7  2  0
  6  8  2  0
  7  8  1  0
  8  9  1  0
  9 10  1  0
 10 11  2  0
 10 12  1  0
 12 13  1  0
 13 14  1  0
 14 15  2  0
 14 16  1  0
 15 17  1  0
 16 18  2  0
 17 19  2  0
 18 19  1  0
M  END
>  <ref_url>  (309) 
https://fakepage.com

>  <submitter_name>  (309) 
Steph Wills

>  <submitter_email>  (309) 
stephanie.wills@dtc.ox.ac.uk

>  <submitter_institution>  (309) 
University of Oxford

>  <generation_date>  (309) 
2020-06-04

>  <method>  (309) 
Fragment network

>  <ref_mols>  (309) 
x0176_0B,x0212_0B

>  <ref_pdb>  (309) 
references/x0176-0B-x0212-0B-377323.holo_minimised_nolig.pdb

>  <original SMILES>  (309) 
CCc1ccc(NC(=S)NCc2ccccc2)cc1

>  <synthon>  (309) 
[Xe]c1ccccc1

>  <original_name>  (309) 
x0176-0B-x0212-0B-377323

>  <comRMSD_score>  (309) 
0.8491250228016044

>  <IF_score>  (309) 
0.1428571428571428

>  <SuCOS_score>  (309) 
0.458490352366702

>  <compound_ID>  (309) 
CHEMSPACE-BB:CSMB00016062906, MOLPORT:004-276-382

$$$$

     RDKit          3D

 19 20  0  0  0  0  0  0  0  0999 V2000
  -12.7190    6.6780  -75.3400 N   0  0  0  0  0  0  0  0  0  0  0  0
  -13.2690    5.8500  -76.2780 C   0  0  0  0  0  0  0  0  0  0  0  0
  -12.9490    4.3710  -76.1330 C   0  0  0  0  0  0  0  0  0  0  0  0
  -11.5550    4.0740  -76.4740 C   0  0  0  0  0  0  0  0  0  0  0  0
  -10.4870    4.1770  -76.8800 C   0  0  0  0  0  0  0  0  0  0  0  0
  -11.3660    2.7420  -75.9590 C   0  0  0  0  0  0  0  0  0  0  0  0
   -9.2040    3.7720  -77.1430 C   0  0  0  0  0  0  0  0  0  0  0  0
  -10.1280    1.9880  -76.0650 C   0  0  0  0  0  0  0  0  0  0  0  0
   -8.9790    2.5220  -76.7010 C   0  0  0  0  0  0  0  0  0  0  0  0
   -7.7430    1.9080  -76.9000 O   0  0  0  0  0  0  0  0  0  0  0  0
   -7.0230    2.6960  -77.7920 C   0  0  0  0  0  0  0  0  0  0  0  0
   -6.4740    2.0400  -78.9210 C   0  0  0  0  0  0  0  0  0  0  0  0
   -5.1830    2.1260  -79.3650 O   0  0  0  0  0  0  0  0  0  0  0  0
   -7.2520    1.1260  -79.8460 C   0  0  0  0  0  0  0  0  0  0  0  0
   -7.7810   -0.2070  -79.3610 C   0  0  0  0  0  0  0  0  0  0  0  0
   -7.5330    1.4600  -81.2040 C   0  0  0  0  0  0  0  0  0  0  0  0
   -8.4950   -1.0590  -80.1780 C   0  0  0  0  0  0  0  0  0  0  0  0
   -8.2630    0.5900  -82.0480 C   0  0  0  0  0  0  0  0  0  0  0  0
   -8.7550   -0.6470  -81.5930 C   0  0  0  0  0  0  0  0  0  0  0  0
  1  2  1  0
  2  3  1  0
  3  4  1  0
  4  5  2  0
  4  6  1  0
  5  7  1  0
  6  8  2  0
  7  9  2  0
  8  9  1  0
  9 10  1  0
 10 11  1  0
 11 12  1  0
 12 13  2  0
 12 14  1  0
 14 15  2  0
 14 16  1  0
 15 17  1  0
 16 18  2  0
 17 19  2  0
 18 19  1  0
M  END
>  <ref_url>  (310) 
https://fakepage.com

>  <submitter_name>  (310) 
Steph Wills

>  <submitter_email>  (310) 
stephanie.wills@dtc.ox.ac.uk

>  <submitter_institution>  (310) 
University of Oxford

>  <generation_date>  (310) 
2020-06-04

>  <method>  (310) 
Fragment network

>  <ref_mols>  (310) 
x0176_0B,x0212_0B

>  <ref_pdb>  (310) 
references/x0176-0B-x0212-0B-378188.holo_minimised_nolig.pdb

>  <original SMILES>  (310) 
NCCc1ccc(OCC(=O)c2ccccc2)cc1

>  <synthon>  (310) 
[Xe]c1ccccc1

>  <original_name>  (310) 
x0176-0B-x0212-0B-378188

>  <comRMSD_score>  (310) 
0.8480786864043527

>  <IF_score>  (310) 
0.5

>  <SuCOS_score>  (310) 
0.420570501698115

>  <compound_ID>  (310) 
CHEMSPACE-BB:CSMB00133262066

$$$$

     RDKit          3D

 28 29  0  0  0  0  0  0  0  0999 V2000
  -12.5700    6.2890  -73.8210 C   0  0  0  0  0  0  0  0  0  0  0  0
  -12.5600    6.3210  -75.2570 O   0  0  0  0  0  0  0  0  0  0  0  0
  -13.6660    5.7560  -75.8550 C   0  0  0  0  0  0  0  0  0  0  0  0
  -14.7970    5.8750  -75.4070 O   0  0  0  0  0  0  0  0  0  0  0  0
  -13.2660    4.9820  -77.1260 C   0  0  1  0  0  0  0  0  0  0  0  0
  -13.1350    5.9250  -78.2240 O   0  0  0  0  0  0  0  0  0  0  0  0
  -11.9370    4.2800  -76.9180 C   0  0  0  0  0  0  0  0  0  0  0  0
  -14.4400    4.0170  -77.3730 C   0  0  0  0  0  0  0  0  0  0  0  0
  -10.8420    4.4950  -77.7580 C   0  0  0  0  0  0  0  0  0  0  0  0
  -11.7850    3.3860  -75.8480 C   0  0  0  0  0  0  0  0  0  0  0  0
  -15.1830    3.8140  -76.2570 F   0  0  0  0  0  0  0  0  0  0  0  0
  -15.2890    4.5250  -78.3050 F   0  0  0  0  0  0  0  0  0  0  0  0
  -14.0650    2.7980  -77.8180 F   0  0  0  0  0  0  0  0  0  0  0  0
   -9.6450    3.8390  -77.5210 C   0  0  0  0  0  0  0  0  0  0  0  0
  -10.5820    2.7300  -75.6170 C   0  0  0  0  0  0  0  0  0  0  0  0
   -9.5110    2.9560  -76.4480 C   0  0  0  0  0  0  0  0  0  0  0  0
   -8.2600    2.3950  -76.3370 N   0  0  0  0  0  0  0  0  0  0  0  0
   -7.0780    2.8660  -76.7760 C   0  0  0  0  0  0  0  0  0  0  0  0
   -6.1290    4.1180  -76.2030 S   0  0  0  0  0  0  0  0  0  0  0  0
   -6.5930    2.1850  -77.8700 N   0  0  0  0  0  0  0  0  0  0  0  0
   -6.7560    2.4490  -79.2170 C   0  0  0  0  0  0  0  0  0  0  0  0
   -6.1420    3.3220  -79.8230 O   0  0  0  0  0  0  0  0  0  0  0  0
   -7.7280    1.5920  -79.9340 C   0  0  0  0  0  0  0  0  0  0  0  0
   -8.1000    0.3660  -79.3680 C   0  0  0  0  0  0  0  0  0  0  0  0
   -8.2690    1.9860  -81.1460 C   0  0  0  0  0  0  0  0  0  0  0  0
   -9.0120   -0.4610  -80.0220 C   0  0  0  0  0  0  0  0  0  0  0  0
   -9.1720    1.1620  -81.7860 C   0  0  0  0  0  0  0  0  0  0  0  0
   -9.5480   -0.0580  -81.2320 C   0  0  0  0  0  0  0  0  0  0  0  0
  1  2  1  0
  2  3  1  0
  3  4  2  0
  3  5  1  0
  5  6  1  6
  5  7  1  0
  5  8  1  0
  7  9  2  0
  7 10  1  0
  8 11  1  0
  8 12  1  0
  8 13  1  0
  9 14  1  0
 10 15  2  0
 14 16  2  0
 15 16  1  0
 16 17  1  0
 17 18  1  0
 18 19  2  0
 18 20  1  0
 20 21  1  0
 21 22  2  0
 21 23  1  0
 23 24  2  0
 23 25  1  0
 24 26  1  0
 25 27  2  0
 26 28  2  0
 27 28  1  0
M  END
>  <ref_url>  (311) 
https://fakepage.com

>  <submitter_name>  (311) 
Steph Wills

>  <submitter_email>  (311) 
stephanie.wills@dtc.ox.ac.uk

>  <submitter_institution>  (311) 
University of Oxford

>  <generation_date>  (311) 
2020-06-04

>  <method>  (311) 
Fragment network

>  <ref_mols>  (311) 
x0176_0B,x0212_0B

>  <ref_pdb>  (311) 
references/x0176-0B-x0212-0B-378766.holo_minimised_nolig.pdb

>  <original SMILES>  (311) 
COC(=O)C(O)(c1ccc(NC(=S)NC(=O)c2ccccc2)cc1)C(F)(F)F

>  <synthon>  (311) 
[Xe]c1ccccc1

>  <original_name>  (311) 
x0176-0B-x0212-0B-378766

>  <comRMSD_score>  (311) 
0.6059778751614484

>  <IF_score>  (311) 
0.25

>  <SuCOS_score>  (311) 
0.5130080592715047

>  <compound_ID>  (311) 
MOLPORT:001-634-816

$$$$

     RDKit          3D

 21 22  0  0  0  0  0  0  0  0999 V2000
  -13.6990    6.0000  -75.9910 C   0  0  0  0  0  0  0  0  0  0  0  0
  -13.0320    5.1290  -77.0170 C   0  0  0  0  0  0  0  0  0  0  0  0
  -13.4330    5.1760  -78.4150 N   0  0  0  0  0  0  0  0  0  0  0  0
  -11.9900    4.2480  -76.5200 C   0  0  0  0  0  0  0  0  0  0  0  0
  -14.4560    6.1090  -78.6200 O   0  0  0  0  0  0  0  0  0  0  0  0
  -11.4650    3.4210  -75.8860 C   0  0  0  0  0  0  0  0  0  0  0  0
  -10.8880    4.6490  -77.3120 C   0  0  0  0  0  0  0  0  0  0  0  0
  -10.3680    2.6590  -75.5270 C   0  0  0  0  0  0  0  0  0  0  0  0
   -9.5940    4.0600  -77.2020 C   0  0  0  0  0  0  0  0  0  0  0  0
   -9.3190    3.0400  -76.2920 C   0  0  0  0  0  0  0  0  0  0  0  0
   -8.0930    2.4380  -76.1460 N   0  0  0  0  0  0  0  0  0  0  0  0
   -7.0110    2.8080  -76.8690 C   0  0  0  0  0  0  0  0  0  0  0  0
   -6.2370    4.0090  -76.7220 O   0  0  0  0  0  0  0  0  0  0  0  0
   -6.7160    1.7720  -77.8490 N   0  0  0  0  0  0  0  0  0  0  0  0
   -6.4260    2.0790  -79.2240 C   0  0  0  0  0  0  0  0  0  0  0  0
   -7.1800    1.1240  -80.0960 C   0  0  0  0  0  0  0  0  0  0  0  0
   -7.5710    1.4930  -81.5050 C   0  0  0  0  0  0  0  0  0  0  0  0
   -7.5710   -0.1500  -79.6390 C   0  0  0  0  0  0  0  0  0  0  0  0
   -8.2690    0.6410  -82.3200 C   0  0  0  0  0  0  0  0  0  0  0  0
   -8.2920   -1.0380  -80.4620 C   0  0  0  0  0  0  0  0  0  0  0  0
   -8.6570   -0.7020  -81.7750 C   0  0  0  0  0  0  0  0  0  0  0  0
  1  2  1  0
  2  3  2  3
  2  4  1  0
  3  5  1  0
  4  6  2  0
  4  7  1  0
  6  8  1  0
  7  9  2  0
  8 10  2  0
  9 10  1  0
 10 11  1  0
 11 12  1  0
 12 13  2  0
 12 14  1  0
 14 15  1  0
 15 16  1  0
 16 17  2  0
 16 18  1  0
 17 19  1  0
 18 20  2  0
 19 21  2  0
 20 21  1  0
M  END
>  <ref_url>  (312) 
https://fakepage.com

>  <submitter_name>  (312) 
Steph Wills

>  <submitter_email>  (312) 
stephanie.wills@dtc.ox.ac.uk

>  <submitter_institution>  (312) 
University of Oxford

>  <generation_date>  (312) 
2020-06-04

>  <method>  (312) 
Fragment network

>  <ref_mols>  (312) 
x0176_0B,x0212_0B

>  <ref_pdb>  (312) 
references/x0176-0B-x0212-0B-379462.holo_minimised_nolig.pdb

>  <original SMILES>  (312) 
CC(=NO)c1ccc(NC(=O)NCc2ccccc2)cc1

>  <synthon>  (312) 
[Xe]c1ccccc1

>  <original_name>  (312) 
x0176-0B-x0212-0B-379462

>  <comRMSD_score>  (312) 
0.9631996807516084

>  <IF_score>  (312) 
0.5

>  <SuCOS_score>  (312) 
0.3910844096111632

>  <compound_ID>  (312) 
CHEMSPACE-BB:CSMB00014267340

$$$$

     RDKit          3D

 25 26  0  0  0  0  0  0  0  0999 V2000
  -13.5330    6.4470  -76.1030 C   0  0  0  0  0  0  0  0  0  0  0  0
  -12.9560    5.7150  -77.3020 C   0  0  0  0  0  0  0  0  0  0  0  0
  -11.9270    4.7130  -76.8000 C   0  0  0  0  0  0  0  0  0  0  0  0
  -10.6860    4.7390  -77.4230 C   0  0  0  0  0  0  0  0  0  0  0  0
  -12.2080    3.8160  -75.7660 C   0  0  0  0  0  0  0  0  0  0  0  0
   -9.7000    3.8660  -77.0020 C   0  0  0  0  0  0  0  0  0  0  0  0
  -11.2290    2.9400  -75.3470 C   0  0  0  0  0  0  0  0  0  0  0  0
  -10.0110    2.9830  -75.9600 C   0  0  0  0  0  0  0  0  0  0  0  0
   -9.0920    2.1270  -75.5270 O   0  0  0  0  0  0  0  0  0  0  0  0
   -8.4740    1.4490  -76.5640 C   0  0  0  0  0  0  0  0  0  0  0  0
   -8.2090    2.2320  -77.6650 C   0  0  0  0  0  0  0  0  0  0  0  0
   -9.1880    2.7660  -78.1870 O   0  0  0  0  0  0  0  0  0  0  0  0
   -6.9000    2.3550  -78.0990 N   0  0  0  0  0  0  0  0  0  0  0  0
   -6.5630    2.4260  -79.4260 C   0  0  2  0  0  0  0  0  0  0  0  0
   -6.5820    3.8640  -79.8860 C   0  0  0  0  0  0  0  0  0  0  0  0
   -7.6550    1.6160  -80.1540 C   0  0  0  0  0  0  0  0  0  0  0  0
   -4.8540    4.4780  -79.8780 S   0  0  0  0  0  0  0  0  0  0  0  0
   -8.0230    0.3520  -79.6530 C   0  0  0  0  0  0  0  0  0  0  0  0
   -8.3050    2.0830  -81.2970 C   0  0  0  0  0  0  0  0  0  0  0  0
   -4.0110    3.1600  -80.7310 C   0  0  0  0  0  0  0  0  0  0  0  0
   -4.6110    5.7980  -80.6460 O   0  0  0  0  0  0  0  0  0  0  0  0
   -4.3160    4.6590  -78.4720 O   0  0  0  0  0  0  0  0  0  0  0  0
   -9.0090   -0.4130  -80.2810 C   0  0  0  0  0  0  0  0  0  0  0  0
   -9.2830    1.3170  -81.9200 C   0  0  0  0  0  0  0  0  0  0  0  0
   -9.6400    0.0720  -81.4190 C   0  0  0  0  0  0  0  0  0  0  0  0
  1  2  1  0
  2  3  1  0
  3  4  2  0
  3  5  1  0
  4  6  1  0
  5  7  2  0
  6  8  2  0
  7  8  1  0
  8  9  1  0
  9 10  1  0
 10 11  1  0
 11 12  2  0
 11 13  1  0
 13 14  1  0
 14 15  1  6
 14 16  1  0
 17 15  1  0
 16 18  2  0
 16 19  1  0
 17 20  1  0
 17 21  2  0
 17 22  2  0
 18 23  1  0
 19 24  2  0
 23 25  2  0
 24 25  1  0
M  END
>  <ref_url>  (313) 
https://fakepage.com

>  <submitter_name>  (313) 
Steph Wills

>  <submitter_email>  (313) 
stephanie.wills@dtc.ox.ac.uk

>  <submitter_institution>  (313) 
University of Oxford

>  <generation_date>  (313) 
2020-06-04

>  <method>  (313) 
Fragment network

>  <ref_mols>  (313) 
x0176_0B,x0212_0B

>  <ref_pdb>  (313) 
references/x0176-0B-x0212-0B-382095.holo_minimised_nolig.pdb

>  <original SMILES>  (313) 
CCc1ccc(OCC(=O)NC(CS(C)(=O)=O)c2ccccc2)cc1

>  <synthon>  (313) 
[Xe]c1ccccc1

>  <original_name>  (313) 
x0176-0B-x0212-0B-382095

>  <comRMSD_score>  (313) 
0.8939688983987907

>  <IF_score>  (313) 
0.9

>  <SuCOS_score>  (313) 
0.4765266583491686

>  <compound_ID>  (313) 
REAL:Z1332856594

$$$$

     RDKit          3D

 21 22  0  0  0  0  0  0  0  0999 V2000
   -7.4770    4.2400  -79.8370 C   0  0  0  0  0  0  0  0  0  0  0  0
   -6.9580    3.2690  -78.8500 N   0  0  0  0  0  0  0  0  0  0  0  0
   -7.5260    3.4210  -77.5590 C   0  0  0  0  0  0  0  0  0  0  0  0
   -6.5920    2.0100  -79.3920 C   0  0  0  0  0  0  0  0  0  0  0  0
   -7.8760    2.0800  -76.9400 C   0  0  0  0  0  0  0  0  0  0  0  0
   -7.6210    1.2980  -80.0050 C   0  0  0  0  0  0  0  0  0  0  0  0
   -8.6280    2.0280  -76.0060 O   0  0  0  0  0  0  0  0  0  0  0  0
   -8.2090    1.7940  -81.1610 C   0  0  0  0  0  0  0  0  0  0  0  0
   -8.0640    0.0890  -79.4610 C   0  0  0  0  0  0  0  0  0  0  0  0
   -9.7410    2.7930  -76.3490 C   0  0  0  0  0  0  0  0  0  0  0  0
   -9.2250    1.0910  -81.7710 C   0  0  0  0  0  0  0  0  0  0  0  0
   -9.0940   -0.5970  -80.0980 C   0  0  0  0  0  0  0  0  0  0  0  0
   -9.7250    3.6700  -77.5770 C   0  0  0  0  0  0  0  0  0  0  0  0
  -11.0240    2.8230  -75.5590 C   0  0  0  0  0  0  0  0  0  0  0  0
   -9.6780   -0.1120  -81.2450 C   0  0  0  0  0  0  0  0  0  0  0  0
  -10.8370    4.4330  -77.9100 C   0  0  0  0  0  0  0  0  0  0  0  0
  -12.0650    3.6130  -75.9810 C   0  0  0  0  0  0  0  0  0  0  0  0
  -11.9950    4.4120  -77.1300 C   0  0  0  0  0  0  0  0  0  0  0  0
  -13.0830    5.1880  -77.4890 C   0  0  0  0  0  0  0  0  0  0  0  0
  -13.6880    5.9610  -76.3360 C   0  0  0  0  0  0  0  0  0  0  0  0
  -12.7370    6.2200  -75.2210 N   0  0  0  0  0  0  0  0  0  0  0  0
  1  2  1  0
  2  3  1  0
  2  4  1  0
  3  5  1  0
  4  6  1  0
  5  7  1  0
  6  8  2  0
  6  9  1  0
  7 10  1  0
  8 11  1  0
  9 12  2  0
 10 13  2  0
 10 14  1  0
 11 15  2  0
 12 15  1  0
 13 16  1  0
 14 17  2  0
 16 18  2  0
 17 18  1  0
 18 19  1  0
 19 20  1  0
 20 21  1  0
M  END
>  <ref_url>  (314) 
https://fakepage.com

>  <submitter_name>  (314) 
Steph Wills

>  <submitter_email>  (314) 
stephanie.wills@dtc.ox.ac.uk

>  <submitter_institution>  (314) 
University of Oxford

>  <generation_date>  (314) 
2020-06-04

>  <method>  (314) 
Fragment network

>  <ref_mols>  (314) 
x0176_0B,x0212_0B

>  <ref_pdb>  (314) 
references/x0176-0B-x0212-0B-382306.holo_minimised_nolig.pdb

>  <original SMILES>  (314) 
CN(CCOc1ccc(CCN)cc1)Cc1ccccc1

>  <synthon>  (314) 
[Xe]c1ccccc1

>  <original_name>  (314) 
x0176-0B-x0212-0B-382306

>  <comRMSD_score>  (314) 
0.8995650156555126

>  <IF_score>  (314) 
0.25

>  <SuCOS_score>  (314) 
0.5360120552955043

>  <compound_ID>  (314) 
CHEMSPACE-BB:CSMB00011280562

$$$$

     RDKit          3D

 22 23  0  0  0  0  0  0  0  0999 V2000
  -14.4180    6.9770  -76.1360 C   0  0  0  0  0  0  0  0  0  0  0  0
  -13.2840    5.9920  -75.9650 C   0  0  0  0  0  0  0  0  0  0  0  0
  -12.5780    5.4780  -77.1750 C   0  0  0  0  0  0  0  0  0  0  0  0
  -12.9000    5.5730  -74.7100 N   0  0  0  0  0  0  0  0  0  0  0  0
  -11.5380    4.5680  -76.9390 C   0  0  0  0  0  0  0  0  0  0  0  0
  -13.6720    6.1590  -73.7080 O   0  0  0  0  0  0  0  0  0  0  0  0
  -11.5870    3.6250  -75.8950 C   0  0  0  0  0  0  0  0  0  0  0  0
  -10.4240    4.6150  -77.7810 C   0  0  0  0  0  0  0  0  0  0  0  0
  -10.5200    2.7520  -75.7130 C   0  0  0  0  0  0  0  0  0  0  0  0
   -9.3550    3.7340  -77.5890 C   0  0  0  0  0  0  0  0  0  0  0  0
   -9.4180    2.8040  -76.5460 C   0  0  0  0  0  0  0  0  0  0  0  0
   -8.3420    1.8930  -76.3230 O   0  0  0  0  0  0  0  0  0  0  0  0
   -7.0530    2.5020  -76.3930 C   0  0  0  0  0  0  0  0  0  0  0  0
   -6.8650    2.9510  -77.6810 C   0  0  0  0  0  0  0  0  0  0  0  0
   -6.2310    2.0600  -78.4680 O   0  0  0  0  0  0  0  0  0  0  0  0
   -6.5380    2.1800  -79.8490 C   0  0  0  0  0  0  0  0  0  0  0  0
   -7.6310    1.4320  -80.2990 C   0  0  0  0  0  0  0  0  0  0  0  0
   -8.3600    1.9180  -81.3750 C   0  0  0  0  0  0  0  0  0  0  0  0
   -8.0000    0.2220  -79.7050 C   0  0  0  0  0  0  0  0  0  0  0  0
   -9.4440    1.2090  -81.8730 C   0  0  0  0  0  0  0  0  0  0  0  0
   -9.0920   -0.4690  -80.2190 C   0  0  0  0  0  0  0  0  0  0  0  0
   -9.8210    0.0030  -81.2960 C   0  0  0  0  0  0  0  0  0  0  0  0
  1  2  1  0
  2  3  1  0
  2  4  2  3
  3  5  1  0
  4  6  1  0
  5  7  2  0
  5  8  1  0
  7  9  1  0
  8 10  2  0
  9 11  2  0
 10 11  1  0
 11 12  1  0
 12 13  1  0
 13 14  1  0
 14 15  1  0
 15 16  1  0
 16 17  1  0
 17 18  2  0
 17 19  1  0
 18 20  1  0
 19 21  2  0
 20 22  2  0
 21 22  1  0
M  END
>  <ref_url>  (315) 
https://fakepage.com

>  <submitter_name>  (315) 
Steph Wills

>  <submitter_email>  (315) 
stephanie.wills@dtc.ox.ac.uk

>  <submitter_institution>  (315) 
University of Oxford

>  <generation_date>  (315) 
2020-06-04

>  <method>  (315) 
Fragment network

>  <ref_mols>  (315) 
x0176_0B,x0212_0B

>  <ref_pdb>  (315) 
references/x0176-0B-x0212-0B-382668.holo_minimised_nolig.pdb

>  <original SMILES>  (315) 
CC(Cc1ccc(OCCOCc2ccccc2)cc1)=NO

>  <synthon>  (315) 
[Xe]c1ccccc1

>  <original_name>  (315) 
x0176-0B-x0212-0B-382668

>  <comRMSD_score>  (315) 
0.6394563628583272

>  <IF_score>  (315) 
0.675

>  <SuCOS_score>  (315) 
0.5051782041564323

>  <compound_ID>  (315) 
CHEMSPACE-BB:CSMB00014805678

$$$$

     RDKit          3D

 25 26  0  0  0  0  0  0  0  0999 V2000
  -12.4450   10.6550  -73.1350 C   0  0  0  0  0  0  0  0  0  0  0  0
  -11.8690    9.3890  -73.4390 O   0  0  0  0  0  0  0  0  0  0  0  0
  -12.7780    8.5690  -74.1800 C   0  0  0  0  0  0  0  0  0  0  0  0
  -13.4820    7.3760  -73.4970 C   0  0  0  0  0  0  0  0  0  0  0  0
  -12.9170    6.1520  -73.8810 C   0  0  0  0  0  0  0  0  0  0  0  0
  -12.5110    5.1840  -73.2520 O   0  0  0  0  0  0  0  0  0  0  0  0
  -12.8270    6.0480  -75.3410 N   0  0  0  0  0  0  0  0  0  0  0  0
  -13.8400    5.4550  -76.1050 C   0  0  0  0  0  0  0  0  0  0  0  0
  -13.5130    4.3330  -76.8710 C   0  0  0  0  0  0  0  0  0  0  0  0
  -12.0780    3.9450  -76.8330 C   0  0  0  0  0  0  0  0  0  0  0  0
  -11.5730    3.0490  -75.8700 C   0  0  0  0  0  0  0  0  0  0  0  0
  -11.2510    4.5180  -77.7950 C   0  0  0  0  0  0  0  0  0  0  0  0
  -10.2090    2.7460  -75.8810 C   0  0  0  0  0  0  0  0  0  0  0  0
   -9.9130    4.2410  -77.8330 C   0  0  0  0  0  0  0  0  0  0  0  0
   -9.3500    3.3910  -76.9170 C   0  0  0  0  0  0  0  0  0  0  0  0
   -7.9940    3.1450  -76.9410 C   0  0  0  0  0  0  0  0  0  0  0  0
   -7.6200    2.0270  -77.5450 N   0  0  0  0  0  0  0  0  0  0  0  0
   -7.1630    2.2850  -78.9100 C   0  0  0  0  0  0  0  0  0  0  0  0
   -6.2480    3.0000  -79.2730 O   0  0  0  0  0  0  0  0  0  0  0  0
   -7.9540    1.5580  -79.7770 C   0  0  0  0  0  0  0  0  0  0  0  0
   -8.2710    2.0060  -81.0530 C   0  0  0  0  0  0  0  0  0  0  0  0
   -8.4490    0.3310  -79.3200 C   0  0  0  0  0  0  0  0  0  0  0  0
   -9.0770    1.2330  -81.8540 C   0  0  0  0  0  0  0  0  0  0  0  0
   -9.2670   -0.4740  -80.0990 C   0  0  0  0  0  0  0  0  0  0  0  0
   -9.6300   -0.0960  -81.3730 C   0  0  0  0  0  0  0  0  0  0  0  0
  1  2  1  0
  2  3  1  0
  3  4  1  0
  4  5  1  0
  5  6  2  0
  5  7  1  0
  7  8  1  0
  8  9  1  0
  9 10  1  0
 10 11  2  0
 10 12  1  0
 11 13  1  0
 12 14  2  0
 13 15  2  0
 14 15  1  0
 15 16  1  0
 16 17  1  0
 17 18  1  0
 18 19  2  0
 18 20  1  0
 20 21  2  0
 20 22  1  0
 21 23  1  0
 22 24  2  0
 23 25  2  0
 24 25  1  0
M  END
>  <ref_url>  (316) 
https://fakepage.com

>  <submitter_name>  (316) 
Steph Wills

>  <submitter_email>  (316) 
stephanie.wills@dtc.ox.ac.uk

>  <submitter_institution>  (316) 
University of Oxford

>  <generation_date>  (316) 
2020-06-04

>  <method>  (316) 
Fragment network

>  <ref_mols>  (316) 
x0176_0B,x0212_0B

>  <ref_pdb>  (316) 
references/x0176-0B-x0212-0B-383380.holo_minimised_nolig.pdb

>  <original SMILES>  (316) 
COCCC(=O)NCCc1ccc(CNC(=O)c2ccccc2)cc1

>  <synthon>  (316) 
[Xe]c1ccccc1

>  <original_name>  (316) 
x0176-0B-x0212-0B-383380

>  <comRMSD_score>  (316) 
0.8123298638436899

>  <IF_score>  (316) 
0.625

>  <SuCOS_score>  (316) 
0.6069392860245002

>  <compound_ID>  (316) 
REAL:PV-001422442180

$$$$

     RDKit          3D

 22 23  0  0  0  0  0  0  0  0999 V2000
  -13.7030    6.1090  -75.6900 C   0  0  0  0  0  0  0  0  0  0  0  0
  -13.1260    5.5010  -76.9160 C   0  0  0  0  0  0  0  0  0  0  0  0
  -13.6240    5.8760  -78.1970 O   0  0  0  0  0  0  0  0  0  0  0  0
  -12.0480    4.4990  -76.7200 C   0  0  0  0  0  0  0  0  0  0  0  0
  -10.8330    4.6030  -77.3700 C   0  0  0  0  0  0  0  0  0  0  0  0
  -12.2970    3.4300  -75.8490 C   0  0  0  0  0  0  0  0  0  0  0  0
   -9.8860    3.6330  -77.1350 C   0  0  0  0  0  0  0  0  0  0  0  0
  -11.3470    2.4580  -75.6140 C   0  0  0  0  0  0  0  0  0  0  0  0
  -10.1490    2.5690  -76.2600 C   0  0  0  0  0  0  0  0  0  0  0  0
   -9.1200    1.7560  -76.1570 O   0  0  0  0  0  0  0  0  0  0  0  0
   -8.0750    2.6460  -76.3080 C   0  0  0  0  0  0  0  0  0  0  0  0
   -7.8290    3.0220  -77.7660 C   0  0  0  0  0  0  0  0  0  0  0  0
   -6.5650    2.5210  -78.1630 N   0  0  0  0  0  0  0  0  0  0  0  0
   -5.5100    3.5110  -77.9130 C   0  0  0  0  0  0  0  0  0  0  0  0
   -6.3490    1.1530  -77.6670 C   0  0  0  0  0  0  0  0  0  0  0  0
   -6.6510    2.4380  -79.6040 C   0  0  0  0  0  0  0  0  0  0  0  0
   -7.6680    1.6100  -80.1190 C   0  0  0  0  0  0  0  0  0  0  0  0
   -8.3400    2.0310  -81.2550 C   0  0  0  0  0  0  0  0  0  0  0  0
   -8.0410    0.3750  -79.5570 C   0  0  0  0  0  0  0  0  0  0  0  0
   -9.3370    1.2700  -81.8270 C   0  0  0  0  0  0  0  0  0  0  0  0
   -9.0630   -0.3960  -80.1450 C   0  0  0  0  0  0  0  0  0  0  0  0
   -9.7160    0.0540  -81.2900 C   0  0  0  0  0  0  0  0  0  0  0  0
  1  2  1  0
  2  3  2  0
  2  4  1  0
  4  5  2  0
  4  6  1  0
  5  7  1  0
  6  8  2  0
  7  9  2  0
  8  9  1  0
  9 10  1  0
 10 11  1  0
 11 12  1  0
 13 12  1  0
 13 14  1  0
 13 15  1  0
 13 16  1  0
 16 17  1  0
 17 18  2  0
 17 19  1  0
 18 20  1  0
 19 21  2  0
 20 22  2  0
 21 22  1  0
M  CHG  1  13   1
M  END
>  <ref_url>  (317) 
https://fakepage.com

>  <submitter_name>  (317) 
Steph Wills

>  <submitter_email>  (317) 
stephanie.wills@dtc.ox.ac.uk

>  <submitter_institution>  (317) 
University of Oxford

>  <generation_date>  (317) 
2020-06-04

>  <method>  (317) 
Fragment network

>  <ref_mols>  (317) 
x0176_0B,x0212_0B

>  <ref_pdb>  (317) 
references/x0176-0B-x0212-0B-385033.holo_minimised_nolig.pdb

>  <original SMILES>  (317) 
CC(=O)c1ccc(OCC[N+](C)(C)Cc2ccccc2)cc1

>  <synthon>  (317) 
[Xe]c1ccccc1

>  <original_name>  (317) 
x0176-0B-x0212-0B-385033

>  <comRMSD_score>  (317) 
0.9665029315354742

>  <IF_score>  (317) 
0.675

>  <SuCOS_score>  (317) 
0.4533591908012404

>  <compound_ID>  (317) 
MOLPORT:002-134-490, MOLPORT:003-700-945

$$$$

     RDKit          3D

 22 23  0  0  0  0  0  0  0  0999 V2000
  -12.5050    6.3230  -73.8590 C   0  0  0  0  0  0  0  0  0  0  0  0
  -12.6300    6.2240  -75.3180 N   0  0  0  0  0  0  0  0  0  0  0  0
  -13.6190    5.1750  -75.6440 C   0  0  0  0  0  0  0  0  0  0  0  0
  -13.2560    4.3760  -76.9200 C   0  0  1  0  0  0  0  0  0  0  0  0
  -13.6530    5.1400  -78.0600 O   0  0  0  0  0  0  0  0  0  0  0  0
  -11.8080    3.9690  -77.0850 C   0  0  0  0  0  0  0  0  0  0  0  0
  -11.0390    4.6830  -77.9970 C   0  0  0  0  0  0  0  0  0  0  0  0
  -11.2040    2.8990  -76.3790 C   0  0  0  0  0  0  0  0  0  0  0  0
   -9.7150    4.3630  -78.2210 C   0  0  0  0  0  0  0  0  0  0  0  0
   -9.8550    2.6000  -76.6320 C   0  0  0  0  0  0  0  0  0  0  0  0
   -9.1270    3.3310  -77.5410 C   0  0  0  0  0  0  0  0  0  0  0  0
   -9.1250    1.5740  -76.0370 O   0  0  0  0  0  0  0  0  0  0  0  0
   -7.8790    1.3720  -76.6740 C   0  0  0  0  0  0  0  0  0  0  0  0
   -7.0450    0.5190  -76.4080 O   0  0  0  0  0  0  0  0  0  0  0  0
   -7.6940    2.3890  -77.8000 C   0  0  0  0  0  0  0  0  0  0  0  0
   -6.6030    2.0810  -78.8460 C   0  0  0  0  0  0  0  0  0  0  0  0
   -7.1360    1.1840  -79.9400 C   0  0  0  0  0  0  0  0  0  0  0  0
   -7.5000   -0.1340  -79.6110 C   0  0  0  0  0  0  0  0  0  0  0  0
   -7.3070    1.6240  -81.2810 C   0  0  0  0  0  0  0  0  0  0  0  0
   -8.0200   -0.9930  -80.5790 C   0  0  0  0  0  0  0  0  0  0  0  0
   -7.8320    0.7410  -82.2430 C   0  0  0  0  0  0  0  0  0  0  0  0
   -8.1830   -0.5580  -81.8870 C   0  0  0  0  0  0  0  0  0  0  0  0
  1  2  1  0
  2  3  1  0
  3  4  1  0
  4  5  1  6
  4  6  1  0
  6  7  2  0
  6  8  1  0
  7  9  1  0
  8 10  2  0
  9 11  2  0
 10 11  1  0
 10 12  1  0
 12 13  1  0
 13 14  2  0
 13 15  1  0
 15 16  1  0
 16 17  1  0
 17 18  2  0
 17 19  1  0
 18 20  1  0
 19 21  2  0
 20 22  2  0
 21 22  1  0
M  END
>  <ref_url>  (318) 
https://fakepage.com

>  <submitter_name>  (318) 
Steph Wills

>  <submitter_email>  (318) 
stephanie.wills@dtc.ox.ac.uk

>  <submitter_institution>  (318) 
University of Oxford

>  <generation_date>  (318) 
2020-06-04

>  <method>  (318) 
Fragment network

>  <ref_mols>  (318) 
x0176_0B,x0212_0B

>  <ref_pdb>  (318) 
references/x0176-0B-x0212-0B-385542.holo_minimised_nolig.pdb

>  <original SMILES>  (318) 
CNCC(O)c1cccc(OC(=O)CCc2ccccc2)c1

>  <synthon>  (318) 
[Xe]c1ccccc1

>  <original_name>  (318) 
x0176-0B-x0212-0B-385542

>  <comRMSD_score>  (318) 
0.8958312299716908

>  <IF_score>  (318) 
0.2857142857142857

>  <SuCOS_score>  (318) 
0.4620897075903003

>  <compound_ID>  (318) 
MOLPORT:003-184-077

$$$$

     RDKit          3D

 19 20  0  0  0  0  0  0  0  0999 V2000
  -12.5590    6.5560  -73.3980 C   0  0  0  0  0  0  0  0  0  0  0  0
  -12.9870    6.4740  -74.8320 C   0  0  0  0  0  0  0  0  0  0  0  0
  -12.9430    5.0920  -75.1340 O   0  0  0  0  0  0  0  0  0  0  0  0
  -12.8440    4.8850  -76.4340 C   0  0  0  0  0  0  0  0  0  0  0  0
  -13.7310    5.1340  -77.2360 O   0  0  0  0  0  0  0  0  0  0  0  0
  -11.5210    4.3300  -76.8210 C   0  0  0  0  0  0  0  0  0  0  0  0
  -10.9730    4.9920  -77.9020 C   0  0  0  0  0  0  0  0  0  0  0  0
  -10.8100    3.2430  -76.2390 C   0  0  0  0  0  0  0  0  0  0  0  0
   -9.7660    4.6140  -78.4390 C   0  0  0  0  0  0  0  0  0  0  0  0
   -9.5770    2.9220  -76.8400 C   0  0  0  0  0  0  0  0  0  0  0  0
   -9.0990    3.5900  -77.8870 C   0  0  0  0  0  0  0  0  0  0  0  0
   -8.3640    1.7090  -76.5330 S   0  0  0  0  0  0  0  0  0  0  0  0
   -7.4430    2.0210  -78.1310 C   0  0  0  0  0  0  0  0  0  0  0  0
   -8.0880    1.3790  -79.3530 C   0  0  0  0  0  0  0  0  0  0  0  0
   -8.2730    2.0100  -80.6230 C   0  0  0  0  0  0  0  0  0  0  0  0
   -8.5250    0.0630  -79.1950 C   0  0  0  0  0  0  0  0  0  0  0  0
   -8.8770    1.3080  -81.6650 C   0  0  0  0  0  0  0  0  0  0  0  0
   -9.1210   -0.6190  -80.2350 C   0  0  0  0  0  0  0  0  0  0  0  0
   -9.2920   -0.0010  -81.4550 C   0  0  0  0  0  0  0  0  0  0  0  0
  1  2  1  0
  2  3  1  0
  3  4  1  0
  4  5  2  0
  4  6  1  0
  6  7  2  0
  6  8  1  0
  7  9  1  0
  8 10  2  0
  9 11  2  0
 10 11  1  0
 10 12  1  0
 12 13  1  0
 13 14  1  0
 14 15  2  0
 14 16  1  0
 15 17  1  0
 16 18  2  0
 17 19  2  0
 18 19  1  0
M  END
>  <ref_url>  (319) 
https://fakepage.com

>  <submitter_name>  (319) 
Steph Wills

>  <submitter_email>  (319) 
stephanie.wills@dtc.ox.ac.uk

>  <submitter_institution>  (319) 
University of Oxford

>  <generation_date>  (319) 
2020-06-04

>  <method>  (319) 
Fragment network

>  <ref_mols>  (319) 
x0176_0B,x0212_0B

>  <ref_pdb>  (319) 
references/x0176-0B-x0212-0B-386053.holo_minimised_nolig.pdb

>  <original SMILES>  (319) 
CCOC(=O)c1cccc(SCc2ccccc2)c1

>  <synthon>  (319) 
[Xe]c1ccccc1

>  <original_name>  (319) 
x0176-0B-x0212-0B-386053

>  <comRMSD_score>  (319) 
0.9425266279763368

>  <IF_score>  (319) 
0.55

>  <SuCOS_score>  (319) 
0.4581590075251657

>  <compound_ID>  (319) 
REAL:PV-001916186807

$$$$

     RDKit          3D

 21 22  0  0  0  0  0  0  0  0999 V2000
  -12.5440    7.5510  -76.0310 C   0  0  0  0  0  0  0  0  0  0  0  0
  -12.8000    6.2810  -75.3020 N   0  0  0  0  0  0  0  0  0  0  0  0
  -12.5830    6.3470  -73.8690 C   0  0  0  0  0  0  0  0  0  0  0  0
  -13.8850    5.4220  -75.8490 C   0  0  0  0  0  0  0  0  0  0  0  0
  -13.4220    4.6480  -77.1090 C   0  0  0  0  0  0  0  0  0  0  0  0
  -12.0010    4.1860  -77.0380 C   0  0  0  0  0  0  0  0  0  0  0  0
  -11.5390    3.3580  -76.0040 C   0  0  0  0  0  0  0  0  0  0  0  0
  -11.1200    4.5960  -78.0170 C   0  0  0  0  0  0  0  0  0  0  0  0
  -10.1990    2.9720  -75.9790 C   0  0  0  0  0  0  0  0  0  0  0  0
   -9.8020    4.2250  -78.0060 C   0  0  0  0  0  0  0  0  0  0  0  0
   -9.3420    3.4220  -76.9850 C   0  0  0  0  0  0  0  0  0  0  0  0
   -7.8940    3.1080  -77.0390 C   0  0  0  0  0  0  0  0  0  0  0  0
   -6.9770    3.9090  -76.4880 O   0  0  0  0  0  0  0  0  0  0  0  0
   -7.4970    1.9000  -77.7640 N   0  0  0  0  0  0  0  0  0  0  0  0
   -7.2350    2.2070  -79.0450 C   0  0  0  0  0  0  0  0  0  0  0  0
   -7.9820    1.4390  -79.9310 C   0  0  0  0  0  0  0  0  0  0  0  0
   -8.3830    1.9430  -81.2780 C   0  0  0  0  0  0  0  0  0  0  0  0
   -8.3670    0.1600  -79.5400 C   0  0  0  0  0  0  0  0  0  0  0  0
   -9.1340    1.1070  -82.0940 C   0  0  0  0  0  0  0  0  0  0  0  0
   -9.1180   -0.6320  -80.3990 C   0  0  0  0  0  0  0  0  0  0  0  0
   -9.4970   -0.1680  -81.6540 C   0  0  0  0  0  0  0  0  0  0  0  0
  1  2  1  0
  2  3  1  0
  2  4  1  0
  4  5  1  0
  5  6  1  0
  6  7  2  0
  6  8  1  0
  7  9  1  0
  8 10  2  0
  9 11  2  0
 10 11  1  0
 11 12  1  0
 12 13  2  0
 12 14  1  0
 14 15  1  0
 15 16  1  0
 16 17  2  0
 16 18  1  0
 17 19  1  0
 18 20  2  0
 19 21  2  0
 20 21  1  0
M  END
>  <ref_url>  (320) 
https://fakepage.com

>  <submitter_name>  (320) 
Steph Wills

>  <submitter_email>  (320) 
stephanie.wills@dtc.ox.ac.uk

>  <submitter_institution>  (320) 
University of Oxford

>  <generation_date>  (320) 
2020-06-04

>  <method>  (320) 
Fragment network

>  <ref_mols>  (320) 
x0176_0B,x0212_0B

>  <ref_pdb>  (320) 
references/x0176-0B-x0212-0B-386346.holo_minimised_nolig.pdb

>  <original SMILES>  (320) 
CN(C)CCc1ccc(C(=O)NCc2ccccc2)cc1

>  <synthon>  (320) 
[Xe]c1ccccc1

>  <original_name>  (320) 
x0176-0B-x0212-0B-386346

>  <comRMSD_score>  (320) 
0.7967168510460533

>  <IF_score>  (320) 
0.5

>  <SuCOS_score>  (320) 
0.5793909382021192

>  <compound_ID>  (320) 
REAL:Z2228277604

$$$$

     RDKit          3D

 21 22  0  0  0  0  0  0  0  0999 V2000
  -13.4920    5.8030  -76.0310 C   0  0  0  0  0  0  0  0  0  0  0  0
  -12.7770    5.5460  -77.3380 C   0  0  0  0  0  0  0  0  0  0  0  0
  -11.8580    4.3350  -77.2490 C   0  0  0  0  0  0  0  0  0  0  0  0
  -10.7050    4.3370  -78.2460 C   0  0  0  0  0  0  0  0  0  0  0  0
  -12.0290    3.2910  -76.3440 C   0  0  0  0  0  0  0  0  0  0  0  0
   -9.8230    3.1440  -78.1620 C   0  0  0  0  0  0  0  0  0  0  0  0
  -11.1490    2.2150  -76.3300 C   0  0  0  0  0  0  0  0  0  0  0  0
  -10.0790    2.1430  -77.2190 C   0  0  0  0  0  0  0  0  0  0  0  0
   -9.2910    1.0190  -77.0830 N   0  0  0  0  0  0  0  0  0  0  0  0
   -9.6850   -0.3030  -77.1630 C   0  0  0  0  0  0  0  0  0  0  0  0
   -8.2950    1.2940  -76.0870 C   0  0  0  0  0  0  0  0  0  0  0  0
   -8.3010    2.8190  -76.0200 C   0  0  0  0  0  0  0  0  0  0  0  0
   -7.7110    3.2830  -77.2960 C   0  0  0  0  0  0  0  0  0  0  0  0
   -6.8800    2.4050  -77.9390 N   0  0  0  0  0  0  0  0  0  0  0  0
   -6.8190    2.6820  -79.3770 C   0  0  0  0  0  0  0  0  0  0  0  0
   -7.3580    1.4880  -80.1110 C   0  0  0  0  0  0  0  0  0  0  0  0
   -7.6300    0.2490  -79.5220 C   0  0  0  0  0  0  0  0  0  0  0  0
   -7.6050    1.6180  -81.4690 C   0  0  0  0  0  0  0  0  0  0  0  0
   -8.1290   -0.8070  -80.2760 C   0  0  0  0  0  0  0  0  0  0  0  0
   -8.1040    0.5540  -82.2310 C   0  0  0  0  0  0  0  0  0  0  0  0
   -8.3760   -0.6840  -81.6340 C   0  0  0  0  0  0  0  0  0  0  0  0
  1  2  1  0
  2  3  1  0
  3  4  2  0
  3  5  1  0
  4  6  1  0
  5  7  2  0
  6  8  2  0
  7  8  1  0
  8  9  1  0
  9 10  1  0
  9 11  1  0
 11 12  1  0
 12 13  1  0
 13 14  1  0
 14 15  1  0
 15 16  1  0
 16 17  2  0
 16 18  1  0
 17 19  1  0
 18 20  2  0
 19 21  2  0
 20 21  1  0
M  END
>  <ref_url>  (321) 
https://fakepage.com

>  <submitter_name>  (321) 
Steph Wills

>  <submitter_email>  (321) 
stephanie.wills@dtc.ox.ac.uk

>  <submitter_institution>  (321) 
University of Oxford

>  <generation_date>  (321) 
2020-06-04

>  <method>  (321) 
Fragment network

>  <ref_mols>  (321) 
x0176_0B,x0212_0B

>  <ref_pdb>  (321) 
references/x0176-0B-x0212-0B-389403.holo_minimised_nolig.pdb

>  <original SMILES>  (321) 
CCc1ccc(N(C)CCCNCc2ccccc2)cc1

>  <synthon>  (321) 
[Xe]c1ccccc1

>  <original_name>  (321) 
x0176-0B-x0212-0B-389403

>  <comRMSD_score>  (321) 
0.9775769790660996

>  <IF_score>  (321) 
0.3888888888888889

>  <SuCOS_score>  (321) 
0.4786940606469778

>  <compound_ID>  (321) 
CHEMSPACE-BB:CSMB00022145222

$$$$

     RDKit          3D

 21 22  0  0  0  0  0  0  0  0999 V2000
  -12.8880    5.1870  -76.9690 C   0  0  0  0  0  0  0  0  0  0  0  0
  -11.5650    4.4930  -76.8690 C   0  0  0  0  0  0  0  0  0  0  0  0
  -10.5860    4.8230  -77.7810 C   0  0  0  0  0  0  0  0  0  0  0  0
  -11.2880    3.5300  -75.8930 C   0  0  0  0  0  0  0  0  0  0  0  0
   -9.3360    4.2080  -77.7460 C   0  0  0  0  0  0  0  0  0  0  0  0
  -10.0290    2.9120  -75.8610 C   0  0  0  0  0  0  0  0  0  0  0  0
   -9.0580    3.2650  -76.8060 C   0  0  0  0  0  0  0  0  0  0  0  0
   -7.8690    2.6390  -76.7510 O   0  0  0  0  0  0  0  0  0  0  0  0
   -6.8340    3.1760  -75.9400 C   0  0  0  0  0  0  0  0  0  0  0  0
   -5.7780    4.0310  -76.6480 C   0  0  0  0  0  0  0  0  0  0  0  0
   -5.4820    5.1620  -76.2900 O   0  0  0  0  0  0  0  0  0  0  0  0
   -5.1600    3.4120  -77.7150 N   0  0  0  0  0  0  0  0  0  0  0  0
   -5.2380    4.0170  -79.0180 C   0  0  0  0  0  0  0  0  0  0  0  0
   -6.1340    3.1350  -79.8090 C   0  0  0  0  0  0  0  0  0  0  0  0
   -6.2640    1.8280  -79.5500 C   0  0  0  0  0  0  0  0  0  0  0  0
   -7.1190    0.9170  -80.3140 C   0  0  0  0  0  0  0  0  0  0  0  0
   -7.5070    1.3110  -81.5970 C   0  0  0  0  0  0  0  0  0  0  0  0
   -7.5640   -0.3110  -79.8190 C   0  0  0  0  0  0  0  0  0  0  0  0
   -8.3190    0.4930  -82.3780 C   0  0  0  0  0  0  0  0  0  0  0  0
   -8.3820   -1.1310  -80.6030 C   0  0  0  0  0  0  0  0  0  0  0  0
   -8.7560   -0.7260  -81.8830 C   0  0  0  0  0  0  0  0  0  0  0  0
  1  2  1  0
  2  3  2  0
  2  4  1  0
  3  5  1  0
  4  6  2  0
  5  7  2  0
  6  7  1  0
  7  8  1  0
  8  9  1  0
  9 10  1  0
 10 11  2  0
 10 12  1  0
 12 13  1  0
 13 14  1  0
 14 15  2  3
 15 16  1  0
 16 17  2  0
 16 18  1  0
 17 19  1  0
 18 20  2  0
 19 21  2  0
 20 21  1  0
M  END
>  <ref_url>  (322) 
https://fakepage.com

>  <submitter_name>  (322) 
Steph Wills

>  <submitter_email>  (322) 
stephanie.wills@dtc.ox.ac.uk

>  <submitter_institution>  (322) 
University of Oxford

>  <generation_date>  (322) 
2020-06-04

>  <method>  (322) 
Fragment network

>  <ref_mols>  (322) 
x0176_0B,x0212_0B

>  <ref_pdb>  (322) 
references/x0176-0B-x0212-0B-390241.holo_minimised_nolig.pdb

>  <original SMILES>  (322) 
Cc1ccc(OCC(=O)NCC=Cc2ccccc2)cc1

>  <synthon>  (322) 
[Xe]c1ccccc1

>  <original_name>  (322) 
x0176-0B-x0212-0B-390241

>  <comRMSD_score>  (322) 
0.9903730243058552

>  <IF_score>  (322) 
0.5

>  <SuCOS_score>  (322) 
0.3642649570649503

>  <compound_ID>  (322) 
REAL:Z1188556749

$$$$

     RDKit          3D

 21 22  0  0  0  0  0  0  0  0999 V2000
  -12.8090    6.5220  -74.8750 N   0  0  0  0  0  0  0  0  0  0  0  0
  -13.8630    6.2190  -75.8470 C   0  0  0  0  0  0  0  0  0  0  0  0
  -13.2970    5.6090  -77.1220 C   0  0  0  0  0  0  0  0  0  0  0  0
  -12.0890    4.8000  -76.7780 C   0  0  0  0  0  0  0  0  0  0  0  0
  -10.9230    4.9380  -77.5160 C   0  0  0  0  0  0  0  0  0  0  0  0
  -12.1340    3.9080  -75.7100 C   0  0  0  0  0  0  0  0  0  0  0  0
   -9.8160    4.1940  -77.1790 C   0  0  0  0  0  0  0  0  0  0  0  0
  -11.0200    3.1670  -75.3770 C   0  0  0  0  0  0  0  0  0  0  0  0
   -9.8780    3.3230  -76.1100 C   0  0  0  0  0  0  0  0  0  0  0  0
   -8.8790    2.5620  -75.7110 O   0  0  0  0  0  0  0  0  0  0  0  0
   -8.8150    1.6800  -76.7490 C   0  0  0  0  0  0  0  0  0  0  0  0
   -8.3320    2.4700  -77.9500 C   0  0  0  0  0  0  0  0  0  0  0  0
   -9.0980    3.1020  -78.6730 O   0  0  0  0  0  0  0  0  0  0  0  0
   -6.9930    2.4270  -78.1700 N   0  0  0  0  0  0  0  0  0  0  0  0
   -6.5640    2.1470  -79.5010 C   0  0  0  0  0  0  0  0  0  0  0  0
   -7.6850    1.4160  -80.1930 C   0  0  0  0  0  0  0  0  0  0  0  0
   -8.3190    1.9660  -81.3020 C   0  0  0  0  0  0  0  0  0  0  0  0
   -8.1000    0.1650  -79.7110 C   0  0  0  0  0  0  0  0  0  0  0  0
   -9.3490    1.2760  -81.9260 C   0  0  0  0  0  0  0  0  0  0  0  0
   -9.1390   -0.5220  -80.3410 C   0  0  0  0  0  0  0  0  0  0  0  0
   -9.7600    0.0360  -81.4470 C   0  0  0  0  0  0  0  0  0  0  0  0
  1  2  1  0
  2  3  1  0
  3  4  1  0
  4  5  2  0
  4  6  1  0
  5  7  1  0
  6  8  2  0
  7  9  2  0
  8  9  1  0
  9 10  1  0
 10 11  1  0
 11 12  1  0
 12 13  2  0
 12 14  1  0
 14 15  1  0
 15 16  1  0
 16 17  2  0
 16 18  1  0
 17 19  1  0
 18 20  2  0
 19 21  2  0
 20 21  1  0
M  END
>  <ref_url>  (323) 
https://fakepage.com

>  <submitter_name>  (323) 
Steph Wills

>  <submitter_email>  (323) 
stephanie.wills@dtc.ox.ac.uk

>  <submitter_institution>  (323) 
University of Oxford

>  <generation_date>  (323) 
2020-06-04

>  <method>  (323) 
Fragment network

>  <ref_mols>  (323) 
x0176_0B,x0212_0B

>  <ref_pdb>  (323) 
references/x0176-0B-x0212-0B-392361.holo_minimised_nolig.pdb

>  <original SMILES>  (323) 
NCCc1ccc(OCC(=O)NCc2ccccc2)cc1

>  <synthon>  (323) 
[Xe]c1ccccc1

>  <original_name>  (323) 
x0176-0B-x0212-0B-392361

>  <comRMSD_score>  (323) 
0.9340400821163942

>  <IF_score>  (323) 
0.675

>  <SuCOS_score>  (323) 
0.5145355448696427

>  <compound_ID>  (323) 
CHEMSPACE-BB:CSMB00016849728

$$$$

     RDKit          3D

 22 23  0  0  0  0  0  0  0  0999 V2000
  -15.8780    6.4100  -75.8500 O   0  0  0  0  0  0  0  0  0  0  0  0
  -14.6960    6.6620  -76.0080 C   0  0  0  0  0  0  0  0  0  0  0  0
  -14.2840    7.9300  -76.2030 O   0  0  0  0  0  0  0  0  0  0  0  0
  -13.5560    5.6470  -75.9830 C   0  0  0  0  0  0  0  0  0  0  0  0
  -13.1470    5.1170  -77.3650 C   0  0  0  0  0  0  0  0  0  0  0  0
  -11.8840    4.2970  -77.0340 C   0  0  0  0  0  0  0  0  0  0  0  0
  -10.6850    4.5870  -77.8710 C   0  0  0  0  0  0  0  0  0  0  0  0
  -11.8140    3.3320  -76.0190 C   0  0  0  0  0  0  0  0  0  0  0  0
   -9.5230    3.8840  -77.6080 C   0  0  0  0  0  0  0  0  0  0  0  0
  -10.6160    2.6510  -75.7980 C   0  0  0  0  0  0  0  0  0  0  0  0
   -9.5040    2.9360  -76.5850 C   0  0  0  0  0  0  0  0  0  0  0  0
   -8.3380    2.2480  -76.3310 N   0  0  0  0  0  0  0  0  0  0  0  0
   -7.2350    2.7930  -77.0860 C   0  0  0  0  0  0  0  0  0  0  0  0
   -6.8410    3.9490  -76.9940 O   0  0  0  0  0  0  0  0  0  0  0  0
   -6.5940    1.8520  -77.9720 N   0  0  0  0  0  0  0  0  0  0  0  0
   -6.3000    2.1680  -79.2860 C   0  0  0  0  0  0  0  0  0  0  0  0
   -7.0040    1.1820  -80.1680 C   0  0  0  0  0  0  0  0  0  0  0  0
   -7.4060   -0.0690  -79.6560 C   0  0  0  0  0  0  0  0  0  0  0  0
   -7.2980    1.4910  -81.5170 C   0  0  0  0  0  0  0  0  0  0  0  0
   -8.1410   -1.0370  -80.5480 C   0  0  0  0  0  0  0  0  0  0  0  0
   -7.9820    0.5660  -82.3280 C   0  0  0  0  0  0  0  0  0  0  0  0
   -8.4040   -0.6770  -81.8680 C   0  0  0  0  0  0  0  0  0  0  0  0
  1  2  2  0
  2  3  1  0
  2  4  1  0
  4  5  1  0
  5  6  1  0
  6  7  2  0
  6  8  1  0
  7  9  1  0
  8 10  2  0
  9 11  2  0
 10 11  1  0
 11 12  1  0
 12 13  1  0
 13 14  2  0
 13 15  1  0
 15 16  1  0
 16 17  1  0
 17 18  2  0
 17 19  1  0
 18 20  1  0
 19 21  2  0
 20 22  2  0
 21 22  1  0
M  END
>  <ref_url>  (324) 
https://fakepage.com

>  <submitter_name>  (324) 
Steph Wills

>  <submitter_email>  (324) 
stephanie.wills@dtc.ox.ac.uk

>  <submitter_institution>  (324) 
University of Oxford

>  <generation_date>  (324) 
2020-06-04

>  <method>  (324) 
Fragment network

>  <ref_mols>  (324) 
x0176_0B,x0212_0B

>  <ref_pdb>  (324) 
references/x0176-0B-x0212-0B-393107.holo_minimised_nolig.pdb

>  <original SMILES>  (324) 
O=C(O)CCc1ccc(NC(=O)NCc2ccccc2)cc1

>  <synthon>  (324) 
[Xe]c1ccccc1

>  <original_name>  (324) 
x0176-0B-x0212-0B-393107

>  <comRMSD_score>  (324) 
0.8861182814363164

>  <IF_score>  (324) 
0.1875

>  <SuCOS_score>  (324) 
0.4433498052456921

>  <compound_ID>  (324) 
CHEMSPACE-BB:CSMB00012990583

$$$$

     RDKit          3D

 22 23  0  0  0  0  0  0  0  0999 V2000
  -13.6700    5.6930  -76.0950 C   0  0  0  0  0  0  0  0  0  0  0  0
  -13.1520    5.0060  -77.3410 C   0  0  0  0  0  0  0  0  0  0  0  0
  -11.8270    4.3080  -77.0430 C   0  0  0  0  0  0  0  0  0  0  0  0
  -10.7200    4.6280  -78.0280 C   0  0  0  0  0  0  0  0  0  0  0  0
  -11.6330    3.4570  -75.9680 C   0  0  0  0  0  0  0  0  0  0  0  0
   -9.4330    3.9550  -77.7310 C   0  0  0  0  0  0  0  0  0  0  0  0
  -10.3880    2.8670  -75.7660 C   0  0  0  0  0  0  0  0  0  0  0  0
   -9.3090    3.1150  -76.6310 C   0  0  0  0  0  0  0  0  0  0  0  0
   -8.0910    2.5240  -76.4200 N   0  0  0  0  0  0  0  0  0  0  0  0
   -7.6490    1.5450  -77.2470 C   0  0  0  0  0  0  0  0  0  0  0  0
   -8.1590    0.4280  -77.3670 O   0  0  0  0  0  0  0  0  0  0  0  0
   -6.5190    2.0080  -77.9470 N   0  0  0  0  0  0  0  0  0  0  0  0
   -6.4290    2.3840  -79.2770 C   0  0  1  0  0  0  0  0  0  0  0  0
   -4.9980    2.5810  -79.7700 C   0  0  0  0  0  0  0  0  0  0  0  0
   -7.0830    1.3100  -80.1640 C   0  0  0  0  0  0  0  0  0  0  0  0
   -4.0960    3.3860  -79.1250 O   0  0  0  0  0  0  0  0  0  0  0  0
   -4.7500    1.8290  -80.9600 O   0  0  0  0  0  0  0  0  0  0  0  0
   -7.4060    1.6390  -81.4900 C   0  0  0  0  0  0  0  0  0  0  0  0
   -7.3860    0.0100  -79.6960 C   0  0  0  0  0  0  0  0  0  0  0  0
   -8.0610    0.6160  -82.3820 C   0  0  0  0  0  0  0  0  0  0  0  0
   -8.0010   -0.9250  -80.5440 C   0  0  0  0  0  0  0  0  0  0  0  0
   -8.3410   -0.6500  -81.8640 C   0  0  0  0  0  0  0  0  0  0  0  0
  1  2  1  0
  2  3  1  0
  3  4  2  0
  3  5  1  0
  4  6  1  0
  5  7  2  0
  6  8  2  0
  7  8  1  0
  8  9  1  0
  9 10  1  0
 10 11  2  0
 10 12  1  0
 13 12  1  1
 13 14  1  0
 13 15  1  0
 14 16  2  0
 14 17  1  0
 15 18  2  0
 15 19  1  0
 18 20  1  0
 19 21  2  0
 20 22  2  0
 21 22  1  0
M  END
>  <ref_url>  (325) 
https://fakepage.com

>  <submitter_name>  (325) 
Steph Wills

>  <submitter_email>  (325) 
stephanie.wills@dtc.ox.ac.uk

>  <submitter_institution>  (325) 
University of Oxford

>  <generation_date>  (325) 
2020-06-04

>  <method>  (325) 
Fragment network

>  <ref_mols>  (325) 
x0176_0B,x0212_0B

>  <ref_pdb>  (325) 
references/x0176-0B-x0212-0B-393365.holo_minimised_nolig.pdb

>  <original SMILES>  (325) 
CCc1ccc(NC(=O)NC(C(=O)O)c2ccccc2)cc1

>  <synthon>  (325) 
[Xe]c1ccccc1

>  <original_name>  (325) 
x0176-0B-x0212-0B-393365

>  <comRMSD_score>  (325) 
0.9726941965489464

>  <IF_score>  (325) 
0.2142857142857142

>  <SuCOS_score>  (325) 
0.4496388533311073

>  <compound_ID>  (325) 
REAL:Z1629260323

$$$$

     RDKit          3D

 23 24  0  0  0  0  0  0  0  0999 V2000
  -13.8000    5.7370  -76.3320 C   0  0  0  0  0  0  0  0  0  0  0  0
  -13.0990    5.2250  -77.5880 C   0  0  0  0  0  0  0  0  0  0  0  0
  -14.0490    4.4490  -78.5020 C   0  0  0  0  0  0  0  0  0  0  0  0
  -11.8650    4.4450  -77.2230 C   0  0  0  0  0  0  0  0  0  0  0  0
  -10.7230    4.5370  -78.0080 C   0  0  0  0  0  0  0  0  0  0  0  0
  -11.8440    3.6240  -76.0870 C   0  0  0  0  0  0  0  0  0  0  0  0
   -9.5820    3.8390  -77.6770 C   0  0  0  0  0  0  0  0  0  0  0  0
  -10.6880    2.9180  -75.7530 C   0  0  0  0  0  0  0  0  0  0  0  0
   -9.5620    3.0370  -76.5540 C   0  0  0  0  0  0  0  0  0  0  0  0
   -8.4320    2.3460  -76.1970 N   0  0  0  0  0  0  0  0  0  0  0  0
   -7.2060    2.7610  -76.5730 C   0  0  0  0  0  0  0  0  0  0  0  0
   -6.6180    3.7340  -76.0960 O   0  0  0  0  0  0  0  0  0  0  0  0
   -6.6310    2.0100  -77.5800 N   0  0  0  0  0  0  0  0  0  0  0  0
   -5.9510    0.7840  -77.1790 C   0  0  0  0  0  0  0  0  0  0  0  0
   -6.6480    2.3340  -79.0290 C   0  0  1  0  0  0  0  0  0  0  0  0
   -5.2170    2.4420  -79.6290 C   0  0  0  0  0  0  0  0  0  0  0  0
   -7.6830    1.5250  -79.7920 C   0  0  0  0  0  0  0  0  0  0  0  0
   -4.8360    1.2840  -80.3790 O   0  0  0  0  0  0  0  0  0  0  0  0
   -8.0950    0.2750  -79.2900 C   0  0  0  0  0  0  0  0  0  0  0  0
   -8.2520    1.9710  -80.9790 C   0  0  0  0  0  0  0  0  0  0  0  0
   -9.0450   -0.5000  -79.9520 C   0  0  0  0  0  0  0  0  0  0  0  0
   -9.1890    1.1960  -81.6230 C   0  0  0  0  0  0  0  0  0  0  0  0
   -9.5930   -0.0310  -81.1240 C   0  0  0  0  0  0  0  0  0  0  0  0
  1  2  1  0
  2  3  1  0
  2  4  1  0
  4  5  2  0
  4  6  1  0
  5  7  1  0
  6  8  2  0
  7  9  2  0
  8  9  1  0
  9 10  1  0
 10 11  1  0
 11 12  2  0
 11 13  1  0
 13 14  1  0
 13 15  1  0
 15 16  1  6
 15 17  1  0
 16 18  1  0
 17 19  2  0
 17 20  1  0
 19 21  1  0
 20 22  2  0
 21 23  2  0
 22 23  1  0
M  END
>  <ref_url>  (326) 
https://fakepage.com

>  <submitter_name>  (326) 
Steph Wills

>  <submitter_email>  (326) 
stephanie.wills@dtc.ox.ac.uk

>  <submitter_institution>  (326) 
University of Oxford

>  <generation_date>  (326) 
2020-06-04

>  <method>  (326) 
Fragment network

>  <ref_mols>  (326) 
x0176_0B,x0212_0B

>  <ref_pdb>  (326) 
references/x0176-0B-x0212-0B-394918.holo_minimised_nolig.pdb

>  <original SMILES>  (326) 
CC(C)c1ccc(NC(=O)N(C)C(CO)c2ccccc2)cc1

>  <synthon>  (326) 
[Xe]c1ccccc1

>  <original_name>  (326) 
x0176-0B-x0212-0B-394918

>  <comRMSD_score>  (326) 
0.6791020285769954

>  <IF_score>  (326) 
0.3

>  <SuCOS_score>  (326) 
0.4906525344145136

>  <compound_ID>  (326) 
REAL:Z2290275870

$$$$

     RDKit          3D

 20 21  0  0  0  0  0  0  0  0999 V2000
  -12.9390    5.1750  -74.7610 C   0  0  0  0  0  0  0  0  0  0  0  0
  -13.6810    5.4420  -76.0800 C   0  0  0  0  0  0  0  0  0  0  0  0
  -13.1630    6.6450  -76.7630 C   0  0  0  0  0  0  0  0  0  0  0  0
  -13.3540    4.2340  -76.9720 C   0  0  0  0  0  0  0  0  0  0  0  0
  -11.9970    3.8910  -76.8880 C   0  0  0  0  0  0  0  0  0  0  0  0
  -11.5160    2.9830  -75.9310 C   0  0  0  0  0  0  0  0  0  0  0  0
  -11.1420    4.4890  -77.7620 C   0  0  0  0  0  0  0  0  0  0  0  0
  -10.1440    2.7060  -75.8600 C   0  0  0  0  0  0  0  0  0  0  0  0
   -9.8170    4.2170  -77.6860 C   0  0  0  0  0  0  0  0  0  0  0  0
   -9.3000    3.3550  -76.7530 C   0  0  0  0  0  0  0  0  0  0  0  0
   -7.8230    3.2470  -76.8160 C   0  0  0  0  0  0  0  0  0  0  0  0
   -7.1380    1.6660  -77.3550 S   0  0  0  0  0  0  0  0  0  0  0  0
   -5.8380    1.4300  -76.7390 O   0  0  0  0  0  0  0  0  0  0  0  0
   -6.8190    2.1400  -79.0680 C   0  0  0  0  0  0  0  0  0  0  0  0
   -7.7330    1.4380  -79.8210 C   0  0  0  0  0  0  0  0  0  0  0  0
   -8.2510    1.9160  -81.1150 C   0  0  0  0  0  0  0  0  0  0  0  0
   -8.2280    0.2070  -79.3710 C   0  0  0  0  0  0  0  0  0  0  0  0
   -9.1640    1.2130  -81.8460 C   0  0  0  0  0  0  0  0  0  0  0  0
   -9.1640   -0.4990  -80.1270 C   0  0  0  0  0  0  0  0  0  0  0  0
   -9.6290   -0.0040  -81.3470 C   0  0  0  0  0  0  0  0  0  0  0  0
  1  2  1  0
  2  3  1  0
  2  4  1  0
  4  5  1  0
  5  6  2  0
  5  7  1  0
  6  8  1  0
  7  9  2  0
  8 10  2  0
  9 10  1  0
 10 11  1  0
 11 12  1  0
 12 13  1  1
 12 14  1  0
 14 15  1  0
 15 16  2  0
 15 17  1  0
 16 18  1  0
 17 19  2  0
 18 20  2  0
 19 20  1  0
M  CHG  2  12   1  13  -1
M  END
>  <ref_url>  (327) 
https://fakepage.com

>  <submitter_name>  (327) 
Steph Wills

>  <submitter_email>  (327) 
stephanie.wills@dtc.ox.ac.uk

>  <submitter_institution>  (327) 
University of Oxford

>  <generation_date>  (327) 
2020-06-04

>  <method>  (327) 
Fragment network

>  <ref_mols>  (327) 
x0176_0B,x0212_0B

>  <ref_pdb>  (327) 
references/x0176-0B-x0212-0B-395136.holo_minimised_nolig.pdb

>  <original SMILES>  (327) 
CC(C)Cc1ccc(C[S+]([O-])Cc2ccccc2)cc1

>  <synthon>  (327) 
[Xe]c1ccccc1

>  <original_name>  (327) 
x0176-0B-x0212-0B-395136

>  <comRMSD_score>  (327) 
0.9534866962889416

>  <IF_score>  (327) 
0.375

>  <SuCOS_score>  (327) 
0.4843879608937803

>  <compound_ID>  (327) 
REAL:Z1010834076

$$$$

     RDKit          3D

 19 20  0  0  0  0  0  0  0  0999 V2000
  -13.1630    5.7200  -78.5270 N   0  0  0  0  0  0  0  0  0  0  0  0
  -13.1100    5.0820  -77.2190 C   0  0  0  0  0  0  0  0  0  0  0  0
  -11.8470    4.2960  -77.0330 C   0  0  0  0  0  0  0  0  0  0  0  0
  -11.7800    3.3030  -76.0400 C   0  0  0  0  0  0  0  0  0  0  0  0
  -10.7350    4.5460  -77.8410 C   0  0  0  0  0  0  0  0  0  0  0  0
  -10.6140    2.5670  -75.8640 C   0  0  0  0  0  0  0  0  0  0  0  0
   -9.5720    3.8150  -77.6680 C   0  0  0  0  0  0  0  0  0  0  0  0
   -9.5340    2.8350  -76.6810 C   0  0  0  0  0  0  0  0  0  0  0  0
   -8.3840    2.1050  -76.5100 O   0  0  0  0  0  0  0  0  0  0  0  0
   -7.3180    2.7610  -77.0580 C   0  0  0  0  0  0  0  0  0  0  0  0
   -6.9820    3.9150  -76.8560 O   0  0  0  0  0  0  0  0  0  0  0  0
   -6.6650    1.9000  -77.8810 N   0  0  0  0  0  0  0  0  0  0  0  0
   -6.3760    2.2130  -79.2540 C   0  0  0  0  0  0  0  0  0  0  0  0
   -7.0520    1.2170  -80.1450 C   0  0  0  0  0  0  0  0  0  0  0  0
   -7.3330    1.5320  -81.4870 C   0  0  0  0  0  0  0  0  0  0  0  0
   -7.4370   -0.0420  -79.6480 C   0  0  0  0  0  0  0  0  0  0  0  0
   -7.9830    0.6060  -82.3110 C   0  0  0  0  0  0  0  0  0  0  0  0
   -8.0900   -0.9600  -80.4780 C   0  0  0  0  0  0  0  0  0  0  0  0
   -8.3590   -0.6340  -81.8060 C   0  0  0  0  0  0  0  0  0  0  0  0
  1  2  1  0
  2  3  1  0
  3  4  2  0
  3  5  1  0
  4  6  1  0
  5  7  2  0
  6  8  2  0
  7  8  1  0
  8  9  1  0
  9 10  1  0
 10 11  2  0
 10 12  1  0
 12 13  1  0
 13 14  1  0
 14 15  2  0
 14 16  1  0
 15 17  1  0
 16 18  2  0
 17 19  2  0
 18 19  1  0
M  END
>  <ref_url>  (328) 
https://fakepage.com

>  <submitter_name>  (328) 
Steph Wills

>  <submitter_email>  (328) 
stephanie.wills@dtc.ox.ac.uk

>  <submitter_institution>  (328) 
University of Oxford

>  <generation_date>  (328) 
2020-06-04

>  <method>  (328) 
Fragment network

>  <ref_mols>  (328) 
x0176_0B,x0212_0B

>  <ref_pdb>  (328) 
references/x0176-0B-x0212-0B-395212.holo_minimised_nolig.pdb

>  <original SMILES>  (328) 
NCc1ccc(OC(=O)NCc2ccccc2)cc1

>  <synthon>  (328) 
[Xe]c1ccccc1

>  <original_name>  (328) 
x0176-0B-x0212-0B-395212

>  <comRMSD_score>  (328) 
0.8781270616281193

>  <IF_score>  (328) 
0.1875

>  <SuCOS_score>  (328) 
0.4014165052071414

>  <compound_ID>  (328) 
CHEMSPACE-BB:CSMB00011163588

$$$$

     RDKit          3D

 25 26  0  0  0  0  0  0  0  0999 V2000
  -12.5820    6.4440  -73.6460 C   0  0  0  0  0  0  0  0  0  0  0  0
  -12.9930    6.7730  -75.0800 C   0  0  0  0  0  0  0  0  0  0  0  0
  -13.2610    5.7400  -75.9740 C   0  0  0  0  0  0  0  0  0  0  0  0
  -12.4220    5.5990  -77.0780 C   0  0  0  0  0  0  0  0  0  0  0  0
  -11.5540    4.5160  -77.0360 C   0  0  0  0  0  0  0  0  0  0  0  0
  -10.7140    4.2880  -78.1010 C   0  0  0  0  0  0  0  0  0  0  0  0
  -11.5040    3.6350  -75.9460 C   0  0  0  0  0  0  0  0  0  0  0  0
   -9.7920    3.1280  -78.1080 C   0  0  0  0  0  0  0  0  0  0  0  0
  -10.6390    2.5330  -75.9390 C   0  0  0  0  0  0  0  0  0  0  0  0
   -9.7920    2.2680  -77.0160 C   0  0  0  0  0  0  0  0  0  0  0  0
   -9.0500    1.3180  -77.0820 O   0  0  0  0  0  0  0  0  0  0  0  0
   -7.9840    1.2730  -76.1670 C   0  0  0  0  0  0  0  0  0  0  0  0
   -7.0030    2.2280  -76.3390 C   0  0  0  0  0  0  0  0  0  0  0  0
   -5.9670    1.9470  -75.7430 O   0  0  0  0  0  0  0  0  0  0  0  0
   -7.1690    3.3420  -77.1170 N   0  0  0  0  0  0  0  0  0  0  0  0
   -6.0190    4.3010  -77.5310 N   0  0  0  0  0  0  0  0  0  0  0  0
   -5.8060    4.3280  -78.8860 C   0  0  0  0  0  0  0  0  0  0  0  0
   -6.6260    3.5170  -79.6370 C   0  0  0  0  0  0  0  0  0  0  0  0
   -6.9200    2.1090  -79.2130 C   0  0  0  0  0  0  0  0  0  0  0  0
   -7.8600    1.2700  -80.0290 C   0  0  0  0  0  0  0  0  0  0  0  0
   -8.3200    1.8600  -81.3120 C   0  0  0  0  0  0  0  0  0  0  0  0
   -8.2760    0.0180  -79.6020 C   0  0  0  0  0  0  0  0  0  0  0  0
   -9.1820    1.1030  -82.0680 C   0  0  0  0  0  0  0  0  0  0  0  0
   -9.1500   -0.6950  -80.4090 C   0  0  0  0  0  0  0  0  0  0  0  0
   -9.5940   -0.1660  -81.6170 C   0  0  0  0  0  0  0  0  0  0  0  0
  1  2  1  0
  2  3  1  0
  3  4  1  0
  4  5  1  0
  5  6  2  0
  5  7  1  0
  6  8  1  0
  7  9  2  0
  8 10  2  0
  9 10  1  0
 10 11  1  0
 11 12  1  0
 12 13  1  0
 13 14  2  0
 13 15  1  0
 15 16  1  0
 16 17  2  3
 17 18  1  0
 18 19  2  3
 19 20  1  0
 20 21  2  0
 20 22  1  0
 21 23  1  0
 22 24  2  0
 23 25  2  0
 24 25  1  0
M  END
>  <ref_url>  (329) 
https://fakepage.com

>  <submitter_name>  (329) 
Steph Wills

>  <submitter_email>  (329) 
stephanie.wills@dtc.ox.ac.uk

>  <submitter_institution>  (329) 
University of Oxford

>  <generation_date>  (329) 
2020-06-04

>  <method>  (329) 
Fragment network

>  <ref_mols>  (329) 
x0176_0B,x0212_0B

>  <ref_pdb>  (329) 
references/x0176-0B-x0212-0B-396499.holo_minimised_nolig.pdb

>  <original SMILES>  (329) 
CCCCc1ccc(OCC(=O)NN=CC=Cc2ccccc2)cc1

>  <synthon>  (329) 
[Xe]c1ccccc1

>  <original_name>  (329) 
x0176-0B-x0212-0B-396499

>  <comRMSD_score>  (329) 
0.6805912734391182

>  <IF_score>  (329) 
0.5

>  <SuCOS_score>  (329) 
0.5245141689692263

>  <compound_ID>  (329) 
MOLPORT:001-804-918

$$$$

     RDKit          3D

 23 24  0  0  0  0  0  0  0  0999 V2000
  -12.7490    6.8070  -74.9580 C   0  0  0  0  0  0  0  0  0  0  0  0
  -13.6750    6.0520  -75.8960 C   0  0  0  0  0  0  0  0  0  0  0  0
  -12.9700    5.5830  -77.1570 C   0  0  0  0  0  0  0  0  0  0  0  0
  -11.7940    4.7180  -76.8060 C   0  0  0  0  0  0  0  0  0  0  0  0
  -10.6330    4.7320  -77.5680 C   0  0  0  0  0  0  0  0  0  0  0  0
  -11.8640    3.8870  -75.6860 C   0  0  0  0  0  0  0  0  0  0  0  0
   -9.5530    3.9320  -77.2020 C   0  0  0  0  0  0  0  0  0  0  0  0
  -10.7860    3.0860  -75.3260 C   0  0  0  0  0  0  0  0  0  0  0  0
   -9.6220    3.1060  -76.0750 C   0  0  0  0  0  0  0  0  0  0  0  0
   -8.5100    2.3740  -75.8190 O   0  0  0  0  0  0  0  0  0  0  0  0
   -8.5020    1.1520  -76.5280 C   0  0  0  0  0  0  0  0  0  0  0  0
   -9.3480    1.4950  -77.7450 C   0  0  2  0  0  0  0  0  0  0  0  0
   -9.5550    0.3280  -78.5580 O   0  0  0  0  0  0  0  0  0  0  0  0
   -8.6930    2.6490  -78.5290 C   0  0  0  0  0  0  0  0  0  0  0  0
   -7.2320    2.6770  -78.3170 N   0  0  0  0  0  0  0  0  0  0  0  0
   -6.5380    2.0000  -79.4100 C   0  0  2  0  0  0  0  0  0  0  0  0
   -5.6070    2.9350  -80.1890 C   0  0  0  0  0  0  0  0  0  0  0  0
   -7.5970    1.2520  -80.1810 C   0  0  0  0  0  0  0  0  0  0  0  0
   -8.2810    1.9080  -81.2170 C   0  0  0  0  0  0  0  0  0  0  0  0
   -7.9320   -0.0750  -79.8840 C   0  0  0  0  0  0  0  0  0  0  0  0
   -9.2780    1.2550  -81.9240 C   0  0  0  0  0  0  0  0  0  0  0  0
   -8.9340   -0.7240  -80.5940 C   0  0  0  0  0  0  0  0  0  0  0  0
   -9.6030   -0.0560  -81.6040 C   0  0  0  0  0  0  0  0  0  0  0  0
  1  2  1  0
  2  3  1  0
  3  4  1  0
  4  5  2  0
  4  6  1  0
  5  7  1  0
  6  8  2  0
  7  9  2  0
  8  9  1  0
  9 10  1  0
 10 11  1  0
 11 12  1  0
 12 13  1  6
 12 14  1  0
 14 15  1  0
 15 16  1  0
 16 17  1  6
 16 18  1  0
 18 19  2  0
 18 20  1  0
 19 21  1  0
 20 22  2  0
 21 23  2  0
 22 23  1  0
M  END
>  <ref_url>  (330) 
https://fakepage.com

>  <submitter_name>  (330) 
Steph Wills

>  <submitter_email>  (330) 
stephanie.wills@dtc.ox.ac.uk

>  <submitter_institution>  (330) 
University of Oxford

>  <generation_date>  (330) 
2020-06-04

>  <method>  (330) 
Fragment network

>  <ref_mols>  (330) 
x0176_0B,x0212_0B

>  <ref_pdb>  (330) 
references/x0176-0B-x0212-0B-397600.holo_minimised_nolig.pdb

>  <original SMILES>  (330) 
CCCc1ccc(OCC(O)CNC(C)c2ccccc2)cc1

>  <synthon>  (330) 
[Xe]c1ccccc1

>  <original_name>  (330) 
x0176-0B-x0212-0B-397600

>  <comRMSD_score>  (330) 
0.9988998147962584

>  <IF_score>  (330) 
0.675

>  <SuCOS_score>  (330) 
0.5268283856855074

>  <compound_ID>  (330) 
MOLPORT:003-052-265

$$$$

     RDKit          3D

 27 28  0  0  0  0  0  0  0  0999 V2000
   -7.0080    3.8320  -77.3430 C   0  0  0  0  0  0  0  0  0  0  0  0
   -6.8690    2.5480  -77.9500 O   0  0  0  0  0  0  0  0  0  0  0  0
   -6.8090    2.5720  -79.3060 C   0  0  0  0  0  0  0  0  0  0  0  0
   -6.0610    3.2560  -79.9880 O   0  0  0  0  0  0  0  0  0  0  0  0
   -7.8050    1.6220  -79.8590 C   0  0  0  0  0  0  0  0  0  0  0  0
   -8.3590    1.8380  -81.1260 C   0  0  0  0  0  0  0  0  0  0  0  0
   -8.1990    0.5110  -79.1200 C   0  0  0  0  0  0  0  0  0  0  0  0
   -9.3070    0.9350  -81.6240 C   0  0  0  0  0  0  0  0  0  0  0  0
   -9.1420   -0.3740  -79.6210 C   0  0  0  0  0  0  0  0  0  0  0  0
   -9.7100   -0.1780  -80.8620 C   0  0  0  0  0  0  0  0  0  0  0  0
  -10.6790   -1.0660  -81.3450 N   0  0  0  0  0  0  0  0  0  0  0  0
  -11.8080   -1.4590  -80.6450 C   0  0  0  0  0  0  0  0  0  0  0  0
  -12.7290   -2.1510  -81.0560 O   0  0  0  0  0  0  0  0  0  0  0  0
  -11.7760   -0.9510  -79.3430 N   0  0  0  0  0  0  0  0  0  0  0  0
  -13.0050   -0.7550  -78.5690 C   0  0  0  0  0  0  0  0  0  0  0  0
  -12.9560    0.5230  -77.7140 C   0  0  0  0  0  0  0  0  0  0  0  0
  -14.3170    1.2090  -77.4410 C   0  0  2  0  0  0  0  0  0  0  0  0
  -15.1290    1.3090  -78.6160 O   0  0  0  0  0  0  0  0  0  0  0  0
  -14.2500    2.5730  -76.7040 C   0  0  0  0  0  0  0  0  0  0  0  0
  -13.9610    3.7100  -77.5390 O   0  0  0  0  0  0  0  0  0  0  0  0
  -13.0100    4.6220  -76.9520 C   0  0  0  0  0  0  0  0  0  0  0  0
  -11.6590    3.9730  -76.9060 C   0  0  0  0  0  0  0  0  0  0  0  0
  -11.3490    3.0950  -75.8600 C   0  0  0  0  0  0  0  0  0  0  0  0
  -10.7040    4.2240  -77.8940 C   0  0  0  0  0  0  0  0  0  0  0  0
  -10.1120    2.4730  -75.8050 C   0  0  0  0  0  0  0  0  0  0  0  0
   -9.4650    3.6010  -77.8380 C   0  0  0  0  0  0  0  0  0  0  0  0
   -9.1690    2.7220  -76.7910 C   0  0  0  0  0  0  0  0  0  0  0  0
  1  2  1  0
  2  3  1  0
  3  4  2  0
  3  5  1  0
  5  6  2  0
  5  7  1  0
  6  8  1  0
  7  9  2  0
  8 10  2  0
  9 10  1  0
 10 11  1  0
 11 12  1  0
 12 13  2  0
 12 14  1  0
 14 15  1  0
 15 16  1  0
 16 17  1  0
 17 18  1  6
 17 19  1  0
 19 20  1  0
 20 21  1  0
 21 22  1  0
 22 23  2  0
 22 24  1  0
 23 25  1  0
 24 26  2  0
 25 27  2  0
 26 27  1  0
M  END
>  <ref_url>  (331) 
https://fakepage.com

>  <submitter_name>  (331) 
Steph Wills

>  <submitter_email>  (331) 
stephanie.wills@dtc.ox.ac.uk

>  <submitter_institution>  (331) 
University of Oxford

>  <generation_date>  (331) 
2020-06-04

>  <method>  (331) 
Fragment network

>  <ref_mols>  (331) 
x0176_0B,x0212_0B

>  <ref_pdb>  (331) 
references/x0176-0B-x0212-0B-398476.holo_minimised_nolig.pdb

>  <original SMILES>  (331) 
COC(=O)c1ccc(NC(=O)NCCC(O)COCc2ccccc2)cc1

>  <synthon>  (331) 
[Xe]c1ccccc1

>  <original_name>  (331) 
x0176-0B-x0212-0B-398476

>  <comRMSD_score>  (331) 
0.719306484178906

>  <IF_score>  (331) 
0.25

>  <SuCOS_score>  (331) 
0.4399457494082626

>  <compound_ID>  (331) 
REAL:Z2708669458

$$$$

     RDKit          3D

 26 27  0  0  0  0  0  0  0  0999 V2000
  -10.6630    1.8640  -78.4130 C   0  0  0  0  0  0  0  0  0  0  0  0
  -11.1520    0.7360  -77.7500 N   0  0  0  0  0  0  0  0  0  0  0  0
  -12.3840    1.0440  -77.0040 C   0  0  0  0  0  0  0  0  0  0  0  0
  -10.9210   -0.6900  -78.6500 S   0  0  0  0  0  0  0  0  0  0  0  0
  -12.6230    2.5410  -76.8680 C   0  0  0  0  0  0  0  0  0  0  0  0
  -12.1120   -0.9790  -79.4260 O   0  0  0  0  0  0  0  0  0  0  0  0
  -10.2310   -1.6770  -77.8460 O   0  0  0  0  0  0  0  0  0  0  0  0
   -9.7470    0.1410  -79.6760 C   0  0  0  0  0  0  0  0  0  0  0  0
  -13.4120    2.9480  -75.6820 N   0  0  0  0  0  0  0  0  0  0  0  0
   -9.8950    0.2620  -81.0540 C   0  0  0  0  0  0  0  0  0  0  0  0
   -8.6560    0.7210  -79.0150 C   0  0  0  0  0  0  0  0  0  0  0  0
  -13.0880    3.8990  -74.6830 C   0  0  0  0  0  0  0  0  0  0  0  0
   -8.9770    0.9840  -81.7940 C   0  0  0  0  0  0  0  0  0  0  0  0
   -7.7040    1.4520  -79.7070 C   0  0  0  0  0  0  0  0  0  0  0  0
  -12.9640    3.6230  -73.4940 O   0  0  0  0  0  0  0  0  0  0  0  0
  -12.9200    5.1830  -75.1820 N   0  0  0  0  0  0  0  0  0  0  0  0
   -7.8550    1.5890  -81.0570 C   0  0  0  0  0  0  0  0  0  0  0  0
  -13.3060    5.4850  -76.5390 C   0  0  0  0  0  0  0  0  0  0  0  0
   -6.8800    2.3210  -81.5910 F   0  0  0  0  0  0  0  0  0  0  0  0
  -12.2990    5.2750  -77.4850 C   0  0  0  0  0  0  0  0  0  0  0  0
  -11.1880    4.4660  -77.1930 C   0  0  0  0  0  0  0  0  0  0  0  0
  -11.0600    3.5720  -75.9370 C   0  0  0  0  0  0  0  0  0  0  0  0
  -10.1170    4.4710  -78.1100 C   0  0  0  0  0  0  0  0  0  0  0  0
   -9.9110    2.8290  -75.7930 C   0  0  0  0  0  0  0  0  0  0  0  0
   -8.9310    3.7230  -77.9710 C   0  0  0  0  0  0  0  0  0  0  0  0
   -8.8450    2.9190  -76.8300 C   0  0  0  0  0  0  0  0  0  0  0  0
  1  2  1  0
  2  3  1  0
  4  2  1  0
  3  5  1  0
  4  6  2  0
  4  7  2  0
  4  8  1  0
  5  9  1  0
  8 10  2  0
  8 11  1  0
  9 12  1  0
 10 13  1  0
 11 14  2  0
 12 15  2  0
 12 16  1  0
 13 17  2  0
 14 17  1  0
 16 18  1  0
 17 19  1  0
 18 20  1  0
 20 21  1  0
 21 22  2  0
 21 23  1  0
 22 24  1  0
 23 25  2  0
 24 26  2  0
 25 26  1  0
M  END
>  <ref_url>  (332) 
https://fakepage.com

>  <submitter_name>  (332) 
Steph Wills

>  <submitter_email>  (332) 
stephanie.wills@dtc.ox.ac.uk

>  <submitter_institution>  (332) 
University of Oxford

>  <generation_date>  (332) 
2020-06-04

>  <method>  (332) 
Fragment network

>  <ref_mols>  (332) 
x0176_0B,x0212_0B

>  <ref_pdb>  (332) 
references/x0176-0B-x0212-0B-400627.holo_minimised_nolig.pdb

>  <original SMILES>  (332) 
CN(CCNC(=O)NCCc1ccccc1)S(=O)(=O)c1ccc(F)cc1

>  <synthon>  (332) 
[Xe]c1ccccc1

>  <original_name>  (332) 
x0176-0B-x0212-0B-400627

>  <comRMSD_score>  (332) 
0.8406850381286285

>  <IF_score>  (332) 
0.125

>  <SuCOS_score>  (332) 
0.4498355879816376

>  <compound_ID>  (332) 
REAL:Z1974071079

$$$$

     RDKit          3D

 18 19  0  0  0  0  0  0  0  0999 V2000
  -12.7940    5.1580  -77.3200 C   0  0  0  0  0  0  0  0  0  0  0  0
  -11.5840    4.2710  -76.9990 C   0  0  0  0  0  0  0  0  0  0  0  0
  -11.7790    3.3100  -75.8270 C   0  0  0  0  0  0  0  0  0  0  0  0
  -10.3820    4.3010  -77.6860 C   0  0  0  0  0  0  0  0  0  0  0  0
  -10.7040    2.4870  -75.5000 C   0  0  0  0  0  0  0  0  0  0  0  0
   -9.3510    3.4430  -77.2920 C   0  0  0  0  0  0  0  0  0  0  0  0
   -9.5160    2.5560  -76.2200 C   0  0  0  0  0  0  0  0  0  0  0  0
   -8.0490    3.4550  -78.0070 C   0  0  0  0  0  0  0  0  0  0  0  0
   -6.8910    2.2440  -77.5440 S   0  0  0  0  0  0  0  0  0  0  0  0
   -5.8270    2.8580  -76.7860 O   0  0  0  0  0  0  0  0  0  0  0  0
   -7.5780    1.0400  -77.1170 O   0  0  0  0  0  0  0  0  0  0  0  0
   -6.3680    2.0640  -79.2320 C   0  0  0  0  0  0  0  0  0  0  0  0
   -7.0290    1.1790  -80.0880 C   0  0  0  0  0  0  0  0  0  0  0  0
   -7.4980   -0.1580  -79.5650 C   0  0  0  0  0  0  0  0  0  0  0  0
   -7.3000    1.5000  -81.4510 C   0  0  0  0  0  0  0  0  0  0  0  0
   -8.1680   -1.0210  -80.4270 C   0  0  0  0  0  0  0  0  0  0  0  0
   -7.9750    0.6100  -82.3110 C   0  0  0  0  0  0  0  0  0  0  0  0
   -8.4150   -0.6320  -81.8480 C   0  0  0  0  0  0  0  0  0  0  0  0
  1  2  1  0
  2  3  2  0
  2  4  1  0
  3  5  1  0
  4  6  2  0
  5  7  2  0
  6  7  1  0
  6  8  1  0
  9  8  1  0
  9 10  2  0
  9 11  2  0
  9 12  1  0
 12 13  1  0
 13 14  2  0
 13 15  1  0
 14 16  1  0
 15 17  2  0
 16 18  2  0
 17 18  1  0
M  END
>  <ref_url>  (333) 
https://fakepage.com

>  <submitter_name>  (333) 
Steph Wills

>  <submitter_email>  (333) 
stephanie.wills@dtc.ox.ac.uk

>  <submitter_institution>  (333) 
University of Oxford

>  <generation_date>  (333) 
2020-06-04

>  <method>  (333) 
Fragment network

>  <ref_mols>  (333) 
x0176_0B,x0212_0B

>  <ref_pdb>  (333) 
references/x0176-0B-x0212-0B-401511.holo_minimised_nolig.pdb

>  <original SMILES>  (333) 
Cc1cccc(CS(=O)(=O)Cc2ccccc2)c1

>  <synthon>  (333) 
[Xe]c1ccccc1

>  <original_name>  (333) 
x0176-0B-x0212-0B-401511

>  <comRMSD_score>  (333) 
0.925900290434174

>  <IF_score>  (333) 
0.25

>  <SuCOS_score>  (333) 
0.3863883216841204

>  <compound_ID>  (333) 
REAL:Z316925886

$$$$

     RDKit          3D

 22 23  0  0  0  0  0  0  0  0999 V2000
  -12.5590    6.4100  -73.7570 C   0  0  0  0  0  0  0  0  0  0  0  0
  -12.7730    6.6690  -75.1040 N   0  0  0  0  0  0  0  0  0  0  0  0
  -13.4990    5.7150  -75.8360 C   0  0  0  0  0  0  0  0  0  0  0  0
  -14.6060    5.3440  -75.4530 O   0  0  0  0  0  0  0  0  0  0  0  0
  -12.9340    5.1100  -77.1250 C   0  0  0  0  0  0  0  0  0  0  0  0
  -11.7540    4.4120  -76.8750 C   0  0  0  0  0  0  0  0  0  0  0  0
  -11.7040    3.4110  -75.8880 C   0  0  0  0  0  0  0  0  0  0  0  0
  -10.6080    4.7130  -77.6180 C   0  0  0  0  0  0  0  0  0  0  0  0
  -10.5240    2.7130  -75.6500 C   0  0  0  0  0  0  0  0  0  0  0  0
   -9.3970    4.0370  -77.4160 C   0  0  0  0  0  0  0  0  0  0  0  0
   -9.3240    3.0500  -76.4620 C   0  0  0  0  0  0  0  0  0  0  0  0
   -8.1510    2.3870  -76.2750 N   0  0  0  0  0  0  0  0  0  0  0  0
   -6.9990    2.5270  -77.0520 C   0  0  0  0  0  0  0  0  0  0  0  0
   -6.1690    3.4310  -77.0120 O   0  0  0  0  0  0  0  0  0  0  0  0
   -6.6500    1.5730  -78.0010 C   0  0  0  0  0  0  0  0  0  0  0  0
   -6.4180    2.0590  -79.4100 C   0  0  0  0  0  0  0  0  0  0  0  0
   -7.1170    1.1410  -80.2210 C   0  0  0  0  0  0  0  0  0  0  0  0
   -7.5000   -0.2290  -79.7390 C   0  0  0  0  0  0  0  0  0  0  0  0
   -7.4860    1.5120  -81.5190 C   0  0  0  0  0  0  0  0  0  0  0  0
   -8.2030   -1.0760  -80.5970 C   0  0  0  0  0  0  0  0  0  0  0  0
   -8.1900    0.6200  -82.3380 C   0  0  0  0  0  0  0  0  0  0  0  0
   -8.5430   -0.6530  -81.8830 C   0  0  0  0  0  0  0  0  0  0  0  0
  1  2  1  0
  2  3  1  0
  3  4  2  0
  3  5  1  0
  5  6  1  0
  6  7  2  0
  6  8  1  0
  7  9  1  0
  8 10  2  0
  9 11  2  0
 10 11  1  0
 11 12  1  0
 12 13  1  0
 13 14  2  0
 13 15  1  0
 15 16  1  0
 16 17  1  0
 17 18  2  0
 17 19  1  0
 18 20  1  0
 19 21  2  0
 20 22  2  0
 21 22  1  0
M  END
>  <ref_url>  (334) 
https://fakepage.com

>  <submitter_name>  (334) 
Steph Wills

>  <submitter_email>  (334) 
stephanie.wills@dtc.ox.ac.uk

>  <submitter_institution>  (334) 
University of Oxford

>  <generation_date>  (334) 
2020-06-04

>  <method>  (334) 
Fragment network

>  <ref_mols>  (334) 
x0176_0B,x0212_0B

>  <ref_pdb>  (334) 
references/x0176-0B-x0212-0B-404324.holo_minimised_nolig.pdb

>  <original SMILES>  (334) 
CNC(=O)Cc1ccc(NC(=O)CCc2ccccc2)cc1

>  <synthon>  (334) 
[Xe]c1ccccc1

>  <original_name>  (334) 
x0176-0B-x0212-0B-404324

>  <comRMSD_score>  (334) 
0.7979685086146815

>  <IF_score>  (334) 
0.5

>  <SuCOS_score>  (334) 
0.4876056541356383

>  <compound_ID>  (334) 
MOLPORT:005-304-338, REAL:Z317140170

$$$$

     RDKit          3D

 22 23  0  0  0  0  0  0  0  0999 V2000
  -13.3600    5.9610  -75.6890 C   0  0  0  0  0  0  0  0  0  0  0  0
  -13.1520    5.1040  -76.9180 C   0  0  0  0  0  0  0  0  0  0  0  0
  -11.7560    4.6720  -77.0330 C   0  0  0  0  0  0  0  0  0  0  0  0
  -10.6480    4.5830  -77.4160 C   0  0  0  0  0  0  0  0  0  0  0  0
  -11.6760    3.7150  -75.9710 C   0  0  0  0  0  0  0  0  0  0  0  0
   -9.3670    4.0510  -77.3610 C   0  0  0  0  0  0  0  0  0  0  0  0
  -10.4890    2.9840  -75.6430 C   0  0  0  0  0  0  0  0  0  0  0  0
   -9.2950    3.1530  -76.3470 C   0  0  0  0  0  0  0  0  0  0  0  0
   -8.1520    2.4290  -75.9960 O   0  0  0  0  0  0  0  0  0  0  0  0
   -8.3520    1.0620  -75.9270 C   0  0  0  0  0  0  0  0  0  0  0  0
   -8.8130    0.5680  -77.1250 C   0  0  0  0  0  0  0  0  0  0  0  0
   -9.3980    1.5690  -78.0650 C   0  0  0  0  0  0  0  0  0  0  0  0
   -8.4900    2.6950  -78.5820 C   0  0  0  0  0  0  0  0  0  0  0  0
   -8.9100    3.5820  -79.3230 O   0  0  0  0  0  0  0  0  0  0  0  0
   -7.2230    2.6220  -78.1930 N   0  0  0  0  0  0  0  0  0  0  0  0
   -6.7230    1.9670  -79.3060 C   0  0  0  0  0  0  0  0  0  0  0  0
   -7.7520    1.2640  -80.1370 C   0  0  0  0  0  0  0  0  0  0  0  0
   -8.3680    1.8880  -81.2230 C   0  0  0  0  0  0  0  0  0  0  0  0
   -8.1140   -0.0440  -79.8020 C   0  0  0  0  0  0  0  0  0  0  0  0
   -9.3330    1.2160  -81.9540 C   0  0  0  0  0  0  0  0  0  0  0  0
   -9.0820   -0.7150  -80.5340 C   0  0  0  0  0  0  0  0  0  0  0  0
   -9.6900   -0.0830  -81.6030 C   0  0  0  0  0  0  0  0  0  0  0  0
  1  2  1  0
  2  3  1  0
  3  4  2  0
  3  5  1  0
  4  6  1  0
  5  7  2  0
  6  8  2  0
  7  8  1  0
  8  9  1  0
  9 10  1  0
 10 11  1  0
 11 12  1  0
 12 13  1  0
 13 14  2  0
 13 15  1  0
 15 16  1  0
 16 17  1  0
 17 18  2  0
 17 19  1  0
 18 20  1  0
 19 21  2  0
 20 22  2  0
 21 22  1  0
M  END
>  <ref_url>  (335) 
https://fakepage.com

>  <submitter_name>  (335) 
Steph Wills

>  <submitter_email>  (335) 
stephanie.wills@dtc.ox.ac.uk

>  <submitter_institution>  (335) 
University of Oxford

>  <generation_date>  (335) 
2020-06-04

>  <method>  (335) 
Fragment network

>  <ref_mols>  (335) 
x0176_0B,x0212_0B

>  <ref_pdb>  (335) 
references/x0176-0B-x0212-0B-404644.holo_minimised_nolig.pdb

>  <original SMILES>  (335) 
CCc1ccc(OCCCC(=O)NCc2ccccc2)cc1

>  <synthon>  (335) 
[Xe]c1ccccc1

>  <original_name>  (335) 
x0176-0B-x0212-0B-404644

>  <comRMSD_score>  (335) 
0.9618250663885468

>  <IF_score>  (335) 
0.8

>  <SuCOS_score>  (335) 
0.5170355944527721

>  <compound_ID>  (335) 
MOLPORT:002-048-668

$$$$

     RDKit          3D

 22 23  0  0  0  0  0  0  0  0999 V2000
  -13.6470    6.0940  -74.8310 N   0  0  0  0  0  0  0  0  0  0  0  0
  -14.0510    5.8340  -76.1150 C   0  0  0  0  0  0  0  0  0  0  0  0
  -12.9780    5.6470  -77.1770 C   0  0  0  0  0  0  0  0  0  0  0  0
  -11.8950    4.8470  -76.8100 C   0  0  0  0  0  0  0  0  0  0  0  0
  -10.7280    4.8430  -77.5790 C   0  0  0  0  0  0  0  0  0  0  0  0
  -11.9430    4.0430  -75.6730 C   0  0  0  0  0  0  0  0  0  0  0  0
   -9.6300    4.0680  -77.2040 C   0  0  0  0  0  0  0  0  0  0  0  0
  -10.8530    3.2720  -75.3040 C   0  0  0  0  0  0  0  0  0  0  0  0
   -9.6860    3.2830  -76.0530 C   0  0  0  0  0  0  0  0  0  0  0  0
   -8.5650    2.5730  -75.7580 O   0  0  0  0  0  0  0  0  0  0  0  0
   -8.6670    1.2480  -76.1770 C   0  0  0  0  0  0  0  0  0  0  0  0
   -9.4850    1.1940  -77.2680 C   0  0  2  0  0  0  0  0  0  0  0  0
   -9.5460   -0.0960  -77.6710 O   0  0  0  0  0  0  0  0  0  0  0  0
   -9.0390    2.1320  -78.2060 C   0  0  0  0  0  0  0  0  0  0  0  0
   -7.6010    2.3650  -78.0910 N   0  0  0  0  0  0  0  0  0  0  0  0
   -6.8220    2.0960  -79.3030 C   0  0  0  0  0  0  0  0  0  0  0  0
   -7.7310    1.4160  -80.0970 C   0  0  0  0  0  0  0  0  0  0  0  0
   -8.3220    2.0210  -81.1930 C   0  0  0  0  0  0  0  0  0  0  0  0
   -8.0630    0.1060  -79.7560 C   0  0  0  0  0  0  0  0  0  0  0  0
   -9.3230    1.2720  -82.0130 C   0  0  0  0  0  0  0  0  0  0  0  0
   -8.9800   -0.6550  -80.4620 C   0  0  0  0  0  0  0  0  0  0  0  0
   -9.6450   -0.1590  -81.5760 C   0  0  0  0  0  0  0  0  0  0  0  0
  1  2  3  0
  2  3  1  0
  3  4  1  0
  4  5  2  0
  4  6  1  0
  5  7  1  0
  6  8  2  0
  7  9  2  0
  8  9  1  0
  9 10  1  0
 10 11  1  0
 11 12  1  0
 12 13  1  6
 12 14  1  0
 14 15  1  0
 15 16  1  0
 16 17  1  0
 17 18  2  0
 17 19  1  0
 18 20  1  0
 19 21  2  0
 20 22  2  0
 21 22  1  0
M  END
>  <ref_url>  (336) 
https://fakepage.com

>  <submitter_name>  (336) 
Steph Wills

>  <submitter_email>  (336) 
stephanie.wills@dtc.ox.ac.uk

>  <submitter_institution>  (336) 
University of Oxford

>  <generation_date>  (336) 
2020-06-04

>  <method>  (336) 
Fragment network

>  <ref_mols>  (336) 
x0176_0B,x0212_0B

>  <ref_pdb>  (336) 
references/x0176-0B-x0212-0B-406987.holo_minimised_nolig.pdb

>  <original SMILES>  (336) 
N#CCc1ccc(OCC(O)CNCc2ccccc2)cc1

>  <synthon>  (336) 
[Xe]c1ccccc1

>  <original_name>  (336) 
x0176-0B-x0212-0B-406987

>  <comRMSD_score>  (336) 
0.9725198779683007

>  <IF_score>  (336) 
0.675

>  <SuCOS_score>  (336) 
0.5365569198985087

>  <compound_ID>  (336) 
REAL:Z89286017

$$$$

     RDKit          3D

 19 20  0  0  0  0  0  0  0  0999 V2000
  -13.2890    6.0150  -75.8660 C   0  0  0  0  0  0  0  0  0  0  0  0
  -13.0590    5.0260  -76.9790 C   0  0  0  0  0  0  0  0  0  0  0  0
  -11.6650    4.4030  -76.8430 C   0  0  0  0  0  0  0  0  0  0  0  0
  -11.5110    3.4220  -75.6740 C   0  0  0  0  0  0  0  0  0  0  0  0
  -10.5940    4.6780  -77.6760 C   0  0  0  0  0  0  0  0  0  0  0  0
  -10.1270    2.8560  -75.5160 C   0  0  0  0  0  0  0  0  0  0  0  0
   -9.3520    4.1020  -77.4460 C   0  0  0  0  0  0  0  0  0  0  0  0
   -9.1030    3.2340  -76.3880 C   0  0  0  0  0  0  0  0  0  0  0  0
   -7.9450    2.8600  -76.2690 O   0  0  0  0  0  0  0  0  0  0  0  0
   -7.5040    1.5680  -76.5110 C   0  0  0  0  0  0  0  0  0  0  0  0
   -6.7280    0.7160  -75.6840 O   0  0  0  0  0  0  0  0  0  0  0  0
   -7.9070    1.2650  -77.7420 C   0  0  0  0  0  0  0  0  0  0  0  0
   -7.2790    1.7890  -78.9870 C   0  0  0  0  0  0  0  0  0  0  0  0
   -8.0850    1.2080  -80.0450 C   0  0  0  0  0  0  0  0  0  0  0  0
   -8.4720    1.8690  -81.1940 C   0  0  0  0  0  0  0  0  0  0  0  0
   -8.4820   -0.1150  -79.8090 C   0  0  0  0  0  0  0  0  0  0  0  0
   -9.3200    1.1290  -82.1430 C   0  0  0  0  0  0  0  0  0  0  0  0
   -9.2740   -0.8040  -80.7000 C   0  0  0  0  0  0  0  0  0  0  0  0
   -9.6870   -0.1830  -81.8520 C   0  0  0  0  0  0  0  0  0  0  0  0
  1  2  1  0
  2  3  1  0
  3  4  2  0
  3  5  1  0
  4  6  1  0
  5  7  2  0
  6  8  2  0
  7  8  1  0
  8  9  1  0
  9 10  1  0
 10 11  2  0
 10 12  1  0
 12 13  2  3
 13 14  1  0
 14 15  2  0
 14 16  1  0
 15 17  1  0
 16 18  2  0
 17 19  2  0
 18 19  1  0
M  END
>  <ref_url>  (337) 
https://fakepage.com

>  <submitter_name>  (337) 
Steph Wills

>  <submitter_email>  (337) 
stephanie.wills@dtc.ox.ac.uk

>  <submitter_institution>  (337) 
University of Oxford

>  <generation_date>  (337) 
2020-06-04

>  <method>  (337) 
Fragment network

>  <ref_mols>  (337) 
x0176_0B,x0212_0B

>  <ref_pdb>  (337) 
references/x0176-0B-x0212-0B-407813.holo_minimised_nolig.pdb

>  <original SMILES>  (337) 
CCc1ccc(OC(=O)C=Cc2ccccc2)cc1

>  <synthon>  (337) 
[Xe]c1ccccc1

>  <original_name>  (337) 
x0176-0B-x0212-0B-407813

>  <comRMSD_score>  (337) 
0.7547172207743322

>  <IF_score>  (337) 
0.9

>  <SuCOS_score>  (337) 
0.4790679807951748

>  <compound_ID>  (337) 
MOLPORT:001-536-152

$$$$

     RDKit          3D

 19 20  0  0  0  0  0  0  0  0999 V2000
  -13.0540    5.6390  -74.5530 O   0  0  0  0  0  0  0  0  0  0  0  0
  -13.5670    5.7050  -75.8740 C   0  0  0  0  0  0  0  0  0  0  0  0
  -14.1820    6.8100  -76.3470 O   0  0  0  0  0  0  0  0  0  0  0  0
  -13.4820    4.5840  -76.8740 C   0  0  0  0  0  0  0  0  0  0  0  0
  -12.0890    4.0460  -76.9180 C   0  0  0  0  0  0  0  0  0  0  0  0
  -11.6430    3.0190  -76.0600 C   0  0  0  0  0  0  0  0  0  0  0  0
  -11.2340    4.5890  -77.8340 C   0  0  0  0  0  0  0  0  0  0  0  0
  -10.3220    2.5570  -76.1530 C   0  0  0  0  0  0  0  0  0  0  0  0
   -9.9580    4.1350  -77.9180 C   0  0  0  0  0  0  0  0  0  0  0  0
   -9.4830    3.1320  -77.1010 C   0  0  0  0  0  0  0  0  0  0  0  0
   -8.1800    2.7920  -77.3200 C   0  0  0  0  0  0  0  0  0  0  0  0
   -7.2760    2.2120  -77.7550 N   0  0  0  0  0  0  0  0  0  0  0  0
   -6.7920    2.3540  -79.0340 C   0  0  0  0  0  0  0  0  0  0  0  0
   -7.2450    1.3950  -79.9400 C   0  0  0  0  0  0  0  0  0  0  0  0
   -7.5820   -0.0030  -79.4870 C   0  0  0  0  0  0  0  0  0  0  0  0
   -7.4140    1.6910  -81.3040 C   0  0  0  0  0  0  0  0  0  0  0  0
   -8.0470   -0.9590  -80.3970 C   0  0  0  0  0  0  0  0  0  0  0  0
   -7.8830    0.6930  -82.1920 C   0  0  0  0  0  0  0  0  0  0  0  0
   -8.1940   -0.6060  -81.7430 C   0  0  0  0  0  0  0  0  0  0  0  0
  1  2  2  0
  2  3  1  0
  2  4  1  0
  4  5  1  0
  5  6  2  0
  5  7  1  0
  6  8  1  0
  7  9  2  0
  8 10  2  0
  9 10  1  0
 10 11  1  0
 11 12  1  0
 12 13  1  0
 13 14  1  0
 14 15  2  0
 14 16  1  0
 15 17  1  0
 16 18  2  0
 17 19  2  0
 18 19  1  0
M  END
>  <ref_url>  (338) 
https://fakepage.com

>  <submitter_name>  (338) 
Steph Wills

>  <submitter_email>  (338) 
stephanie.wills@dtc.ox.ac.uk

>  <submitter_institution>  (338) 
University of Oxford

>  <generation_date>  (338) 
2020-06-04

>  <method>  (338) 
Fragment network

>  <ref_mols>  (338) 
x0176_0B,x0212_0B

>  <ref_pdb>  (338) 
references/x0176-0B-x0212-0B-408643.holo_minimised_nolig.pdb

>  <original SMILES>  (338) 
O=C(O)Cc1ccc(CNCc2ccccc2)cc1

>  <synthon>  (338) 
[Xe]c1ccccc1

>  <original_name>  (338) 
x0176-0B-x0212-0B-408643

>  <comRMSD_score>  (338) 
0.9974112361072764

>  <IF_score>  (338) 
0.2222222222222222

>  <SuCOS_score>  (338) 
0.5078105946596074

>  <compound_ID>  (338) 
CHEMSPACE-BB:CSMB00013969287

$$$$

     RDKit          3D

 22 23  0  0  0  0  0  0  0  0999 V2000
  -12.6150    6.4730  -73.6880 C   0  0  0  0  0  0  0  0  0  0  0  0
  -13.0380    6.9040  -75.0960 C   0  0  0  0  0  0  0  0  0  0  0  0
  -13.8180    5.8860  -75.8250 N   0  0  0  0  0  0  0  0  0  0  0  0
  -13.1300    5.4100  -76.9400 C   0  0  0  0  0  0  0  0  0  0  0  0
  -12.0330    4.5810  -76.7630 C   0  0  0  0  0  0  0  0  0  0  0  0
  -12.0540    3.5740  -75.7860 C   0  0  0  0  0  0  0  0  0  0  0  0
  -10.9090    4.7670  -77.5670 C   0  0  0  0  0  0  0  0  0  0  0  0
  -10.9610    2.7540  -75.6030 C   0  0  0  0  0  0  0  0  0  0  0  0
   -9.8040    3.9610  -77.4080 C   0  0  0  0  0  0  0  0  0  0  0  0
   -9.7670    2.9480  -76.4490 C   0  0  0  0  0  0  0  0  0  0  0  0
   -8.8580    2.2180  -76.2300 O   0  0  0  0  0  0  0  0  0  0  0  0
   -7.7580    3.0170  -76.5410 C   0  0  0  0  0  0  0  0  0  0  0  0
   -7.5390    3.2210  -77.8770 C   0  0  0  0  0  0  0  0  0  0  0  0
   -6.6910    2.1670  -78.3440 N   0  0  0  0  0  0  0  0  0  0  0  0
   -6.4220    0.9560  -77.5280 C   0  0  0  0  0  0  0  0  0  0  0  0
   -6.6160    2.1520  -79.7070 C   0  0  0  0  0  0  0  0  0  0  0  0
   -7.6800    1.4240  -80.2250 C   0  0  0  0  0  0  0  0  0  0  0  0
   -8.0950    0.1200  -79.5990 C   0  0  0  0  0  0  0  0  0  0  0  0
   -8.3370    1.9410  -81.3340 C   0  0  0  0  0  0  0  0  0  0  0  0
   -9.2600   -0.6060  -80.2390 C   0  0  0  0  0  0  0  0  0  0  0  0
   -9.4060    1.2670  -81.9200 C   0  0  0  0  0  0  0  0  0  0  0  0
   -9.8800    0.0490  -81.4310 C   0  0  0  0  0  0  0  0  0  0  0  0
  1  2  1  0
  2  3  1  0
  3  4  1  0
  4  5  1  0
  5  6  2  0
  5  7  1  0
  6  8  1  0
  7  9  2  0
  8 10  2  0
  9 10  1  0
 10 11  1  0
 11 12  1  0
 12 13  1  0
 13 14  1  0
 14 15  1  0
 14 16  1  0
 16 17  1  0
 17 18  2  0
 17 19  1  0
 18 20  1  0
 19 21  2  0
 20 22  2  0
 21 22  1  0
M  END
>  <ref_url>  (339) 
https://fakepage.com

>  <submitter_name>  (339) 
Steph Wills

>  <submitter_email>  (339) 
stephanie.wills@dtc.ox.ac.uk

>  <submitter_institution>  (339) 
University of Oxford

>  <generation_date>  (339) 
2020-06-04

>  <method>  (339) 
Fragment network

>  <ref_mols>  (339) 
x0176_0B,x0212_0B

>  <ref_pdb>  (339) 
references/x0176-0B-x0212-0B-409197.holo_minimised_nolig.pdb

>  <original SMILES>  (339) 
CCNCc1ccc(OCCN(C)Cc2ccccc2)cc1

>  <synthon>  (339) 
[Xe]c1ccccc1

>  <original_name>  (339) 
x0176-0B-x0212-0B-409197

>  <comRMSD_score>  (339) 
0.842800666209372

>  <IF_score>  (339) 
0.675

>  <SuCOS_score>  (339) 
0.5069843259206359

>  <compound_ID>  (339) 
CHEMSPACE-BB:CSMB00011673704

$$$$

     RDKit          3D

 22 23  0  0  0  0  0  0  0  0999 V2000
  -12.7220    6.5840  -75.5200 N   0  0  0  0  0  0  0  0  0  0  0  0
  -13.5170    5.5970  -76.0190 C   0  0  0  0  0  0  0  0  0  0  0  0
  -14.5280    5.2380  -75.4240 O   0  0  0  0  0  0  0  0  0  0  0  0
  -13.0450    5.0050  -77.3290 C   0  0  0  0  0  0  0  0  0  0  0  0
  -11.7710    4.2300  -77.1610 C   0  0  0  0  0  0  0  0  0  0  0  0
  -11.6510    3.2310  -76.1890 C   0  0  0  0  0  0  0  0  0  0  0  0
  -10.6820    4.5060  -77.9840 C   0  0  0  0  0  0  0  0  0  0  0  0
  -10.4590    2.5190  -76.0460 C   0  0  0  0  0  0  0  0  0  0  0  0
   -9.5000    3.8000  -77.8420 C   0  0  0  0  0  0  0  0  0  0  0  0
   -9.3810    2.8050  -76.8760 C   0  0  0  0  0  0  0  0  0  0  0  0
   -8.1550    2.1600  -76.8170 N   0  0  0  0  0  0  0  0  0  0  0  0
   -6.9250    2.7870  -76.8650 C   0  0  0  0  0  0  0  0  0  0  0  0
   -6.5110    3.6380  -76.0830 O   0  0  0  0  0  0  0  0  0  0  0  0
   -6.0830    2.2760  -78.0460 C   0  0  2  0  0  0  0  0  0  0  0  0
   -4.7430    2.7250  -77.9570 O   0  0  0  0  0  0  0  0  0  0  0  0
   -6.5960    2.5680  -79.2980 C   0  0  0  0  0  0  0  0  0  0  0  0
   -7.1400    1.4310  -80.1200 C   0  0  0  0  0  0  0  0  0  0  0  0
   -7.4090    1.6570  -81.4760 C   0  0  0  0  0  0  0  0  0  0  0  0
   -7.4120    0.1580  -79.5760 C   0  0  0  0  0  0  0  0  0  0  0  0
   -7.9410    0.6420  -82.2830 C   0  0  0  0  0  0  0  0  0  0  0  0
   -7.9490   -0.8560  -80.3860 C   0  0  0  0  0  0  0  0  0  0  0  0
   -8.2110   -0.6090  -81.7350 C   0  0  0  0  0  0  0  0  0  0  0  0
  1  2  1  0
  2  3  2  0
  2  4  1  0
  4  5  1  0
  5  6  2  0
  5  7  1  0
  6  8  1  0
  7  9  2  0
  8 10  2  0
  9 10  1  0
 10 11  1  0
 11 12  1  0
 12 13  2  0
 12 14  1  0
 14 15  1  6
 14 16  1  0
 16 17  1  0
 17 18  2  0
 17 19  1  0
 18 20  1  0
 19 21  2  0
 20 22  2  0
 21 22  1  0
M  END
>  <ref_url>  (340) 
https://fakepage.com

>  <submitter_name>  (340) 
Steph Wills

>  <submitter_email>  (340) 
stephanie.wills@dtc.ox.ac.uk

>  <submitter_institution>  (340) 
University of Oxford

>  <generation_date>  (340) 
2020-06-04

>  <method>  (340) 
Fragment network

>  <ref_mols>  (340) 
x0176_0B,x0212_0B

>  <ref_pdb>  (340) 
references/x0176-0B-x0212-0B-409375.holo_minimised_nolig.pdb

>  <original SMILES>  (340) 
NC(=O)Cc1ccc(NC(=O)C(O)Cc2ccccc2)cc1

>  <synthon>  (340) 
[Xe]c1ccccc1

>  <original_name>  (340) 
x0176-0B-x0212-0B-409375

>  <comRMSD_score>  (340) 
0.8978296516229197

>  <IF_score>  (340) 
0.2857142857142857

>  <SuCOS_score>  (340) 
0.4971917890264842

>  <compound_ID>  (340) 
REAL:Z1949765848

$$$$

     RDKit          3D

 19 20  0  0  0  0  0  0  0  0999 V2000
   -6.9910    2.5910  -77.7120 N   0  0  0  0  0  0  0  0  0  0  0  0
   -7.1370    2.8320  -79.0430 C   0  0  0  0  0  0  0  0  0  0  0  0
   -6.1910    4.0040  -79.7640 S   0  0  0  0  0  0  0  0  0  0  0  0
   -8.1590    2.0040  -79.7030 C   0  0  0  0  0  0  0  0  0  0  0  0
   -8.0110    1.7240  -81.0360 C   0  0  0  0  0  0  0  0  0  0  0  0
   -9.2680    1.5100  -79.0070 C   0  0  0  0  0  0  0  0  0  0  0  0
   -8.9380    0.9410  -81.6630 C   0  0  0  0  0  0  0  0  0  0  0  0
  -10.2400    0.7280  -79.6400 C   0  0  0  0  0  0  0  0  0  0  0  0
  -10.0510    0.4270  -80.9960 C   0  0  0  0  0  0  0  0  0  0  0  0
  -11.3160    0.3520  -78.8210 O   0  0  0  0  0  0  0  0  0  0  0  0
  -11.8000    1.2900  -77.7930 C   0  0  0  0  0  0  0  0  0  0  0  0
  -12.9740    2.1510  -78.0810 O   0  0  0  0  0  0  0  0  0  0  0  0
  -12.7250    3.5630  -77.7810 C   0  0  0  0  0  0  0  0  0  0  0  0
  -11.3410    3.4690  -77.2970 C   0  0  0  0  0  0  0  0  0  0  0  0
  -10.2750    4.0660  -77.9570 C   0  0  0  0  0  0  0  0  0  0  0  0
  -11.1340    2.7210  -76.1470 C   0  0  0  0  0  0  0  0  0  0  0  0
   -8.9980    3.8930  -77.4500 C   0  0  0  0  0  0  0  0  0  0  0  0
   -9.8700    2.5530  -75.6530 C   0  0  0  0  0  0  0  0  0  0  0  0
   -8.7960    3.1370  -76.2980 C   0  0  0  0  0  0  0  0  0  0  0  0
  1  2  1  0
  2  3  2  0
  2  4  1  0
  4  5  2  0
  4  6  1  0
  5  7  1  0
  6  8  2  0
  7  9  2  0
  8  9  1  0
  8 10  1  0
 10 11  1  0
 11 12  1  0
 12 13  1  0
 13 14  1  0
 14 15  2  0
 14 16  1  0
 15 17  1  0
 16 18  2  0
 17 19  2  0
 18 19  1  0
M  END
>  <ref_url>  (341) 
https://fakepage.com

>  <submitter_name>  (341) 
Steph Wills

>  <submitter_email>  (341) 
stephanie.wills@dtc.ox.ac.uk

>  <submitter_institution>  (341) 
University of Oxford

>  <generation_date>  (341) 
2020-06-04

>  <method>  (341) 
Fragment network

>  <ref_mols>  (341) 
x0176_0B,x0212_0B

>  <ref_pdb>  (341) 
references/x0176-0B-x0212-0B-412428.holo_minimised_nolig.pdb

>  <original SMILES>  (341) 
NC(=S)c1cccc(OCOCc2ccccc2)c1

>  <synthon>  (341) 
[Xe]c1ccccc1

>  <original_name>  (341) 
x0176-0B-x0212-0B-412428

>  <comRMSD_score>  (341) 
0.9846745886101376

>  <IF_score>  (341) 
0.25

>  <SuCOS_score>  (341) 
0.3949406853913063

>  <compound_ID>  (341) 
CHEMSPACE-BB:CSMB00013913253

$$$$

     RDKit          3D

 29 30  0  0  0  0  0  0  0  0999 V2000
   -5.1970    1.7500  -80.9720 C   0  0  0  0  0  0  0  0  0  0  0  0
   -5.5170    2.0910  -79.5030 C   0  0  0  0  0  0  0  0  0  0  0  0
   -6.9910    2.4900  -79.3090 C   0  0  2  0  0  0  0  0  0  0  0  0
   -7.1140    3.8130  -79.7670 C   0  0  0  0  0  0  0  0  0  0  0  0
   -7.2220    2.6040  -77.8690 N   0  0  0  0  0  0  0  0  0  0  0  0
   -7.8210    1.6250  -80.0280 C   0  0  0  0  0  0  0  0  0  0  0  0
   -7.2830    1.4500  -77.0980 C   0  0  0  0  0  0  0  0  0  0  0  0
   -8.1770    0.3670  -79.5270 C   0  0  0  0  0  0  0  0  0  0  0  0
   -8.3130    2.0140  -81.2800 C   0  0  0  0  0  0  0  0  0  0  0  0
   -6.4570    0.5430  -77.0370 O   0  0  0  0  0  0  0  0  0  0  0  0
   -8.5170    1.4270  -76.3100 N   0  0  0  0  0  0  0  0  0  0  0  0
   -9.0800   -0.5330  -80.3550 C   0  0  0  0  0  0  0  0  0  0  0  0
   -9.1370    1.1840  -82.0320 C   0  0  0  0  0  0  0  0  0  0  0  0
   -9.5040    2.3780  -76.5920 C   0  0  0  0  0  0  0  0  0  0  0  0
   -9.5210   -0.0770  -81.5810 C   0  0  0  0  0  0  0  0  0  0  0  0
  -10.6220    2.6920  -75.6470 C   0  0  0  0  0  0  0  0  0  0  0  0
   -9.5920    3.2420  -77.9130 C   0  0  0  0  0  0  0  0  0  0  0  0
  -11.5970    3.6420  -75.9490 C   0  0  0  0  0  0  0  0  0  0  0  0
  -10.6070    4.1590  -78.1080 C   0  0  0  0  0  0  0  0  0  0  0  0
  -11.6000    4.3650  -77.1560 C   0  0  0  0  0  0  0  0  0  0  0  0
  -12.6760    5.3790  -77.4460 C   0  0  0  0  0  0  0  0  0  0  0  0
  -13.3790    5.6480  -76.2670 C   0  0  0  0  0  0  0  0  0  0  0  0
  -14.5940    5.4650  -76.2510 O   0  0  0  0  0  0  0  0  0  0  0  0
  -12.6540    6.1090  -75.2150 N   0  0  0  0  0  0  0  0  0  0  0  0
  -13.0290    6.8600  -74.0940 C   0  0  0  0  0  0  0  0  0  0  0  0
  -12.7080    6.2710  -72.8780 C   0  0  0  0  0  0  0  0  0  0  0  0
  -11.5170    6.2640  -72.6400 O   0  0  0  0  0  0  0  0  0  0  0  0
  -13.8140    5.7960  -72.1080 O   0  0  0  0  0  0  0  0  0  0  0  0
  -14.5400    6.8260  -71.4090 C   0  0  0  0  0  0  0  0  0  0  0  0
  1  2  1  0
  2  3  1  0
  3  4  1  6
  3  5  1  0
  3  6  1  0
  5  7  1  0
  6  8  2  0
  6  9  1  0
  7 10  2  0
  7 11  1  0
  8 12  1  0
  9 13  2  0
 11 14  1  0
 12 15  2  0
 13 15  1  0
 14 16  2  0
 14 17  1  0
 16 18  1  0
 17 19  2  0
 18 20  2  0
 19 20  1  0
 20 21  1  0
 21 22  1  0
 22 23  2  0
 22 24  1  0
 24 25  1  0
 25 26  1  0
 26 27  2  0
 26 28  1  0
 28 29  1  0
M  END
>  <ref_url>  (342) 
https://fakepage.com

>  <submitter_name>  (342) 
Steph Wills

>  <submitter_email>  (342) 
stephanie.wills@dtc.ox.ac.uk

>  <submitter_institution>  (342) 
University of Oxford

>  <generation_date>  (342) 
2020-06-04

>  <method>  (342) 
Fragment network

>  <ref_mols>  (342) 
x0176_0B,x0212_0B

>  <ref_pdb>  (342) 
references/x0176-0B-x0212-0B-415393.holo_minimised_nolig.pdb

>  <original SMILES>  (342) 
CCC(C)(NC(=O)Nc1ccc(CC(=O)NCC(=O)OC)cc1)c1ccccc1

>  <synthon>  (342) 
[Xe]c1ccccc1

>  <original_name>  (342) 
x0176-0B-x0212-0B-415393

>  <comRMSD_score>  (342) 
0.6780439732271268

>  <IF_score>  (342) 
0.75

>  <SuCOS_score>  (342) 
0.635567681864935

>  <compound_ID>  (342) 
MOLPORT:023-148-885

$$$$

     RDKit          3D

 21 22  0  0  0  0  0  0  0  0999 V2000
   -6.0420    4.3450  -76.2770 C   0  0  0  0  0  0  0  0  0  0  0  0
   -6.0920    3.1100  -76.9900 O   0  0  0  0  0  0  0  0  0  0  0  0
   -7.2780    3.0960  -77.8410 N   0  0  0  0  0  0  0  0  0  0  0  0
   -6.8470    2.5150  -79.1390 C   0  0  0  0  0  0  0  0  0  0  0  0
   -8.3380    2.3930  -77.1130 C   0  0  0  0  0  0  0  0  0  0  0  0
   -7.8520    1.6790  -79.9310 C   0  0  0  0  0  0  0  0  0  0  0  0
   -9.6370    3.0840  -76.9360 C   0  0  0  0  0  0  0  0  0  0  0  0
   -8.3610    2.1380  -81.1580 C   0  0  0  0  0  0  0  0  0  0  0  0
   -8.2880    0.4280  -79.4600 C   0  0  0  0  0  0  0  0  0  0  0  0
   -9.8470    4.1860  -77.7220 C   0  0  0  0  0  0  0  0  0  0  0  0
  -10.6270    2.6620  -76.0480 C   0  0  0  0  0  0  0  0  0  0  0  0
   -9.2690    1.3710  -81.8810 C   0  0  0  0  0  0  0  0  0  0  0  0
   -9.2020   -0.3350  -80.1930 C   0  0  0  0  0  0  0  0  0  0  0  0
  -11.0170    4.8870  -77.6680 C   0  0  0  0  0  0  0  0  0  0  0  0
  -11.8290    3.3730  -75.9880 C   0  0  0  0  0  0  0  0  0  0  0  0
   -9.6910    0.1380  -81.4010 C   0  0  0  0  0  0  0  0  0  0  0  0
  -12.0230    4.4940  -76.8140 C   0  0  0  0  0  0  0  0  0  0  0  0
  -13.2980    5.2880  -76.8320 C   0  0  0  0  0  0  0  0  0  0  0  0
  -13.6620    5.8510  -75.4870 C   0  0  0  0  0  0  0  0  0  0  0  0
  -14.8650    5.7940  -75.0160 N   0  0  0  0  0  0  0  0  0  0  0  0
  -12.7040    6.4410  -74.7340 N   0  0  0  0  0  0  0  0  0  0  0  0
  1  2  1  0
  2  3  1  0
  3  4  1  0
  3  5  1  0
  4  6  1  0
  5  7  1  0
  6  8  2  0
  6  9  1  0
  7 10  2  0
  7 11  1  0
  8 12  1  0
  9 13  2  0
 10 14  1  0
 11 15  2  0
 12 16  2  0
 13 16  1  0
 14 17  2  0
 15 17  1  0
 17 18  1  0
 18 19  1  0
 19 20  2  3
 19 21  1  0
M  END
>  <ref_url>  (343) 
https://fakepage.com

>  <submitter_name>  (343) 
Steph Wills

>  <submitter_email>  (343) 
stephanie.wills@dtc.ox.ac.uk

>  <submitter_institution>  (343) 
University of Oxford

>  <generation_date>  (343) 
2020-06-04

>  <method>  (343) 
Fragment network

>  <ref_mols>  (343) 
x0176_0B,x0212_0B

>  <ref_pdb>  (343) 
references/x0176-0B-x0212-0B-416135.holo_minimised_nolig.pdb

>  <original SMILES>  (343) 
CON(Cc1ccccc1)Cc1ccc(CC(=N)N)cc1

>  <synthon>  (343) 
[Xe]c1ccccc1

>  <original_name>  (343) 
x0176-0B-x0212-0B-416135

>  <comRMSD_score>  (343) 
0.9695039754087312

>  <IF_score>  (343) 
0.675

>  <SuCOS_score>  (343) 
0.5117776688725642

>  <compound_ID>  (343) 
CHEMSPACE-BB:CSMB00117847091

$$$$

     RDKit          3D

 22 23  0  0  0  0  0  0  0  0999 V2000
  -13.2000    5.9660  -78.3310 C   0  0  0  0  0  0  0  0  0  0  0  0
  -13.3070    4.6930  -77.5090 C   0  0  0  0  0  0  0  0  0  0  0  0
  -14.1380    3.6940  -78.3460 C   0  0  0  0  0  0  0  0  0  0  0  0
  -14.0320    5.1030  -76.2140 C   0  0  0  0  0  0  0  0  0  0  0  0
  -11.9650    4.0720  -77.1460 C   0  0  0  0  0  0  0  0  0  0  0  0
  -11.8380    3.1770  -76.0800 C   0  0  0  0  0  0  0  0  0  0  0  0
  -10.8220    4.3880  -77.8810 C   0  0  0  0  0  0  0  0  0  0  0  0
  -10.6060    2.6130  -75.7530 C   0  0  0  0  0  0  0  0  0  0  0  0
   -9.6010    3.8240  -77.5530 C   0  0  0  0  0  0  0  0  0  0  0  0
   -9.4920    2.9370  -76.4860 C   0  0  0  0  0  0  0  0  0  0  0  0
   -8.2130    2.4650  -76.2770 N   0  0  0  0  0  0  0  0  0  0  0  0
   -7.0540    2.9000  -76.8030 C   0  0  0  0  0  0  0  0  0  0  0  0
   -6.0430    4.1510  -76.3400 S   0  0  0  0  0  0  0  0  0  0  0  0
   -6.6600    2.1700  -77.9050 N   0  0  0  0  0  0  0  0  0  0  0  0
   -6.8180    2.4560  -79.2460 C   0  0  0  0  0  0  0  0  0  0  0  0
   -6.5650    3.5470  -79.7410 O   0  0  0  0  0  0  0  0  0  0  0  0
   -7.3190    1.3460  -80.0920 C   0  0  0  0  0  0  0  0  0  0  0  0
   -7.5840    0.0560  -79.5910 C   0  0  0  0  0  0  0  0  0  0  0  0
   -7.5340    1.6250  -81.4420 C   0  0  0  0  0  0  0  0  0  0  0  0
   -8.0660   -0.9390  -80.4610 C   0  0  0  0  0  0  0  0  0  0  0  0
   -8.0110    0.6280  -82.3070 C   0  0  0  0  0  0  0  0  0  0  0  0
   -8.2770   -0.6500  -81.8140 C   0  0  0  0  0  0  0  0  0  0  0  0
  2  1  1  0
  2  3  1  0
  2  4  1  0
  2  5  1  0
  5  6  2  0
  5  7  1  0
  6  8  1  0
  7  9  2  0
  8 10  2  0
  9 10  1  0
 10 11  1  0
 11 12  1  0
 12 13  2  0
 12 14  1  0
 14 15  1  0
 15 16  2  0
 15 17  1  0
 17 18  2  0
 17 19  1  0
 18 20  1  0
 19 21  2  0
 20 22  2  0
 21 22  1  0
M  END
>  <ref_url>  (344) 
https://fakepage.com

>  <submitter_name>  (344) 
Steph Wills

>  <submitter_email>  (344) 
stephanie.wills@dtc.ox.ac.uk

>  <submitter_institution>  (344) 
University of Oxford

>  <generation_date>  (344) 
2020-06-04

>  <method>  (344) 
Fragment network

>  <ref_mols>  (344) 
x0176_0B,x0212_0B

>  <ref_pdb>  (344) 
references/x0176-0B-x0212-0B-418579.holo_minimised_nolig.pdb

>  <original SMILES>  (344) 
CC(C)(C)c1ccc(NC(=S)NC(=O)c2ccccc2)cc1

>  <synthon>  (344) 
[Xe]c1ccccc1

>  <original_name>  (344) 
x0176-0B-x0212-0B-418579

>  <comRMSD_score>  (344) 
0.931860667883255

>  <IF_score>  (344) 
0.2777777777777778

>  <SuCOS_score>  (344) 
0.4487298129178301

>  <compound_ID>  (344) 
MOLPORT:002-851-696

$$$$

     RDKit          3D

 21 22  0  0  0  0  0  0  0  0999 V2000
  -12.9630    6.3630  -76.0320 C   0  0  0  0  0  0  0  0  0  0  0  0
  -13.0390    5.1620  -76.9390 C   0  0  2  0  0  0  0  0  0  0  0  0
  -13.9360    4.3720  -76.6670 O   0  0  0  0  0  0  0  0  0  0  0  0
  -11.6750    4.6090  -77.0150 C   0  0  0  0  0  0  0  0  0  0  0  0
  -10.5690    4.4300  -77.3770 C   0  0  0  0  0  0  0  0  0  0  0  0
  -11.6800    3.6560  -75.9550 C   0  0  0  0  0  0  0  0  0  0  0  0
   -9.3290    3.8010  -77.3050 C   0  0  0  0  0  0  0  0  0  0  0  0
  -10.5620    2.8280  -75.6020 C   0  0  0  0  0  0  0  0  0  0  0  0
   -9.3350    2.8840  -76.2820 C   0  0  0  0  0  0  0  0  0  0  0  0
   -8.4440    2.1330  -75.8990 O   0  0  0  0  0  0  0  0  0  0  0  0
   -8.7460    0.7310  -75.7960 C   0  0  0  0  0  0  0  0  0  0  0  0
   -9.2810    0.3370  -77.0020 C   0  0  0  0  0  0  0  0  0  0  0  0
   -9.2460    1.3840  -78.0570 C   0  0  0  0  0  0  0  0  0  0  0  0
   -8.0300    2.1290  -77.8500 O   0  0  0  0  0  0  0  0  0  0  0  0
   -7.4010    2.4500  -79.0720 C   0  0  0  0  0  0  0  0  0  0  0  0
   -8.0300    1.6180  -79.9790 C   0  0  0  0  0  0  0  0  0  0  0  0
   -8.2580    0.1830  -79.6590 C   0  0  0  0  0  0  0  0  0  0  0  0
   -8.5000    2.0510  -81.2140 C   0  0  0  0  0  0  0  0  0  0  0  0
   -8.8980   -0.7010  -80.4910 C   0  0  0  0  0  0  0  0  0  0  0  0
   -9.1500    1.1450  -82.0550 C   0  0  0  0  0  0  0  0  0  0  0  0
   -9.3500   -0.2050  -81.7050 C   0  0  0  0  0  0  0  0  0  0  0  0
  2  1  1  1
  2  3  1  0
  2  4  1  0
  4  5  2  0
  4  6  1  0
  5  7  1  0
  6  8  2  0
  7  9  2  0
  8  9  1  0
  9 10  1  0
 10 11  1  0
 11 12  1  0
 12 13  1  0
 13 14  1  0
 14 15  1  0
 15 16  1  0
 16 17  2  0
 16 18  1  0
 17 19  1  0
 18 20  2  0
 19 21  2  0
 20 21  1  0
M  END
>  <ref_url>  (345) 
https://fakepage.com

>  <submitter_name>  (345) 
Steph Wills

>  <submitter_email>  (345) 
stephanie.wills@dtc.ox.ac.uk

>  <submitter_institution>  (345) 
University of Oxford

>  <generation_date>  (345) 
2020-06-04

>  <method>  (345) 
Fragment network

>  <ref_mols>  (345) 
x0176_0B,x0212_0B

>  <ref_pdb>  (345) 
references/x0176-0B-x0212-0B-419086.holo_minimised_nolig.pdb

>  <original SMILES>  (345) 
CC(O)c1ccc(OCCCOCc2ccccc2)cc1

>  <synthon>  (345) 
[Xe]c1ccccc1

>  <original_name>  (345) 
x0176-0B-x0212-0B-419086

>  <comRMSD_score>  (345) 
0.650233369477919

>  <IF_score>  (345) 
0.9

>  <SuCOS_score>  (345) 
0.4575059128521486

>  <compound_ID>  (345) 
CHEMSPACE-BB:CSMB00015069163, CHEMSPACE-BB:CSMB00015069177, CHEMSPACE-BB:CSMB00015069178

$$$$

     RDKit          3D

 24 25  0  0  0  0  0  0  0  0999 V2000
  -12.4870    8.1860  -75.3150 C   0  0  0  0  0  0  0  0  0  0  0  0
  -12.6500    6.7830  -74.9650 N   0  0  0  0  0  0  0  0  0  0  0  0
  -12.5260    6.4460  -73.5600 C   0  0  0  0  0  0  0  0  0  0  0  0
  -13.2640    5.9560  -75.8870 C   0  0  0  0  0  0  0  0  0  0  0  0
  -14.4030    5.5120  -75.7300 O   0  0  0  0  0  0  0  0  0  0  0  0
  -12.4770    5.6030  -77.1210 C   0  0  0  0  0  0  0  0  0  0  0  0
  -11.4780    4.4970  -76.8870 C   0  0  0  0  0  0  0  0  0  0  0  0
  -11.6750    3.5680  -75.8630 C   0  0  0  0  0  0  0  0  0  0  0  0
  -10.3490    4.3800  -77.6950 C   0  0  0  0  0  0  0  0  0  0  0  0
  -10.7610    2.5300  -75.6520 C   0  0  0  0  0  0  0  0  0  0  0  0
   -9.4440    3.3410  -77.4870 C   0  0  0  0  0  0  0  0  0  0  0  0
   -9.6440    2.4030  -76.4620 C   0  0  0  0  0  0  0  0  0  0  0  0
   -8.7010    1.3630  -76.2930 N   0  0  0  0  0  0  0  0  0  0  0  0
   -7.5340    1.1900  -76.9930 C   0  0  0  0  0  0  0  0  0  0  0  0
   -6.8860    0.1460  -77.0330 O   0  0  0  0  0  0  0  0  0  0  0  0
   -7.1510    2.3390  -77.6760 N   0  0  0  0  0  0  0  0  0  0  0  0
   -7.6910    3.5590  -77.1010 C   0  0  0  0  0  0  0  0  0  0  0  0
   -6.9150    2.3880  -79.1290 C   0  0  0  0  0  0  0  0  0  0  0  0
   -7.8940    1.5650  -79.9440 C   0  0  0  0  0  0  0  0  0  0  0  0
   -8.3780    2.0430  -81.1690 C   0  0  0  0  0  0  0  0  0  0  0  0
   -8.3350    0.3090  -79.4920 C   0  0  0  0  0  0  0  0  0  0  0  0
   -9.2730    1.2850  -81.9130 C   0  0  0  0  0  0  0  0  0  0  0  0
   -9.2350   -0.4430  -80.2450 C   0  0  0  0  0  0  0  0  0  0  0  0
   -9.7030    0.0470  -81.4550 C   0  0  0  0  0  0  0  0  0  0  0  0
  1  2  1  0
  2  3  1  0
  2  4  1  0
  4  5  2  0
  4  6  1  0
  6  7  1  0
  7  8  2  0
  7  9  1  0
  8 10  1  0
  9 11  2  0
 10 12  2  0
 11 12  1  0
 12 13  1  0
 13 14  1  0
 14 15  2  0
 14 16  1  0
 16 17  1  0
 16 18  1  0
 18 19  1  0
 19 20  2  0
 19 21  1  0
 20 22  1  0
 21 23  2  0
 22 24  2  0
 23 24  1  0
M  END
>  <ref_url>  (346) 
https://fakepage.com

>  <submitter_name>  (346) 
Steph Wills

>  <submitter_email>  (346) 
stephanie.wills@dtc.ox.ac.uk

>  <submitter_institution>  (346) 
University of Oxford

>  <generation_date>  (346) 
2020-06-04

>  <method>  (346) 
Fragment network

>  <ref_mols>  (346) 
x0176_0B,x0212_0B

>  <ref_pdb>  (346) 
references/x0176-0B-x0212-0B-419455.holo_minimised_nolig.pdb

>  <original SMILES>  (346) 
CN(C)C(=O)Cc1ccc(NC(=O)N(C)Cc2ccccc2)cc1

>  <synthon>  (346) 
[Xe]c1ccccc1

>  <original_name>  (346) 
x0176-0B-x0212-0B-419455

>  <comRMSD_score>  (346) 
0.5821804798437598

>  <IF_score>  (346) 
0.8

>  <SuCOS_score>  (346) 
0.5767709313695044

>  <compound_ID>  (346) 
REAL:Z435699874

$$$$

     RDKit          3D

 21 22  0  0  0  0  0  0  0  0999 V2000
  -12.5710    6.4150  -73.7380 C   0  0  0  0  0  0  0  0  0  0  0  0
  -12.7780    6.7140  -75.0800 N   0  0  0  0  0  0  0  0  0  0  0  0
  -13.6160    5.8480  -75.8010 C   0  0  0  0  0  0  0  0  0  0  0  0
  -13.1070    5.1300  -77.0510 C   0  0  0  0  0  0  0  0  0  0  0  0
  -11.9290    4.4320  -76.7960 C   0  0  0  0  0  0  0  0  0  0  0  0
  -11.8470    3.3930  -75.8590 C   0  0  0  0  0  0  0  0  0  0  0  0
  -10.7660    4.7640  -77.4910 C   0  0  0  0  0  0  0  0  0  0  0  0
  -10.6910    2.6710  -75.5890 C   0  0  0  0  0  0  0  0  0  0  0  0
   -9.5600    4.0860  -77.2800 C   0  0  0  0  0  0  0  0  0  0  0  0
   -9.4820    3.0550  -76.3620 C   0  0  0  0  0  0  0  0  0  0  0  0
   -8.2950    2.4260  -76.2080 N   0  0  0  0  0  0  0  0  0  0  0  0
   -7.2080    2.7400  -77.0130 C   0  0  0  0  0  0  0  0  0  0  0  0
   -6.6030    3.8020  -76.9390 O   0  0  0  0  0  0  0  0  0  0  0  0
   -6.8300    1.7920  -77.9050 N   0  0  0  0  0  0  0  0  0  0  0  0
   -6.5040    2.1120  -79.2880 C   0  0  0  0  0  0  0  0  0  0  0  0
   -7.2300    1.0920  -80.1290 C   0  0  0  0  0  0  0  0  0  0  0  0
   -7.5410    1.4920  -81.4230 C   0  0  0  0  0  0  0  0  0  0  0  0
   -7.6190   -0.1970  -79.7080 C   0  0  0  0  0  0  0  0  0  0  0  0
   -8.2640    0.5660  -82.3280 C   0  0  0  0  0  0  0  0  0  0  0  0
   -8.3100   -1.0760  -80.5770 C   0  0  0  0  0  0  0  0  0  0  0  0
   -8.6370   -0.7000  -81.8950 C   0  0  0  0  0  0  0  0  0  0  0  0
  1  2  1  0
  2  3  1  0
  3  4  1  0
  4  5  1  0
  5  6  2  0
  5  7  1  0
  6  8  1  0
  7  9  2  0
  8 10  2  0
  9 10  1  0
 10 11  1  0
 11 12  1  0
 12 13  2  0
 12 14  1  0
 14 15  1  0
 15 16  1  0
 16 17  2  0
 16 18  1  0
 17 19  1  0
 18 20  2  0
 19 21  2  0
 20 21  1  0
M  END
>  <ref_url>  (347) 
https://fakepage.com

>  <submitter_name>  (347) 
Steph Wills

>  <submitter_email>  (347) 
stephanie.wills@dtc.ox.ac.uk

>  <submitter_institution>  (347) 
University of Oxford

>  <generation_date>  (347) 
2020-06-04

>  <method>  (347) 
Fragment network

>  <ref_mols>  (347) 
x0176_0B,x0212_0B

>  <ref_pdb>  (347) 
references/x0176-0B-x0212-0B-422410.holo_minimised_nolig.pdb

>  <original SMILES>  (347) 
CNCCc1ccc(NC(=O)NCc2ccccc2)cc1

>  <synthon>  (347) 
[Xe]c1ccccc1

>  <original_name>  (347) 
x0176-0B-x0212-0B-422410

>  <comRMSD_score>  (347) 
0.8095492801781963

>  <IF_score>  (347) 
0.5

>  <SuCOS_score>  (347) 
0.4908712845921981

>  <compound_ID>  (347) 
CHEMSPACE-BB:CSMB00114967181

$$$$

     RDKit          3D

 24 25  0  0  0  0  0  0  0  0999 V2000
  -14.2370    5.6400  -79.2940 C   0  0  0  0  0  0  0  0  0  0  0  0
  -13.4930    6.0750  -78.0360 C   0  0  0  0  0  0  0  0  0  0  0  0
  -13.5010    5.0810  -76.8610 C   0  0  0  0  0  0  0  0  0  0  0  0
  -14.8360    4.3020  -76.8590 C   0  0  0  0  0  0  0  0  0  0  0  0
  -13.4110    5.8280  -75.5230 C   0  0  0  0  0  0  0  0  0  0  0  0
  -12.3020    4.1430  -76.9810 C   0  0  0  0  0  0  0  0  0  0  0  0
  -12.0520    3.2030  -75.9900 C   0  0  0  0  0  0  0  0  0  0  0  0
  -11.4330    4.1950  -78.0820 C   0  0  0  0  0  0  0  0  0  0  0  0
  -10.9880    2.3480  -76.1030 C   0  0  0  0  0  0  0  0  0  0  0  0
  -10.3630    3.3160  -78.1890 C   0  0  0  0  0  0  0  0  0  0  0  0
  -10.1740    2.3970  -77.1790 C   0  0  0  0  0  0  0  0  0  0  0  0
   -9.2370    1.4810  -77.0440 O   0  0  0  0  0  0  0  0  0  0  0  0
   -8.3300    2.2410  -76.3430 C   0  0  0  0  0  0  0  0  0  0  0  0
   -7.8280    3.1440  -77.4250 C   0  0  0  0  0  0  0  0  0  0  0  0
   -8.3990    4.1770  -77.7150 O   0  0  0  0  0  0  0  0  0  0  0  0
   -6.7280    2.6580  -78.0620 N   0  0  0  0  0  0  0  0  0  0  0  0
   -6.6690    2.6510  -79.5040 C   0  0  1  0  0  0  0  0  0  0  0  0
   -5.2340    2.4380  -79.9880 C   0  0  0  0  0  0  0  0  0  0  0  0
   -7.6590    1.6660  -80.1060 C   0  0  0  0  0  0  0  0  0  0  0  0
   -7.9580    0.4380  -79.4830 C   0  0  0  0  0  0  0  0  0  0  0  0
   -8.2890    1.9670  -81.3000 C   0  0  0  0  0  0  0  0  0  0  0  0
   -8.8700   -0.4520  -80.0640 C   0  0  0  0  0  0  0  0  0  0  0  0
   -9.1860    1.0830  -81.8710 C   0  0  0  0  0  0  0  0  0  0  0  0
   -9.4840   -0.1250  -81.2620 C   0  0  0  0  0  0  0  0  0  0  0  0
  1  2  1  0
  3  2  1  0
  3  4  1  0
  3  5  1  0
  3  6  1  0
  6  7  2  0
  6  8  1  0
  7  9  1  0
  8 10  2  0
  9 11  2  0
 10 11  1  0
 11 12  1  0
 12 13  1  0
 13 14  1  0
 14 15  2  0
 14 16  1  0
 16 17  1  0
 17 18  1  1
 17 19  1  0
 19 20  2  0
 19 21  1  0
 20 22  1  0
 21 23  2  0
 22 24  2  0
 23 24  1  0
M  END
>  <ref_url>  (348) 
https://fakepage.com

>  <submitter_name>  (348) 
Steph Wills

>  <submitter_email>  (348) 
stephanie.wills@dtc.ox.ac.uk

>  <submitter_institution>  (348) 
University of Oxford

>  <generation_date>  (348) 
2020-06-04

>  <method>  (348) 
Fragment network

>  <ref_mols>  (348) 
x0176_0B,x0212_0B

>  <ref_pdb>  (348) 
references/x0176-0B-x0212-0B-422747.holo_minimised_nolig.pdb

>  <original SMILES>  (348) 
CCC(C)(C)c1ccc(OCC(=O)NC(C)c2ccccc2)cc1

>  <synthon>  (348) 
[Xe]c1ccccc1

>  <original_name>  (348) 
x0176-0B-x0212-0B-422747

>  <comRMSD_score>  (348) 
0.9778364093641936

>  <IF_score>  (348) 
0.25

>  <SuCOS_score>  (348) 
0.4758682143568532

>  <compound_ID>  (348) 
MOLPORT:003-667-702

$$$$

     RDKit          3D

 20 21  0  0  0  0  0  0  0  0999 V2000
  -12.5470    6.1800  -73.8780 C   0  0  0  0  0  0  0  0  0  0  0  0
  -12.5310    5.8960  -75.4020 C   0  0  0  0  0  0  0  0  0  0  0  0
  -13.5240    5.3160  -75.8120 O   0  0  0  0  0  0  0  0  0  0  0  0
  -13.2100    4.0110  -76.3280 C   0  0  0  0  0  0  0  0  0  0  0  0
  -14.0700    2.8730  -76.2910 O   0  0  0  0  0  0  0  0  0  0  0  0
  -11.9250    3.9450  -76.9050 C   0  0  0  0  0  0  0  0  0  0  0  0
  -11.5440    4.8030  -77.9420 C   0  0  0  0  0  0  0  0  0  0  0  0
  -10.8280    2.8670  -76.4090 C   0  0  0  0  0  0  0  0  0  0  0  0
  -10.2870    4.7060  -78.4940 C   0  0  0  0  0  0  0  0  0  0  0  0
   -9.4900    2.8590  -77.0940 C   0  0  0  0  0  0  0  0  0  0  0  0
   -9.2900    3.7510  -78.0690 C   0  0  0  0  0  0  0  0  0  0  0  0
   -8.0670    1.8570  -76.8600 S   0  0  0  0  0  0  0  0  0  0  0  0
   -7.1710    2.6170  -75.8770 O   0  0  0  0  0  0  0  0  0  0  0  0
   -7.2870    2.1540  -78.5150 C   0  0  0  0  0  0  0  0  0  0  0  0
   -8.0520    1.4550  -79.6120 C   0  0  0  0  0  0  0  0  0  0  0  0
   -8.5480    0.2230  -79.1940 C   0  0  0  0  0  0  0  0  0  0  0  0
   -8.2770    1.9310  -80.9240 C   0  0  0  0  0  0  0  0  0  0  0  0
   -9.3380   -0.6010  -80.1620 C   0  0  0  0  0  0  0  0  0  0  0  0
   -9.0150    1.1370  -81.8040 C   0  0  0  0  0  0  0  0  0  0  0  0
   -9.5400   -0.1000  -81.4410 C   0  0  0  0  0  0  0  0  0  0  0  0
  1  2  1  0
  2  3  1  0
  3  4  1  0
  4  5  2  0
  4  6  1  0
  6  7  2  0
  6  8  1  0
  7  9  1  0
  8 10  2  0
  9 11  2  0
 10 11  1  0
 10 12  1  0
 12 13  1  1
 12 14  1  0
 14 15  1  0
 15 16  2  0
 15 17  1  0
 16 18  1  0
 17 19  2  0
 18 20  2  0
 19 20  1  0
M  CHG  2  12   1  13  -1
M  END
>  <ref_url>  (349) 
https://fakepage.com

>  <submitter_name>  (349) 
Steph Wills

>  <submitter_email>  (349) 
stephanie.wills@dtc.ox.ac.uk

>  <submitter_institution>  (349) 
University of Oxford

>  <generation_date>  (349) 
2020-06-04

>  <method>  (349) 
Fragment network

>  <ref_mols>  (349) 
x0176_0B,x0212_0B

>  <ref_pdb>  (349) 
references/x0176-0B-x0212-0B-423308.holo_minimised_nolig.pdb

>  <original SMILES>  (349) 
CCOC(=O)c1cccc([S+]([O-])Cc2ccccc2)c1

>  <synthon>  (349) 
[Xe]c1ccccc1

>  <original_name>  (349) 
x0176-0B-x0212-0B-423308

>  <comRMSD_score>  (349) 
0.9876956721281812

>  <IF_score>  (349) 
0.125

>  <SuCOS_score>  (349) 
0.4581318179029848

>  <compound_ID>  (349) 
REAL:Z1956905375

$$$$

     RDKit          3D

 23 24  0  0  0  0  0  0  0  0999 V2000
  -13.8420    7.5440  -73.0430 C   0  0  0  0  0  0  0  0  0  0  0  0
  -12.4290    6.5680  -73.6090 S   0  0  0  0  0  0  0  0  0  0  0  0
  -11.2330    7.2950  -73.2580 O   0  0  0  0  0  0  0  0  0  0  0  0
  -12.6270    5.1840  -73.2350 O   0  0  0  0  0  0  0  0  0  0  0  0
  -12.6510    6.6250  -75.2890 N   0  0  0  0  0  0  0  0  0  0  0  0
  -13.0280    5.4440  -75.9210 C   0  0  0  0  0  0  0  0  0  0  0  0
  -12.2130    4.8560  -77.0700 C   0  0  0  0  0  0  0  0  0  0  0  0
  -11.5390    3.6490  -76.7610 C   0  0  2  0  0  0  0  0  0  0  0  0
  -10.7620    3.5870  -75.6200 C   0  0  0  0  0  0  0  0  0  0  0  0
  -10.7460    3.0580  -77.7130 N   0  0  0  0  0  0  0  0  0  0  0  0
   -9.4130    3.2360  -75.7740 C   0  0  0  0  0  0  0  0  0  0  0  0
   -9.6020    3.7330  -78.0840 C   0  0  0  0  0  0  0  0  0  0  0  0
  -10.4600    1.6500  -77.3930 C   0  0  0  0  0  0  0  0  0  0  0  0
   -8.7400    3.3500  -77.1040 C   0  0  0  0  0  0  0  0  0  0  0  0
  -11.3680    0.8210  -77.3470 O   0  0  0  0  0  0  0  0  0  0  0  0
   -9.0450    1.1560  -77.0830 C   0  0  0  0  0  0  0  0  0  0  0  0
   -8.5920    0.1820  -78.0240 O   0  0  0  0  0  0  0  0  0  0  0  0
   -8.7470    0.4780  -79.3930 C   0  0  0  0  0  0  0  0  0  0  0  0
   -9.5030   -0.4320  -80.3230 C   0  0  0  0  0  0  0  0  0  0  0  0
   -8.1820    1.6570  -79.8870 C   0  0  0  0  0  0  0  0  0  0  0  0
   -9.6170   -0.0590  -81.6590 C   0  0  0  0  0  0  0  0  0  0  0  0
   -8.3260    1.9870  -81.2260 C   0  0  0  0  0  0  0  0  0  0  0  0
   -9.0280    1.1330  -82.0600 C   0  0  0  0  0  0  0  0  0  0  0  0
  1  2  1  0
  2  3  2  0
  2  4  2  0
  2  5  1  0
  5  6  1  0
  6  7  1  0
  8  7  1  6
  8  9  1  0
  8 10  1  0
  9 11  1  0
 10 12  1  0
 10 13  1  0
 11 14  1  0
 12 14  1  0
 13 15  2  0
 13 16  1  0
 16 17  1  0
 17 18  1  0
 18 19  2  0
 18 20  1  0
 19 21  1  0
 20 22  2  0
 21 23  2  0
 22 23  1  0
M  END
>  <ref_url>  (350) 
https://fakepage.com

>  <submitter_name>  (350) 
Steph Wills

>  <submitter_email>  (350) 
stephanie.wills@dtc.ox.ac.uk

>  <submitter_institution>  (350) 
University of Oxford

>  <generation_date>  (350) 
2020-06-04

>  <method>  (350) 
Fragment network

>  <ref_mols>  (350) 
x0176_0B,x0212_0B

>  <ref_pdb>  (350) 
references/x0176-0B-x0212-0B-424586.holo_minimised_nolig.pdb

>  <original SMILES>  (350) 
CS(=O)(=O)NCCC1CCCCN1C(=O)COc1ccccc1

>  <synthon>  (350) 
[Xe]c1ccccc1

>  <original_name>  (350) 
x0176-0B-x0212-0B-424586

>  <comRMSD_score>  (350) 
0.8145823742534846

>  <IF_score>  (350) 
1.0

>  <SuCOS_score>  (350) 
0.5317211239963016

>  <compound_ID>  (350) 
REAL:Z595002178

$$$$

     RDKit          3D

 25 26  0  0  0  0  0  0  0  0999 V2000
  -13.2640    6.0210  -76.1370 C   0  0  0  0  0  0  0  0  0  0  0  0
  -13.0750    4.9790  -77.2270 C   0  0  0  0  0  0  0  0  0  0  0  0
  -13.9600    4.6390  -78.0050 O   0  0  0  0  0  0  0  0  0  0  0  0
  -11.7280    4.4120  -77.2510 C   0  0  0  0  0  0  0  0  0  0  0  0
  -10.6100    4.2400  -77.5430 C   0  0  0  0  0  0  0  0  0  0  0  0
  -11.8390    3.3790  -76.2640 C   0  0  0  0  0  0  0  0  0  0  0  0
   -9.4010    3.5770  -77.4270 C   0  0  0  0  0  0  0  0  0  0  0  0
  -10.7780    2.4930  -75.8910 C   0  0  0  0  0  0  0  0  0  0  0  0
   -9.5140    2.5850  -76.4900 C   0  0  0  0  0  0  0  0  0  0  0  0
   -8.4540    1.7230  -76.1590 N   0  0  0  0  0  0  0  0  0  0  0  0
   -7.4280    1.3270  -76.9700 C   0  0  0  0  0  0  0  0  0  0  0  0
   -6.6090    0.1620  -76.7850 O   0  0  0  0  0  0  0  0  0  0  0  0
   -7.2490    2.1700  -78.0310 N   0  0  0  0  0  0  0  0  0  0  0  0
   -7.9610    3.3920  -78.2550 C   0  0  0  0  0  0  0  0  0  0  0  0
   -6.4910    1.7770  -79.1180 C   0  0  0  0  0  0  0  0  0  0  0  0
   -7.4840    4.0400  -79.5200 C   0  0  0  0  0  0  0  0  0  0  0  0
   -7.1500    0.9690  -80.0480 C   0  0  0  0  0  0  0  0  0  0  0  0
   -6.1050    4.7670  -79.5250 C   0  0  0  0  0  0  0  0  0  0  0  0
   -7.3680    1.3960  -81.3810 C   0  0  0  0  0  0  0  0  0  0  0  0
   -7.5960   -0.2890  -79.6280 C   0  0  0  0  0  0  0  0  0  0  0  0
   -4.9230    4.2390  -80.0470 C   0  0  0  0  0  0  0  0  0  0  0  0
   -8.0240    0.5500  -82.2860 C   0  0  0  0  0  0  0  0  0  0  0  0
   -8.2590   -1.1520  -80.5030 C   0  0  0  0  0  0  0  0  0  0  0  0
   -4.2320    5.3450  -80.6650 O   0  0  0  0  0  0  0  0  0  0  0  0
   -8.4820   -0.7710  -81.8170 C   0  0  0  0  0  0  0  0  0  0  0  0
  1  2  1  0
  2  3  2  0
  2  4  1  0
  4  5  2  0
  4  6  1  0
  5  7  1  0
  6  8  2  0
  7  9  2  0
  8  9  1  0
  9 10  1  0
 10 11  1  0
 11 12  2  0
 11 13  1  0
 13 14  1  0
 13 15  1  0
 14 16  1  0
 15 17  1  0
 16 18  1  0
 17 19  2  0
 17 20  1  0
 18 21  1  0
 19 22  1  0
 20 23  2  0
 21 24  1  0
 22 25  2  0
 23 25  1  0
M  END
>  <ref_url>  (351) 
https://fakepage.com

>  <submitter_name>  (351) 
Steph Wills

>  <submitter_email>  (351) 
stephanie.wills@dtc.ox.ac.uk

>  <submitter_institution>  (351) 
University of Oxford

>  <generation_date>  (351) 
2020-06-04

>  <method>  (351) 
Fragment network

>  <ref_mols>  (351) 
x0176_0B,x0212_0B

>  <ref_pdb>  (351) 
references/x0176-0B-x0212-0B-424779.holo_minimised_nolig.pdb

>  <original SMILES>  (351) 
CC(=O)c1ccc(NC(=O)N(CCCCO)Cc2ccccc2)cc1

>  <synthon>  (351) 
[Xe]c1ccccc1

>  <original_name>  (351) 
x0176-0B-x0212-0B-424779

>  <comRMSD_score>  (351) 
0.966569685290067

>  <IF_score>  (351) 
0.25

>  <SuCOS_score>  (351) 
0.4413696112930015

>  <compound_ID>  (351) 
MOLPORT:028-730-788

$$$$

     RDKit          3D

 21 22  0  0  0  0  0  0  0  0999 V2000
  -13.8390    6.0080  -78.1230 C   0  0  0  0  0  0  0  0  0  0  0  0
  -13.5550    5.2220  -76.8300 C   0  0  0  0  0  0  0  0  0  0  0  0
  -14.5830    4.0970  -76.6010 C   0  0  0  0  0  0  0  0  0  0  0  0
  -13.6350    6.1860  -75.6860 C   0  0  0  0  0  0  0  0  0  0  0  0
  -12.1340    4.6250  -76.8030 C   0  0  0  0  0  0  0  0  0  0  0  0
  -11.8320    3.6860  -75.8230 C   0  0  0  0  0  0  0  0  0  0  0  0
  -11.1180    4.9820  -77.7090 C   0  0  0  0  0  0  0  0  0  0  0  0
  -10.4660    3.1270  -75.7440 C   0  0  0  0  0  0  0  0  0  0  0  0
   -9.8400    4.4480  -77.6300 C   0  0  0  0  0  0  0  0  0  0  0  0
   -9.5390    3.5450  -76.6390 C   0  0  0  0  0  0  0  0  0  0  0  0
   -8.2920    3.0280  -76.4870 C   0  0  0  0  0  0  0  0  0  0  0  0
   -8.2710    1.5720  -76.3760 C   0  0  0  0  0  0  0  0  0  0  0  0
   -7.9950    1.2750  -77.6790 C   0  0  0  0  0  0  0  0  0  0  0  0
   -7.2880    2.4290  -78.2120 N   0  0  0  0  0  0  0  0  0  0  0  0
   -6.8020    2.1960  -79.4950 C   0  0  0  0  0  0  0  0  0  0  0  0
   -7.7860    1.4650  -80.1680 C   0  0  0  0  0  0  0  0  0  0  0  0
   -8.1360    0.1720  -79.7490 C   0  0  0  0  0  0  0  0  0  0  0  0
   -8.4360    2.0200  -81.2740 C   0  0  0  0  0  0  0  0  0  0  0  0
   -9.1170   -0.5620  -80.4040 C   0  0  0  0  0  0  0  0  0  0  0  0
   -9.4180    1.3010  -81.9450 C   0  0  0  0  0  0  0  0  0  0  0  0
   -9.8290    0.0240  -81.5930 C   0  0  0  0  0  0  0  0  0  0  0  0
  2  1  1  0
  2  3  1  0
  2  4  1  0
  2  5  1  0
  5  6  2  0
  5  7  1  0
  6  8  1  0
  7  9  2  0
  8 10  2  0
  9 10  1  0
 10 11  1  0
 11 12  3  0
 12 13  1  0
 13 14  1  0
 14 15  1  0
 15 16  1  0
 16 17  2  0
 16 18  1  0
 17 19  1  0
 18 20  2  0
 19 21  2  0
 20 21  1  0
M  END
>  <ref_url>  (352) 
https://fakepage.com

>  <submitter_name>  (352) 
Steph Wills

>  <submitter_email>  (352) 
stephanie.wills@dtc.ox.ac.uk

>  <submitter_institution>  (352) 
University of Oxford

>  <generation_date>  (352) 
2020-06-04

>  <method>  (352) 
Fragment network

>  <ref_mols>  (352) 
x0176_0B,x0212_0B

>  <ref_pdb>  (352) 
references/x0176-0B-x0212-0B-426541.holo_minimised_nolig.pdb

>  <original SMILES>  (352) 
CC(C)(C)c1ccc(C#CCNCc2ccccc2)cc1

>  <synthon>  (352) 
[Xe]c1ccccc1

>  <original_name>  (352) 
x0176-0B-x0212-0B-426541

>  <comRMSD_score>  (352) 
0.92442565012482

>  <IF_score>  (352) 
0.675

>  <SuCOS_score>  (352) 
0.5212189336560709

>  <compound_ID>  (352) 
CHEMSPACE-BB:CSMB00109399478

$$$$

     RDKit          3D

 20 21  0  0  0  0  0  0  0  0999 V2000
  -13.7750    5.9180  -74.8710 N   0  0  0  0  0  0  0  0  0  0  0  0
  -13.8460    5.3300  -76.0190 C   0  0  0  0  0  0  0  0  0  0  0  0
  -12.8220    5.5580  -77.1400 C   0  0  0  0  0  0  0  0  0  0  0  0
  -11.6050    4.6350  -76.9860 C   0  0  0  0  0  0  0  0  0  0  0  0
  -11.6200    3.7190  -75.9310 C   0  0  0  0  0  0  0  0  0  0  0  0
  -10.5270    4.7020  -77.8600 C   0  0  0  0  0  0  0  0  0  0  0  0
  -10.5370    2.8600  -75.7500 C   0  0  0  0  0  0  0  0  0  0  0  0
   -9.4470    3.8480  -77.6740 C   0  0  0  0  0  0  0  0  0  0  0  0
   -9.4520    2.9310  -76.6210 C   0  0  0  0  0  0  0  0  0  0  0  0
   -8.4730    2.0510  -76.3270 O   0  0  0  0  0  0  0  0  0  0  0  0
   -7.9410    1.2640  -77.3700 C   0  0  0  0  0  0  0  0  0  0  0  0
   -6.5450    1.2230  -77.4050 C   0  0  0  0  0  0  0  0  0  0  0  0
   -6.1630    1.4330  -78.5630 O   0  0  0  0  0  0  0  0  0  0  0  0
   -6.9180    2.3500  -79.3560 C   0  0  0  0  0  0  0  0  0  0  0  0
   -7.9120    1.4910  -80.0900 C   0  0  0  0  0  0  0  0  0  0  0  0
   -8.4380    2.0740  -81.2360 C   0  0  0  0  0  0  0  0  0  0  0  0
   -8.3000    0.2050  -79.6770 C   0  0  0  0  0  0  0  0  0  0  0  0
   -9.4380    1.2840  -82.0200 C   0  0  0  0  0  0  0  0  0  0  0  0
   -9.2370   -0.5090  -80.4250 C   0  0  0  0  0  0  0  0  0  0  0  0
   -9.8090    0.0110  -81.5780 C   0  0  0  0  0  0  0  0  0  0  0  0
  1  2  3  0
  2  3  1  0
  3  4  1  0
  4  5  2  0
  4  6  1  0
  5  7  1  0
  6  8  2  0
  7  9  2  0
  8  9  1  0
  9 10  1  0
 10 11  1  0
 11 12  1  0
 12 13  1  0
 13 14  1  0
 14 15  1  0
 15 16  2  0
 15 17  1  0
 16 18  1  0
 17 19  2  0
 18 20  2  0
 19 20  1  0
M  END
>  <ref_url>  (353) 
https://fakepage.com

>  <submitter_name>  (353) 
Steph Wills

>  <submitter_email>  (353) 
stephanie.wills@dtc.ox.ac.uk

>  <submitter_institution>  (353) 
University of Oxford

>  <generation_date>  (353) 
2020-06-04

>  <method>  (353) 
Fragment network

>  <ref_mols>  (353) 
x0176_0B,x0212_0B

>  <ref_pdb>  (353) 
references/x0176-0B-x0212-0B-431026.holo_minimised_nolig.pdb

>  <original SMILES>  (353) 
N#CCc1ccc(OCCOCc2ccccc2)cc1

>  <synthon>  (353) 
[Xe]c1ccccc1

>  <original_name>  (353) 
x0176-0B-x0212-0B-431026

>  <comRMSD_score>  (353) 
0.7159727952082114

>  <IF_score>  (353) 
0.75

>  <SuCOS_score>  (353) 
0.4891308201077136

>  <compound_ID>  (353) 
CHEMSPACE-BB:CSMB00011286544

$$$$

     RDKit          3D

 26 27  0  0  0  0  0  0  0  0999 V2000
  -12.5920    6.4170  -73.6580 C   0  0  0  0  0  0  0  0  0  0  0  0
  -13.0550    6.7240  -75.0740 C   0  0  0  0  0  0  0  0  0  0  0  0
  -13.7390    5.5770  -75.5750 O   0  0  0  0  0  0  0  0  0  0  0  0
  -13.2420    5.1320  -76.7360 C   0  0  0  0  0  0  0  0  0  0  0  0
  -13.7560    5.2540  -77.8370 O   0  0  0  0  0  0  0  0  0  0  0  0
  -11.9500    4.4460  -76.5110 C   0  0  0  0  0  0  0  0  0  0  0  0
  -10.8310    4.8130  -77.2140 C   0  0  0  0  0  0  0  0  0  0  0  0
  -11.8580    3.4070  -75.5790 C   0  0  0  0  0  0  0  0  0  0  0  0
   -9.6180    4.1380  -77.0160 C   0  0  0  0  0  0  0  0  0  0  0  0
  -10.6360    2.7430  -75.3840 C   0  0  0  0  0  0  0  0  0  0  0  0
   -9.5060    3.1170  -76.1170 C   0  0  0  0  0  0  0  0  0  0  0  0
   -8.3110    2.4410  -75.9140 N   0  0  0  0  0  0  0  0  0  0  0  0
   -8.0610    1.1380  -76.2490 C   0  0  0  0  0  0  0  0  0  0  0  0
   -8.9060    0.3140  -76.5950 O   0  0  0  0  0  0  0  0  0  0  0  0
   -6.5810    0.7330  -76.1320 C   0  0  0  0  0  0  0  0  0  0  0  0
   -5.7740    1.4360  -77.0890 N   0  0  0  0  0  0  0  0  0  0  0  0
   -6.0560    2.7220  -77.3730 C   0  0  0  0  0  0  0  0  0  0  0  0
   -5.5280    3.7030  -76.8660 O   0  0  0  0  0  0  0  0  0  0  0  0
   -7.0090    2.7160  -78.3140 O   0  0  0  0  0  0  0  0  0  0  0  0
   -6.4390    2.3670  -79.5710 C   0  0  0  0  0  0  0  0  0  0  0  0
   -7.2870    1.3320  -80.2560 C   0  0  0  0  0  0  0  0  0  0  0  0
   -7.6040    0.0890  -79.6850 C   0  0  0  0  0  0  0  0  0  0  0  0
   -7.7790    1.6360  -81.5170 C   0  0  0  0  0  0  0  0  0  0  0  0
   -8.4010   -0.8190  -80.3870 C   0  0  0  0  0  0  0  0  0  0  0  0
   -8.5670    0.7410  -82.2150 C   0  0  0  0  0  0  0  0  0  0  0  0
   -8.8820   -0.4930  -81.6530 C   0  0  0  0  0  0  0  0  0  0  0  0
  1  2  1  0
  2  3  1  0
  3  4  1  0
  4  5  2  0
  4  6  1  0
  6  7  2  0
  6  8  1  0
  7  9  1  0
  8 10  2  0
  9 11  2  0
 10 11  1  0
 11 12  1  0
 12 13  1  0
 13 14  2  0
 13 15  1  0
 15 16  1  0
 16 17  1  0
 17 18  2  0
 17 19  1  0
 19 20  1  0
 20 21  1  0
 21 22  2  0
 21 23  1  0
 22 24  1  0
 23 25  2  0
 24 26  2  0
 25 26  1  0
M  END
>  <ref_url>  (354) 
https://fakepage.com

>  <submitter_name>  (354) 
Steph Wills

>  <submitter_email>  (354) 
stephanie.wills@dtc.ox.ac.uk

>  <submitter_institution>  (354) 
University of Oxford

>  <generation_date>  (354) 
2020-06-04

>  <method>  (354) 
Fragment network

>  <ref_mols>  (354) 
x0176_0B,x0212_0B

>  <ref_pdb>  (354) 
references/x0176-0B-x0212-0B-440313.holo_minimised_nolig.pdb

>  <original SMILES>  (354) 
CCOC(=O)c1ccc(NC(=O)CNC(=O)OCc2ccccc2)cc1

>  <synthon>  (354) 
[Xe]c1ccccc1

>  <original_name>  (354) 
x0176-0B-x0212-0B-440313

>  <comRMSD_score>  (354) 
0.8820976052485253

>  <IF_score>  (354) 
0.5833333333333333

>  <SuCOS_score>  (354) 
0.4166606766546224

>  <compound_ID>  (354) 
CHEMSPACE-BB:CSMB00037168414

$$$$

     RDKit          3D

 21 22  0  0  0  0  0  0  0  0999 V2000
  -12.6540    6.4630  -73.8280 C   0  0  0  0  0  0  0  0  0  0  0  0
  -12.8450    6.9390  -75.1140 N   0  0  0  0  0  0  0  0  0  0  0  0
  -13.2910    6.2700  -76.2690 C   0  0  0  0  0  0  0  0  0  0  0  0
  -14.2120    6.6280  -76.9990 O   0  0  0  0  0  0  0  0  0  0  0  0
  -12.5150    5.0610  -76.5240 C   0  0  0  0  0  0  0  0  0  0  0  0
  -11.7240    4.1830  -76.3710 C   0  0  0  0  0  0  0  0  0  0  0  0
  -11.2230    2.9930  -75.7210 C   0  0  0  0  0  0  0  0  0  0  0  0
  -10.8080    4.5570  -77.3990 C   0  0  0  0  0  0  0  0  0  0  0  0
  -10.0530    2.3290  -76.0350 C   0  0  0  0  0  0  0  0  0  0  0  0
   -9.6270    3.9010  -77.7300 C   0  0  0  0  0  0  0  0  0  0  0  0
   -9.2400    2.7770  -77.0420 C   0  0  0  0  0  0  0  0  0  0  0  0
   -8.1360    2.0170  -77.2160 N   0  0  0  0  0  0  0  0  0  0  0  0
   -6.8900    2.4680  -77.7770 C   0  0  0  0  0  0  0  0  0  0  0  0
   -5.8030    2.8840  -77.0600 O   0  0  0  0  0  0  0  0  0  0  0  0
   -6.7770    2.4910  -79.2700 C   0  0  0  0  0  0  0  0  0  0  0  0
   -7.7970    1.6470  -80.0230 C   0  0  0  0  0  0  0  0  0  0  0  0
   -8.3620    2.1020  -81.2050 C   0  0  0  0  0  0  0  0  0  0  0  0
   -8.1950    0.3840  -79.5410 C   0  0  0  0  0  0  0  0  0  0  0  0
   -9.3570    1.2780  -81.9380 C   0  0  0  0  0  0  0  0  0  0  0  0
   -9.1370   -0.4060  -80.2250 C   0  0  0  0  0  0  0  0  0  0  0  0
   -9.7130    0.0390  -81.4120 C   0  0  0  0  0  0  0  0  0  0  0  0
  1  2  1  0
  2  3  1  0
  3  4  2  0
  3  5  1  0
  5  6  1  0
  6  7  2  0
  6  8  1  0
  7  9  1  0
  8 10  2  0
  9 11  2  0
 10 11  1  0
 11 12  1  0
 12 13  1  0
 13 14  2  0
 13 15  1  0
 15 16  1  0
 16 17  2  0
 16 18  1  0
 17 19  1  0
 18 20  2  0
 19 21  2  0
 20 21  1  0
M  END
>  <ref_url>  (355) 
https://fakepage.com

>  <submitter_name>  (355) 
Steph Wills

>  <submitter_email>  (355) 
stephanie.wills@dtc.ox.ac.uk

>  <submitter_institution>  (355) 
University of Oxford

>  <generation_date>  (355) 
2020-06-04

>  <method>  (355) 
Fragment network

>  <ref_mols>  (355) 
x0176_0B,x0212_0B

>  <ref_pdb>  (355) 
references/x0176-0B-x0212-0B-440379.holo_minimised_nolig.pdb

>  <original SMILES>  (355) 
CNC(=O)Cc1ccc(NC(=O)Cc2ccccc2)cc1

>  <synthon>  (355) 
[Xe]c1ccccc1

>  <original_name>  (355) 
x0176-0B-x0212-0B-440379

>  <comRMSD_score>  (355) 
0.5831030974212201

>  <IF_score>  (355) 
0.675

>  <SuCOS_score>  (355) 
0.5343882019597782

>  <compound_ID>  (355) 
REAL:Z318709202

$$$$

     RDKit          3D

 21 22  0  0  0  0  0  0  0  0999 V2000
  -12.7800    6.3900  -74.8630 N   0  0  0  0  0  0  0  0  0  0  0  0
  -13.2780    5.8090  -75.9770 C   0  0  0  0  0  0  0  0  0  0  0  0
  -14.4860    5.6530  -76.1380 O   0  0  0  0  0  0  0  0  0  0  0  0
  -12.2530    5.3750  -76.9920 C   0  0  0  0  0  0  0  0  0  0  0  0
  -11.4120    4.1840  -76.5460 C   0  0  0  0  0  0  0  0  0  0  0  0
  -11.9070    3.3690  -75.5180 C   0  0  0  0  0  0  0  0  0  0  0  0
  -10.1580    3.8230  -77.0900 C   0  0  0  0  0  0  0  0  0  0  0  0
  -11.1810    2.2640  -75.0750 C   0  0  0  0  0  0  0  0  0  0  0  0
   -9.4590    2.7270  -76.6360 C   0  0  0  0  0  0  0  0  0  0  0  0
   -9.5760    4.5200  -78.0900 N   0  0  0  0  0  0  0  0  0  0  0  0
   -9.9640    1.9480  -75.6340 C   0  0  0  0  0  0  0  0  0  0  0  0
   -8.6360    3.9690  -78.8910 C   0  0  0  0  0  0  0  0  0  0  0  0
   -8.6360    4.0790  -80.0720 O   0  0  0  0  0  0  0  0  0  0  0  0
   -7.6560    3.2390  -78.2430 N   0  0  0  0  0  0  0  0  0  0  0  0
   -6.9480    2.2390  -79.0040 C   0  0  0  0  0  0  0  0  0  0  0  0
   -7.9100    1.4640  -79.8710 C   0  0  0  0  0  0  0  0  0  0  0  0
   -8.4040    0.2270  -79.4350 C   0  0  0  0  0  0  0  0  0  0  0  0
   -8.3310    1.9590  -81.1180 C   0  0  0  0  0  0  0  0  0  0  0  0
   -9.2970   -0.4960  -80.2240 C   0  0  0  0  0  0  0  0  0  0  0  0
   -9.2200    1.2320  -81.8980 C   0  0  0  0  0  0  0  0  0  0  0  0
   -9.7040    0.0070  -81.4510 C   0  0  0  0  0  0  0  0  0  0  0  0
  1  2  1  0
  2  3  2  0
  2  4  1  0
  4  5  1  0
  5  6  2  0
  5  7  1  0
  6  8  1  0
  7  9  2  0
  7 10  1  0
  8 11  2  0
  9 11  1  0
 10 12  1  0
 12 13  2  0
 12 14  1  0
 14 15  1  0
 15 16  1  0
 16 17  2  0
 16 18  1  0
 17 19  1  0
 18 20  2  0
 19 21  2  0
 20 21  1  0
M  END
>  <ref_url>  (356) 
https://fakepage.com

>  <submitter_name>  (356) 
Steph Wills

>  <submitter_email>  (356) 
stephanie.wills@dtc.ox.ac.uk

>  <submitter_institution>  (356) 
University of Oxford

>  <generation_date>  (356) 
2020-06-04

>  <method>  (356) 
Fragment network

>  <ref_mols>  (356) 
x0176_0B,x0212_0B

>  <ref_pdb>  (356) 
references/x0176-0B-x0212-0B-440904.holo_minimised_nolig.pdb

>  <original SMILES>  (356) 
NC(=O)Cc1ccccc1NC(=O)NCc1ccccc1

>  <synthon>  (356) 
[Xe]c1ccccc1

>  <original_name>  (356) 
x0176-0B-x0212-0B-440904

>  <comRMSD_score>  (356) 
0.9786649707637444

>  <IF_score>  (356) 
0.675

>  <SuCOS_score>  (356) 
0.5241483507315677

>  <compound_ID>  (356) 
MOLPORT:009-548-287

$$$$

     RDKit          3D

 20 21  0  0  0  0  0  0  0  0999 V2000
  -13.4440    5.5840  -75.8120 C   0  0  0  0  0  0  0  0  0  0  0  0
  -12.5990    5.6770  -77.0630 C   0  0  0  0  0  0  0  0  0  0  0  0
  -11.4560    4.6520  -77.0840 C   0  0  0  0  0  0  0  0  0  0  0  0
  -11.4950    3.5590  -76.0020 C   0  0  0  0  0  0  0  0  0  0  0  0
  -10.4490    4.7040  -78.0300 C   0  0  0  0  0  0  0  0  0  0  0  0
  -10.3600    2.5760  -76.0890 C   0  0  0  0  0  0  0  0  0  0  0  0
   -9.4380    3.7580  -78.0420 C   0  0  0  0  0  0  0  0  0  0  0  0
   -9.4020    2.7240  -77.1010 C   0  0  0  0  0  0  0  0  0  0  0  0
   -8.4750    1.9540  -77.2350 O   0  0  0  0  0  0  0  0  0  0  0  0
   -7.3450    2.0640  -76.3790 C   0  0  0  0  0  0  0  0  0  0  0  0
   -6.1620    1.9420  -77.1220 C   0  0  0  0  0  0  0  0  0  0  0  0
   -5.0620    2.2310  -76.6430 O   0  0  0  0  0  0  0  0  0  0  0  0
   -6.2670    1.5350  -78.2800 O   0  0  0  0  0  0  0  0  0  0  0  0
   -7.0090    2.4350  -79.1060 C   0  0  0  0  0  0  0  0  0  0  0  0
   -7.9440    1.5990  -79.9450 C   0  0  0  0  0  0  0  0  0  0  0  0
   -8.4040    2.0700  -81.1830 C   0  0  0  0  0  0  0  0  0  0  0  0
   -8.3660    0.3330  -79.4960 C   0  0  0  0  0  0  0  0  0  0  0  0
   -9.3350    1.2200  -81.9940 C   0  0  0  0  0  0  0  0  0  0  0  0
   -9.2360   -0.4390  -80.2730 C   0  0  0  0  0  0  0  0  0  0  0  0
   -9.7240   -0.0230  -81.5030 C   0  0  0  0  0  0  0  0  0  0  0  0
  1  2  1  0
  2  3  1  0
  3  4  2  0
  3  5  1  0
  4  6  1  0
  5  7  2  0
  6  8  2  0
  7  8  1  0
  8  9  1  0
  9 10  1  0
 10 11  1  0
 11 12  2  0
 11 13  1  0
 13 14  1  0
 14 15  1  0
 15 16  2  0
 15 17  1  0
 16 18  1  0
 17 19  2  0
 18 20  2  0
 19 20  1  0
M  END
>  <ref_url>  (357) 
https://fakepage.com

>  <submitter_name>  (357) 
Steph Wills

>  <submitter_email>  (357) 
stephanie.wills@dtc.ox.ac.uk

>  <submitter_institution>  (357) 
University of Oxford

>  <generation_date>  (357) 
2020-06-04

>  <method>  (357) 
Fragment network

>  <ref_mols>  (357) 
x0176_0B,x0212_0B

>  <ref_pdb>  (357) 
references/x0176-0B-x0212-0B-445650.holo_minimised_nolig.pdb

>  <original SMILES>  (357) 
CCc1ccc(OCC(=O)OCc2ccccc2)cc1

>  <synthon>  (357) 
[Xe]c1ccccc1

>  <original_name>  (357) 
x0176-0B-x0212-0B-445650

>  <comRMSD_score>  (357) 
0.5660027653949952

>  <IF_score>  (357) 
0.8

>  <SuCOS_score>  (357) 
0.4804512178581934

>  <compound_ID>  (357) 
CHEMSPACE-BB:CSMB00103920019

$$$$

     RDKit          3D

 20 21  0  0  0  0  0  0  0  0999 V2000
  -14.3850    8.2840  -75.9910 O   0  0  0  0  0  0  0  0  0  0  0  0
  -14.0900    7.3240  -76.6810 C   0  0  0  0  0  0  0  0  0  0  0  0
  -14.8230    6.9810  -77.7460 O   0  0  0  0  0  0  0  0  0  0  0  0
  -12.9360    6.4620  -76.4380 C   0  0  0  0  0  0  0  0  0  0  0  0
  -12.8540    5.1950  -76.8730 C   0  0  0  0  0  0  0  0  0  0  0  0
  -11.7150    4.2840  -76.6430 C   0  0  0  0  0  0  0  0  0  0  0  0
  -11.7890    3.2730  -75.6780 C   0  0  0  0  0  0  0  0  0  0  0  0
  -10.5300    4.4080  -77.3930 C   0  0  0  0  0  0  0  0  0  0  0  0
  -10.7220    2.4070  -75.4610 C   0  0  0  0  0  0  0  0  0  0  0  0
   -9.4520    3.5300  -77.1640 C   0  0  0  0  0  0  0  0  0  0  0  0
   -9.5610    2.5360  -76.2000 C   0  0  0  0  0  0  0  0  0  0  0  0
   -8.1800    3.6440  -77.9360 C   0  0  0  0  0  0  0  0  0  0  0  0
   -7.4290    2.4430  -77.9480 O   0  0  0  0  0  0  0  0  0  0  0  0
   -6.8690    2.2250  -79.2310 C   0  0  0  0  0  0  0  0  0  0  0  0
   -7.8790    1.4700  -80.0320 C   0  0  0  0  0  0  0  0  0  0  0  0
   -8.3430    0.2280  -79.5790 C   0  0  0  0  0  0  0  0  0  0  0  0
   -8.3760    1.9870  -81.2280 C   0  0  0  0  0  0  0  0  0  0  0  0
   -9.2890   -0.4820  -80.3070 C   0  0  0  0  0  0  0  0  0  0  0  0
   -9.3170    1.2740  -81.9510 C   0  0  0  0  0  0  0  0  0  0  0  0
   -9.7760    0.0400  -81.4940 C   0  0  0  0  0  0  0  0  0  0  0  0
  1  2  2  0
  2  3  1  0
  2  4  1  0
  4  5  2  3
  5  6  1  0
  6  7  2  0
  6  8  1  0
  7  9  1  0
  8 10  2  0
  9 11  2  0
 10 11  1  0
 10 12  1  0
 12 13  1  0
 13 14  1  0
 14 15  1  0
 15 16  2  0
 15 17  1  0
 16 18  1  0
 17 19  2  0
 18 20  2  0
 19 20  1  0
M  END
>  <ref_url>  (358) 
https://fakepage.com

>  <submitter_name>  (358) 
Steph Wills

>  <submitter_email>  (358) 
stephanie.wills@dtc.ox.ac.uk

>  <submitter_institution>  (358) 
University of Oxford

>  <generation_date>  (358) 
2020-06-04

>  <method>  (358) 
Fragment network

>  <ref_mols>  (358) 
x0176_0B,x0212_0B

>  <ref_pdb>  (358) 
references/x0176-0B-x0212-0B-447676.holo_minimised_nolig.pdb

>  <original SMILES>  (358) 
O=C(O)C=Cc1cccc(COCc2ccccc2)c1

>  <synthon>  (358) 
[Xe]c1ccccc1

>  <original_name>  (358) 
x0176-0B-x0212-0B-447676

>  <comRMSD_score>  (358) 
0.6418664899409295

>  <IF_score>  (358) 
0.625

>  <SuCOS_score>  (358) 
0.4742569937555513

>  <compound_ID>  (358) 
CHEMSPACE-BB:CSMB00011495464

$$$$

     RDKit          3D

 19 20  0  0  0  0  0  0  0  0999 V2000
  -12.8920    5.5080  -77.1950 C   0  0  0  0  0  0  0  0  0  0  0  0
  -11.6100    4.7110  -77.0130 C   0  0  0  0  0  0  0  0  0  0  0  0
  -11.4140    3.8490  -75.9150 C   0  0  0  0  0  0  0  0  0  0  0  0
  -10.4200    4.6260  -77.7870 C   0  0  0  0  0  0  0  0  0  0  0  0
  -10.5530    3.2070  -75.6250 C   0  0  0  0  0  0  0  0  0  0  0  0
   -9.2990    3.7720  -77.3820 C   0  0  0  0  0  0  0  0  0  0  0  0
   -9.3250    2.9670  -76.1800 C   0  0  0  0  0  0  0  0  0  0  0  0
   -8.3290    2.1780  -75.7480 O   0  0  0  0  0  0  0  0  0  0  0  0
   -6.8500    2.2530  -76.3990 S   0  0  0  0  0  0  0  0  0  0  0  0
   -6.2080    3.5440  -76.5740 O   0  0  0  0  0  0  0  0  0  0  0  0
   -6.0690    1.1690  -75.8300 O   0  0  0  0  0  0  0  0  0  0  0  0
   -7.4920    1.7210  -77.9180 C   0  0  0  0  0  0  0  0  0  0  0  0
   -7.0040    1.9090  -79.1690 C   0  0  0  0  0  0  0  0  0  0  0  0
   -7.8590    1.3370  -80.0550 C   0  0  0  0  0  0  0  0  0  0  0  0
   -8.3930    1.9700  -81.2720 C   0  0  0  0  0  0  0  0  0  0  0  0
   -8.2720    0.0410  -79.7440 C   0  0  0  0  0  0  0  0  0  0  0  0
   -9.3580    1.1950  -82.1130 C   0  0  0  0  0  0  0  0  0  0  0  0
   -9.1710   -0.6340  -80.5620 C   0  0  0  0  0  0  0  0  0  0  0  0
   -9.7170   -0.0950  -81.7200 C   0  0  0  0  0  0  0  0  0  0  0  0
  1  2  1  0
  2  3  2  0
  2  4  1  0
  3  5  1  0
  4  6  2  0
  5  7  2  0
  6  7  1  0
  7  8  1  0
  9  8  1  0
  9 10  2  0
  9 11  2  0
  9 12  1  0
 12 13  2  3
 13 14  1  0
 14 15  2  0
 14 16  1  0
 15 17  1  0
 16 18  2  0
 17 19  2  0
 18 19  1  0
M  END
>  <ref_url>  (359) 
https://fakepage.com

>  <submitter_name>  (359) 
Steph Wills

>  <submitter_email>  (359) 
stephanie.wills@dtc.ox.ac.uk

>  <submitter_institution>  (359) 
University of Oxford

>  <generation_date>  (359) 
2020-06-04

>  <method>  (359) 
Fragment network

>  <ref_mols>  (359) 
x0176_0B,x0212_0B

>  <ref_pdb>  (359) 
references/x0176-0B-x0212-0B-448660.holo_minimised_nolig.pdb

>  <original SMILES>  (359) 
Cc1ccc(OS(=O)(=O)C=Cc2ccccc2)cc1

>  <synthon>  (359) 
[Xe]c1ccccc1

>  <original_name>  (359) 
x0176-0B-x0212-0B-448660

>  <comRMSD_score>  (359) 
0.8046681134028303

>  <IF_score>  (359) 
0.9

>  <SuCOS_score>  (359) 
0.4352556206601846

>  <compound_ID>  (359) 
MOLPORT:003-722-558

$$$$

     RDKit          3D

 20 21  0  0  0  0  0  0  0  0999 V2000
  -13.7580    5.6730  -76.3640 C   0  0  0  0  0  0  0  0  0  0  0  0
  -13.0350    5.1860  -77.6160 C   0  0  0  0  0  0  0  0  0  0  0  0
  -13.9430    4.3950  -78.5620 C   0  0  0  0  0  0  0  0  0  0  0  0
  -11.7990    4.4140  -77.2420 C   0  0  0  0  0  0  0  0  0  0  0  0
  -11.7990    3.5470  -76.1370 C   0  0  0  0  0  0  0  0  0  0  0  0
  -10.6390    4.5520  -77.9860 C   0  0  0  0  0  0  0  0  0  0  0  0
  -10.6460    2.8400  -75.7910 C   0  0  0  0  0  0  0  0  0  0  0  0
   -9.5020    3.8550  -77.6410 C   0  0  0  0  0  0  0  0  0  0  0  0
   -9.4990    2.9990  -76.5420 C   0  0  0  0  0  0  0  0  0  0  0  0
   -8.2860    2.3810  -76.3170 N   0  0  0  0  0  0  0  0  0  0  0  0
   -7.0920    2.7460  -76.8210 C   0  0  0  0  0  0  0  0  0  0  0  0
   -6.0970    4.0150  -76.3710 S   0  0  0  0  0  0  0  0  0  0  0  0
   -6.6590    1.9550  -77.8440 N   0  0  0  0  0  0  0  0  0  0  0  0
   -6.4620    2.3190  -79.2290 C   0  0  0  0  0  0  0  0  0  0  0  0
   -7.0860    1.2900  -80.1250 C   0  0  0  0  0  0  0  0  0  0  0  0
   -7.4270    0.0130  -79.6310 C   0  0  0  0  0  0  0  0  0  0  0  0
   -7.3570    1.5880  -81.4690 C   0  0  0  0  0  0  0  0  0  0  0  0
   -8.0280   -0.9330  -80.4710 C   0  0  0  0  0  0  0  0  0  0  0  0
   -7.9560    0.6350  -82.3070 C   0  0  0  0  0  0  0  0  0  0  0  0
   -8.2910   -0.6220  -81.8050 C   0  0  0  0  0  0  0  0  0  0  0  0
  1  2  1  0
  2  3  1  0
  2  4  1  0
  4  5  2  0
  4  6  1  0
  5  7  1  0
  6  8  2  0
  7  9  2  0
  8  9  1  0
  9 10  1  0
 10 11  1  0
 11 12  2  0
 11 13  1  0
 13 14  1  0
 14 15  1  0
 15 16  2  0
 15 17  1  0
 16 18  1  0
 17 19  2  0
 18 20  2  0
 19 20  1  0
M  END
>  <ref_url>  (360) 
https://fakepage.com

>  <submitter_name>  (360) 
Steph Wills

>  <submitter_email>  (360) 
stephanie.wills@dtc.ox.ac.uk

>  <submitter_institution>  (360) 
University of Oxford

>  <generation_date>  (360) 
2020-06-04

>  <method>  (360) 
Fragment network

>  <ref_mols>  (360) 
x0176_0B,x0212_0B

>  <ref_pdb>  (360) 
references/x0176-0B-x0212-0B-450725.holo_minimised_nolig.pdb

>  <original SMILES>  (360) 
CC(C)c1ccc(NC(=S)NCc2ccccc2)cc1

>  <synthon>  (360) 
[Xe]c1ccccc1

>  <original_name>  (360) 
x0176-0B-x0212-0B-450725

>  <comRMSD_score>  (360) 
0.8917289264461872

>  <IF_score>  (360) 
0.3125

>  <SuCOS_score>  (360) 
0.4412617955722456

>  <compound_ID>  (360) 
CHEMSPACE-BB:CSMB00016236510

$$$$

     RDKit          3D

 24 25  0  0  0  0  0  0  0  0999 V2000
  -12.5890    6.3960  -73.7350 C   0  0  0  0  0  0  0  0  0  0  0  0
  -13.0030    6.7280  -75.1600 C   0  0  0  0  0  0  0  0  0  0  0  0
  -13.4780    5.5420  -75.8030 O   0  0  0  0  0  0  0  0  0  0  0  0
  -12.9190    5.3590  -77.0150 C   0  0  0  0  0  0  0  0  0  0  0  0
  -13.3380    5.8190  -78.0600 O   0  0  0  0  0  0  0  0  0  0  0  0
  -11.7010    4.5240  -76.8740 C   0  0  0  0  0  0  0  0  0  0  0  0
  -10.5940    4.6250  -77.7180 C   0  0  0  0  0  0  0  0  0  0  0  0
  -11.6890    3.5960  -75.8310 C   0  0  0  0  0  0  0  0  0  0  0  0
   -9.4800    3.8090  -77.5100 C   0  0  0  0  0  0  0  0  0  0  0  0
  -10.5800    2.7840  -75.6300 C   0  0  0  0  0  0  0  0  0  0  0  0
   -9.4720    2.8890  -76.4610 C   0  0  0  0  0  0  0  0  0  0  0  0
   -8.4120    2.0460  -76.1590 N   0  0  0  0  0  0  0  0  0  0  0  0
   -8.0600    0.8250  -76.6770 C   0  0  0  0  0  0  0  0  0  0  0  0
   -8.5990   -0.2670  -76.5120 O   0  0  0  0  0  0  0  0  0  0  0  0
   -6.8250    1.0270  -77.5370 C   0  0  0  0  0  0  0  0  0  0  0  0
   -6.8720    2.3110  -78.1630 O   0  0  0  0  0  0  0  0  0  0  0  0
   -6.7390    2.3060  -79.5110 C   0  0  0  0  0  0  0  0  0  0  0  0
   -5.8560    2.8720  -80.1340 O   0  0  0  0  0  0  0  0  0  0  0  0
   -7.8110    1.5070  -80.1690 C   0  0  0  0  0  0  0  0  0  0  0  0
   -8.3850    2.0420  -81.3210 C   0  0  0  0  0  0  0  0  0  0  0  0
   -8.2590    0.2610  -79.6940 C   0  0  0  0  0  0  0  0  0  0  0  0
   -9.3820    1.3450  -81.9900 C   0  0  0  0  0  0  0  0  0  0  0  0
   -9.2650   -0.4300  -80.3720 C   0  0  0  0  0  0  0  0  0  0  0  0
   -9.8230    0.1150  -81.5180 C   0  0  0  0  0  0  0  0  0  0  0  0
  1  2  1  0
  2  3  1  0
  3  4  1  0
  4  5  2  0
  4  6  1  0
  6  7  2  0
  6  8  1  0
  7  9  1  0
  8 10  2  0
  9 11  2  0
 10 11  1  0
 11 12  1  0
 12 13  1  0
 13 14  2  0
 13 15  1  0
 15 16  1  0
 16 17  1  0
 17 18  2  0
 17 19  1  0
 19 20  2  0
 19 21  1  0
 20 22  1  0
 21 23  2  0
 22 24  2  0
 23 24  1  0
M  END
>  <ref_url>  (361) 
https://fakepage.com

>  <submitter_name>  (361) 
Steph Wills

>  <submitter_email>  (361) 
stephanie.wills@dtc.ox.ac.uk

>  <submitter_institution>  (361) 
University of Oxford

>  <generation_date>  (361) 
2020-06-04

>  <method>  (361) 
Fragment network

>  <ref_mols>  (361) 
x0176_0B,x0212_0B

>  <ref_pdb>  (361) 
references/x0176-0B-x0212-0B-450742.holo_minimised_nolig.pdb

>  <original SMILES>  (361) 
CCOC(=O)c1ccc(NC(=O)COC(=O)c2ccccc2)cc1

>  <synthon>  (361) 
[Xe]c1ccccc1

>  <original_name>  (361) 
x0176-0B-x0212-0B-450742

>  <comRMSD_score>  (361) 
0.5766305062522605

>  <IF_score>  (361) 
0.8

>  <SuCOS_score>  (361) 
0.4921932718512143

>  <compound_ID>  (361) 
MOLPORT:003-301-737

$$$$

     RDKit          3D

 24 25  0  0  0  0  0  0  0  0999 V2000
   -6.7470    2.5470  -79.6680 C   0  0  0  0  0  0  0  0  0  0  0  0
   -7.8960    1.6550  -80.0010 C   0  0  0  0  0  0  0  0  0  0  0  0
   -8.5950    1.8200  -81.1950 C   0  0  0  0  0  0  0  0  0  0  0  0
   -8.2720    0.6620  -79.1010 C   0  0  0  0  0  0  0  0  0  0  0  0
   -9.6870    0.9940  -81.4770 C   0  0  0  0  0  0  0  0  0  0  0  0
   -9.3550   -0.1540  -79.3750 C   0  0  0  0  0  0  0  0  0  0  0  0
  -10.0680    0.0140  -80.5450 C   0  0  0  0  0  0  0  0  0  0  0  0
  -11.4710   -1.0500  -80.7700 S   0  0  0  0  0  0  0  0  0  0  0  0
  -10.9970   -2.3990  -80.9910 O   0  0  0  0  0  0  0  0  0  0  0  0
  -12.3610   -0.4090  -81.7100 O   0  0  0  0  0  0  0  0  0  0  0  0
  -12.3220   -1.0340  -79.2570 N   0  0  0  0  0  0  0  0  0  0  0  0
  -13.2810   -2.1230  -78.9910 C   0  0  0  0  0  0  0  0  0  0  0  0
  -11.8350   -0.2980  -78.0160 C   0  0  0  0  0  0  0  0  0  0  0  0
  -12.9860    0.4430  -77.2830 C   0  0  0  0  0  0  0  0  0  0  0  0
  -14.1500    0.0480  -77.3640 O   0  0  0  0  0  0  0  0  0  0  0  0
  -12.5810    1.5780  -76.5440 N   0  0  0  0  0  0  0  0  0  0  0  0
  -13.4590    2.7360  -76.4900 O   0  0  0  0  0  0  0  0  0  0  0  0
  -12.7320    4.0020  -76.6290 C   0  0  0  0  0  0  0  0  0  0  0  0
  -11.2790    3.6470  -76.7150 C   0  0  0  0  0  0  0  0  0  0  0  0
  -10.8080    2.6840  -75.8280 C   0  0  0  0  0  0  0  0  0  0  0  0
  -10.3850    4.2150  -77.6350 C   0  0  0  0  0  0  0  0  0  0  0  0
   -9.4890    2.2840  -75.8560 C   0  0  0  0  0  0  0  0  0  0  0  0
   -9.0540    3.8060  -77.6560 C   0  0  0  0  0  0  0  0  0  0  0  0
   -8.6060    2.8410  -76.7670 C   0  0  0  0  0  0  0  0  0  0  0  0
  1  2  1  0
  2  3  2  0
  2  4  1  0
  3  5  1  0
  4  6  2  0
  5  7  2  0
  6  7  1  0
  7  8  1  0
  8  9  2  0
  8 10  2  0
  8 11  1  0
 11 12  1  0
 11 13  1  0
 13 14  1  0
 14 15  2  0
 14 16  1  0
 16 17  1  0
 17 18  1  0
 18 19  1  0
 19 20  2  0
 19 21  1  0
 20 22  1  0
 21 23  2  0
 22 24  2  0
 23 24  1  0
M  END
>  <ref_url>  (362) 
https://fakepage.com

>  <submitter_name>  (362) 
Steph Wills

>  <submitter_email>  (362) 
stephanie.wills@dtc.ox.ac.uk

>  <submitter_institution>  (362) 
University of Oxford

>  <generation_date>  (362) 
2020-06-04

>  <method>  (362) 
Fragment network

>  <ref_mols>  (362) 
x0176_0B,x0212_0B

>  <ref_pdb>  (362) 
references/x0176-0B-x0212-0B-451432.holo_minimised_nolig.pdb

>  <original SMILES>  (362) 
Cc1ccc(S(=O)(=O)N(C)CC(=O)NOCc2ccccc2)cc1

>  <synthon>  (362) 
[Xe]c1ccccc1

>  <original_name>  (362) 
x0176-0B-x0212-0B-451432

>  <comRMSD_score>  (362) 
0.8712383558632334

>  <IF_score>  (362) 
0.55

>  <SuCOS_score>  (362) 
0.3944786659122081

>  <compound_ID>  (362) 
MOLPORT:005-534-088

$$$$

     RDKit          3D

 22 23  0  0  0  0  0  0  0  0999 V2000
  -13.6880    5.9060  -75.9110 C   0  0  0  0  0  0  0  0  0  0  0  0
  -12.9610    5.5860  -77.1850 C   0  0  0  0  0  0  0  0  0  0  0  0
  -11.7990    4.6880  -76.8750 C   0  0  0  0  0  0  0  0  0  0  0  0
  -10.6400    4.7860  -77.6220 C   0  0  0  0  0  0  0  0  0  0  0  0
  -11.8680    3.7500  -75.8380 C   0  0  0  0  0  0  0  0  0  0  0  0
   -9.5620    3.9750  -77.3280 C   0  0  0  0  0  0  0  0  0  0  0  0
  -10.7790    2.9320  -75.5490 C   0  0  0  0  0  0  0  0  0  0  0  0
   -9.6240    3.0560  -76.2940 C   0  0  0  0  0  0  0  0  0  0  0  0
   -8.4950    2.3620  -76.1280 O   0  0  0  0  0  0  0  0  0  0  0  0
   -7.4060    2.6830  -76.9830 C   0  0  0  0  0  0  0  0  0  0  0  0
   -7.8700    2.4860  -78.4270 C   0  0  1  0  0  0  0  0  0  0  0  0
   -9.1150    1.7640  -78.4000 O   0  0  0  0  0  0  0  0  0  0  0  0
   -8.0600    3.7660  -79.2880 C   0  0  0  0  0  0  0  0  0  0  0  0
   -6.8620    4.3120  -79.9310 N   0  0  0  0  0  0  0  0  0  0  0  0
   -6.1410    3.1420  -80.4040 O   0  0  0  0  0  0  0  0  0  0  0  0
   -6.5640    2.0350  -79.6110 C   0  0  0  0  0  0  0  0  0  0  0  0
   -7.7170    1.3290  -80.2790 C   0  0  0  0  0  0  0  0  0  0  0  0
   -8.1480    0.0780  -79.8130 C   0  0  0  0  0  0  0  0  0  0  0  0
   -8.3670    1.9090  -81.3660 C   0  0  0  0  0  0  0  0  0  0  0  0
   -9.2120   -0.5760  -80.4280 C   0  0  0  0  0  0  0  0  0  0  0  0
   -9.4220    1.2510  -81.9730 C   0  0  0  0  0  0  0  0  0  0  0  0
   -9.8470    0.0130  -81.5070 C   0  0  0  0  0  0  0  0  0  0  0  0
  1  2  1  0
  2  3  1  0
  3  4  2  0
  3  5  1  0
  4  6  1  0
  5  7  2  0
  6  8  2  0
  7  8  1  0
  8  9  1  0
  9 10  1  0
 10 11  1  0
 11 12  1  1
 11 13  1  0
 13 14  1  0
 14 15  1  0
 15 16  1  0
 16 17  1  0
 17 18  2  0
 17 19  1  0
 18 20  1  0
 19 21  2  0
 20 22  2  0
 21 22  1  0
M  END
>  <ref_url>  (363) 
https://fakepage.com

>  <submitter_name>  (363) 
Steph Wills

>  <submitter_email>  (363) 
stephanie.wills@dtc.ox.ac.uk

>  <submitter_institution>  (363) 
University of Oxford

>  <generation_date>  (363) 
2020-06-04

>  <method>  (363) 
Fragment network

>  <ref_mols>  (363) 
x0176_0B,x0212_0B

>  <ref_pdb>  (363) 
references/x0176-0B-x0212-0B-452306.holo_minimised_nolig.pdb

>  <original SMILES>  (363) 
CCc1ccc(OCC(O)CNOCc2ccccc2)cc1

>  <synthon>  (363) 
[Xe]c1ccccc1

>  <original_name>  (363) 
x0176-0B-x0212-0B-452306

>  <comRMSD_score>  (363) 
0.7273296902099271

>  <IF_score>  (363) 
0.8

>  <SuCOS_score>  (363) 
0.4736022382410531

>  <compound_ID>  (363) 
CHEMSPACE-BB:CSMB00012174203

$$$$

     RDKit          3D

 21 22  0  0  0  0  0  0  0  0999 V2000
  -15.2290    5.3670  -75.5660 C   0  0  0  0  0  0  0  0  0  0  0  0
  -13.7440    5.6320  -75.8740 C   0  0  0  0  0  0  0  0  0  0  0  0
  -12.8680    5.3330  -74.6480 C   0  0  0  0  0  0  0  0  0  0  0  0
  -13.3160    4.8520  -77.0940 C   0  0  0  0  0  0  0  0  0  0  0  0
  -12.0500    4.2850  -77.1380 C   0  0  0  0  0  0  0  0  0  0  0  0
  -11.1190    4.7880  -78.0180 C   0  0  0  0  0  0  0  0  0  0  0  0
  -11.7040    3.2080  -76.3080 C   0  0  0  0  0  0  0  0  0  0  0  0
   -9.7610    4.2100  -78.1110 C   0  0  0  0  0  0  0  0  0  0  0  0
  -10.4180    2.6670  -76.3990 C   0  0  0  0  0  0  0  0  0  0  0  0
   -9.4670    3.1600  -77.2840 C   0  0  0  0  0  0  0  0  0  0  0  0
   -9.9730    1.5330  -75.5700 C   0  0  0  0  0  0  0  0  0  0  0  0
   -8.6590    1.3950  -76.0140 C   0  0  0  0  0  0  0  0  0  0  0  0
   -7.9040    2.5660  -76.6290 C   0  0  0  0  0  0  0  0  0  0  0  0
   -7.0350    2.0310  -77.6810 N   0  0  0  0  0  0  0  0  0  0  0  0
   -7.1470    2.4260  -79.0550 C   0  0  0  0  0  0  0  0  0  0  0  0
   -7.4700    1.4170  -79.9560 C   0  0  0  0  0  0  0  0  0  0  0  0
   -7.5540    1.7000  -81.3210 C   0  0  0  0  0  0  0  0  0  0  0  0
   -7.7100    0.1200  -79.4430 C   0  0  0  0  0  0  0  0  0  0  0  0
   -7.9080    0.6090  -82.3180 C   0  0  0  0  0  0  0  0  0  0  0  0
   -8.0450   -0.9500  -80.2850 C   0  0  0  0  0  0  0  0  0  0  0  0
   -8.1480   -0.7510  -81.6670 C   0  0  0  0  0  0  0  0  0  0  0  0
  1  2  1  0
  2  3  1  0
  2  4  1  0
  4  5  1  0
  5  6  2  0
  5  7  1  0
  6  8  1  0
  7  9  2  0
  8 10  2  0
  9 10  1  0
  9 11  1  0
 11 12  3  0
 12 13  1  0
 13 14  1  0
 14 15  1  0
 15 16  1  0
 16 17  2  0
 16 18  1  0
 17 19  1  0
 18 20  2  0
 19 21  2  0
 20 21  1  0
M  END
>  <ref_url>  (364) 
https://fakepage.com

>  <submitter_name>  (364) 
Steph Wills

>  <submitter_email>  (364) 
stephanie.wills@dtc.ox.ac.uk

>  <submitter_institution>  (364) 
University of Oxford

>  <generation_date>  (364) 
2020-06-04

>  <method>  (364) 
Fragment network

>  <ref_mols>  (364) 
x0176_0B,x0212_0B

>  <ref_pdb>  (364) 
references/x0176-0B-x0212-0B-452615.holo_minimised_nolig.pdb

>  <original SMILES>  (364) 
CC(C)Cc1cccc(C#CCNCc2ccccc2)c1

>  <synthon>  (364) 
[Xe]c1ccccc1

>  <original_name>  (364) 
x0176-0B-x0212-0B-452615

>  <comRMSD_score>  (364) 
0.9325716013618832

>  <IF_score>  (364) 
0.3125

>  <SuCOS_score>  (364) 
0.5158250748182036

>  <compound_ID>  (364) 
CHEMSPACE-BB:CSMB00109399479

$$$$

     RDKit          3D

 23 24  0  0  0  0  0  0  0  0999 V2000
  -12.7730    6.3520  -76.6460 C   0  0  0  0  0  0  0  0  0  0  0  0
  -13.2150    5.0560  -77.3150 C   0  0  0  0  0  0  0  0  0  0  0  0
  -13.7740    5.3290  -78.7180 C   0  0  0  0  0  0  0  0  0  0  0  0
  -12.1180    4.0010  -77.3110 C   0  0  0  0  0  0  0  0  0  0  0  0
  -10.9730    4.0840  -78.1130 C   0  0  0  0  0  0  0  0  0  0  0  0
  -12.2520    2.8890  -76.4700 C   0  0  0  0  0  0  0  0  0  0  0  0
  -10.0040    3.0680  -78.0700 C   0  0  0  0  0  0  0  0  0  0  0  0
  -11.2830    1.8810  -76.4290 C   0  0  0  0  0  0  0  0  0  0  0  0
  -10.1510    1.9560  -77.2290 C   0  0  0  0  0  0  0  0  0  0  0  0
   -9.1360    0.9620  -77.2280 N   0  0  0  0  0  0  0  0  0  0  0  0
   -7.7410    1.0600  -77.2060 C   0  0  0  0  0  0  0  0  0  0  0  0
   -6.7060   -0.1550  -76.6690 S   0  0  0  0  0  0  0  0  0  0  0  0
   -7.2900    2.3040  -77.6950 N   0  0  0  0  0  0  0  0  0  0  0  0
   -7.8130    3.5340  -77.0950 C   0  0  0  0  0  0  0  0  0  0  0  0
   -6.9740    2.4400  -79.1210 C   0  0  0  0  0  0  0  0  0  0  0  0
   -8.9370    3.2720  -76.0870 C   0  0  0  0  0  0  0  0  0  0  0  0
   -7.8340    1.5320  -79.9620 C   0  0  0  0  0  0  0  0  0  0  0  0
   -8.9040    1.9330  -75.6070 O   0  0  0  0  0  0  0  0  0  0  0  0
   -8.2240    0.2630  -79.5070 C   0  0  0  0  0  0  0  0  0  0  0  0
   -8.2610    1.9550  -81.2210 C   0  0  0  0  0  0  0  0  0  0  0  0
   -9.0240   -0.5600  -80.2840 C   0  0  0  0  0  0  0  0  0  0  0  0
   -9.0580    1.1230  -81.9950 C   0  0  0  0  0  0  0  0  0  0  0  0
   -9.4400   -0.1270  -81.5240 C   0  0  0  0  0  0  0  0  0  0  0  0
  1  2  1  0
  2  3  1  0
  2  4  1  0
  4  5  2  0
  4  6  1  0
  5  7  1  0
  6  8  2  0
  7  9  2  0
  8  9  1  0
  9 10  1  0
 10 11  1  0
 11 12  2  0
 11 13  1  0
 13 14  1  0
 13 15  1  0
 14 16  1  0
 15 17  1  0
 16 18  1  0
 17 19  2  0
 17 20  1  0
 19 21  1  0
 20 22  2  0
 21 23  2  0
 22 23  1  0
M  END
>  <ref_url>  (365) 
https://fakepage.com

>  <submitter_name>  (365) 
Steph Wills

>  <submitter_email>  (365) 
stephanie.wills@dtc.ox.ac.uk

>  <submitter_institution>  (365) 
University of Oxford

>  <generation_date>  (365) 
2020-06-04

>  <method>  (365) 
Fragment network

>  <ref_mols>  (365) 
x0176_0B,x0212_0B

>  <ref_pdb>  (365) 
references/x0176-0B-x0212-0B-452978.holo_minimised_nolig.pdb

>  <original SMILES>  (365) 
CC(C)c1ccc(NC(=S)N(CCO)Cc2ccccc2)cc1

>  <synthon>  (365) 
[Xe]c1ccccc1

>  <original_name>  (365) 
x0176-0B-x0212-0B-452978

>  <comRMSD_score>  (365) 
0.8022338648505453

>  <IF_score>  (365) 
0.625

>  <SuCOS_score>  (365) 
0.4967106370647296

>  <compound_ID>  (365) 
MOLPORT:009-205-260

$$$$

     RDKit          3D

 21 22  0  0  0  0  0  0  0  0999 V2000
  -13.0620    6.2460  -77.0280 C   0  0  0  0  0  0  0  0  0  0  0  0
  -13.1480    4.9350  -76.2990 C   0  0  1  0  0  0  0  0  0  0  0  0
  -14.2750    4.2070  -76.7780 O   0  0  0  0  0  0  0  0  0  0  0  0
  -11.8550    4.1560  -76.3360 C   0  0  0  0  0  0  0  0  0  0  0  0
  -10.7810    4.5250  -77.1470 C   0  0  0  0  0  0  0  0  0  0  0  0
  -11.7200    3.0290  -75.5230 C   0  0  0  0  0  0  0  0  0  0  0  0
   -9.6010    3.7840  -77.1210 C   0  0  0  0  0  0  0  0  0  0  0  0
  -10.5390    2.2910  -75.5060 C   0  0  0  0  0  0  0  0  0  0  0  0
   -9.4710    2.6610  -76.2960 C   0  0  0  0  0  0  0  0  0  0  0  0
   -8.2460    1.9760  -76.3220 N   0  0  0  0  0  0  0  0  0  0  0  0
   -7.0960    2.4210  -76.9070 C   0  0  0  0  0  0  0  0  0  0  0  0
   -5.9830    2.4120  -76.3910 O   0  0  0  0  0  0  0  0  0  0  0  0
   -7.3200    2.9160  -78.1840 N   0  0  0  0  0  0  0  0  0  0  0  0
   -8.4770    3.7170  -78.5480 C   0  0  0  0  0  0  0  0  0  0  0  0
   -6.7480    2.1820  -79.2990 C   0  0  0  0  0  0  0  0  0  0  0  0
   -7.8210    1.4570  -80.0730 C   0  0  0  0  0  0  0  0  0  0  0  0
   -8.2870    0.2150  -79.6160 C   0  0  0  0  0  0  0  0  0  0  0  0
   -8.3650    1.9990  -81.2430 C   0  0  0  0  0  0  0  0  0  0  0  0
   -9.2760   -0.4680  -80.3160 C   0  0  0  0  0  0  0  0  0  0  0  0
   -9.3500    1.3100  -81.9370 C   0  0  0  0  0  0  0  0  0  0  0  0
   -9.8060    0.0790  -81.4750 C   0  0  0  0  0  0  0  0  0  0  0  0
  2  1  1  6
  2  3  1  0
  2  4  1  0
  4  5  2  0
  4  6  1  0
  5  7  1  0
  6  8  2  0
  7  9  2  0
  8  9  1  0
  9 10  1  0
 10 11  1  0
 11 12  2  0
 11 13  1  0
 13 14  1  0
 13 15  1  0
 15 16  1  0
 16 17  2  0
 16 18  1  0
 17 19  1  0
 18 20  2  0
 19 21  2  0
 20 21  1  0
M  END
>  <ref_url>  (366) 
https://fakepage.com

>  <submitter_name>  (366) 
Steph Wills

>  <submitter_email>  (366) 
stephanie.wills@dtc.ox.ac.uk

>  <submitter_institution>  (366) 
University of Oxford

>  <generation_date>  (366) 
2020-06-04

>  <method>  (366) 
Fragment network

>  <ref_mols>  (366) 
x0176_0B,x0212_0B

>  <ref_pdb>  (366) 
references/x0176-0B-x0212-0B-453814.holo_minimised_nolig.pdb

>  <original SMILES>  (366) 
CC(O)c1ccc(NC(=O)N(C)Cc2ccccc2)cc1

>  <synthon>  (366) 
[Xe]c1ccccc1

>  <original_name>  (366) 
x0176-0B-x0212-0B-453814

>  <comRMSD_score>  (366) 
0.7981239960328704

>  <IF_score>  (366) 
0.675

>  <SuCOS_score>  (366) 
0.4666538661056048

>  <compound_ID>  (366) 
CHEMSPACE-BB:CSMB00011458242

$$$$

     RDKit          3D

 21 22  0  0  0  0  0  0  0  0999 V2000
  -13.7040    5.9140  -76.1570 C   0  0  0  0  0  0  0  0  0  0  0  0
  -13.3080    5.1890  -77.4230 C   0  0  1  0  0  0  0  0  0  0  0  0
  -12.8340    6.1490  -78.3500 O   0  0  0  0  0  0  0  0  0  0  0  0
  -12.2640    4.1540  -77.1370 C   0  0  0  0  0  0  0  0  0  0  0  0
  -11.0670    4.1070  -77.8460 C   0  0  0  0  0  0  0  0  0  0  0  0
  -12.5050    3.2100  -76.1260 C   0  0  0  0  0  0  0  0  0  0  0  0
  -10.1520    3.1280  -77.5260 C   0  0  0  0  0  0  0  0  0  0  0  0
  -11.5760    2.2360  -75.8190 C   0  0  0  0  0  0  0  0  0  0  0  0
  -10.4130    2.2070  -76.5230 C   0  0  0  0  0  0  0  0  0  0  0  0
   -9.1670    1.0450  -76.1890 S   0  0  0  0  0  0  0  0  0  0  0  0
   -8.3120    2.6300  -76.1180 C   0  0  0  0  0  0  0  0  0  0  0  0
   -7.9810    3.1410  -77.4910 C   0  0  0  0  0  0  0  0  0  0  0  0
   -8.6210    4.0430  -78.0260 O   0  0  0  0  0  0  0  0  0  0  0  0
   -6.9330    2.5160  -78.0780 N   0  0  0  0  0  0  0  0  0  0  0  0
   -6.7850    2.5400  -79.4970 C   0  0  0  0  0  0  0  0  0  0  0  0
   -7.7190    1.5630  -80.1580 C   0  0  0  0  0  0  0  0  0  0  0  0
   -8.3050    1.9300  -81.3600 C   0  0  0  0  0  0  0  0  0  0  0  0
   -8.0100    0.3080  -79.6060 C   0  0  0  0  0  0  0  0  0  0  0  0
   -9.1630    1.0660  -82.0130 C   0  0  0  0  0  0  0  0  0  0  0  0
   -8.8800   -0.5650  -80.2680 C   0  0  0  0  0  0  0  0  0  0  0  0
   -9.4540   -0.1830  -81.4740 C   0  0  0  0  0  0  0  0  0  0  0  0
  2  1  1  1
  2  3  1  0
  2  4  1  0
  4  5  2  0
  4  6  1  0
  5  7  1  0
  6  8  2  0
  7  9  2  0
  8  9  1  0
  9 10  1  0
 10 11  1  0
 11 12  1  0
 12 13  2  0
 12 14  1  0
 14 15  1  0
 15 16  1  0
 16 17  2  0
 16 18  1  0
 17 19  1  0
 18 20  2  0
 19 21  2  0
 20 21  1  0
M  END
>  <ref_url>  (367) 
https://fakepage.com

>  <submitter_name>  (367) 
Steph Wills

>  <submitter_email>  (367) 
stephanie.wills@dtc.ox.ac.uk

>  <submitter_institution>  (367) 
University of Oxford

>  <generation_date>  (367) 
2020-06-04

>  <method>  (367) 
Fragment network

>  <ref_mols>  (367) 
x0176_0B,x0212_0B

>  <ref_pdb>  (367) 
references/x0176-0B-x0212-0B-456590.holo_minimised_nolig.pdb

>  <original SMILES>  (367) 
CC(O)c1ccc(SCC(=O)NCc2ccccc2)cc1

>  <synthon>  (367) 
[Xe]c1ccccc1

>  <original_name>  (367) 
x0176-0B-x0212-0B-456590

>  <comRMSD_score>  (367) 
0.8099598755494009

>  <IF_score>  (367) 
0.5

>  <SuCOS_score>  (367) 
0.4628061649650948

>  <compound_ID>  (367) 
CHEMSPACE-BB:CSMB00016861418

$$$$

     RDKit          3D

 21 22  0  0  0  0  0  0  0  0999 V2000
  -13.1320    6.4510  -76.1330 C   0  0  0  0  0  0  0  0  0  0  0  0
  -13.1520    5.2090  -77.0020 C   0  0  2  0  0  0  0  0  0  0  0  0
  -14.4190    4.5620  -76.8830 O   0  0  0  0  0  0  0  0  0  0  0  0
  -12.0370    4.2790  -76.5950 C   0  0  0  0  0  0  0  0  0  0  0  0
  -12.2350    3.2360  -75.6810 C   0  0  0  0  0  0  0  0  0  0  0  0
  -10.7670    4.4480  -77.1320 C   0  0  0  0  0  0  0  0  0  0  0  0
  -11.1850    2.3920  -75.3150 C   0  0  0  0  0  0  0  0  0  0  0  0
   -9.7240    3.6100  -76.7620 C   0  0  0  0  0  0  0  0  0  0  0  0
   -9.9240    2.5820  -75.8590 C   0  0  0  0  0  0  0  0  0  0  0  0
   -8.5670    3.9000  -77.3590 O   0  0  0  0  0  0  0  0  0  0  0  0
   -8.4190    3.2650  -78.6000 C   0  0  0  0  0  0  0  0  0  0  0  0
   -8.6810    1.7840  -78.3370 C   0  0  0  0  0  0  0  0  0  0  0  0
   -7.5140    1.1220  -77.5980 C   0  0  0  0  0  0  0  0  0  0  0  0
   -6.3060    1.3160  -78.3400 O   0  0  0  0  0  0  0  0  0  0  0  0
   -6.5270    1.9500  -79.5970 C   0  0  0  0  0  0  0  0  0  0  0  0
   -7.6650    1.2920  -80.3330 C   0  0  0  0  0  0  0  0  0  0  0  0
   -8.0650   -0.0110  -79.9880 C   0  0  0  0  0  0  0  0  0  0  0  0
   -8.3390    1.9580  -81.3590 C   0  0  0  0  0  0  0  0  0  0  0  0
   -9.1230   -0.6250  -80.6530 C   0  0  0  0  0  0  0  0  0  0  0  0
   -9.3870    1.3360  -82.0210 C   0  0  0  0  0  0  0  0  0  0  0  0
   -9.7820    0.0510  -81.6680 C   0  0  0  0  0  0  0  0  0  0  0  0
  2  1  1  1
  2  3  1  0
  2  4  1  0
  4  5  2  0
  4  6  1  0
  5  7  1  0
  6  8  2  0
  7  9  2  0
  8  9  1  0
  8 10  1  0
 10 11  1  0
 11 12  1  0
 12 13  1  0
 13 14  1  0
 14 15  1  0
 15 16  1  0
 16 17  2  0
 16 18  1  0
 17 19  1  0
 18 20  2  0
 19 21  2  0
 20 21  1  0
M  END
>  <ref_url>  (368) 
https://fakepage.com

>  <submitter_name>  (368) 
Steph Wills

>  <submitter_email>  (368) 
stephanie.wills@dtc.ox.ac.uk

>  <submitter_institution>  (368) 
University of Oxford

>  <generation_date>  (368) 
2020-06-04

>  <method>  (368) 
Fragment network

>  <ref_mols>  (368) 
x0176_0B,x0212_0B

>  <ref_pdb>  (368) 
references/x0176-0B-x0212-0B-458458.holo_minimised_nolig.pdb

>  <original SMILES>  (368) 
CC(O)c1cccc(OCCCOCc2ccccc2)c1

>  <synthon>  (368) 
[Xe]c1ccccc1

>  <original_name>  (368) 
x0176-0B-x0212-0B-458458

>  <comRMSD_score>  (368) 
0.9063959207859392

>  <IF_score>  (368) 
0.8

>  <SuCOS_score>  (368) 
0.4314730232048712

>  <compound_ID>  (368) 
CHEMSPACE-BB:CSMB00013374914, CHEMSPACE-BB:CSMB00013374919, CHEMSPACE-BB:CSMB00013374920

$$$$

     RDKit          3D

 21 22  0  0  0  0  0  0  0  0999 V2000
  -13.3150    5.1240  -77.4250 C   0  0  0  0  0  0  0  0  0  0  0  0
  -12.0150    4.4750  -77.1130 C   0  0  0  0  0  0  0  0  0  0  0  0
  -10.8640    4.9640  -77.6760 C   0  0  0  0  0  0  0  0  0  0  0  0
  -11.9230    3.3810  -76.2710 C   0  0  0  0  0  0  0  0  0  0  0  0
   -9.6390    4.3570  -77.4000 C   0  0  0  0  0  0  0  0  0  0  0  0
  -10.6770    2.7910  -75.9930 C   0  0  0  0  0  0  0  0  0  0  0  0
   -9.5080    3.2830  -76.5650 C   0  0  0  0  0  0  0  0  0  0  0  0
   -8.2140    2.8080  -76.4040 N   0  0  0  0  0  0  0  0  0  0  0  0
   -7.6620    2.2000  -75.2150 C   0  0  0  0  0  0  0  0  0  0  0  0
   -6.5780    1.1980  -75.5980 C   0  0  0  0  0  0  0  0  0  0  0  0
   -5.9440    1.4200  -76.9710 C   0  0  0  0  0  0  0  0  0  0  0  0
   -5.1670    2.7400  -77.1030 C   0  0  0  0  0  0  0  0  0  0  0  0
   -4.3600    2.8030  -78.3300 N   0  0  0  0  0  0  0  0  0  0  0  0
   -4.9140    1.7830  -79.2150 O   0  0  0  0  0  0  0  0  0  0  0  0
   -6.2260    2.2110  -79.5920 C   0  0  0  0  0  0  0  0  0  0  0  0
   -7.0120    1.1320  -80.2950 C   0  0  0  0  0  0  0  0  0  0  0  0
   -7.3220   -0.1170  -79.7410 C   0  0  0  0  0  0  0  0  0  0  0  0
   -7.4680    1.4200  -81.5800 C   0  0  0  0  0  0  0  0  0  0  0  0
   -8.0750   -1.0440  -80.4670 C   0  0  0  0  0  0  0  0  0  0  0  0
   -8.2140    0.5040  -82.3040 C   0  0  0  0  0  0  0  0  0  0  0  0
   -8.5210   -0.7320  -81.7480 C   0  0  0  0  0  0  0  0  0  0  0  0
  1  2  1  0
  2  3  2  0
  2  4  1  0
  3  5  1  0
  4  6  2  0
  5  7  2  0
  6  7  1  0
  7  8  1  0
  8  9  1  0
  9 10  1  0
 10 11  1  0
 11 12  1  0
 12 13  1  0
 13 14  1  0
 14 15  1  0
 15 16  1  0
 16 17  2  0
 16 18  1  0
 17 19  1  0
 18 20  2  0
 19 21  2  0
 20 21  1  0
M  END
>  <ref_url>  (369) 
https://fakepage.com

>  <submitter_name>  (369) 
Steph Wills

>  <submitter_email>  (369) 
stephanie.wills@dtc.ox.ac.uk

>  <submitter_institution>  (369) 
University of Oxford

>  <generation_date>  (369) 
2020-06-04

>  <method>  (369) 
Fragment network

>  <ref_mols>  (369) 
x0176_0B,x0212_0B

>  <ref_pdb>  (369) 
references/x0176-0B-x0212-0B-458835.holo_minimised_nolig.pdb

>  <original SMILES>  (369) 
Cc1ccc(NCCCCNOCc2ccccc2)cc1

>  <synthon>  (369) 
[Xe]c1ccccc1

>  <original_name>  (369) 
x0176-0B-x0212-0B-458835

>  <comRMSD_score>  (369) 
0.9935392886956292

>  <IF_score>  (369) 
0.45

>  <SuCOS_score>  (369) 
0.3567314727499576

>  <compound_ID>  (369) 
CHEMSPACE-BB:CSMB00155167970

$$$$

     RDKit          3D

 21 22  0  0  0  0  0  0  0  0999 V2000
  -14.1920    5.9560  -74.9020 N   0  0  0  0  0  0  0  0  0  0  0  0
  -13.5720    5.7960  -75.8680 C   0  0  0  0  0  0  0  0  0  0  0  0
  -12.7140    5.5660  -77.0930 C   0  0  0  0  0  0  0  0  0  0  0  0
  -11.5820    4.5660  -76.7950 C   0  0  0  0  0  0  0  0  0  0  0  0
  -10.3850    4.6540  -77.7440 C   0  0  0  0  0  0  0  0  0  0  0  0
  -11.5930    3.6390  -75.7590 C   0  0  0  0  0  0  0  0  0  0  0  0
   -9.2700    3.6930  -77.4460 C   0  0  0  0  0  0  0  0  0  0  0  0
  -10.5090    2.7770  -75.5590 C   0  0  0  0  0  0  0  0  0  0  0  0
   -9.3710    2.7960  -76.3690 C   0  0  0  0  0  0  0  0  0  0  0  0
   -8.4600    2.0270  -76.1310 O   0  0  0  0  0  0  0  0  0  0  0  0
   -7.6800    1.5920  -77.2200 C   0  0  0  0  0  0  0  0  0  0  0  0
   -6.5460    2.4020  -77.2600 C   0  0  0  0  0  0  0  0  0  0  0  0
   -5.4690    1.9480  -78.2250 C   0  0  0  0  0  0  0  0  0  0  0  0
   -5.8000    1.9540  -79.5420 O   0  0  0  0  0  0  0  0  0  0  0  0
   -7.0050    2.6800  -79.7350 C   0  0  0  0  0  0  0  0  0  0  0  0
   -7.8800    1.7260  -80.2460 C   0  0  0  0  0  0  0  0  0  0  0  0
   -8.0930    0.3620  -79.6310 C   0  0  0  0  0  0  0  0  0  0  0  0
   -8.5820    2.0650  -81.3770 C   0  0  0  0  0  0  0  0  0  0  0  0
   -9.0000   -0.5140  -80.2290 C   0  0  0  0  0  0  0  0  0  0  0  0
   -9.4690    1.1650  -81.9320 C   0  0  0  0  0  0  0  0  0  0  0  0
   -9.6700   -0.0910  -81.3690 C   0  0  0  0  0  0  0  0  0  0  0  0
  1  2  3  0
  2  3  1  0
  3  4  1  0
  4  5  2  0
  4  6  1  0
  5  7  1  0
  6  8  2  0
  7  9  2  0
  8  9  1  0
  9 10  1  0
 10 11  1  0
 11 12  1  0
 12 13  1  0
 13 14  1  0
 14 15  1  0
 15 16  1  0
 16 17  2  0
 16 18  1  0
 17 19  1  0
 18 20  2  0
 19 21  2  0
 20 21  1  0
M  END
>  <ref_url>  (370) 
https://fakepage.com

>  <submitter_name>  (370) 
Steph Wills

>  <submitter_email>  (370) 
stephanie.wills@dtc.ox.ac.uk

>  <submitter_institution>  (370) 
University of Oxford

>  <generation_date>  (370) 
2020-06-04

>  <method>  (370) 
Fragment network

>  <ref_mols>  (370) 
x0176_0B,x0212_0B

>  <ref_pdb>  (370) 
references/x0176-0B-x0212-0B-459016.holo_minimised_nolig.pdb

>  <original SMILES>  (370) 
N#CCc1ccc(OCCCOCc2ccccc2)cc1

>  <synthon>  (370) 
[Xe]c1ccccc1

>  <original_name>  (370) 
x0176-0B-x0212-0B-459016

>  <comRMSD_score>  (370) 
0.6731581634679005

>  <IF_score>  (370) 
0.675

>  <SuCOS_score>  (370) 
0.4807476934258651

>  <compound_ID>  (370) 
CHEMSPACE-BB:CSMB00013373707

$$$$

     RDKit          3D

 20 21  0  0  0  0  0  0  0  0999 V2000
  -12.7340    5.5610  -74.4640 C   0  0  0  0  0  0  0  0  0  0  0  0
  -13.8030    5.8400  -75.5140 C   0  0  0  0  0  0  0  0  0  0  0  0
  -13.3580    5.4520  -76.9210 C   0  0  0  0  0  0  0  0  0  0  0  0
  -12.0950    4.5900  -76.8440 C   0  0  0  0  0  0  0  0  0  0  0  0
  -12.0920    3.4200  -75.8930 C   0  0  0  0  0  0  0  0  0  0  0  0
  -11.0060    4.8830  -77.6260 C   0  0  0  0  0  0  0  0  0  0  0  0
  -10.9490    2.6380  -75.8280 C   0  0  0  0  0  0  0  0  0  0  0  0
   -9.9040    4.0770  -77.5240 C   0  0  0  0  0  0  0  0  0  0  0  0
   -9.8980    2.9900  -76.6420 C   0  0  0  0  0  0  0  0  0  0  0  0
   -8.8810    2.4070  -76.6820 O   0  0  0  0  0  0  0  0  0  0  0  0
   -8.1800    3.0950  -77.6340 C   0  0  0  0  0  0  0  0  0  0  0  0
   -6.7260    2.8700  -77.5370 C   0  0  0  0  0  0  0  0  0  0  0  0
   -6.1770    1.9090  -78.1650 N   0  0  0  0  0  0  0  0  0  0  0  0
   -6.5700    2.1810  -79.4630 C   0  0  0  0  0  0  0  0  0  0  0  0
   -7.6260    1.4770  -80.0830 C   0  0  0  0  0  0  0  0  0  0  0  0
   -8.1310    0.1660  -79.5510 C   0  0  0  0  0  0  0  0  0  0  0  0
   -8.2350    1.9930  -81.2280 C   0  0  0  0  0  0  0  0  0  0  0  0
   -9.1750   -0.4870  -80.2100 C   0  0  0  0  0  0  0  0  0  0  0  0
   -9.2670    1.3000  -81.8470 C   0  0  0  0  0  0  0  0  0  0  0  0
   -9.7380    0.0790  -81.3540 C   0  0  0  0  0  0  0  0  0  0  0  0
  1  2  1  0
  2  3  1  0
  3  4  1  0
  4  5  2  0
  4  6  1  0
  5  7  1  0
  6  8  2  0
  7  9  2  0
  8  9  1  0
  9 10  1  0
 10 11  1  0
 11 12  1  0
 12 13  1  0
 13 14  1  0
 14 15  1  0
 15 16  2  0
 15 17  1  0
 16 18  1  0
 17 19  2  0
 18 20  2  0
 19 20  1  0
M  END
>  <ref_url>  (371) 
https://fakepage.com

>  <submitter_name>  (371) 
Steph Wills

>  <submitter_email>  (371) 
stephanie.wills@dtc.ox.ac.uk

>  <submitter_institution>  (371) 
University of Oxford

>  <generation_date>  (371) 
2020-06-04

>  <method>  (371) 
Fragment network

>  <ref_mols>  (371) 
x0176_0B,x0212_0B

>  <ref_pdb>  (371) 
references/x0176-0B-x0212-0B-460052.holo_minimised_nolig.pdb

>  <original SMILES>  (371) 
CCCc1ccc(OCCNCc2ccccc2)cc1

>  <synthon>  (371) 
[Xe]c1ccccc1

>  <original_name>  (371) 
x0176-0B-x0212-0B-460052

>  <comRMSD_score>  (371) 
0.9243774120996248

>  <IF_score>  (371) 
0.675

>  <SuCOS_score>  (371) 
0.4883992554293938

>  <compound_ID>  (371) 
CHEMSPACE-BB:CSMB00011873393

$$$$

     RDKit          3D

 20 21  0  0  0  0  0  0  0  0999 V2000
  -13.5700    5.4350  -75.4200 C   0  0  0  0  0  0  0  0  0  0  0  0
  -13.0700    5.2700  -76.8030 C   0  0  0  0  0  0  0  0  0  0  0  0
  -12.9180    6.4270  -77.5540 C   0  0  0  0  0  0  0  0  0  0  0  0
  -11.7570    4.5130  -76.7430 C   0  0  0  0  0  0  0  0  0  0  0  0
  -11.5810    3.5470  -75.7300 C   0  0  0  0  0  0  0  0  0  0  0  0
  -10.7550    4.8020  -77.6940 C   0  0  0  0  0  0  0  0  0  0  0  0
  -10.2040    2.8490  -75.7460 C   0  0  0  0  0  0  0  0  0  0  0  0
   -9.5160    4.1840  -77.7220 C   0  0  0  0  0  0  0  0  0  0  0  0
   -9.1810    3.2340  -76.7970 C   0  0  0  0  0  0  0  0  0  0  0  0
   -8.0630    2.8080  -76.9430 O   0  0  0  0  0  0  0  0  0  0  0  0
   -7.8740    1.4150  -77.0210 C   0  0  0  0  0  0  0  0  0  0  0  0
   -6.4600    0.9470  -77.3890 C   0  0  0  0  0  0  0  0  0  0  0  0
   -6.0500    1.4460  -78.5800 O   0  0  0  0  0  0  0  0  0  0  0  0
   -6.8980    2.3230  -79.3720 C   0  0  0  0  0  0  0  0  0  0  0  0
   -7.8370    1.5440  -80.0580 C   0  0  0  0  0  0  0  0  0  0  0  0
   -8.4080    2.0220  -81.2180 C   0  0  0  0  0  0  0  0  0  0  0  0
   -8.2150    0.2800  -79.5920 C   0  0  0  0  0  0  0  0  0  0  0  0
   -9.3430    1.2750  -81.9240 C   0  0  0  0  0  0  0  0  0  0  0  0
   -9.1570   -0.4790  -80.2960 C   0  0  0  0  0  0  0  0  0  0  0  0
   -9.7190    0.0200  -81.4590 C   0  0  0  0  0  0  0  0  0  0  0  0
  1  2  1  0
  2  3  1  0
  2  4  1  0
  4  5  2  0
  4  6  1  0
  5  7  1  0
  6  8  2  0
  7  9  2  0
  8  9  1  0
  9 10  1  0
 10 11  1  0
 11 12  1  0
 12 13  1  0
 13 14  1  0
 14 15  1  0
 15 16  2  0
 15 17  1  0
 16 18  1  0
 17 19  2  0
 18 20  2  0
 19 20  1  0
M  END
>  <ref_url>  (372) 
https://fakepage.com

>  <submitter_name>  (372) 
Steph Wills

>  <submitter_email>  (372) 
stephanie.wills@dtc.ox.ac.uk

>  <submitter_institution>  (372) 
University of Oxford

>  <generation_date>  (372) 
2020-06-04

>  <method>  (372) 
Fragment network

>  <ref_mols>  (372) 
x0176_0B,x0212_0B

>  <ref_pdb>  (372) 
references/x0176-0B-x0212-0B-460943.holo_minimised_nolig.pdb

>  <original SMILES>  (372) 
CC(C)c1ccc(OCCOCc2ccccc2)cc1

>  <synthon>  (372) 
[Xe]c1ccccc1

>  <original_name>  (372) 
x0176-0B-x0212-0B-460943

>  <comRMSD_score>  (372) 
0.6420780461838757

>  <IF_score>  (372) 
0.675

>  <SuCOS_score>  (372) 
0.4782029182868045

>  <compound_ID>  (372) 
CHEMSPACE-BB:CSMB00014808767

$$$$

     RDKit          3D

 21 22  0  0  0  0  0  0  0  0999 V2000
  -13.6090    5.5860  -75.5450 C   0  0  0  0  0  0  0  0  0  0  0  0
  -13.1770    5.2010  -76.9050 C   0  0  0  0  0  0  0  0  0  0  0  0
  -13.0960    6.2490  -77.8020 C   0  0  0  0  0  0  0  0  0  0  0  0
  -11.8280    4.5120  -76.7720 C   0  0  0  0  0  0  0  0  0  0  0  0
  -10.7990    4.8110  -77.6930 C   0  0  0  0  0  0  0  0  0  0  0  0
  -11.6420    3.5990  -75.7210 C   0  0  0  0  0  0  0  0  0  0  0  0
   -9.4670    4.0840  -77.4340 C   0  0  0  0  0  0  0  0  0  0  0  0
  -10.4550    2.9340  -75.4700 C   0  0  0  0  0  0  0  0  0  0  0  0
   -9.3470    3.1410  -76.2570 C   0  0  0  0  0  0  0  0  0  0  0  0
   -8.0420    2.5530  -76.0660 N   0  0  0  0  0  0  0  0  0  0  0  0
   -7.5520    1.7480  -77.1190 C   0  0  0  0  0  0  0  0  0  0  0  0
   -7.3040   -0.0590  -77.0250 S   0  0  0  0  0  0  0  0  0  0  0  0
   -7.2700    2.5310  -78.1710 N   0  0  0  0  0  0  0  0  0  0  0  0
   -6.9010    2.1550  -79.4140 C   0  0  0  0  0  0  0  0  0  0  0  0
   -5.8310    2.3680  -79.9580 O   0  0  0  0  0  0  0  0  0  0  0  0
   -7.8600    1.4440  -80.1230 C   0  0  0  0  0  0  0  0  0  0  0  0
   -8.2660    0.1770  -79.6890 C   0  0  0  0  0  0  0  0  0  0  0  0
   -8.4280    1.9910  -81.2690 C   0  0  0  0  0  0  0  0  0  0  0  0
   -9.2260   -0.5360  -80.3810 C   0  0  0  0  0  0  0  0  0  0  0  0
   -9.3810    1.2810  -81.9600 C   0  0  0  0  0  0  0  0  0  0  0  0
   -9.7870    0.0200  -81.5240 C   0  0  0  0  0  0  0  0  0  0  0  0
  1  2  1  0
  2  3  1  0
  2  4  1  0
  4  5  2  0
  4  6  1  0
  5  7  1  0
  6  8  2  0
  7  9  2  0
  8  9  1  0
  9 10  1  0
 10 11  1  0
 11 12  2  0
 11 13  1  0
 13 14  1  0
 14 15  2  0
 14 16  1  0
 16 17  2  0
 16 18  1  0
 17 19  1  0
 18 20  2  0
 19 21  2  0
 20 21  1  0
M  END
>  <ref_url>  (373) 
https://fakepage.com

>  <submitter_name>  (373) 
Steph Wills

>  <submitter_email>  (373) 
stephanie.wills@dtc.ox.ac.uk

>  <submitter_institution>  (373) 
University of Oxford

>  <generation_date>  (373) 
2020-06-04

>  <method>  (373) 
Fragment network

>  <ref_mols>  (373) 
x0176_0B,x0212_0B

>  <ref_pdb>  (373) 
references/x0176-0B-x0212-0B-465696.holo_minimised_nolig.pdb

>  <original SMILES>  (373) 
CC(C)c1ccc(NC(=S)NC(=O)c2ccccc2)cc1

>  <synthon>  (373) 
[Xe]c1ccccc1

>  <original_name>  (373) 
x0176-0B-x0212-0B-465696

>  <comRMSD_score>  (373) 
0.7244708988864441

>  <IF_score>  (373) 
0.675

>  <SuCOS_score>  (373) 
0.5070716925704678

>  <compound_ID>  (373) 
MOLPORT:002-917-205

$$$$

     RDKit          3D

 21 22  0  0  0  0  0  0  0  0999 V2000
  -12.4580    5.8430  -74.7500 C   0  0  0  0  0  0  0  0  0  0  0  0
  -13.5240    5.7610  -75.8470 C   0  0  0  0  0  0  0  0  0  0  0  0
  -14.7350    5.0580  -75.2500 C   0  0  0  0  0  0  0  0  0  0  0  0
  -13.0720    5.0320  -77.1260 C   0  0  0  0  0  0  0  0  0  0  0  0
  -11.7810    4.3050  -76.9280 C   0  0  0  0  0  0  0  0  0  0  0  0
  -10.6810    4.6480  -77.6940 C   0  0  0  0  0  0  0  0  0  0  0  0
  -11.6760    3.2890  -75.9710 C   0  0  0  0  0  0  0  0  0  0  0  0
   -9.4750    3.9880  -77.5110 C   0  0  0  0  0  0  0  0  0  0  0  0
  -10.4650    2.6290  -75.7910 C   0  0  0  0  0  0  0  0  0  0  0  0
   -9.3680    2.9850  -76.5620 C   0  0  0  0  0  0  0  0  0  0  0  0
   -8.1800    2.3190  -76.3560 N   0  0  0  0  0  0  0  0  0  0  0  0
   -7.0340    2.6480  -77.0070 C   0  0  0  0  0  0  0  0  0  0  0  0
   -6.3300    3.6300  -76.8270 O   0  0  0  0  0  0  0  0  0  0  0  0
   -6.7510    1.6870  -77.9390 N   0  0  0  0  0  0  0  0  0  0  0  0
   -6.3830    2.0110  -79.2970 C   0  0  0  0  0  0  0  0  0  0  0  0
   -7.0880    1.0610  -80.2200 C   0  0  0  0  0  0  0  0  0  0  0  0
   -7.3970    1.4330  -81.5360 C   0  0  0  0  0  0  0  0  0  0  0  0
   -7.4690   -0.2070  -79.7620 C   0  0  0  0  0  0  0  0  0  0  0  0
   -8.0690    0.5490  -82.3810 C   0  0  0  0  0  0  0  0  0  0  0  0
   -8.1420   -1.0850  -80.6090 C   0  0  0  0  0  0  0  0  0  0  0  0
   -8.4380   -0.7080  -81.9150 C   0  0  0  0  0  0  0  0  0  0  0  0
  1  2  1  0
  2  3  1  0
  2  4  1  0
  4  5  1  0
  5  6  2  0
  5  7  1  0
  6  8  1  0
  7  9  2  0
  8 10  2  0
  9 10  1  0
 10 11  1  0
 11 12  1  0
 12 13  2  0
 12 14  1  0
 14 15  1  0
 15 16  1  0
 16 17  2  0
 16 18  1  0
 17 19  1  0
 18 20  2  0
 19 21  2  0
 20 21  1  0
M  END
>  <ref_url>  (374) 
https://fakepage.com

>  <submitter_name>  (374) 
Steph Wills

>  <submitter_email>  (374) 
stephanie.wills@dtc.ox.ac.uk

>  <submitter_institution>  (374) 
University of Oxford

>  <generation_date>  (374) 
2020-06-04

>  <method>  (374) 
Fragment network

>  <ref_mols>  (374) 
x0176_0B,x0212_0B

>  <ref_pdb>  (374) 
references/x0176-0B-x0212-0B-465878.holo_minimised_nolig.pdb

>  <original SMILES>  (374) 
CC(C)Cc1ccc(NC(=O)NCc2ccccc2)cc1

>  <synthon>  (374) 
[Xe]c1ccccc1

>  <original_name>  (374) 
x0176-0B-x0212-0B-465878

>  <comRMSD_score>  (374) 
0.9936615520387204

>  <IF_score>  (374) 
0.3095238095238095

>  <SuCOS_score>  (374) 
0.4598678910556009

>  <compound_ID>  (374) 
REAL:PV-001944393288

$$$$

     RDKit          3D

 21 22  0  0  0  0  0  0  0  0999 V2000
  -13.0000    5.3050  -76.8550 C   0  0  0  0  0  0  0  0  0  0  0  0
  -11.7350    4.4760  -76.7180 C   0  0  0  0  0  0  0  0  0  0  0  0
  -10.6840    4.8100  -77.7670 C   0  0  0  0  0  0  0  0  0  0  0  0
  -11.5350    3.5050  -75.7380 C   0  0  0  0  0  0  0  0  0  0  0  0
   -9.3900    4.0130  -77.6710 C   0  0  0  0  0  0  0  0  0  0  0  0
  -10.3410    2.7830  -75.6650 C   0  0  0  0  0  0  0  0  0  0  0  0
   -9.2880    2.9990  -76.5660 C   0  0  0  0  0  0  0  0  0  0  0  0
   -8.2190    2.4400  -76.5770 O   0  0  0  0  0  0  0  0  0  0  0  0
   -7.2340    3.1190  -77.3470 C   0  0  0  0  0  0  0  0  0  0  0  0
   -5.9600    3.3380  -76.7990 C   0  0  0  0  0  0  0  0  0  0  0  0
   -4.8290    3.1830  -77.6450 N   0  0  0  0  0  0  0  0  0  0  0  0
   -5.0330    3.1830  -79.0920 C   0  0  0  0  0  0  0  0  0  0  0  0
   -4.4920    4.0000  -79.8460 O   0  0  0  0  0  0  0  0  0  0  0  0
   -5.7520    2.3540  -79.6330 O   0  0  0  0  0  0  0  0  0  0  0  0
   -7.1160    2.6020  -79.3080 C   0  0  0  0  0  0  0  0  0  0  0  0
   -8.0000    1.6600  -80.0500 C   0  0  0  0  0  0  0  0  0  0  0  0
   -8.5230    2.0510  -81.2650 C   0  0  0  0  0  0  0  0  0  0  0  0
   -8.3130    0.3890  -79.5300 C   0  0  0  0  0  0  0  0  0  0  0  0
   -9.4120    1.1160  -81.9920 C   0  0  0  0  0  0  0  0  0  0  0  0
   -9.1510   -0.4930  -80.2220 C   0  0  0  0  0  0  0  0  0  0  0  0
   -9.7000   -0.1330  -81.4450 C   0  0  0  0  0  0  0  0  0  0  0  0
  1  2  1  0
  2  3  2  0
  2  4  1  0
  3  5  1  0
  4  6  2  0
  5  7  2  0
  6  7  1  0
  7  8  1  0
  8  9  1  0
  9 10  1  0
 10 11  1  0
 11 12  1  0
 12 13  2  0
 12 14  1  0
 14 15  1  0
 15 16  1  0
 16 17  2  0
 16 18  1  0
 17 19  1  0
 18 20  2  0
 19 21  2  0
 20 21  1  0
M  END
>  <ref_url>  (375) 
https://fakepage.com

>  <submitter_name>  (375) 
Steph Wills

>  <submitter_email>  (375) 
stephanie.wills@dtc.ox.ac.uk

>  <submitter_institution>  (375) 
University of Oxford

>  <generation_date>  (375) 
2020-06-04

>  <method>  (375) 
Fragment network

>  <ref_mols>  (375) 
x0176_0B,x0212_0B

>  <ref_pdb>  (375) 
references/x0176-0B-x0212-0B-466185.holo_minimised_nolig.pdb

>  <original SMILES>  (375) 
Cc1ccc(OCCNC(=O)OCc2ccccc2)cc1

>  <synthon>  (375) 
[Xe]c1ccccc1

>  <original_name>  (375) 
x0176-0B-x0212-0B-466185

>  <comRMSD_score>  (375) 
0.6129941049694283

>  <IF_score>  (375) 
0.8

>  <SuCOS_score>  (375) 
0.4453533237572367

>  <compound_ID>  (375) 
CHEMSPACE-BB:CSMB00114191682

$$$$

     RDKit          3D

 19 20  0  0  0  0  0  0  0  0999 V2000
  -12.6640    6.2330  -73.8340 C   0  0  0  0  0  0  0  0  0  0  0  0
  -13.2120    4.9580  -74.4570 C   0  0  0  0  0  0  0  0  0  0  0  0
  -13.8460    4.2230  -73.7240 O   0  0  0  0  0  0  0  0  0  0  0  0
  -12.9560    4.6790  -75.7910 N   0  0  0  0  0  0  0  0  0  0  0  0
  -11.7240    4.2750  -76.3930 C   0  0  0  0  0  0  0  0  0  0  0  0
  -10.7730    3.4390  -75.7970 C   0  0  0  0  0  0  0  0  0  0  0  0
  -11.4560    4.7500  -77.6870 C   0  0  0  0  0  0  0  0  0  0  0  0
   -9.5860    3.0870  -76.4750 C   0  0  0  0  0  0  0  0  0  0  0  0
  -10.2740    4.3960  -78.3580 C   0  0  0  0  0  0  0  0  0  0  0  0
   -9.3250    3.5610  -77.7630 C   0  0  0  0  0  0  0  0  0  0  0  0
   -8.1610    3.2550  -78.5150 N   0  0  0  0  0  0  0  0  0  0  0  0
   -7.9810    2.2280  -79.4330 C   0  0  0  0  0  0  0  0  0  0  0  0
   -8.7420    1.2930  -79.6320 O   0  0  0  0  0  0  0  0  0  0  0  0
   -6.6750    2.3770  -80.2020 C   0  0  0  0  0  0  0  0  0  0  0  0
   -6.4170    1.2020  -81.1480 C   0  0  0  0  0  0  0  0  0  0  0  0
   -5.0050    1.2690  -81.7060 C   0  0  0  0  0  0  0  0  0  0  0  0
   -3.9590    0.3100  -81.0830 C   0  0  0  0  0  0  0  0  0  0  0  0
   -4.7090    0.4960  -83.0180 C   0  0  0  0  0  0  0  0  0  0  0  0
   -4.2340   -0.6360  -82.1900 N   0  0  0  0  0  0  0  0  0  0  0  0
  1  2  1  0
  2  3  2  0
  2  4  1  0
  4  5  1  0
  5  6  2  0
  5  7  1  0
  6  8  1  0
  7  9  2  0
  8 10  2  0
  9 10  1  0
 10 11  1  0
 11 12  1  0
 12 13  2  0
 12 14  1  0
 14 15  1  0
 15 16  1  0
 16 17  1  0
 16 18  1  0
 17 19  1  0
 18 19  1  0
M  END
>  <ref_url>  (376) 
https://fakepage.com

>  <submitter_name>  (376) 
Steph Wills

>  <submitter_email>  (376) 
stephanie.wills@dtc.ox.ac.uk

>  <submitter_institution>  (376) 
University of Oxford

>  <generation_date>  (376) 
2020-06-04

>  <method>  (376) 
Fragment network

>  <ref_mols>  (376) 
x0183_0B,x0311_0B

>  <ref_pdb>  (376) 
references/x0183-0B-x0311-0B-85.holo_minimised_nolig.pdb

>  <original SMILES>  (376) 
CC(=O)Nc1ccc(NC(=O)CCC2CNC2)cc1

>  <synthon>  (376) 
[Xe]C1CNC1

>  <original_name>  (376) 
x0183-0B-x0311-0B-85

>  <comRMSD_score>  (376) 
0.6464622636576197

>  <IF_score>  (376) 
0.3611111111111111

>  <SuCOS_score>  (376) 
0.3506211539030422

>  <compound_ID>  (376) 
REAL:Z2824625503

$$$$

     RDKit          3D

 18 19  0  0  0  0  0  0  0  0999 V2000
  -11.7000    6.4060  -73.6930 C   0  0  0  0  0  0  0  0  0  0  0  0
  -12.5800    5.4730  -72.8660 C   0  0  0  0  0  0  0  0  0  0  0  0
  -13.9480    5.6640  -73.2500 N   0  0  0  0  0  0  0  0  0  0  0  0
  -13.6290    6.5160  -74.4030 C   0  0  0  0  0  0  0  0  0  0  0  0
  -14.7000    6.4760  -72.2520 C   0  0  0  0  0  0  0  0  0  0  0  0
  -13.6720    5.7340  -75.7380 C   0  0  0  0  0  0  0  0  0  0  0  0
  -15.9060    7.1820  -72.9230 C   0  0  0  0  0  0  0  0  0  0  0  0
  -15.8110    5.6510  -71.5480 C   0  0  0  0  0  0  0  0  0  0  0  0
  -14.2380    6.2170  -76.7170 O   0  0  0  0  0  0  0  0  0  0  0  0
  -13.0160    4.4950  -75.6990 N   0  0  0  0  0  0  0  0  0  0  0  0
  -16.7360    6.7970  -71.7510 N   0  0  0  0  0  0  0  0  0  0  0  0
  -11.7760    4.1740  -76.3220 C   0  0  0  0  0  0  0  0  0  0  0  0
  -11.5220    4.7540  -77.5720 C   0  0  0  0  0  0  0  0  0  0  0  0
  -10.8010    3.3250  -75.7790 C   0  0  0  0  0  0  0  0  0  0  0  0
  -10.3290    4.4950  -78.2560 C   0  0  0  0  0  0  0  0  0  0  0  0
   -9.6020    3.0660  -76.4690 C   0  0  0  0  0  0  0  0  0  0  0  0
   -9.3560    3.6480  -77.7150 C   0  0  0  0  0  0  0  0  0  0  0  0
   -8.0790    3.3800  -78.4690 C   0  0  0  0  0  0  0  0  0  0  0  0
  1  2  1  0
  2  3  1  0
  3  4  1  0
  3  5  1  0
  4  6  1  0
  5  7  1  0
  5  8  1  0
  6  9  2  0
  6 10  1  0
  7 11  1  0
  8 11  1  0
 10 12  1  0
 12 13  2  0
 12 14  1  0
 13 15  1  0
 14 16  2  0
 15 17  2  0
 16 17  1  0
 17 18  1  0
M  END
>  <ref_url>  (377) 
https://fakepage.com

>  <submitter_name>  (377) 
Steph Wills

>  <submitter_email>  (377) 
stephanie.wills@dtc.ox.ac.uk

>  <submitter_institution>  (377) 
University of Oxford

>  <generation_date>  (377) 
2020-06-04

>  <method>  (377) 
Fragment network

>  <ref_mols>  (377) 
x0183_0B,x0311_0B

>  <ref_pdb>  (377) 
references/x0183-0B-x0311-0B-122.holo_minimised_nolig.pdb

>  <original SMILES>  (377) 
CCN(CC(=O)Nc1ccc(C)cc1)C1CNC1

>  <synthon>  (377) 
[Xe]C1CNC1

>  <original_name>  (377) 
x0183-0B-x0311-0B-122

>  <comRMSD_score>  (377) 
0.8165155553777982

>  <IF_score>  (377) 
0.425

>  <SuCOS_score>  (377) 
0.3913747552421833

>  <compound_ID>  (377) 
CHEMSPACE-BB:CSMB00008345066

$$$$

     RDKit          3D

 17 18  0  0  0  0  0  0  0  0999 V2000
   -6.7260    2.9700  -77.7710 C   0  0  0  0  0  0  0  0  0  0  0  0
   -7.9870    3.3360  -78.4920 C   0  0  0  0  0  0  0  0  0  0  0  0
   -7.9820    3.3940  -79.7140 O   0  0  0  0  0  0  0  0  0  0  0  0
   -9.2460    3.6130  -77.7130 C   0  0  0  0  0  0  0  0  0  0  0  0
   -9.5070    3.0500  -76.4610 C   0  0  0  0  0  0  0  0  0  0  0  0
  -10.2060    4.4730  -78.2660 C   0  0  0  0  0  0  0  0  0  0  0  0
  -10.7050    3.3490  -75.7840 C   0  0  0  0  0  0  0  0  0  0  0  0
  -11.3980    4.7710  -77.5900 C   0  0  0  0  0  0  0  0  0  0  0  0
  -11.6670    4.2140  -76.3360 C   0  0  0  0  0  0  0  0  0  0  0  0
  -12.8560    4.4690  -75.5860 N   0  0  0  0  0  0  0  0  0  0  0  0
  -12.9380    4.6380  -74.2060 C   0  0  0  0  0  0  0  0  0  0  0  0
  -12.8290    3.7040  -73.4020 O   0  0  0  0  0  0  0  0  0  0  0  0
  -13.1750    6.0730  -73.6940 C   0  0  0  0  0  0  0  0  0  0  0  0
  -12.2540    7.1580  -74.2020 C   0  0  0  0  0  0  0  0  0  0  0  0
  -12.4760    7.5900  -75.6740 C   0  0  0  0  0  0  0  0  0  0  0  0
  -12.7060    8.6120  -73.9220 C   0  0  0  0  0  0  0  0  0  0  0  0
  -13.4740    8.5650  -75.1860 N   0  0  0  0  0  0  0  0  0  0  0  0
  1  2  1  0
  2  3  2  0
  2  4  1  0
  4  5  2  0
  4  6  1  0
  5  7  1  0
  6  8  2  0
  7  9  2  0
  8  9  1  0
  9 10  1  0
 10 11  1  0
 11 12  2  0
 11 13  1  0
 13 14  1  0
 14 15  1  0
 14 16  1  0
 15 17  1  0
 16 17  1  0
M  END
>  <ref_url>  (378) 
https://fakepage.com

>  <submitter_name>  (378) 
Steph Wills

>  <submitter_email>  (378) 
stephanie.wills@dtc.ox.ac.uk

>  <submitter_institution>  (378) 
University of Oxford

>  <generation_date>  (378) 
2020-06-04

>  <method>  (378) 
Fragment network

>  <ref_mols>  (378) 
x0183_0B,x0311_0B

>  <ref_pdb>  (378) 
references/x0183-0B-x0311-0B-281.holo_minimised_nolig.pdb

>  <original SMILES>  (378) 
CC(=O)c1ccc(NC(=O)CC2CNC2)cc1

>  <synthon>  (378) 
[Xe]C1CNC1

>  <original_name>  (378) 
x0183-0B-x0311-0B-281

>  <comRMSD_score>  (378) 
0.6752423330429848

>  <IF_score>  (378) 
0.3269230769230769

>  <SuCOS_score>  (378) 
0.3891244591974153

>  <compound_ID>  (378) 
CHEMSPACE-BB:CSMB00003546858

$$$$

     RDKit          3D

 18 19  0  0  0  0  0  0  0  0999 V2000
   -7.6980    4.0510  -79.7870 C   0  0  0  0  0  0  0  0  0  0  0  0
   -7.8400    3.3100  -78.4460 C   0  0  0  0  0  0  0  0  0  0  0  0
   -6.5980    3.5060  -77.5990 C   0  0  0  0  0  0  0  0  0  0  0  0
   -9.1730    3.5810  -77.7360 C   0  0  0  0  0  0  0  0  0  0  0  0
  -10.1270    4.4320  -78.3200 C   0  0  0  0  0  0  0  0  0  0  0  0
   -9.4970    3.0000  -76.4970 C   0  0  0  0  0  0  0  0  0  0  0  0
  -11.3600    4.6850  -77.7050 C   0  0  0  0  0  0  0  0  0  0  0  0
  -10.7340    3.2490  -75.8770 C   0  0  0  0  0  0  0  0  0  0  0  0
  -11.6880    4.0980  -76.4750 C   0  0  0  0  0  0  0  0  0  0  0  0
  -13.0470    4.3660  -75.8270 C   0  0  0  0  0  0  0  0  0  0  0  0
  -13.3830    5.8390  -75.5370 C   0  0  0  0  0  0  0  0  0  0  0  0
  -13.9600    6.5030  -76.4010 O   0  0  0  0  0  0  0  0  0  0  0  0
  -13.0290    6.5140  -74.1880 C   0  0  1  0  0  0  0  0  0  0  0  0
  -12.4980    5.5260  -73.1800 C   0  0  0  0  0  0  0  0  0  0  0  0
  -12.1390    7.7430  -74.3780 C   0  0  0  0  0  0  0  0  0  0  0  0
  -12.1310    8.4770  -75.7440 C   0  0  0  0  0  0  0  0  0  0  0  0
  -12.6500    9.1070  -73.8540 C   0  0  0  0  0  0  0  0  0  0  0  0
  -13.1400    9.4160  -75.2100 N   0  0  0  0  0  0  0  0  0  0  0  0
  1  2  1  0
  2  3  1  0
  2  4  1  0
  4  5  2  0
  4  6  1  0
  5  7  1  0
  6  8  2  0
  7  9  2  0
  8  9  1  0
  9 10  1  0
 10 11  1  0
 11 12  2  0
 11 13  1  0
 13 14  1  1
 13 15  1  0
 15 16  1  0
 15 17  1  0
 16 18  1  0
 17 18  1  0
M  END
>  <ref_url>  (379) 
https://fakepage.com

>  <submitter_name>  (379) 
Steph Wills

>  <submitter_email>  (379) 
stephanie.wills@dtc.ox.ac.uk

>  <submitter_institution>  (379) 
University of Oxford

>  <generation_date>  (379) 
2020-06-04

>  <method>  (379) 
Fragment network

>  <ref_mols>  (379) 
x0183_0B,x0311_0B

>  <ref_pdb>  (379) 
references/x0183-0B-x0311-0B-380.holo_minimised_nolig.pdb

>  <original SMILES>  (379) 
CC(C)c1ccc(CC(=O)C(C)C2CNC2)cc1

>  <synthon>  (379) 
[Xe]C1CNC1

>  <original_name>  (379) 
x0183-0B-x0311-0B-380

>  <comRMSD_score>  (379) 
0.850569997119579

>  <IF_score>  (379) 
0.4038461538461538

>  <SuCOS_score>  (379) 
0.4512849313777599

>  <compound_ID>  (379) 
CHEMSPACE-BB:CSMB00002139592

$$$$

     RDKit          3D

 19 21  0  0  0  0  0  0  0  0999 V2000
   -6.5980    3.2930  -77.5790 C   0  0  0  0  0  0  0  0  0  0  0  0
   -7.8230    3.1550  -78.4680 C   0  0  0  0  0  0  0  0  0  0  0  0
   -7.5890    3.9100  -79.7820 C   0  0  0  0  0  0  0  0  0  0  0  0
   -9.1170    3.5410  -77.7620 C   0  0  0  0  0  0  0  0  0  0  0  0
  -10.0480    4.4060  -78.3400 C   0  0  0  0  0  0  0  0  0  0  0  0
   -9.4160    3.0300  -76.4940 C   0  0  0  0  0  0  0  0  0  0  0  0
  -11.2270    4.7560  -77.6740 C   0  0  0  0  0  0  0  0  0  0  0  0
  -10.6060    3.3880  -75.8330 C   0  0  0  0  0  0  0  0  0  0  0  0
  -11.5470    4.2670  -76.4000 C   0  0  0  0  0  0  0  0  0  0  0  0
  -12.7250    4.6610  -75.7660 N   0  0  0  0  0  0  0  0  0  0  0  0
  -12.9910    6.0860  -75.5240 C   0  0  0  0  0  0  0  0  0  0  0  0
  -13.7110    3.7550  -75.1660 C   0  0  0  0  0  0  0  0  0  0  0  0
  -13.0050    6.3770  -74.0070 C   0  0  0  0  0  0  0  0  0  0  0  0
  -14.6600    4.5920  -74.2510 C   0  0  0  0  0  0  0  0  0  0  0  0
  -14.0230    5.5630  -73.2950 N   0  0  0  0  0  0  0  0  0  0  0  0
  -15.0260    6.4960  -72.6980 C   0  0  0  0  0  0  0  0  0  0  0  0
  -15.3350    7.6900  -73.6430 C   0  0  0  0  0  0  0  0  0  0  0  0
  -16.5010    6.1190  -73.0230 C   0  0  0  0  0  0  0  0  0  0  0  0
  -16.7660    7.5670  -73.2510 N   0  0  0  0  0  0  0  0  0  0  0  0
  1  2  1  0
  2  3  1  0
  2  4  1  0
  4  5  2  0
  4  6  1  0
  5  7  1  0
  6  8  2  0
  7  9  2  0
  8  9  1  0
  9 10  1  0
 10 11  1  0
 10 12  1  0
 11 13  1  0
 12 14  1  0
 13 15  1  0
 14 15  1  0
 15 16  1  0
 16 17  1  0
 16 18  1  0
 17 19  1  0
 18 19  1  0
M  END
>  <ref_url>  (380) 
https://fakepage.com

>  <submitter_name>  (380) 
Steph Wills

>  <submitter_email>  (380) 
stephanie.wills@dtc.ox.ac.uk

>  <submitter_institution>  (380) 
University of Oxford

>  <generation_date>  (380) 
2020-06-04

>  <method>  (380) 
Fragment network

>  <ref_mols>  (380) 
x0183_0B,x0311_0B

>  <ref_pdb>  (380) 
references/x0183-0B-x0311-0B-414.holo_minimised_nolig.pdb

>  <original SMILES>  (380) 
CC(C)c1ccc(N2CCN(C3CNC3)CC2)cc1

>  <synthon>  (380) 
[Xe]C1CNC1

>  <original_name>  (380) 
x0183-0B-x0311-0B-414

>  <comRMSD_score>  (380) 
0.6089507012244436

>  <IF_score>  (380) 
0.4038461538461538

>  <SuCOS_score>  (380) 
0.4069278619893614

>  <compound_ID>  (380) 
CHEMSPACE-BB:CSMB00134151686

$$$$

     RDKit          3D

 18 19  0  0  0  0  0  0  0  0999 V2000
  -12.7060    6.3390  -73.7130 C   0  0  0  0  0  0  0  0  0  0  0  0
  -13.1970    5.7480  -75.0370 C   0  0  0  0  0  0  0  0  0  0  0  0
  -12.8790    4.2450  -75.2200 C   0  0  1  0  0  0  0  0  0  0  0  0
  -14.0720    3.4360  -75.7610 C   0  0  0  0  0  0  0  0  0  0  0  0
  -11.6800    4.0490  -76.1330 C   0  0  0  0  0  0  0  0  0  0  0  0
  -11.6610    4.6810  -77.3830 C   0  0  0  0  0  0  0  0  0  0  0  0
  -10.5830    3.2510  -75.7740 C   0  0  0  0  0  0  0  0  0  0  0  0
  -10.5840    4.5140  -78.2400 C   0  0  0  0  0  0  0  0  0  0  0  0
   -9.4980    3.0870  -76.6400 C   0  0  0  0  0  0  0  0  0  0  0  0
   -9.4990    3.7240  -77.8860 C   0  0  0  0  0  0  0  0  0  0  0  0
   -8.3700    3.5840  -78.8670 C   0  0  0  0  0  0  0  0  0  0  0  0
   -8.3760    2.1910  -79.4920 C   0  0  0  0  0  0  0  0  0  0  0  0
   -7.0480    1.6410  -79.7170 N   0  0  0  0  0  0  0  0  0  0  0  0
   -6.5880    2.0530  -81.0070 C   0  0  0  0  0  0  0  0  0  0  0  0
   -6.8870    0.9040  -81.9250 C   0  0  0  0  0  0  0  0  0  0  0  0
   -5.9310    0.4230  -83.0250 C   0  0  0  0  0  0  0  0  0  0  0  0
   -7.9830    0.9840  -82.9640 C   0  0  0  0  0  0  0  0  0  0  0  0
   -7.1130    0.1910  -83.8890 N   0  0  0  0  0  0  0  0  0  0  0  0
  1  2  1  0
  2  3  1  0
  3  4  1  6
  3  5  1  0
  5  6  2  0
  5  7  1  0
  6  8  1  0
  7  9  2  0
  8 10  2  0
  9 10  1  0
 10 11  1  0
 11 12  1  0
 12 13  1  0
 13 14  1  0
 14 15  1  0
 15 16  1  0
 15 17  1  0
 16 18  1  0
 17 18  1  0
M  END
>  <ref_url>  (381) 
https://fakepage.com

>  <submitter_name>  (381) 
Steph Wills

>  <submitter_email>  (381) 
stephanie.wills@dtc.ox.ac.uk

>  <submitter_institution>  (381) 
University of Oxford

>  <generation_date>  (381) 
2020-06-04

>  <method>  (381) 
Fragment network

>  <ref_mols>  (381) 
x0183_0B,x0311_0B

>  <ref_pdb>  (381) 
references/x0183-0B-x0311-0B-451.holo_minimised_nolig.pdb

>  <original SMILES>  (381) 
CCC(C)c1ccc(CCNCC2CNC2)cc1

>  <synthon>  (381) 
[Xe]C1CNC1

>  <original_name>  (381) 
x0183-0B-x0311-0B-451

>  <comRMSD_score>  (381) 
0.8816324238418356

>  <IF_score>  (381) 
0.375

>  <SuCOS_score>  (381) 
0.5028091872816813

>  <compound_ID>  (381) 
CHEMSPACE-BB:CSMB00134337281

$$$$

     RDKit          3D

 17 18  0  0  0  0  0  0  0  0999 V2000
   -6.6900    3.6130  -77.7610 C   0  0  0  0  0  0  0  0  0  0  0  0
   -7.9760    3.3730  -78.5380 C   0  0  0  0  0  0  0  0  0  0  0  0
   -9.2350    3.5780  -77.7270 C   0  0  0  0  0  0  0  0  0  0  0  0
   -9.4160    2.9190  -76.5090 C   0  0  0  0  0  0  0  0  0  0  0  0
  -10.2510    4.4280  -78.1880 C   0  0  0  0  0  0  0  0  0  0  0  0
  -10.5850    3.1020  -75.7720 C   0  0  0  0  0  0  0  0  0  0  0  0
  -11.4230    4.6150  -77.4520 C   0  0  0  0  0  0  0  0  0  0  0  0
  -11.6060    3.9490  -76.2290 C   0  0  0  0  0  0  0  0  0  0  0  0
  -12.8680    4.1190  -75.4060 C   0  0  0  0  0  0  0  0  0  0  0  0
  -13.2550    5.5840  -75.1540 C   0  0  0  0  0  0  0  0  0  0  0  0
  -14.6350    5.7350  -74.7230 N   0  0  0  0  0  0  0  0  0  0  0  0
  -14.9260    6.0470  -73.4050 C   0  0  0  0  0  0  0  0  0  0  0  0
  -14.4570    5.3620  -72.4800 O   0  0  0  0  0  0  0  0  0  0  0  0
  -15.8430    7.2690  -73.1700 C   0  0  0  0  0  0  0  0  0  0  0  0
  -16.0410    7.8240  -71.7410 C   0  0  0  0  0  0  0  0  0  0  0  0
  -17.3770    7.0880  -73.1790 C   0  0  0  0  0  0  0  0  0  0  0  0
  -17.3740    7.1860  -71.7030 N   0  0  0  0  0  0  0  0  0  0  0  0
  1  2  1  0
  2  3  1  0
  3  4  2  0
  3  5  1  0
  4  6  1  0
  5  7  2  0
  6  8  2  0
  7  8  1  0
  8  9  1  0
  9 10  1  0
 10 11  1  0
 11 12  1  0
 12 13  2  0
 12 14  1  0
 14 15  1  0
 14 16  1  0
 15 17  1  0
 16 17  1  0
M  END
>  <ref_url>  (382) 
https://fakepage.com

>  <submitter_name>  (382) 
Steph Wills

>  <submitter_email>  (382) 
stephanie.wills@dtc.ox.ac.uk

>  <submitter_institution>  (382) 
University of Oxford

>  <generation_date>  (382) 
2020-06-04

>  <method>  (382) 
Fragment network

>  <ref_mols>  (382) 
x0183_0B,x0311_0B

>  <ref_pdb>  (382) 
references/x0183-0B-x0311-0B-609.holo_minimised_nolig.pdb

>  <original SMILES>  (382) 
CCc1ccc(CCNC(=O)C2CNC2)cc1

>  <synthon>  (382) 
[Xe]C1CNC1

>  <original_name>  (382) 
x0183-0B-x0311-0B-609

>  <comRMSD_score>  (382) 
0.7518348280677429

>  <IF_score>  (382) 
0.2769230769230769

>  <SuCOS_score>  (382) 
0.4364960801146462

>  <compound_ID>  (382) 
CHEMSPACE-BB:CSMB00134360169

$$$$

     RDKit          3D

 19 20  0  0  0  0  0  0  0  0999 V2000
   -6.1450    3.3420  -76.8030 N   0  0  0  0  0  0  0  0  0  0  0  0
   -6.8000    2.6530  -77.7810 C   0  0  0  0  0  0  0  0  0  0  0  0
   -6.4870    1.4960  -78.0400 O   0  0  0  0  0  0  0  0  0  0  0  0
   -7.8870    3.4150  -78.4980 C   0  0  0  0  0  0  0  0  0  0  0  0
   -9.1680    3.6370  -77.7060 C   0  0  0  0  0  0  0  0  0  0  0  0
  -10.1690    4.4640  -78.2240 C   0  0  0  0  0  0  0  0  0  0  0  0
   -9.3830    3.0390  -76.4570 C   0  0  0  0  0  0  0  0  0  0  0  0
  -11.3520    4.7020  -77.5170 C   0  0  0  0  0  0  0  0  0  0  0  0
  -10.5740    3.2780  -75.7450 C   0  0  0  0  0  0  0  0  0  0  0  0
  -11.5690    4.1160  -76.2600 C   0  0  0  0  0  0  0  0  0  0  0  0
  -12.7950    4.4290  -75.6100 N   0  0  0  0  0  0  0  0  0  0  0  0
  -13.3100    5.7280  -75.4930 C   0  0  0  0  0  0  0  0  0  0  0  0
  -13.9870    6.2970  -76.3420 O   0  0  0  0  0  0  0  0  0  0  0  0
  -12.9460    6.4330  -74.1760 C   0  0  0  0  0  0  0  0  0  0  0  0
  -13.9330    6.1200  -73.0660 C   0  0  0  0  0  0  0  0  0  0  0  0
  -14.7800    7.3660  -72.7600 C   0  0  0  0  0  0  0  0  0  0  0  0
  -15.3580    7.4880  -71.3270 C   0  0  0  0  0  0  0  0  0  0  0  0
  -16.2660    7.3510  -73.1980 C   0  0  0  0  0  0  0  0  0  0  0  0
  -16.6360    7.9640  -71.9060 N   0  0  0  0  0  0  0  0  0  0  0  0
  1  2  1  0
  2  3  2  0
  2  4  1  0
  4  5  1  0
  5  6  2  0
  5  7  1  0
  6  8  1  0
  7  9  2  0
  8 10  2  0
  9 10  1  0
 10 11  1  0
 11 12  1  0
 12 13  2  0
 12 14  1  0
 14 15  1  0
 15 16  1  0
 16 17  1  0
 16 18  1  0
 17 19  1  0
 18 19  1  0
M  END
>  <ref_url>  (383) 
https://fakepage.com

>  <submitter_name>  (383) 
Steph Wills

>  <submitter_email>  (383) 
stephanie.wills@dtc.ox.ac.uk

>  <submitter_institution>  (383) 
University of Oxford

>  <generation_date>  (383) 
2020-06-04

>  <method>  (383) 
Fragment network

>  <ref_mols>  (383) 
x0183_0B,x0311_0B

>  <ref_pdb>  (383) 
references/x0183-0B-x0311-0B-682.holo_minimised_nolig.pdb

>  <original SMILES>  (383) 
NC(=O)Cc1ccc(NC(=O)CCC2CNC2)cc1

>  <synthon>  (383) 
[Xe]C1CNC1

>  <original_name>  (383) 
x0183-0B-x0311-0B-682

>  <comRMSD_score>  (383) 
0.659852035181625

>  <IF_score>  (383) 
0.3269230769230769

>  <SuCOS_score>  (383) 
0.3988168214688081

>  <compound_ID>  (383) 
REAL:Z2824775373

$$$$

     RDKit          3D

 18 20  0  0  0  0  0  0  0  0999 V2000
   -8.1710    3.5220  -78.8950 C   0  0  0  0  0  0  0  0  0  0  0  0
   -9.3470    3.7330  -77.9820 C   0  0  0  0  0  0  0  0  0  0  0  0
  -10.3860    4.5570  -78.3950 C   0  0  0  0  0  0  0  0  0  0  0  0
   -9.4390    3.1250  -76.7260 C   0  0  0  0  0  0  0  0  0  0  0  0
  -11.4990    4.7800  -77.5830 C   0  0  0  0  0  0  0  0  0  0  0  0
  -10.5600    3.3490  -75.9090 C   0  0  0  0  0  0  0  0  0  0  0  0
  -11.6160    4.1840  -76.3200 C   0  0  0  0  0  0  0  0  0  0  0  0
  -12.7660    4.4400  -75.5300 N   0  0  0  0  0  0  0  0  0  0  0  0
  -13.9590    3.6060  -75.6860 C   0  0  0  0  0  0  0  0  0  0  0  0
  -13.0220    5.8930  -75.3220 C   0  0  0  0  0  0  0  0  0  0  0  0
  -14.8670    3.8600  -74.4840 C   0  0  0  0  0  0  0  0  0  0  0  0
  -13.0320    6.3680  -73.8410 C   0  0  0  0  0  0  0  0  0  0  0  0
  -14.1160    4.2380  -73.1980 C   0  0  0  0  0  0  0  0  0  0  0  0
  -13.9390    5.6740  -72.8940 N   0  0  0  0  0  0  0  0  0  0  0  0
  -15.2770    6.3220  -72.9130 C   0  0  0  0  0  0  0  0  0  0  0  0
  -16.1200    5.9400  -71.6640 C   0  0  0  0  0  0  0  0  0  0  0  0
  -15.2730    7.7120  -72.2190 C   0  0  0  0  0  0  0  0  0  0  0  0
  -16.5950    7.3500  -71.6340 N   0  0  0  0  0  0  0  0  0  0  0  0
  1  2  1  0
  2  3  2  0
  2  4  1  0
  3  5  1  0
  4  6  2  0
  5  7  2  0
  6  7  1  0
  7  8  1  0
  8  9  1  0
  8 10  1  0
  9 11  1  0
 10 12  1  0
 11 13  1  0
 12 14  1  0
 13 14  1  0
 14 15  1  0
 15 16  1  0
 15 17  1  0
 16 18  1  0
 17 18  1  0
M  END
>  <ref_url>  (384) 
https://fakepage.com

>  <submitter_name>  (384) 
Steph Wills

>  <submitter_email>  (384) 
stephanie.wills@dtc.ox.ac.uk

>  <submitter_institution>  (384) 
University of Oxford

>  <generation_date>  (384) 
2020-06-04

>  <method>  (384) 
Fragment network

>  <ref_mols>  (384) 
x0183_0B,x0311_0B

>  <ref_pdb>  (384) 
references/x0183-0B-x0311-0B-723.holo_minimised_nolig.pdb

>  <original SMILES>  (384) 
Cc1ccc(N2CCCN(C3CNC3)CC2)cc1

>  <synthon>  (384) 
[Xe]C1CNC1

>  <original_name>  (384) 
x0183-0B-x0311-0B-723

>  <comRMSD_score>  (384) 
0.6430103116354859

>  <IF_score>  (384) 
0.4166666666666666

>  <SuCOS_score>  (384) 
0.4152014819880513

>  <compound_ID>  (384) 
CHEMSPACE-BB:CSMB00134260767

$$$$

     RDKit          3D

 18 20  0  0  0  0  0  0  0  0999 V2000
   -7.4440    1.9420  -78.3130 C   0  0  0  0  0  0  0  0  0  0  0  0
   -7.9640    3.2480  -78.4900 O   0  0  0  0  0  0  0  0  0  0  0  0
   -9.1470    3.6050  -77.8920 C   0  0  0  0  0  0  0  0  0  0  0  0
   -9.4110    3.0630  -76.6340 C   0  0  0  0  0  0  0  0  0  0  0  0
  -10.0880    4.4610  -78.4480 C   0  0  0  0  0  0  0  0  0  0  0  0
  -10.6020    3.3850  -75.9540 C   0  0  0  0  0  0  0  0  0  0  0  0
  -11.2670    4.7750  -77.7670 C   0  0  0  0  0  0  0  0  0  0  0  0
  -11.5670    4.2550  -76.5000 C   0  0  0  0  0  0  0  0  0  0  0  0
  -12.7470    4.6050  -75.8490 N   0  0  0  0  0  0  0  0  0  0  0  0
  -12.9920    5.9870  -75.4180 C   0  0  0  0  0  0  0  0  0  0  0  0
  -13.8520    3.6830  -75.5460 C   0  0  0  0  0  0  0  0  0  0  0  0
  -13.0220    6.0600  -73.8790 C   0  0  0  0  0  0  0  0  0  0  0  0
  -14.6580    4.2670  -74.3510 C   0  0  0  0  0  0  0  0  0  0  0  0
  -13.8840    4.9890  -73.3030 N   0  0  0  0  0  0  0  0  0  0  0  0
  -13.1870    4.1450  -72.3010 C   0  0  0  0  0  0  0  0  0  0  0  0
  -14.1170    3.2730  -71.4340 C   0  0  0  0  0  0  0  0  0  0  0  0
  -12.7340    2.7790  -72.8540 C   0  0  0  0  0  0  0  0  0  0  0  0
  -14.0560    2.2330  -72.4710 N   0  0  0  0  0  0  0  0  0  0  0  0
  1  2  1  0
  2  3  1  0
  3  4  2  0
  3  5  1  0
  4  6  1  0
  5  7  2  0
  6  8  2  0
  7  8  1  0
  8  9  1  0
  9 10  1  0
  9 11  1  0
 10 12  1  0
 11 13  1  0
 12 14  1  0
 13 14  1  0
 14 15  1  0
 15 16  1  0
 15 17  1  0
 16 18  1  0
 17 18  1  0
M  END
>  <ref_url>  (385) 
https://fakepage.com

>  <submitter_name>  (385) 
Steph Wills

>  <submitter_email>  (385) 
stephanie.wills@dtc.ox.ac.uk

>  <submitter_institution>  (385) 
University of Oxford

>  <generation_date>  (385) 
2020-06-04

>  <method>  (385) 
Fragment network

>  <ref_mols>  (385) 
x0183_0B,x0311_0B

>  <ref_pdb>  (385) 
references/x0183-0B-x0311-0B-809.holo_minimised_nolig.pdb

>  <original SMILES>  (385) 
COc1ccc(N2CCN(C3CNC3)CC2)cc1

>  <synthon>  (385) 
[Xe]C1CNC1

>  <original_name>  (385) 
x0183-0B-x0311-0B-809

>  <comRMSD_score>  (385) 
0.7479987745088011

>  <IF_score>  (385) 
0.3653846153846154

>  <SuCOS_score>  (385) 
0.3659900562437949

>  <compound_ID>  (385) 
CHEMSPACE-BB:CSMB00001006747

$$$$

     RDKit          3D

 18 20  0  0  0  0  0  0  0  0999 V2000
   -7.0010    3.1590  -79.0130 N   0  0  0  0  0  0  0  0  0  0  0  0
   -7.9700    3.3360  -78.3940 C   0  0  0  0  0  0  0  0  0  0  0  0
   -9.1860    3.5390  -77.6530 C   0  0  0  0  0  0  0  0  0  0  0  0
   -9.4090    2.9100  -76.4260 C   0  0  0  0  0  0  0  0  0  0  0  0
  -10.1690    4.3760  -78.1630 C   0  0  0  0  0  0  0  0  0  0  0  0
  -10.6150    3.1250  -75.7270 C   0  0  0  0  0  0  0  0  0  0  0  0
  -11.3610    4.5820  -77.4630 C   0  0  0  0  0  0  0  0  0  0  0  0
  -11.6340    3.9680  -76.2220 C   0  0  0  0  0  0  0  0  0  0  0  0
  -12.8450    4.2010  -75.5650 N   0  0  0  0  0  0  0  0  0  0  0  0
  -12.9670    4.6340  -74.1670 C   0  0  0  0  0  0  0  0  0  0  0  0
  -13.9120    4.7910  -76.3420 C   0  0  0  0  0  0  0  0  0  0  0  0
  -13.0300    6.1790  -74.0140 C   0  0  0  0  0  0  0  0  0  0  0  0
  -13.6260    6.3170  -76.4000 C   0  0  0  0  0  0  0  0  0  0  0  0
  -12.8340    6.9280  -75.2790 N   0  0  0  0  0  0  0  0  0  0  0  0
  -13.3770    8.2990  -75.1300 C   0  0  0  0  0  0  0  0  0  0  0  0
  -12.7940    9.0250  -73.9060 C   0  0  0  0  0  0  0  0  0  0  0  0
  -12.5210    9.3280  -75.9120 C   0  0  0  0  0  0  0  0  0  0  0  0
  -12.6650   10.2430  -74.7490 N   0  0  0  0  0  0  0  0  0  0  0  0
  1  2  3  0
  2  3  1  0
  3  4  2  0
  3  5  1  0
  4  6  1  0
  5  7  2  0
  6  8  2  0
  7  8  1  0
  8  9  1  0
  9 10  1  0
  9 11  1  0
 10 12  1  0
 11 13  1  0
 12 14  1  0
 13 14  1  0
 14 15  1  0
 15 16  1  0
 15 17  1  0
 16 18  1  0
 17 18  1  0
M  END
>  <ref_url>  (386) 
https://fakepage.com

>  <submitter_name>  (386) 
Steph Wills

>  <submitter_email>  (386) 
stephanie.wills@dtc.ox.ac.uk

>  <submitter_institution>  (386) 
University of Oxford

>  <generation_date>  (386) 
2020-06-04

>  <method>  (386) 
Fragment network

>  <ref_mols>  (386) 
x0183_0B,x0311_0B

>  <ref_pdb>  (386) 
references/x0183-0B-x0311-0B-895.holo_minimised_nolig.pdb

>  <original SMILES>  (386) 
N#Cc1ccc(N2CCN(C3CNC3)CC2)cc1

>  <synthon>  (386) 
[Xe]C1CNC1

>  <original_name>  (386) 
x0183-0B-x0311-0B-895

>  <comRMSD_score>  (386) 
0.8939726479250322

>  <IF_score>  (386) 
0.3269230769230769

>  <SuCOS_score>  (386) 
0.3845617143455494

>  <compound_ID>  (386) 
CHEMSPACE-BB:CSMB00001363047

$$$$

     RDKit          3D

 20 21  0  0  0  0  0  0  0  0999 V2000
   -8.4740    2.4050  -80.9150 N   0  0  0  0  0  0  0  0  0  0  0  0
   -8.5480    3.4210  -80.0080 C   0  0  0  0  0  0  0  0  0  0  0  0
   -8.7720    4.5590  -80.3280 O   0  0  0  0  0  0  0  0  0  0  0  0
   -8.3610    3.0010  -78.5910 C   0  0  0  0  0  0  0  0  0  0  0  0
   -9.5540    3.4180  -77.7630 C   0  0  0  0  0  0  0  0  0  0  0  0
  -10.4470    4.3710  -78.2660 C   0  0  0  0  0  0  0  0  0  0  0  0
   -9.8040    2.8690  -76.5020 C   0  0  0  0  0  0  0  0  0  0  0  0
  -11.5700    4.7680  -77.5400 C   0  0  0  0  0  0  0  0  0  0  0  0
  -10.9340    3.2670  -75.7710 C   0  0  0  0  0  0  0  0  0  0  0  0
  -11.8370    4.2200  -76.2850 C   0  0  0  0  0  0  0  0  0  0  0  0
  -12.9730    4.5660  -75.5040 N   0  0  0  0  0  0  0  0  0  0  0  0
  -13.0180    4.7340  -74.1270 C   0  0  0  0  0  0  0  0  0  0  0  0
  -12.9850    3.7910  -73.3310 O   0  0  0  0  0  0  0  0  0  0  0  0
  -13.1120    6.1820  -73.6370 C   0  0  0  0  0  0  0  0  0  0  0  0
  -11.9180    6.9930  -74.0760 C   0  0  0  0  0  0  0  0  0  0  0  0
  -11.9970    8.3450  -73.6140 O   0  0  0  0  0  0  0  0  0  0  0  0
  -13.1810    9.0850  -74.0080 C   0  0  0  0  0  0  0  0  0  0  0  0
  -13.3100    9.3850  -75.5210 C   0  0  0  0  0  0  0  0  0  0  0  0
  -13.1230   10.6180  -73.8510 C   0  0  0  0  0  0  0  0  0  0  0  0
  -13.7320   10.7680  -75.1920 N   0  0  0  0  0  0  0  0  0  0  0  0
  1  2  1  0
  2  3  2  0
  2  4  1  0
  4  5  1  0
  5  6  2  0
  5  7  1  0
  6  8  1  0
  7  9  2  0
  8 10  2  0
  9 10  1  0
 10 11  1  0
 11 12  1  0
 12 13  2  0
 12 14  1  0
 14 15  1  0
 15 16  1  0
 16 17  1  0
 17 18  1  0
 17 19  1  0
 18 20  1  0
 19 20  1  0
M  END
>  <ref_url>  (387) 
https://fakepage.com

>  <submitter_name>  (387) 
Steph Wills

>  <submitter_email>  (387) 
stephanie.wills@dtc.ox.ac.uk

>  <submitter_institution>  (387) 
University of Oxford

>  <generation_date>  (387) 
2020-06-04

>  <method>  (387) 
Fragment network

>  <ref_mols>  (387) 
x0183_0B,x0311_0B

>  <ref_pdb>  (387) 
references/x0183-0B-x0311-0B-962.holo_minimised_nolig.pdb

>  <original SMILES>  (387) 
NC(=O)Cc1ccc(NC(=O)CCOC2CNC2)cc1

>  <synthon>  (387) 
[Xe]C1CNC1

>  <original_name>  (387) 
x0183-0B-x0311-0B-962

>  <comRMSD_score>  (387) 
0.7087085719814595

>  <IF_score>  (387) 
0.5416666666666666

>  <SuCOS_score>  (387) 
0.3942732561779523

>  <compound_ID>  (387) 
REAL:Z2391349579

$$$$

     RDKit          3D

 18 19  0  0  0  0  0  0  0  0999 V2000
  -12.6930    6.3430  -73.7700 C   0  0  0  0  0  0  0  0  0  0  0  0
  -13.1040    5.7730  -75.1340 C   0  0  0  0  0  0  0  0  0  0  0  0
  -12.8170    4.2640  -75.3100 C   0  0  1  0  0  0  0  0  0  0  0  0
  -14.0180    3.4870  -75.8710 C   0  0  0  0  0  0  0  0  0  0  0  0
  -11.5750    4.0170  -76.1650 C   0  0  0  0  0  0  0  0  0  0  0  0
  -11.3770    4.6240  -77.4130 C   0  0  0  0  0  0  0  0  0  0  0  0
  -10.5820    3.1510  -75.6920 C   0  0  0  0  0  0  0  0  0  0  0  0
  -10.2220    4.3660  -78.1560 C   0  0  0  0  0  0  0  0  0  0  0  0
   -9.4270    2.8940  -76.4340 C   0  0  0  0  0  0  0  0  0  0  0  0
   -9.2230    3.4950  -77.6800 C   0  0  0  0  0  0  0  0  0  0  0  0
   -7.9740    3.2350  -78.5270 C   0  0  0  0  0  0  0  0  0  0  0  0
   -7.2560    1.9490  -78.3380 N   0  0  0  0  0  0  0  0  0  0  0  0
   -7.4760    1.3260  -77.0300 C   0  0  0  0  0  0  0  0  0  0  0  0
   -5.8220    2.0770  -78.7040 C   0  0  0  0  0  0  0  0  0  0  0  0
   -5.0400    2.9480  -77.7350 C   0  0  0  0  0  0  0  0  0  0  0  0
   -5.2540    2.6140  -76.2450 C   0  0  0  0  0  0  0  0  0  0  0  0
   -5.6510    4.2910  -77.2980 C   0  0  0  0  0  0  0  0  0  0  0  0
   -5.0320    4.0460  -75.9980 N   0  0  0  0  0  0  0  0  0  0  0  0
  1  2  1  0
  2  3  1  0
  3  4  1  6
  3  5  1  0
  5  6  2  0
  5  7  1  0
  6  8  1  0
  7  9  2  0
  8 10  2  0
  9 10  1  0
 10 11  1  0
 11 12  1  0
 12 13  1  0
 12 14  1  0
 14 15  1  0
 15 16  1  0
 15 17  1  0
 16 18  1  0
 17 18  1  0
M  END
>  <ref_url>  (388) 
https://fakepage.com

>  <submitter_name>  (388) 
Steph Wills

>  <submitter_email>  (388) 
stephanie.wills@dtc.ox.ac.uk

>  <submitter_institution>  (388) 
University of Oxford

>  <generation_date>  (388) 
2020-06-04

>  <method>  (388) 
Fragment network

>  <ref_mols>  (388) 
x0183_0B,x0311_0B

>  <ref_pdb>  (388) 
references/x0183-0B-x0311-0B-1033.holo_minimised_nolig.pdb

>  <original SMILES>  (388) 
CCC(C)c1ccc(CN(C)CC2CNC2)cc1

>  <synthon>  (388) 
[Xe]C1CNC1

>  <original_name>  (388) 
x0183-0B-x0311-0B-1033

>  <comRMSD_score>  (388) 
0.4980576117432447

>  <IF_score>  (388) 
0.3653846153846154

>  <SuCOS_score>  (388) 
0.5307560938261722

>  <compound_ID>  (388) 
CHEMSPACE-BB:CSMB00134334192

$$$$

     RDKit          3D

 18 19  0  0  0  0  0  0  0  0999 V2000
   -6.4310    1.8190  -79.5240 N   0  0  0  0  0  0  0  0  0  0  0  0
   -7.3720    1.8590  -78.5270 C   0  0  0  0  0  0  0  0  0  0  0  0
   -7.6430    0.8450  -77.9130 O   0  0  0  0  0  0  0  0  0  0  0  0
   -7.8840    3.1120  -78.3850 N   0  0  0  0  0  0  0  0  0  0  0  0
   -9.1110    3.5020  -77.7960 C   0  0  0  0  0  0  0  0  0  0  0  0
   -9.4620    2.9800  -76.5460 C   0  0  0  0  0  0  0  0  0  0  0  0
   -9.9940    4.3890  -78.4090 C   0  0  0  0  0  0  0  0  0  0  0  0
  -10.6750    3.3470  -75.9330 C   0  0  0  0  0  0  0  0  0  0  0  0
  -11.2010    4.7550  -77.8030 C   0  0  0  0  0  0  0  0  0  0  0  0
  -11.5600    4.2440  -76.5590 C   0  0  0  0  0  0  0  0  0  0  0  0
  -12.7640    4.5850  -75.8970 N   0  0  0  0  0  0  0  0  0  0  0  0
  -13.0840    5.8470  -75.4020 C   0  0  0  0  0  0  0  0  0  0  0  0
  -13.4710    6.8250  -76.0370 O   0  0  0  0  0  0  0  0  0  0  0  0
  -12.8820    5.8960  -73.9060 C   0  0  0  0  0  0  0  0  0  0  0  0
  -13.1880    4.5000  -73.3600 C   0  0  0  0  0  0  0  0  0  0  0  0
  -12.7500    4.1100  -71.9470 C   0  0  0  0  0  0  0  0  0  0  0  0
  -14.6310    4.2120  -72.9200 C   0  0  0  0  0  0  0  0  0  0  0  0
  -14.1320    3.6460  -71.6450 N   0  0  0  0  0  0  0  0  0  0  0  0
  1  2  1  0
  2  3  2  0
  2  4  1  0
  4  5  1  0
  5  6  2  0
  5  7  1  0
  6  8  1  0
  7  9  2  0
  8 10  2  0
  9 10  1  0
 10 11  1  0
 11 12  1  0
 12 13  2  0
 12 14  1  0
 14 15  1  0
 15 16  1  0
 15 17  1  0
 16 18  1  0
 17 18  1  0
M  END
>  <ref_url>  (389) 
https://fakepage.com

>  <submitter_name>  (389) 
Steph Wills

>  <submitter_email>  (389) 
stephanie.wills@dtc.ox.ac.uk

>  <submitter_institution>  (389) 
University of Oxford

>  <generation_date>  (389) 
2020-06-04

>  <method>  (389) 
Fragment network

>  <ref_mols>  (389) 
x0183_0B,x0311_0B

>  <ref_pdb>  (389) 
references/x0183-0B-x0311-0B-1161.holo_minimised_nolig.pdb

>  <original SMILES>  (389) 
NC(=O)Nc1ccc(NC(=O)CC2CNC2)cc1

>  <synthon>  (389) 
[Xe]C1CNC1

>  <original_name>  (389) 
x0183-0B-x0311-0B-1161

>  <comRMSD_score>  (389) 
0.9215354361065026

>  <IF_score>  (389) 
0.3653846153846154

>  <SuCOS_score>  (389) 
0.3511334574386098

>  <compound_ID>  (389) 
CHEMSPACE-BB:CSMB00001198985

$$$$

     RDKit          3D

 20 21  0  0  0  0  0  0  0  0999 V2000
   -8.4200    3.6850  -80.2480 N   0  0  0  0  0  0  0  0  0  0  0  0
   -8.0420    3.0820  -78.7250 S   0  0  0  0  0  0  0  0  0  0  0  0
   -7.9950    1.6530  -78.9060 O   0  0  0  0  0  0  0  0  0  0  0  0
   -6.8970    3.8110  -78.2440 O   0  0  0  0  0  0  0  0  0  0  0  0
   -9.4840    3.5180  -77.7860 C   0  0  0  0  0  0  0  0  0  0  0  0
  -10.3950    4.4190  -78.3270 C   0  0  0  0  0  0  0  0  0  0  0  0
   -9.7140    2.9690  -76.5220 C   0  0  0  0  0  0  0  0  0  0  0  0
  -11.5470    4.7750  -77.6160 C   0  0  0  0  0  0  0  0  0  0  0  0
  -10.8720    3.3280  -75.8100 C   0  0  0  0  0  0  0  0  0  0  0  0
  -11.8090    4.2370  -76.3500 C   0  0  0  0  0  0  0  0  0  0  0  0
  -12.9750    4.5560  -75.5850 N   0  0  0  0  0  0  0  0  0  0  0  0
  -13.0760    4.7610  -74.2080 C   0  0  0  0  0  0  0  0  0  0  0  0
  -13.1120    3.8320  -73.3970 O   0  0  0  0  0  0  0  0  0  0  0  0
  -13.1500    6.2250  -73.7180 C   0  0  0  0  0  0  0  0  0  0  0  0
  -11.9300    7.0280  -74.0900 C   0  0  0  0  0  0  0  0  0  0  0  0
  -12.0160    8.3710  -73.5890 O   0  0  0  0  0  0  0  0  0  0  0  0
  -12.4060    9.4370  -74.5010 C   0  0  0  0  0  0  0  0  0  0  0  0
  -12.3910    9.1580  -76.0210 C   0  0  0  0  0  0  0  0  0  0  0  0
  -13.9210    9.6320  -74.7120 C   0  0  0  0  0  0  0  0  0  0  0  0
  -13.6490    9.9270  -76.1370 N   0  0  0  0  0  0  0  0  0  0  0  0
  2  1  1  0
  2  3  2  0
  2  4  2  0
  2  5  1  0
  5  6  2  0
  5  7  1  0
  6  8  1  0
  7  9  2  0
  8 10  2  0
  9 10  1  0
 10 11  1  0
 11 12  1  0
 12 13  2  0
 12 14  1  0
 14 15  1  0
 15 16  1  0
 16 17  1  0
 17 18  1  0
 17 19  1  0
 18 20  1  0
 19 20  1  0
M  END
>  <ref_url>  (390) 
https://fakepage.com

>  <submitter_name>  (390) 
Steph Wills

>  <submitter_email>  (390) 
stephanie.wills@dtc.ox.ac.uk

>  <submitter_institution>  (390) 
University of Oxford

>  <generation_date>  (390) 
2020-06-04

>  <method>  (390) 
Fragment network

>  <ref_mols>  (390) 
x0183_0B,x0311_0B

>  <ref_pdb>  (390) 
references/x0183-0B-x0311-0B-1407.holo_minimised_nolig.pdb

>  <original SMILES>  (390) 
NS(=O)(=O)c1ccc(NC(=O)CCOC2CNC2)cc1

>  <synthon>  (390) 
[Xe]C1CNC1

>  <original_name>  (390) 
x0183-0B-x0311-0B-1407

>  <comRMSD_score>  (390) 
0.6809099192858162

>  <IF_score>  (390) 
0.5416666666666666

>  <SuCOS_score>  (390) 
0.3924442383890332

>  <compound_ID>  (390) 
REAL:Z2452427470

$$$$

     RDKit          3D

 19 20  0  0  0  0  0  0  0  0999 V2000
  -13.6750    3.4730  -75.7600 C   0  0  0  0  0  0  0  0  0  0  0  0
  -12.7200    4.6730  -75.9840 C   0  0  0  0  0  0  0  0  0  0  0  0
  -13.4080    5.6870  -76.9250 C   0  0  0  0  0  0  0  0  0  0  0  0
  -12.5430    5.4050  -74.6310 C   0  0  0  0  0  0  0  0  0  0  0  0
  -11.4260    4.2080  -76.7040 C   0  0  0  0  0  0  0  0  0  0  0  0
  -10.4820    3.3330  -76.1140 C   0  0  0  0  0  0  0  0  0  0  0  0
  -11.1440    4.6460  -78.0040 C   0  0  0  0  0  0  0  0  0  0  0  0
   -9.3230    2.9240  -76.8100 C   0  0  0  0  0  0  0  0  0  0  0  0
   -9.9960    4.2410  -78.6940 C   0  0  0  0  0  0  0  0  0  0  0  0
   -9.0710    3.3730  -78.1180 C   0  0  0  0  0  0  0  0  0  0  0  0
   -7.8470    2.9460  -78.9270 C   0  0  0  0  0  0  0  0  0  0  0  0
   -6.7560    4.0080  -79.0530 C   0  0  0  0  0  0  0  0  0  0  0  0
   -5.4540    3.6260  -79.5670 N   0  0  0  0  0  0  0  0  0  0  0  0
   -4.7620    4.4980  -80.4150 C   0  0  0  0  0  0  0  0  0  0  0  0
   -5.1540    5.6530  -80.6410 O   0  0  0  0  0  0  0  0  0  0  0  0
   -3.4750    3.9100  -81.0350 C   0  0  0  0  0  0  0  0  0  0  0  0
   -2.6540    2.9420  -80.1620 C   0  0  0  0  0  0  0  0  0  0  0  0
   -2.1740    4.7420  -81.0530 C   0  0  0  0  0  0  0  0  0  0  0  0
   -1.4240    3.5280  -80.7150 N   0  0  0  0  0  0  0  0  0  0  0  0
  2  1  1  0
  2  3  1  0
  2  4  1  0
  2  5  1  0
  5  6  2  0
  5  7  1  0
  6  8  1  0
  7  9  2  0
  8 10  2  0
  9 10  1  0
 10 11  1  0
 11 12  1  0
 12 13  1  0
 13 14  1  0
 14 15  2  0
 14 16  1  0
 16 17  1  0
 16 18  1  0
 17 19  1  0
 18 19  1  0
M  END
>  <ref_url>  (391) 
https://fakepage.com

>  <submitter_name>  (391) 
Steph Wills

>  <submitter_email>  (391) 
stephanie.wills@dtc.ox.ac.uk

>  <submitter_institution>  (391) 
University of Oxford

>  <generation_date>  (391) 
2020-06-04

>  <method>  (391) 
Fragment network

>  <ref_mols>  (391) 
x0183_0B,x0311_0B

>  <ref_pdb>  (391) 
references/x0183-0B-x0311-0B-1527.holo_minimised_nolig.pdb

>  <original SMILES>  (391) 
CC(C)(C)c1ccc(CCNC(=O)C2CNC2)cc1

>  <synthon>  (391) 
[Xe]C1CNC1

>  <original_name>  (391) 
x0183-0B-x0311-0B-1527

>  <comRMSD_score>  (391) 
0.7617519906361232

>  <IF_score>  (391) 
0.3611111111111111

>  <SuCOS_score>  (391) 
0.3888356642433102

>  <compound_ID>  (391) 
CHEMSPACE-BB:CSMB00134360171

$$$$

     RDKit          3D

 17 18  0  0  0  0  0  0  0  0999 V2000
   -7.9000    3.5480  -78.3390 C   0  0  0  0  0  0  0  0  0  0  0  0
   -9.2020    3.7150  -77.6050 C   0  0  0  0  0  0  0  0  0  0  0  0
   -9.4240    3.0910  -76.3760 C   0  0  0  0  0  0  0  0  0  0  0  0
  -10.2170    4.5110  -78.1390 C   0  0  0  0  0  0  0  0  0  0  0  0
  -10.6350    3.2720  -75.6890 C   0  0  0  0  0  0  0  0  0  0  0  0
  -11.4230    4.6950  -77.4560 C   0  0  0  0  0  0  0  0  0  0  0  0
  -11.6450    4.0810  -76.2170 C   0  0  0  0  0  0  0  0  0  0  0  0
  -12.8920    4.3400  -75.5870 N   0  0  0  0  0  0  0  0  0  0  0  0
  -13.3580    5.6090  -75.2240 C   0  0  0  0  0  0  0  0  0  0  0  0
  -14.0920    6.3190  -75.9060 O   0  0  0  0  0  0  0  0  0  0  0  0
  -12.8620    6.0830  -73.8550 C   0  0  0  0  0  0  0  0  0  0  0  0
  -13.0110    5.0030  -72.7890 C   0  0  0  0  0  0  0  0  0  0  0  0
  -14.3960    4.7150  -72.5540 O   0  0  0  0  0  0  0  0  0  0  0  0
  -14.7020    3.3680  -72.1020 C   0  0  0  0  0  0  0  0  0  0  0  0
  -15.7980    2.6230  -72.8980 C   0  0  0  0  0  0  0  0  0  0  0  0
  -15.6730    3.1790  -70.9130 C   0  0  0  0  0  0  0  0  0  0  0  0
  -16.7900    3.0450  -71.8780 N   0  0  0  0  0  0  0  0  0  0  0  0
  1  2  1  0
  2  3  2  0
  2  4  1  0
  3  5  1  0
  4  6  2  0
  5  7  2  0
  6  7  1  0
  7  8  1  0
  8  9  1  0
  9 10  2  0
  9 11  1  0
 11 12  1  0
 12 13  1  0
 13 14  1  0
 14 15  1  0
 14 16  1  0
 15 17  1  0
 16 17  1  0
M  END
>  <ref_url>  (392) 
https://fakepage.com

>  <submitter_name>  (392) 
Steph Wills

>  <submitter_email>  (392) 
stephanie.wills@dtc.ox.ac.uk

>  <submitter_institution>  (392) 
University of Oxford

>  <generation_date>  (392) 
2020-06-04

>  <method>  (392) 
Fragment network

>  <ref_mols>  (392) 
x0183_0B,x0311_0B

>  <ref_pdb>  (392) 
references/x0183-0B-x0311-0B-1596.holo_minimised_nolig.pdb

>  <original SMILES>  (392) 
Cc1ccc(NC(=O)CCOC2CNC2)cc1

>  <synthon>  (392) 
[Xe]C1CNC1

>  <original_name>  (392) 
x0183-0B-x0311-0B-1596

>  <comRMSD_score>  (392) 
0.5644818219152212

>  <IF_score>  (392) 
0.2769230769230769

>  <SuCOS_score>  (392) 
0.3587565201902886

>  <compound_ID>  (392) 
REAL:Z2391550368

$$$$

     RDKit          3D

 18 20  0  0  0  0  0  0  0  0999 V2000
   -8.3110    3.3160  -80.1720 C   0  0  0  0  0  0  0  0  0  0  0  0
   -8.1160    3.3070  -78.6670 C   0  0  0  0  0  0  0  0  0  0  0  0
   -9.3790    3.6210  -77.8930 C   0  0  0  0  0  0  0  0  0  0  0  0
   -9.5680    3.1280  -76.6040 C   0  0  0  0  0  0  0  0  0  0  0  0
  -10.3920    4.4090  -78.4440 C   0  0  0  0  0  0  0  0  0  0  0  0
  -10.7410    3.4060  -75.8880 C   0  0  0  0  0  0  0  0  0  0  0  0
  -11.5690    4.6890  -77.7240 C   0  0  0  0  0  0  0  0  0  0  0  0
  -11.7830    4.1910  -76.4220 C   0  0  0  0  0  0  0  0  0  0  0  0
  -12.9840    4.4630  -75.6940 N   0  0  0  0  0  0  0  0  0  0  0  0
  -12.9050    4.2280  -74.2680 C   0  0  0  0  0  0  0  0  0  0  0  0
  -13.6080    5.8020  -75.8450 C   0  0  0  0  0  0  0  0  0  0  0  0
  -12.0800    5.4110  -73.6510 C   0  0  0  0  0  0  0  0  0  0  0  0
  -13.9280    6.4340  -74.4390 C   0  0  0  0  0  0  0  0  0  0  0  0
  -12.7480    6.7060  -73.6830 N   0  0  0  0  0  0  0  0  0  0  0  0
  -12.0990    7.9200  -74.2170 C   0  0  0  0  0  0  0  0  0  0  0  0
  -12.7020    9.2920  -73.8340 C   0  0  0  0  0  0  0  0  0  0  0  0
  -12.5440    8.3190  -75.6480 C   0  0  0  0  0  0  0  0  0  0  0  0
  -12.4470    9.7450  -75.2320 N   0  0  0  0  0  0  0  0  0  0  0  0
  1  2  1  0
  2  3  1  0
  3  4  2  0
  3  5  1  0
  4  6  1  0
  5  7  2  0
  6  8  2  0
  7  8  1  0
  8  9  1  0
  9 10  1  0
  9 11  1  0
 10 12  1  0
 11 13  1  0
 12 14  1  0
 13 14  1  0
 14 15  1  0
 15 16  1  0
 15 17  1  0
 16 18  1  0
 17 18  1  0
M  END
>  <ref_url>  (393) 
https://fakepage.com

>  <submitter_name>  (393) 
Steph Wills

>  <submitter_email>  (393) 
stephanie.wills@dtc.ox.ac.uk

>  <submitter_institution>  (393) 
University of Oxford

>  <generation_date>  (393) 
2020-06-04

>  <method>  (393) 
Fragment network

>  <ref_mols>  (393) 
x0183_0B,x0311_0B

>  <ref_pdb>  (393) 
references/x0183-0B-x0311-0B-1614.holo_minimised_nolig.pdb

>  <original SMILES>  (393) 
CCc1ccc(N2CCN(C3CNC3)CC2)cc1

>  <synthon>  (393) 
[Xe]C1CNC1

>  <original_name>  (393) 
x0183-0B-x0311-0B-1614

>  <comRMSD_score>  (393) 
0.989206921393766

>  <IF_score>  (393) 
0.4642857142857143

>  <SuCOS_score>  (393) 
0.4037095244091715

>  <compound_ID>  (393) 
CHEMSPACE-BB:CSMB00134260756

$$$$

     RDKit          3D

 19 20  0  0  0  0  0  0  0  0999 V2000
  -13.1830    5.6050  -75.0220 C   0  0  0  0  0  0  0  0  0  0  0  0
  -12.8930    4.1360  -75.3560 C   0  0  0  0  0  0  0  0  0  0  0  0
  -14.1220    3.4440  -75.9570 C   0  0  0  0  0  0  0  0  0  0  0  0
  -11.6750    3.9610  -76.2500 C   0  0  0  0  0  0  0  0  0  0  0  0
  -10.6420    3.0720  -75.9190 C   0  0  0  0  0  0  0  0  0  0  0  0
  -11.5660    4.6940  -77.4390 C   0  0  0  0  0  0  0  0  0  0  0  0
   -9.5350    2.9200  -76.7510 C   0  0  0  0  0  0  0  0  0  0  0  0
  -10.4580    4.5350  -78.2650 C   0  0  0  0  0  0  0  0  0  0  0  0
   -9.4350    3.6560  -77.9370 C   0  0  0  0  0  0  0  0  0  0  0  0
   -8.2530    3.5180  -78.8620 C   0  0  0  0  0  0  0  0  0  0  0  0
   -7.1470    2.7360  -78.2330 C   0  0  0  0  0  0  0  0  0  0  0  0
   -6.4760    3.6310  -77.3460 N   0  0  0  0  0  0  0  0  0  0  0  0
   -6.8930    3.5150  -75.9780 C   0  0  0  0  0  0  0  0  0  0  0  0
   -5.1540    3.9260  -77.5490 C   0  0  0  0  0  0  0  0  0  0  0  0
   -4.7080    4.2150  -78.6570 O   0  0  0  0  0  0  0  0  0  0  0  0
   -4.3100    3.8140  -76.3070 C   0  0  0  0  0  0  0  0  0  0  0  0
   -2.8030    3.9140  -76.5130 C   0  0  0  0  0  0  0  0  0  0  0  0
   -4.1810    5.0270  -75.3670 C   0  0  0  0  0  0  0  0  0  0  0  0
   -2.7860    5.1780  -75.8080 N   0  0  0  0  0  0  0  0  0  0  0  0
  1  2  1  0
  2  3  1  0
  2  4  1  0
  4  5  2  0
  4  6  1  0
  5  7  1  0
  6  8  2  0
  7  9  2  0
  8  9  1  0
  9 10  1  0
 10 11  1  0
 11 12  1  0
 12 13  1  0
 12 14  1  0
 14 15  2  0
 14 16  1  0
 16 17  1  0
 16 18  1  0
 17 19  1  0
 18 19  1  0
M  END
>  <ref_url>  (394) 
https://fakepage.com

>  <submitter_name>  (394) 
Steph Wills

>  <submitter_email>  (394) 
stephanie.wills@dtc.ox.ac.uk

>  <submitter_institution>  (394) 
University of Oxford

>  <generation_date>  (394) 
2020-06-04

>  <method>  (394) 
Fragment network

>  <ref_mols>  (394) 
x0183_0B,x0311_0B

>  <ref_pdb>  (394) 
references/x0183-0B-x0311-0B-1806.holo_minimised_nolig.pdb

>  <original SMILES>  (394) 
CC(C)c1ccc(CCN(C)C(=O)C2CNC2)cc1

>  <synthon>  (394) 
[Xe]C1CNC1

>  <original_name>  (394) 
x0183-0B-x0311-0B-1806

>  <comRMSD_score>  (394) 
0.7211073870349428

>  <IF_score>  (394) 
0.375

>  <SuCOS_score>  (394) 
0.4746359519407959

>  <compound_ID>  (394) 
CHEMSPACE-BB:CSMB00134363605

$$$$

     RDKit          3D

 17 18  0  0  0  0  0  0  0  0999 V2000
   -7.6170    3.7730  -79.3340 C   0  0  0  0  0  0  0  0  0  0  0  0
   -8.1400    3.0450  -78.2300 O   0  0  0  0  0  0  0  0  0  0  0  0
   -9.3260    3.4770  -77.6780 C   0  0  0  0  0  0  0  0  0  0  0  0
   -9.6440    2.9230  -76.4380 C   0  0  0  0  0  0  0  0  0  0  0  0
  -10.2110    4.3940  -78.2440 C   0  0  0  0  0  0  0  0  0  0  0  0
  -10.8270    3.2790  -75.7780 C   0  0  0  0  0  0  0  0  0  0  0  0
  -11.3960    4.7520  -77.5870 C   0  0  0  0  0  0  0  0  0  0  0  0
  -11.7220    4.2010  -76.3460 C   0  0  0  0  0  0  0  0  0  0  0  0
  -12.9110    4.5220  -75.6290 N   0  0  0  0  0  0  0  0  0  0  0  0
  -13.4360    5.8040  -75.4580 C   0  0  0  0  0  0  0  0  0  0  0  0
  -14.0600    6.4320  -76.3080 O   0  0  0  0  0  0  0  0  0  0  0  0
  -13.1840    6.4620  -74.0900 C   0  0  2  0  0  0  0  0  0  0  0  0
  -11.7800    6.2150  -73.5850 C   0  0  0  0  0  0  0  0  0  0  0  0
  -14.2000    6.1190  -73.0040 C   0  0  0  0  0  0  0  0  0  0  0  0
  -14.7810    7.2880  -72.1730 C   0  0  0  0  0  0  0  0  0  0  0  0
  -15.6670    5.8260  -73.4000 C   0  0  0  0  0  0  0  0  0  0  0  0
  -16.1480    6.7660  -72.3700 N   0  0  0  0  0  0  0  0  0  0  0  0
  1  2  1  0
  2  3  1  0
  3  4  2  0
  3  5  1  0
  4  6  1  0
  5  7  2  0
  6  8  2  0
  7  8  1  0
  8  9  1  0
  9 10  1  0
 10 11  2  0
 10 12  1  0
 12 13  1  1
 12 14  1  0
 14 15  1  0
 14 16  1  0
 15 17  1  0
 16 17  1  0
M  END
>  <ref_url>  (395) 
https://fakepage.com

>  <submitter_name>  (395) 
Steph Wills

>  <submitter_email>  (395) 
stephanie.wills@dtc.ox.ac.uk

>  <submitter_institution>  (395) 
University of Oxford

>  <generation_date>  (395) 
2020-06-04

>  <method>  (395) 
Fragment network

>  <ref_mols>  (395) 
x0183_0B,x0311_0B

>  <ref_pdb>  (395) 
references/x0183-0B-x0311-0B-1849.holo_minimised_nolig.pdb

>  <original SMILES>  (395) 
COc1ccc(NC(=O)C(C)C2CNC2)cc1

>  <synthon>  (395) 
[Xe]C1CNC1

>  <original_name>  (395) 
x0183-0B-x0311-0B-1849

>  <comRMSD_score>  (395) 
0.5080933969261958

>  <IF_score>  (395) 
0.2769230769230769

>  <SuCOS_score>  (395) 
0.3522889832100294

>  <compound_ID>  (395) 
CHEMSPACE-BB:CSMB00008874940

$$$$

     RDKit          3D

 17 18  0  0  0  0  0  0  0  0999 V2000
   -7.7080    1.9490  -78.5530 C   0  0  0  0  0  0  0  0  0  0  0  0
   -8.1960    3.2820  -78.4640 O   0  0  0  0  0  0  0  0  0  0  0  0
   -9.3590    3.5590  -77.7760 C   0  0  0  0  0  0  0  0  0  0  0  0
   -9.4890    2.9650  -76.5200 C   0  0  0  0  0  0  0  0  0  0  0  0
  -10.3910    4.3760  -78.2310 C   0  0  0  0  0  0  0  0  0  0  0  0
  -10.6340    3.1790  -75.7270 C   0  0  0  0  0  0  0  0  0  0  0  0
  -11.5360    4.5960  -77.4420 C   0  0  0  0  0  0  0  0  0  0  0  0
  -11.6730    3.9980  -76.1770 C   0  0  0  0  0  0  0  0  0  0  0  0
  -12.8730    4.2690  -75.4390 N   0  0  0  0  0  0  0  0  0  0  0  0
  -13.4950    5.5130  -75.3140 C   0  0  0  0  0  0  0  0  0  0  0  0
  -14.2460    6.0030  -76.1470 O   0  0  0  0  0  0  0  0  0  0  0  0
  -13.1710    6.2710  -74.0140 C   0  0  0  0  0  0  0  0  0  0  0  0
  -12.2740    7.4600  -74.3030 C   0  0  0  0  0  0  0  0  0  0  0  0
  -13.1600    8.6980  -74.5090 C   0  0  0  0  0  0  0  0  0  0  0  0
  -12.6320   10.0840  -74.0790 C   0  0  0  0  0  0  0  0  0  0  0  0
  -14.2810    8.9200  -73.4640 C   0  0  0  0  0  0  0  0  0  0  0  0
  -13.5630   10.0960  -72.9370 N   0  0  0  0  0  0  0  0  0  0  0  0
  1  2  1  0
  2  3  1  0
  3  4  2  0
  3  5  1  0
  4  6  1  0
  5  7  2  0
  6  8  2  0
  7  8  1  0
  8  9  1  0
  9 10  1  0
 10 11  2  0
 10 12  1  0
 12 13  1  0
 13 14  1  0
 14 15  1  0
 14 16  1  0
 15 17  1  0
 16 17  1  0
M  END
>  <ref_url>  (396) 
https://fakepage.com

>  <submitter_name>  (396) 
Steph Wills

>  <submitter_email>  (396) 
stephanie.wills@dtc.ox.ac.uk

>  <submitter_institution>  (396) 
University of Oxford

>  <generation_date>  (396) 
2020-06-04

>  <method>  (396) 
Fragment network

>  <ref_mols>  (396) 
x0183_0B,x0311_0B

>  <ref_pdb>  (396) 
references/x0183-0B-x0311-0B-1896.holo_minimised_nolig.pdb

>  <original SMILES>  (396) 
COc1ccc(NC(=O)CCC2CNC2)cc1

>  <synthon>  (396) 
[Xe]C1CNC1

>  <original_name>  (396) 
x0183-0B-x0311-0B-1896

>  <comRMSD_score>  (396) 
0.7457934253755082

>  <IF_score>  (396) 
0.3611111111111111

>  <SuCOS_score>  (396) 
0.3475847204564233

>  <compound_ID>  (396) 
REAL:Z2824630552

$$$$

     RDKit          3D

 19 20  0  0  0  0  0  0  0  0999 V2000
  -12.6280    6.2630  -73.7940 C   0  0  0  0  0  0  0  0  0  0  0  0
  -12.8860    6.0220  -75.2890 C   0  0  0  0  0  0  0  0  0  0  0  0
  -12.8080    4.5840  -75.8800 C   0  0  2  0  0  0  0  0  0  0  0  0
  -13.4470    3.5040  -74.9990 C   0  0  0  0  0  0  0  0  0  0  0  0
  -11.4920    4.1750  -76.5670 C   0  0  0  0  0  0  0  0  0  0  0  0
  -10.4870    3.3850  -75.9710 C   0  0  0  0  0  0  0  0  0  0  0  0
  -11.2650    4.5950  -77.8920 C   0  0  0  0  0  0  0  0  0  0  0  0
   -9.3230    3.0210  -76.6790 C   0  0  0  0  0  0  0  0  0  0  0  0
  -10.1090    4.2310  -78.5940 C   0  0  0  0  0  0  0  0  0  0  0  0
   -9.1240    3.4310  -78.0110 C   0  0  0  0  0  0  0  0  0  0  0  0
   -7.8970    3.0130  -78.8290 C   0  0  0  0  0  0  0  0  0  0  0  0
   -6.7360    3.9940  -78.9170 C   0  0  0  0  0  0  0  0  0  0  0  0
   -5.4830    3.4900  -79.4380 N   0  0  0  0  0  0  0  0  0  0  0  0
   -4.6370    4.3160  -80.1820 C   0  0  0  0  0  0  0  0  0  0  0  0
   -4.9910    5.4320  -80.6090 O   0  0  0  0  0  0  0  0  0  0  0  0
   -3.2440    3.6970  -80.3950 C   0  0  0  0  0  0  0  0  0  0  0  0
   -2.4220    4.1550  -81.6190 C   0  0  0  0  0  0  0  0  0  0  0  0
   -2.0590    4.2750  -79.5900 C   0  0  0  0  0  0  0  0  0  0  0  0
   -1.2000    4.0540  -80.7780 N   0  0  0  0  0  0  0  0  0  0  0  0
  1  2  1  0
  2  3  1  0
  3  4  1  1
  3  5  1  0
  5  6  2  0
  5  7  1  0
  6  8  1  0
  7  9  2  0
  8 10  2  0
  9 10  1  0
 10 11  1  0
 11 12  1  0
 12 13  1  0
 13 14  1  0
 14 15  2  0
 14 16  1  0
 16 17  1  0
 16 18  1  0
 17 19  1  0
 18 19  1  0
M  END
>  <ref_url>  (397) 
https://fakepage.com

>  <submitter_name>  (397) 
Steph Wills

>  <submitter_email>  (397) 
stephanie.wills@dtc.ox.ac.uk

>  <submitter_institution>  (397) 
University of Oxford

>  <generation_date>  (397) 
2020-06-04

>  <method>  (397) 
Fragment network

>  <ref_mols>  (397) 
x0183_0B,x0311_0B

>  <ref_pdb>  (397) 
references/x0183-0B-x0311-0B-2056.holo_minimised_nolig.pdb

>  <original SMILES>  (397) 
CCC(C)c1ccc(CCNC(=O)C2CNC2)cc1

>  <synthon>  (397) 
[Xe]C1CNC1

>  <original_name>  (397) 
x0183-0B-x0311-0B-2056

>  <comRMSD_score>  (397) 
0.6617970799270714

>  <IF_score>  (397) 
0.3928571428571428

>  <SuCOS_score>  (397) 
0.4335662052963127

>  <compound_ID>  (397) 
CHEMSPACE-BB:CSMB00134361878

$$$$

     RDKit          3D

 16 18  0  0  0  0  0  0  0  0999 V2000
  -10.1510    4.4640  -78.4080 C   0  0  0  0  0  0  0  0  0  0  0  0
  -11.1810    4.8280  -77.5460 C   0  0  0  0  0  0  0  0  0  0  0  0
  -11.3310    4.1740  -76.3170 C   0  0  0  0  0  0  0  0  0  0  0  0
   -9.2590    3.4490  -78.0600 C   0  0  0  0  0  0  0  0  0  0  0  0
   -9.3650    2.7510  -76.8450 C   0  0  0  0  0  0  0  0  0  0  0  0
  -12.4210    4.5380  -75.3140 C   0  0  0  0  0  0  0  0  0  0  0  0
  -10.4200    3.1490  -75.9940 C   0  0  0  0  0  0  0  0  0  0  0  0
   -8.3650    1.5740  -76.4310 C   0  0  0  0  0  0  0  0  0  0  0  0
  -13.7400    3.7710  -75.2870 C   0  0  0  0  0  0  0  0  0  0  0  0
  -12.7590    6.0310  -75.3120 C   0  0  0  0  0  0  0  0  0  0  0  0
   -6.8320    1.8050  -76.4680 C   0  0  0  0  0  0  0  0  0  0  0  0
   -8.0760    0.4500  -77.4570 C   0  0  0  0  0  0  0  0  0  0  0  0
  -14.6690    4.4920  -74.2890 C   0  0  0  0  0  0  0  0  0  0  0  0
  -13.0580    6.3630  -73.8710 C   0  0  0  0  0  0  0  0  0  0  0  0
   -6.6510    0.4850  -77.0940 N   0  0  0  0  0  0  0  0  0  0  0  0
  -13.9640    5.3590  -73.2940 N   0  0  0  0  0  0  0  0  0  0  0  0
  1  2  2  0
  2  3  1  0
  1  4  1  0
  4  5  2  0
  3  6  1  0
  3  7  2  0
  5  7  1  0
  5  8  1  0
  6  9  1  0
  6 10  1  0
  8 11  1  0
  8 12  1  0
  9 13  1  0
 10 14  1  0
 11 15  1  0
 12 15  1  0
 13 16  1  0
 14 16  1  0
M  END
>  <ref_url>  (398) 
https://fakepage.com

>  <submitter_name>  (398) 
Steph Wills

>  <submitter_email>  (398) 
stephanie.wills@dtc.ox.ac.uk

>  <submitter_institution>  (398) 
University of Oxford

>  <generation_date>  (398) 
2020-06-04

>  <method>  (398) 
Fragment network

>  <ref_mols>  (398) 
x0183_0B,x0311_0B

>  <ref_pdb>  (398) 
references/x0183-0B-x0311-0B-2073.holo_minimised_nolig.pdb

>  <original SMILES>  (398) 
c1cc(C2CCNCC2)cc(C2CNC2)c1

>  <synthon>  (398) 
[Xe]C1CNC1

>  <original_name>  (398) 
x0183-0B-x0311-0B-2073

>  <comRMSD_score>  (398) 
0.6175815735593158

>  <IF_score>  (398) 
0.4428571428571428

>  <SuCOS_score>  (398) 
0.3949411539544541

>  <compound_ID>  (398) 
CHEMSPACE-BB:CSMB00034347508

$$$$

     RDKit          3D

 17 18  0  0  0  0  0  0  0  0999 V2000
  -13.7940    6.5770  -76.1490 O   0  0  0  0  0  0  0  0  0  0  0  0
  -13.2240    5.8780  -75.3200 C   0  0  0  0  0  0  0  0  0  0  0  0
  -12.9240    6.4150  -73.9180 C   0  0  0  0  0  0  0  0  0  0  0  0
  -12.7910    4.5660  -75.5280 N   0  0  0  0  0  0  0  0  0  0  0  0
  -13.7540    5.7670  -72.8200 C   0  0  0  0  0  0  0  0  0  0  0  0
  -11.6860    4.1910  -76.3370 C   0  0  0  0  0  0  0  0  0  0  0  0
  -14.9650    4.9110  -73.2630 C   0  0  0  0  0  0  0  0  0  0  0  0
  -14.8200    6.6690  -72.1610 C   0  0  0  0  0  0  0  0  0  0  0  0
  -11.4400    4.7020  -77.6180 C   0  0  0  0  0  0  0  0  0  0  0  0
  -10.7920    3.2430  -75.8170 C   0  0  0  0  0  0  0  0  0  0  0  0
  -15.7460    5.5100  -72.1490 N   0  0  0  0  0  0  0  0  0  0  0  0
  -10.3320    4.2700  -78.3650 C   0  0  0  0  0  0  0  0  0  0  0  0
   -9.6820    2.8080  -76.5610 C   0  0  0  0  0  0  0  0  0  0  0  0
   -9.4520    3.3210  -77.8470 C   0  0  0  0  0  0  0  0  0  0  0  0
   -8.2740    2.8180  -78.6130 C   0  0  0  0  0  0  0  0  0  0  0  0
   -7.1100    3.0510  -78.4210 O   0  0  0  0  0  0  0  0  0  0  0  0
   -8.6300    1.9980  -79.6090 O   0  0  0  0  0  0  0  0  0  0  0  0
  1  2  2  0
  2  3  1  0
  2  4  1  0
  3  5  1  0
  4  6  1  0
  5  7  1  0
  5  8  1  0
  6  9  2  0
  6 10  1  0
  7 11  1  0
  8 11  1  0
  9 12  1  0
 10 13  2  0
 12 14  2  0
 13 14  1  0
 14 15  1  0
 15 16  2  0
 15 17  1  0
M  END
>  <ref_url>  (399) 
https://fakepage.com

>  <submitter_name>  (399) 
Steph Wills

>  <submitter_email>  (399) 
stephanie.wills@dtc.ox.ac.uk

>  <submitter_institution>  (399) 
University of Oxford

>  <generation_date>  (399) 
2020-06-04

>  <method>  (399) 
Fragment network

>  <ref_mols>  (399) 
x0183_0B,x0311_0B

>  <ref_pdb>  (399) 
references/x0183-0B-x0311-0B-2196.holo_minimised_nolig.pdb

>  <original SMILES>  (399) 
O=C(CC1CNC1)Nc1ccc(C(=O)O)cc1

>  <synthon>  (399) 
[Xe]C1CNC1

>  <original_name>  (399) 
x0183-0B-x0311-0B-2196

>  <comRMSD_score>  (399) 
0.4666556313395023

>  <IF_score>  (399) 
0.3611111111111111

>  <SuCOS_score>  (399) 
0.3782488015377966

>  <compound_ID>  (399) 
CHEMSPACE-BB:CSMB00001199063

$$$$

     RDKit          3D

 18 19  0  0  0  0  0  0  0  0999 V2000
   -7.3690    2.0190  -78.2430 C   0  0  0  0  0  0  0  0  0  0  0  0
   -7.9680    3.2980  -78.4050 O   0  0  0  0  0  0  0  0  0  0  0  0
   -9.1500    3.5870  -77.7690 C   0  0  0  0  0  0  0  0  0  0  0  0
   -9.3570    2.9670  -76.5380 C   0  0  0  0  0  0  0  0  0  0  0  0
  -10.1390    4.4450  -78.2670 C   0  0  0  0  0  0  0  0  0  0  0  0
  -10.6550    3.2490  -75.7760 C   0  0  0  0  0  0  0  0  0  0  0  0
  -11.3250    4.7030  -77.5740 C   0  0  0  0  0  0  0  0  0  0  0  0
  -11.5980    4.1180  -76.3300 C   0  0  0  0  0  0  0  0  0  0  0  0
  -12.7840    4.3690  -75.6090 N   0  0  0  0  0  0  0  0  0  0  0  0
  -13.2810    5.6250  -75.2840 C   0  0  0  0  0  0  0  0  0  0  0  0
  -13.8830    6.3850  -76.0370 O   0  0  0  0  0  0  0  0  0  0  0  0
  -13.0000    6.0500  -73.8250 C   0  0  0  0  0  0  0  0  0  0  0  0
  -13.6150    5.1070  -72.8310 N   0  0  0  0  0  0  0  0  0  0  0  0
  -12.5830    4.3570  -72.0990 C   0  0  0  0  0  0  0  0  0  0  0  0
  -14.5310    4.1220  -73.4690 C   0  0  0  0  0  0  0  0  0  0  0  0
  -15.0770    3.1560  -72.3950 C   0  0  0  0  0  0  0  0  0  0  0  0
  -15.9850    4.6370  -73.5360 C   0  0  0  0  0  0  0  0  0  0  0  0
  -16.4500    3.3750  -72.9170 N   0  0  0  0  0  0  0  0  0  0  0  0
  1  2  1  0
  2  3  1  0
  3  4  2  0
  3  5  1  0
  4  6  1  0
  5  7  2  0
  6  8  2  0
  7  8  1  0
  8  9  1  0
  9 10  1  0
 10 11  2  0
 10 12  1  0
 12 13  1  0
 13 14  1  0
 13 15  1  0
 15 16  1  0
 15 17  1  0
 16 18  1  0
 17 18  1  0
M  END
>  <ref_url>  (400) 
https://fakepage.com

>  <submitter_name>  (400) 
Steph Wills

>  <submitter_email>  (400) 
stephanie.wills@dtc.ox.ac.uk

>  <submitter_institution>  (400) 
University of Oxford

>  <generation_date>  (400) 
2020-06-04

>  <method>  (400) 
Fragment network

>  <ref_mols>  (400) 
x0183_0B,x0311_0B

>  <ref_pdb>  (400) 
references/x0183-0B-x0311-0B-2308.holo_minimised_nolig.pdb

>  <original SMILES>  (400) 
COc1ccc(NC(=O)CN(C)C2CNC2)cc1

>  <synthon>  (400) 
[Xe]C1CNC1

>  <original_name>  (400) 
x0183-0B-x0311-0B-2308

>  <comRMSD_score>  (400) 
0.6715217482206619

>  <IF_score>  (400) 
0.2714285714285714

>  <SuCOS_score>  (400) 
0.3557592555216445

>  <compound_ID>  (400) 
CHEMSPACE-BB:CSMB00008344879

$$$$

     RDKit          3D

 19 21  0  0  0  0  0  0  0  0999 V2000
   -6.9960    3.1470  -79.1220 N   0  0  0  0  0  0  0  0  0  0  0  0
   -7.9690    3.3590  -78.5200 C   0  0  0  0  0  0  0  0  0  0  0  0
   -9.1790    3.6200  -77.7950 C   0  0  0  0  0  0  0  0  0  0  0  0
   -9.4100    3.0530  -76.5460 C   0  0  0  0  0  0  0  0  0  0  0  0
  -10.1510    4.4540  -78.3390 C   0  0  0  0  0  0  0  0  0  0  0  0
  -10.6000    3.3290  -75.8540 C   0  0  0  0  0  0  0  0  0  0  0  0
  -11.3330    4.7240  -77.6430 C   0  0  0  0  0  0  0  0  0  0  0  0
  -11.6000    4.1750  -76.3760 C   0  0  0  0  0  0  0  0  0  0  0  0
  -12.7870    4.4620  -75.6910 N   0  0  0  0  0  0  0  0  0  0  0  0
  -13.8860    3.5120  -75.6010 C   0  0  0  0  0  0  0  0  0  0  0  0
  -13.1150    5.8800  -75.4010 C   0  0  0  0  0  0  0  0  0  0  0  0
  -14.4110    3.4750  -74.1700 C   0  0  0  0  0  0  0  0  0  0  0  0
  -13.0530    6.3240  -73.9040 C   0  0  0  0  0  0  0  0  0  0  0  0
  -14.9670    4.7980  -73.6090 C   0  0  0  0  0  0  0  0  0  0  0  0
  -14.0170    5.7230  -72.9550 N   0  0  0  0  0  0  0  0  0  0  0  0
  -14.8400    6.7340  -72.2280 C   0  0  0  0  0  0  0  0  0  0  0  0
  -15.5800    6.1870  -70.9890 C   0  0  0  0  0  0  0  0  0  0  0  0
  -16.2480    7.0230  -72.8030 C   0  0  0  0  0  0  0  0  0  0  0  0
  -16.7960    6.9220  -71.4270 N   0  0  0  0  0  0  0  0  0  0  0  0
  1  2  3  0
  2  3  1  0
  3  4  2  0
  3  5  1  0
  4  6  1  0
  5  7  2  0
  6  8  2  0
  7  8  1  0
  8  9  1  0
  9 10  1  0
  9 11  1  0
 10 12  1  0
 11 13  1  0
 12 14  1  0
 13 15  1  0
 14 15  1  0
 15 16  1  0
 16 17  1  0
 16 18  1  0
 17 19  1  0
 18 19  1  0
M  END
>  <ref_url>  (401) 
https://fakepage.com

>  <submitter_name>  (401) 
Steph Wills

>  <submitter_email>  (401) 
stephanie.wills@dtc.ox.ac.uk

>  <submitter_institution>  (401) 
University of Oxford

>  <generation_date>  (401) 
2020-06-04

>  <method>  (401) 
Fragment network

>  <ref_mols>  (401) 
x0183_0B,x0311_0B

>  <ref_pdb>  (401) 
references/x0183-0B-x0311-0B-2436.holo_minimised_nolig.pdb

>  <original SMILES>  (401) 
N#Cc1ccc(N2CCCN(C3CNC3)CC2)cc1

>  <synthon>  (401) 
[Xe]C1CNC1

>  <original_name>  (401) 
x0183-0B-x0311-0B-2436

>  <comRMSD_score>  (401) 
0.5035259013529827

>  <IF_score>  (401) 
0.4153846153846153

>  <SuCOS_score>  (401) 
0.419616933014607

>  <compound_ID>  (401) 
CHEMSPACE-BB:CSMB00134257533

$$$$

     RDKit          3D

 18 19  0  0  0  0  0  0  0  0999 V2000
   -6.9520    3.0460  -78.0280 N   0  0  0  0  0  0  0  0  0  0  0  0
   -8.1440    3.3260  -78.6480 C   0  0  0  0  0  0  0  0  0  0  0  0
   -8.2040    3.3460  -79.8700 O   0  0  0  0  0  0  0  0  0  0  0  0
   -9.3530    3.5820  -77.8010 C   0  0  0  0  0  0  0  0  0  0  0  0
  -10.3610    4.4040  -78.3150 C   0  0  0  0  0  0  0  0  0  0  0  0
   -9.5220    3.0370  -76.5230 C   0  0  0  0  0  0  0  0  0  0  0  0
  -11.5170    4.6800  -77.5710 C   0  0  0  0  0  0  0  0  0  0  0  0
  -10.6840    3.3120  -75.7780 C   0  0  0  0  0  0  0  0  0  0  0  0
  -11.6980    4.1350  -76.2870 C   0  0  0  0  0  0  0  0  0  0  0  0
  -12.9060    4.4560  -75.5890 N   0  0  0  0  0  0  0  0  0  0  0  0
  -13.0410    4.6200  -74.2100 C   0  0  0  0  0  0  0  0  0  0  0  0
  -13.0650    3.6690  -73.4220 O   0  0  0  0  0  0  0  0  0  0  0  0
  -13.1540    6.0770  -73.7040 C   0  0  0  0  0  0  0  0  0  0  0  0
  -12.1160    7.0280  -74.2610 C   0  0  0  0  0  0  0  0  0  0  0  0
  -12.6020    8.4770  -74.2780 C   0  0  0  0  0  0  0  0  0  0  0  0
  -14.0730    8.7040  -74.7090 C   0  0  0  0  0  0  0  0  0  0  0  0
  -12.2700    9.3190  -75.5360 C   0  0  0  0  0  0  0  0  0  0  0  0
  -13.6330    9.8970  -75.4740 N   0  0  0  0  0  0  0  0  0  0  0  0
  1  2  1  0
  2  3  2  0
  2  4  1  0
  4  5  2  0
  4  6  1  0
  5  7  1  0
  6  8  2  0
  7  9  2  0
  8  9  1  0
  9 10  1  0
 10 11  1  0
 11 12  2  0
 11 13  1  0
 13 14  1  0
 14 15  1  0
 15 16  1  0
 15 17  1  0
 16 18  1  0
 17 18  1  0
M  END
>  <ref_url>  (402) 
https://fakepage.com

>  <submitter_name>  (402) 
Steph Wills

>  <submitter_email>  (402) 
stephanie.wills@dtc.ox.ac.uk

>  <submitter_institution>  (402) 
University of Oxford

>  <generation_date>  (402) 
2020-06-04

>  <method>  (402) 
Fragment network

>  <ref_mols>  (402) 
x0183_0B,x0311_0B

>  <ref_pdb>  (402) 
references/x0183-0B-x0311-0B-2573.holo_minimised_nolig.pdb

>  <original SMILES>  (402) 
NC(=O)c1ccc(NC(=O)CCC2CNC2)cc1

>  <synthon>  (402) 
[Xe]C1CNC1

>  <original_name>  (402) 
x0183-0B-x0311-0B-2573

>  <comRMSD_score>  (402) 
0.6305461400901666

>  <IF_score>  (402) 
0.375

>  <SuCOS_score>  (402) 
0.4132869604710173

>  <compound_ID>  (402) 
REAL:Z2824634912

$$$$

     RDKit          3D

 18 19  0  0  0  0  0  0  0  0999 V2000
   -6.9220    3.7780  -78.6150 C   0  0  0  0  0  0  0  0  0  0  0  0
   -7.8900    2.7390  -78.1270 C   0  0  0  0  0  0  0  0  0  0  0  0
   -9.1980    3.2570  -77.5320 C   0  0  0  0  0  0  0  0  0  0  0  0
   -9.6280    2.7560  -76.3000 C   0  0  0  0  0  0  0  0  0  0  0  0
  -10.0090    4.2170  -78.1650 C   0  0  0  0  0  0  0  0  0  0  0  0
  -10.8300    3.1860  -75.7170 C   0  0  0  0  0  0  0  0  0  0  0  0
  -11.2180    4.6490  -77.5790 C   0  0  0  0  0  0  0  0  0  0  0  0
  -11.6490    4.1350  -76.3440 C   0  0  0  0  0  0  0  0  0  0  0  0
  -12.8660    4.5040  -75.6810 N   0  0  0  0  0  0  0  0  0  0  0  0
  -13.0880    4.6330  -74.3110 C   0  0  0  0  0  0  0  0  0  0  0  0
  -13.1820    3.6830  -73.5250 O   0  0  0  0  0  0  0  0  0  0  0  0
  -13.2370    6.0530  -73.7430 C   0  0  0  0  0  0  0  0  0  0  0  0
  -11.7410    7.0440  -73.8730 S   0  0  0  0  0  0  0  0  0  0  0  0
  -12.3390    8.3420  -75.0040 C   0  0  0  0  0  0  0  0  0  0  0  0
  -13.1230    9.4200  -74.2730 C   0  0  0  0  0  0  0  0  0  0  0  0
  -12.5680   10.8410  -74.4860 C   0  0  0  0  0  0  0  0  0  0  0  0
  -14.4030    9.9530  -74.9550 C   0  0  0  0  0  0  0  0  0  0  0  0
  -13.9240   11.3370  -74.7850 N   0  0  0  0  0  0  0  0  0  0  0  0
  1  2  1  0
  2  3  1  0
  3  4  2  0
  3  5  1  0
  4  6  1  0
  5  7  2  0
  6  8  2  0
  7  8  1  0
  8  9  1  0
  9 10  1  0
 10 11  2  0
 10 12  1  0
 12 13  1  0
 13 14  1  0
 14 15  1  0
 15 16  1  0
 15 17  1  0
 16 18  1  0
 17 18  1  0
M  END
>  <ref_url>  (403) 
https://fakepage.com

>  <submitter_name>  (403) 
Steph Wills

>  <submitter_email>  (403) 
stephanie.wills@dtc.ox.ac.uk

>  <submitter_institution>  (403) 
University of Oxford

>  <generation_date>  (403) 
2020-06-04

>  <method>  (403) 
Fragment network

>  <ref_mols>  (403) 
x0183_0B,x0311_0B

>  <ref_pdb>  (403) 
references/x0183-0B-x0311-0B-2652.holo_minimised_nolig.pdb

>  <original SMILES>  (403) 
CCc1ccc(NC(=O)CSCC2CNC2)cc1

>  <synthon>  (403) 
[Xe]C1CNC1

>  <original_name>  (403) 
x0183-0B-x0311-0B-2652

>  <comRMSD_score>  (403) 
0.7583274084017623

>  <IF_score>  (403) 
0.2714285714285714

>  <SuCOS_score>  (403) 
0.3739538524261875

>  <compound_ID>  (403) 
CHEMSPACE-BB:CSMB00001372098

$$$$

     RDKit          3D

 18 19  0  0  0  0  0  0  0  0999 V2000
   -6.6850    3.8660  -78.3240 C   0  0  0  0  0  0  0  0  0  0  0  0
   -7.8220    2.9210  -78.2850 C   0  0  0  0  0  0  0  0  0  0  0  0
   -7.5120    1.6780  -77.7970 C   0  0  0  0  0  0  0  0  0  0  0  0
   -9.1170    3.3590  -77.6020 C   0  0  0  0  0  0  0  0  0  0  0  0
  -10.0220    4.2760  -78.1490 C   0  0  0  0  0  0  0  0  0  0  0  0
   -9.4260    2.7920  -76.3610 C   0  0  0  0  0  0  0  0  0  0  0  0
  -11.2070    4.6080  -77.4720 C   0  0  0  0  0  0  0  0  0  0  0  0
  -10.6000    3.1190  -75.6860 C   0  0  0  0  0  0  0  0  0  0  0  0
  -11.5130    4.0270  -76.2240 C   0  0  0  0  0  0  0  0  0  0  0  0
  -12.8120    4.3510  -75.4420 C   0  0  0  0  0  0  0  0  0  0  0  0
  -13.2860    5.7880  -75.3110 C   0  0  0  0  0  0  0  0  0  0  0  0
  -13.0360    6.1170  -73.9990 N   0  0  0  0  0  0  0  0  0  0  0  0
  -12.5280    7.5050  -73.9530 C   0  0  0  0  0  0  0  0  0  0  0  0
  -14.1860    6.0870  -73.2470 C   0  0  0  0  0  0  0  0  0  0  0  0
  -14.2120    5.0150  -72.1440 C   0  0  0  0  0  0  0  0  0  0  0  0
  -14.6990    3.5890  -72.4830 C   0  0  0  0  0  0  0  0  0  0  0  0
  -15.4720    5.1010  -71.2520 C   0  0  0  0  0  0  0  0  0  0  0  0
  -15.5600    3.6110  -71.2780 N   0  0  0  0  0  0  0  0  0  0  0  0
  1  2  1  0
  2  3  1  0
  2  4  1  0
  4  5  2  0
  4  6  1  0
  5  7  1  0
  6  8  2  0
  7  9  2  0
  8  9  1  0
  9 10  1  0
 10 11  1  0
 11 12  1  0
 12 13  1  0
 12 14  1  0
 14 15  1  0
 15 16  1  0
 15 17  1  0
 16 18  1  0
 17 18  1  0
M  END
>  <ref_url>  (404) 
https://fakepage.com

>  <submitter_name>  (404) 
Steph Wills

>  <submitter_email>  (404) 
stephanie.wills@dtc.ox.ac.uk

>  <submitter_institution>  (404) 
University of Oxford

>  <generation_date>  (404) 
2020-06-04

>  <method>  (404) 
Fragment network

>  <ref_mols>  (404) 
x0183_0B,x0311_0B

>  <ref_pdb>  (404) 
references/x0183-0B-x0311-0B-2717.holo_minimised_nolig.pdb

>  <original SMILES>  (404) 
CC(C)c1ccc(CCN(C)CC2CNC2)cc1

>  <synthon>  (404) 
[Xe]C1CNC1

>  <original_name>  (404) 
x0183-0B-x0311-0B-2717

>  <comRMSD_score>  (404) 
0.8741707499110236

>  <IF_score>  (404) 
0.2769230769230769

>  <SuCOS_score>  (404) 
0.4454070141922323

>  <compound_ID>  (404) 
CHEMSPACE-BB:CSMB00134341728

$$$$

     RDKit          3D

 18 19  0  0  0  0  0  0  0  0999 V2000
   -7.1050    3.0430  -79.1730 N   0  0  0  0  0  0  0  0  0  0  0  0
   -8.0570    3.2770  -78.5450 C   0  0  0  0  0  0  0  0  0  0  0  0
   -9.2990    3.5850  -77.7540 C   0  0  0  0  0  0  0  0  0  0  0  0
   -9.5150    3.0380  -76.4870 C   0  0  0  0  0  0  0  0  0  0  0  0
  -10.2650    4.4410  -78.2900 C   0  0  0  0  0  0  0  0  0  0  0  0
  -10.6780    3.3480  -75.7730 C   0  0  0  0  0  0  0  0  0  0  0  0
  -11.4210    4.7490  -77.5810 C   0  0  0  0  0  0  0  0  0  0  0  0
  -11.6450    4.2110  -76.3100 C   0  0  0  0  0  0  0  0  0  0  0  0
  -12.7970    4.4960  -75.5340 N   0  0  0  0  0  0  0  0  0  0  0  0
  -13.3140    5.8440  -75.2890 C   0  0  0  0  0  0  0  0  0  0  0  0
  -14.1040    6.5190  -76.1810 O   0  0  0  0  0  0  0  0  0  0  0  0
  -12.9030    6.3770  -74.0430 C   0  0  0  0  0  0  0  0  0  0  0  0
  -13.7910    5.6770  -72.6190 S   0  0  0  0  0  0  0  0  0  0  0  0
  -15.1870    6.8430  -72.5540 C   0  0  0  0  0  0  0  0  0  0  0  0
  -15.8910    6.8110  -71.2120 C   0  0  0  0  0  0  0  0  0  0  0  0
  -15.7170    8.1120  -70.4500 C   0  0  0  0  0  0  0  0  0  0  0  0
  -17.3970    7.1400  -71.1320 C   0  0  0  0  0  0  0  0  0  0  0  0
  -17.0280    8.5670  -70.9900 N   0  0  0  0  0  0  0  0  0  0  0  0
  1  2  3  0
  2  3  1  0
  3  4  2  0
  3  5  1  0
  4  6  1  0
  5  7  2  0
  6  8  2  0
  7  8  1  0
  8  9  1  0
  9 10  1  0
 10 11  2  0
 10 12  1  0
 12 13  1  0
 13 14  1  0
 14 15  1  0
 15 16  1  0
 15 17  1  0
 16 18  1  0
 17 18  1  0
M  END
>  <ref_url>  (405) 
https://fakepage.com

>  <submitter_name>  (405) 
Steph Wills

>  <submitter_email>  (405) 
stephanie.wills@dtc.ox.ac.uk

>  <submitter_institution>  (405) 
University of Oxford

>  <generation_date>  (405) 
2020-06-04

>  <method>  (405) 
Fragment network

>  <ref_mols>  (405) 
x0183_0B,x0311_0B

>  <ref_pdb>  (405) 
references/x0183-0B-x0311-0B-2874.holo_minimised_nolig.pdb

>  <original SMILES>  (405) 
N#Cc1ccc(NC(=O)CSCC2CNC2)cc1

>  <synthon>  (405) 
[Xe]C1CNC1

>  <original_name>  (405) 
x0183-0B-x0311-0B-2874

>  <comRMSD_score>  (405) 
0.4899992225455455

>  <IF_score>  (405) 
0.425

>  <SuCOS_score>  (405) 
0.3751919912877074

>  <compound_ID>  (405) 
CHEMSPACE-BB:CSMB00001372115

$$$$

     RDKit          3D

 18 19  0  0  0  0  0  0  0  0999 V2000
   -6.1420    3.7450  -76.6870 O   0  0  0  0  0  0  0  0  0  0  0  0
   -6.6030    3.6680  -77.8090 C   0  0  0  0  0  0  0  0  0  0  0  0
   -5.9470    4.2160  -78.8480 O   0  0  0  0  0  0  0  0  0  0  0  0
   -7.8710    3.0060  -78.2510 C   0  0  0  0  0  0  0  0  0  0  0  0
   -9.1570    3.4100  -77.5550 C   0  0  0  0  0  0  0  0  0  0  0  0
   -9.4880    2.8630  -76.3130 C   0  0  0  0  0  0  0  0  0  0  0  0
  -10.0490    4.3270  -78.1300 C   0  0  0  0  0  0  0  0  0  0  0  0
  -10.6730    3.2200  -75.6560 C   0  0  0  0  0  0  0  0  0  0  0  0
  -11.2360    4.6850  -77.4730 C   0  0  0  0  0  0  0  0  0  0  0  0
  -11.5610    4.1350  -76.2220 C   0  0  0  0  0  0  0  0  0  0  0  0
  -12.7750    4.5540  -75.6160 N   0  0  0  0  0  0  0  0  0  0  0  0
  -13.1940    5.8840  -75.5270 C   0  0  0  0  0  0  0  0  0  0  0  0
  -13.7440    6.5210  -76.4210 O   0  0  0  0  0  0  0  0  0  0  0  0
  -12.9040    6.5400  -74.1710 C   0  0  0  0  0  0  0  0  0  0  0  0
  -13.9110    6.1720  -73.1140 C   0  0  0  0  0  0  0  0  0  0  0  0
  -14.6740    7.3310  -72.4290 C   0  0  0  0  0  0  0  0  0  0  0  0
  -15.2940    5.7400  -73.6510 C   0  0  0  0  0  0  0  0  0  0  0  0
  -15.9540    6.6170  -72.6580 N   0  0  0  0  0  0  0  0  0  0  0  0
  1  2  2  0
  2  3  1  0
  2  4  1  0
  4  5  1  0
  5  6  2  0
  5  7  1  0
  6  8  1  0
  7  9  2  0
  8 10  2  0
  9 10  1  0
 10 11  1  0
 11 12  1  0
 12 13  2  0
 12 14  1  0
 14 15  1  0
 15 16  1  0
 15 17  1  0
 16 18  1  0
 17 18  1  0
M  END
>  <ref_url>  (406) 
https://fakepage.com

>  <submitter_name>  (406) 
Steph Wills

>  <submitter_email>  (406) 
stephanie.wills@dtc.ox.ac.uk

>  <submitter_institution>  (406) 
University of Oxford

>  <generation_date>  (406) 
2020-06-04

>  <method>  (406) 
Fragment network

>  <ref_mols>  (406) 
x0183_0B,x0311_0B

>  <ref_pdb>  (406) 
references/x0183-0B-x0311-0B-2939.holo_minimised_nolig.pdb

>  <original SMILES>  (406) 
O=C(O)Cc1ccc(NC(=O)CC2CNC2)cc1

>  <synthon>  (406) 
[Xe]C1CNC1

>  <original_name>  (406) 
x0183-0B-x0311-0B-2939

>  <comRMSD_score>  (406) 
0.812368783250563

>  <IF_score>  (406) 
0.3269230769230769

>  <SuCOS_score>  (406) 
0.3833662921611595

>  <compound_ID>  (406) 
CHEMSPACE-BB:CSMB00001199060

$$$$

     RDKit          3D

 19 20  0  0  0  0  0  0  0  0999 V2000
  -12.6590    6.4120  -73.8800 C   0  0  0  0  0  0  0  0  0  0  0  0
  -13.0210    5.7850  -75.1920 C   0  0  0  0  0  0  0  0  0  0  0  0
  -12.8970    4.3910  -75.3320 C   0  0  1  0  0  0  0  0  0  0  0  0
  -13.9870    3.6610  -75.8260 C   0  0  0  0  0  0  0  0  0  0  0  0
  -11.6800    4.0790  -76.1990 C   0  0  0  0  0  0  0  0  0  0  0  0
  -10.6680    3.0890  -75.6630 C   0  0  0  0  0  0  0  0  0  0  0  0
  -11.4960    4.6770  -77.4610 C   0  0  0  0  0  0  0  0  0  0  0  0
   -9.4670    2.7860  -76.5370 C   0  0  0  0  0  0  0  0  0  0  0  0
  -10.3890    4.4000  -78.2690 C   0  0  0  0  0  0  0  0  0  0  0  0
   -9.3930    3.5050  -77.8770 C   0  0  0  0  0  0  0  0  0  0  0  0
   -8.1810    3.1980  -78.7660 C   0  0  0  0  0  0  0  0  0  0  0  0
   -7.1530    2.2950  -78.2300 N   0  0  0  0  0  0  0  0  0  0  0  0
   -7.3670    1.7820  -76.8820 C   0  0  0  0  0  0  0  0  0  0  0  0
   -5.8230    2.3680  -78.6420 C   0  0  0  0  0  0  0  0  0  0  0  0
   -5.4310    1.8920  -79.7180 O   0  0  0  0  0  0  0  0  0  0  0  0
   -4.9050    3.0840  -77.6520 C   0  0  0  0  0  0  0  0  0  0  0  0
   -5.6320    3.9160  -76.5890 C   0  0  0  0  0  0  0  0  0  0  0  0
   -4.2730    4.4250  -78.0600 C   0  0  0  0  0  0  0  0  0  0  0  0
   -4.5700    4.9240  -76.7150 N   0  0  0  0  0  0  0  0  0  0  0  0
  1  2  1  0
  2  3  1  0
  3  4  1  6
  3  5  1  0
  5  6  2  0
  5  7  1  0
  6  8  1  0
  7  9  2  0
  8 10  2  0
  9 10  1  0
 10 11  1  0
 11 12  1  0
 12 13  1  0
 12 14  1  0
 14 15  2  0
 14 16  1  0
 16 17  1  0
 16 18  1  0
 17 19  1  0
 18 19  1  0
M  END
>  <ref_url>  (407) 
https://fakepage.com

>  <submitter_name>  (407) 
Steph Wills

>  <submitter_email>  (407) 
stephanie.wills@dtc.ox.ac.uk

>  <submitter_institution>  (407) 
University of Oxford

>  <generation_date>  (407) 
2020-06-04

>  <method>  (407) 
Fragment network

>  <ref_mols>  (407) 
x0183_0B,x0311_0B

>  <ref_pdb>  (407) 
references/x0183-0B-x0311-0B-2948.holo_minimised_nolig.pdb

>  <original SMILES>  (407) 
CCC(C)c1ccc(CN(C)C(=O)C2CNC2)cc1

>  <synthon>  (407) 
[Xe]C1CNC1

>  <original_name>  (407) 
x0183-0B-x0311-0B-2948

>  <comRMSD_score>  (407) 
0.4405670733882036

>  <IF_score>  (407) 
0.3611111111111111

>  <SuCOS_score>  (407) 
0.5352578610528127

>  <compound_ID>  (407) 
CHEMSPACE-BB:CSMB00134358524

$$$$

     RDKit          3D

 18 19  0  0  0  0  0  0  0  0999 V2000
   -8.3280    3.3330  -80.1340 C   0  0  0  0  0  0  0  0  0  0  0  0
   -8.2030    3.1760  -78.6650 C   0  0  0  0  0  0  0  0  0  0  0  0
   -9.3180    3.4580  -77.8480 C   0  0  0  0  0  0  0  0  0  0  0  0
   -9.4330    2.8570  -76.5840 C   0  0  0  0  0  0  0  0  0  0  0  0
  -10.3210    4.3370  -78.2890 C   0  0  0  0  0  0  0  0  0  0  0  0
  -10.5310    3.1250  -75.7580 C   0  0  0  0  0  0  0  0  0  0  0  0
  -11.4420    4.6410  -77.4980 C   0  0  0  0  0  0  0  0  0  0  0  0
  -11.6090    4.0720  -76.2270 C   0  0  0  0  0  0  0  0  0  0  0  0
  -12.7690    4.4320  -75.4830 N   0  0  0  0  0  0  0  0  0  0  0  0
  -13.2160    5.7460  -75.3210 C   0  0  0  0  0  0  0  0  0  0  0  0
  -13.6850    6.4360  -76.2110 O   0  0  0  0  0  0  0  0  0  0  0  0
  -13.0790    6.3140  -73.8890 C   0  0  0  0  0  0  0  0  0  0  0  0
  -12.9670    7.8280  -73.8860 C   0  0  0  0  0  0  0  0  0  0  0  0
  -11.7200    8.3760  -74.3040 O   0  0  0  0  0  0  0  0  0  0  0  0
  -11.9400    9.6610  -74.9440 C   0  0  0  0  0  0  0  0  0  0  0  0
  -12.6760   10.6860  -74.1010 C   0  0  0  0  0  0  0  0  0  0  0  0
  -13.1410    9.8180  -75.9080 C   0  0  0  0  0  0  0  0  0  0  0  0
  -13.3980   11.1480  -75.3130 N   0  0  0  0  0  0  0  0  0  0  0  0
  1  2  1  0
  2  3  1  0
  3  4  2  0
  3  5  1  0
  4  6  1  0
  5  7  2  0
  6  8  2  0
  7  8  1  0
  8  9  1  0
  9 10  1  0
 10 11  2  0
 10 12  1  0
 12 13  1  0
 13 14  1  0
 14 15  1  0
 15 16  1  0
 15 17  1  0
 16 18  1  0
 17 18  1  0
M  END
>  <ref_url>  (408) 
https://fakepage.com

>  <submitter_name>  (408) 
Steph Wills

>  <submitter_email>  (408) 
stephanie.wills@dtc.ox.ac.uk

>  <submitter_institution>  (408) 
University of Oxford

>  <generation_date>  (408) 
2020-06-04

>  <method>  (408) 
Fragment network

>  <ref_mols>  (408) 
x0183_0B,x0311_0B

>  <ref_pdb>  (408) 
references/x0183-0B-x0311-0B-2989.holo_minimised_nolig.pdb

>  <original SMILES>  (408) 
CCc1ccc(NC(=O)CCOC2CNC2)cc1

>  <synthon>  (408) 
[Xe]C1CNC1

>  <original_name>  (408) 
x0183-0B-x0311-0B-2989

>  <comRMSD_score>  (408) 
0.9040103885513132

>  <IF_score>  (408) 
0.5892857142857143

>  <SuCOS_score>  (408) 
0.3796465395031496

>  <compound_ID>  (408) 
REAL:Z2390557816

$$$$

     RDKit          3D

 17 18  0  0  0  0  0  0  0  0999 V2000
   -6.6570    3.7380  -78.3720 C   0  0  0  0  0  0  0  0  0  0  0  0
   -7.9430    2.9890  -78.4700 C   0  0  0  0  0  0  0  0  0  0  0  0
   -9.1100    3.3490  -77.7740 C   0  0  0  0  0  0  0  0  0  0  0  0
   -9.3990    2.7800  -76.5310 C   0  0  0  0  0  0  0  0  0  0  0  0
  -10.0180    4.2670  -78.3130 C   0  0  0  0  0  0  0  0  0  0  0  0
  -10.5690    3.1190  -75.8320 C   0  0  0  0  0  0  0  0  0  0  0  0
  -11.1780    4.5990  -77.6120 C   0  0  0  0  0  0  0  0  0  0  0  0
  -11.4850    4.0350  -76.3670 C   0  0  0  0  0  0  0  0  0  0  0  0
  -12.6960    4.4380  -75.7340 N   0  0  0  0  0  0  0  0  0  0  0  0
  -13.0350    5.7310  -75.3430 C   0  0  0  0  0  0  0  0  0  0  0  0
  -13.5340    6.6460  -75.9910 O   0  0  0  0  0  0  0  0  0  0  0  0
  -12.7460    6.1000  -73.8740 C   0  0  0  0  0  0  0  0  0  0  0  0
  -13.0570    5.2040  -72.6980 C   0  0  0  0  0  0  0  0  0  0  0  0
  -13.0040    3.7500  -73.0940 C   0  0  0  0  0  0  0  0  0  0  0  0
  -13.1830    2.7440  -71.9220 C   0  0  0  0  0  0  0  0  0  0  0  0
  -14.3050    3.0550  -73.5810 C   0  0  0  0  0  0  0  0  0  0  0  0
  -14.6510    2.8170  -72.1570 N   0  0  0  0  0  0  0  0  0  0  0  0
  1  2  1  0
  2  3  1  0
  3  4  2  0
  3  5  1  0
  4  6  1  0
  5  7  2  0
  6  8  2  0
  7  8  1  0
  8  9  1  0
  9 10  1  0
 10 11  2  0
 10 12  1  0
 12 13  1  0
 13 14  1  0
 14 15  1  0
 14 16  1  0
 15 17  1  0
 16 17  1  0
M  END
>  <ref_url>  (409) 
https://fakepage.com

>  <submitter_name>  (409) 
Steph Wills

>  <submitter_email>  (409) 
stephanie.wills@dtc.ox.ac.uk

>  <submitter_institution>  (409) 
University of Oxford

>  <generation_date>  (409) 
2020-06-04

>  <method>  (409) 
Fragment network

>  <ref_mols>  (409) 
x0183_0B,x0311_0B

>  <ref_pdb>  (409) 
references/x0183-0B-x0311-0B-3032.holo_minimised_nolig.pdb

>  <original SMILES>  (409) 
CCc1ccc(NC(=O)CCC2CNC2)cc1

>  <synthon>  (409) 
[Xe]C1CNC1

>  <original_name>  (409) 
x0183-0B-x0311-0B-3032

>  <comRMSD_score>  (409) 
0.585271233418034

>  <IF_score>  (409) 
0.2769230769230769

>  <SuCOS_score>  (409) 
0.3734960076048526

>  <compound_ID>  (409) 
REAL:Z2824641616

$$$$

     RDKit          3D

 19 20  0  0  0  0  0  0  0  0999 V2000
  -12.7120    6.3530  -73.7590 C   0  0  0  0  0  0  0  0  0  0  0  0
  -13.1350    5.7910  -75.1230 C   0  0  0  0  0  0  0  0  0  0  0  0
  -12.8480    4.2840  -75.3040 C   0  0  1  0  0  0  0  0  0  0  0  0
  -14.0510    3.4990  -75.8450 C   0  0  0  0  0  0  0  0  0  0  0  0
  -11.6290    4.0490  -76.1920 C   0  0  0  0  0  0  0  0  0  0  0  0
  -10.6070    3.2130  -75.7280 C   0  0  0  0  0  0  0  0  0  0  0  0
  -11.4850    4.6350  -77.4640 C   0  0  0  0  0  0  0  0  0  0  0  0
   -9.4750    2.9630  -76.5030 C   0  0  0  0  0  0  0  0  0  0  0  0
  -10.3470    4.3800  -78.2400 C   0  0  0  0  0  0  0  0  0  0  0  0
   -9.3330    3.5410  -77.7650 C   0  0  0  0  0  0  0  0  0  0  0  0
   -8.1000    3.2520  -78.5920 C   0  0  0  0  0  0  0  0  0  0  0  0
   -7.7030    1.7620  -78.5560 C   0  0  0  0  0  0  0  0  0  0  0  0
   -6.4890    1.4030  -79.3090 N   0  0  0  0  0  0  0  0  0  0  0  0
   -5.3000    2.1220  -78.8820 C   0  0  0  0  0  0  0  0  0  0  0  0
   -6.6850    1.3930  -80.7590 C   0  0  0  0  0  0  0  0  0  0  0  0
   -6.1870    0.1420  -81.4600 C   0  0  0  0  0  0  0  0  0  0  0  0
   -7.3570   -0.6880  -82.0360 C   0  0  0  0  0  0  0  0  0  0  0  0
   -5.8290    0.2360  -82.9580 C   0  0  0  0  0  0  0  0  0  0  0  0
   -7.2950    0.3010  -83.1240 N   0  0  0  0  0  0  0  0  0  0  0  0
  1  2  1  0
  2  3  1  0
  3  4  1  6
  3  5  1  0
  5  6  2  0
  5  7  1  0
  6  8  1  0
  7  9  2  0
  8 10  2  0
  9 10  1  0
 10 11  1  0
 11 12  1  0
 12 13  1  0
 13 14  1  0
 13 15  1  0
 15 16  1  0
 16 17  1  0
 16 18  1  0
 17 19  1  0
 18 19  1  0
M  END
>  <ref_url>  (410) 
https://fakepage.com

>  <submitter_name>  (410) 
Steph Wills

>  <submitter_email>  (410) 
stephanie.wills@dtc.ox.ac.uk

>  <submitter_institution>  (410) 
University of Oxford

>  <generation_date>  (410) 
2020-06-04

>  <method>  (410) 
Fragment network

>  <ref_mols>  (410) 
x0183_0B,x0311_0B

>  <ref_pdb>  (410) 
references/x0183-0B-x0311-0B-3163.holo_minimised_nolig.pdb

>  <original SMILES>  (410) 
CCC(C)c1ccc(CCN(C)CC2CNC2)cc1

>  <synthon>  (410) 
[Xe]C1CNC1

>  <original_name>  (410) 
x0183-0B-x0311-0B-3163

>  <comRMSD_score>  (410) 
0.7357409467609786

>  <IF_score>  (410) 
0.3611111111111111

>  <SuCOS_score>  (410) 
0.5081147436806337

>  <compound_ID>  (410) 
CHEMSPACE-BB:CSMB00134341747

$$$$

     RDKit          3D

 17 18  0  0  0  0  0  0  0  0999 V2000
   -7.9320    3.2810  -78.3330 C   0  0  0  0  0  0  0  0  0  0  0  0
   -9.2230    3.6170  -77.6700 C   0  0  0  0  0  0  0  0  0  0  0  0
   -9.5050    3.0780  -76.4090 C   0  0  0  0  0  0  0  0  0  0  0  0
  -10.1680    4.4560  -78.2610 C   0  0  0  0  0  0  0  0  0  0  0  0
  -10.7120    3.3910  -75.7600 C   0  0  0  0  0  0  0  0  0  0  0  0
  -11.3670    4.7720  -77.6220 C   0  0  0  0  0  0  0  0  0  0  0  0
  -11.6530    4.2480  -76.3620 C   0  0  0  0  0  0  0  0  0  0  0  0
  -12.8500    4.5410  -75.6530 N   0  0  0  0  0  0  0  0  0  0  0  0
  -13.3670    5.8380  -75.5400 C   0  0  0  0  0  0  0  0  0  0  0  0
  -13.9880    6.4250  -76.4240 O   0  0  0  0  0  0  0  0  0  0  0  0
  -13.0930    6.5330  -74.1960 C   0  0  0  0  0  0  0  0  0  0  0  0
  -14.0150    6.0790  -73.1890 N   0  0  0  0  0  0  0  0  0  0  0  0
  -13.6320    5.0670  -72.3890 C   0  0  0  0  0  0  0  0  0  0  0  0
  -14.6780    7.2420  -72.5250 C   0  0  0  0  0  0  0  0  0  0  0  0
  -16.1160    7.5470  -73.0020 C   0  0  0  0  0  0  0  0  0  0  0  0
  -15.3660    6.9130  -71.1750 C   0  0  0  0  0  0  0  0  0  0  0  0
  -16.6460    6.7060  -71.8990 N   0  0  0  0  0  0  0  0  0  0  0  0
  1  2  1  0
  2  3  2  0
  2  4  1  0
  3  5  1  0
  4  6  2  0
  5  7  2  0
  6  7  1  0
  7  8  1  0
  8  9  1  0
  9 10  2  0
  9 11  1  0
 11 12  1  0
 12 13  1  0
 12 14  1  0
 14 15  1  0
 14 16  1  0
 15 17  1  0
 16 17  1  0
M  END
>  <ref_url>  (411) 
https://fakepage.com

>  <submitter_name>  (411) 
Steph Wills

>  <submitter_email>  (411) 
stephanie.wills@dtc.ox.ac.uk

>  <submitter_institution>  (411) 
University of Oxford

>  <generation_date>  (411) 
2020-06-04

>  <method>  (411) 
Fragment network

>  <ref_mols>  (411) 
x0183_0B,x0311_0B

>  <ref_pdb>  (411) 
references/x0183-0B-x0311-0B-3288.holo_minimised_nolig.pdb

>  <original SMILES>  (411) 
Cc1ccc(NC(=O)CN(C)C2CNC2)cc1

>  <synthon>  (411) 
[Xe]C1CNC1

>  <original_name>  (411) 
x0183-0B-x0311-0B-3288

>  <comRMSD_score>  (411) 
0.5727011357672439

>  <IF_score>  (411) 
0.2833333333333333

>  <SuCOS_score>  (411) 
0.3740341592721645

>  <compound_ID>  (411) 
CHEMSPACE-BB:CSMB00001361159

$$$$

     RDKit          3D

 19 20  0  0  0  0  0  0  0  0999 V2000
   -7.4630    3.8890  -79.5560 C   0  0  0  0  0  0  0  0  0  0  0  0
   -7.8000    3.0980  -78.3070 C   0  0  0  0  0  0  0  0  0  0  0  0
   -6.6300    3.0870  -77.3500 C   0  0  0  0  0  0  0  0  0  0  0  0
   -9.1230    3.4810  -77.6430 C   0  0  0  0  0  0  0  0  0  0  0  0
  -10.0480    4.3630  -78.2150 C   0  0  0  0  0  0  0  0  0  0  0  0
   -9.4530    2.9380  -76.4020 C   0  0  0  0  0  0  0  0  0  0  0  0
  -11.2490    4.6840  -77.5640 C   0  0  0  0  0  0  0  0  0  0  0  0
  -10.6470    3.2380  -75.7420 C   0  0  0  0  0  0  0  0  0  0  0  0
  -11.5740    4.1200  -76.3150 C   0  0  0  0  0  0  0  0  0  0  0  0
  -12.7710    4.3860  -75.5820 N   0  0  0  0  0  0  0  0  0  0  0  0
  -13.2700    5.6400  -75.2220 C   0  0  0  0  0  0  0  0  0  0  0  0
  -14.0040    6.3440  -75.9050 O   0  0  0  0  0  0  0  0  0  0  0  0
  -12.8140    6.1000  -73.8590 C   0  0  0  0  0  0  0  0  0  0  0  0
  -12.7400    4.9470  -72.8470 C   0  0  0  0  0  0  0  0  0  0  0  0
  -14.0360    4.4470  -72.5070 O   0  0  0  0  0  0  0  0  0  0  0  0
  -13.9740    3.2590  -71.6590 C   0  0  0  0  0  0  0  0  0  0  0  0
  -15.1760    2.8850  -70.7610 C   0  0  0  0  0  0  0  0  0  0  0  0
  -14.2290    1.8940  -72.3310 C   0  0  0  0  0  0  0  0  0  0  0  0
  -15.6080    1.8960  -71.7760 N   0  0  0  0  0  0  0  0  0  0  0  0
  1  2  1  0
  2  3  1  0
  2  4  1  0
  4  5  2  0
  4  6  1  0
  5  7  1  0
  6  8  2  0
  7  9  2  0
  8  9  1  0
  9 10  1  0
 10 11  1  0
 11 12  2  0
 11 13  1  0
 13 14  1  0
 14 15  1  0
 15 16  1  0
 16 17  1  0
 16 18  1  0
 17 19  1  0
 18 19  1  0
M  END
>  <ref_url>  (412) 
https://fakepage.com

>  <submitter_name>  (412) 
Steph Wills

>  <submitter_email>  (412) 
stephanie.wills@dtc.ox.ac.uk

>  <submitter_institution>  (412) 
University of Oxford

>  <generation_date>  (412) 
2020-06-04

>  <method>  (412) 
Fragment network

>  <ref_mols>  (412) 
x0183_0B,x0311_0B

>  <ref_pdb>  (412) 
references/x0183-0B-x0311-0B-3377.holo_minimised_nolig.pdb

>  <original SMILES>  (412) 
CC(C)c1ccc(NC(=O)CCOC2CNC2)cc1

>  <synthon>  (412) 
[Xe]C1CNC1

>  <original_name>  (412) 
x0183-0B-x0311-0B-3377

>  <comRMSD_score>  (412) 
0.8304014691701842

>  <IF_score>  (412) 
0.3653846153846154

>  <SuCOS_score>  (412) 
0.3864748417673196

>  <compound_ID>  (412) 
REAL:Z2390536074

$$$$

     RDKit          3D

 18 19  0  0  0  0  0  0  0  0999 V2000
  -12.7410    6.2800  -73.8190 C   0  0  0  0  0  0  0  0  0  0  0  0
  -13.2030    6.0660  -75.2680 C   0  0  0  0  0  0  0  0  0  0  0  0
  -13.1670    4.6350  -75.8790 C   0  0  2  0  0  0  0  0  0  0  0  0
  -13.7360    3.5120  -75.0150 C   0  0  0  0  0  0  0  0  0  0  0  0
  -11.8080    4.2640  -76.4790 C   0  0  0  0  0  0  0  0  0  0  0  0
  -10.8880    3.4100  -75.8450 C   0  0  0  0  0  0  0  0  0  0  0  0
  -11.4650    4.7970  -77.7290 C   0  0  0  0  0  0  0  0  0  0  0  0
   -9.6620    3.1010  -76.4530 C   0  0  0  0  0  0  0  0  0  0  0  0
  -10.2480    4.4890  -78.3280 C   0  0  0  0  0  0  0  0  0  0  0  0
   -9.3330    3.6380  -77.7030 C   0  0  0  0  0  0  0  0  0  0  0  0
   -8.0250    3.3190  -78.3800 C   0  0  0  0  0  0  0  0  0  0  0  0
   -7.1300    2.7020  -77.4430 N   0  0  0  0  0  0  0  0  0  0  0  0
   -6.0670    3.3870  -76.9030 C   0  0  0  0  0  0  0  0  0  0  0  0
   -6.1800    4.1460  -75.9360 O   0  0  0  0  0  0  0  0  0  0  0  0
   -4.7600    3.0720  -77.6460 C   0  0  0  0  0  0  0  0  0  0  0  0
   -4.0660    4.1730  -78.4730 C   0  0  0  0  0  0  0  0  0  0  0  0
   -4.9490    2.3570  -79.0020 C   0  0  0  0  0  0  0  0  0  0  0  0
   -3.8610    3.1920  -79.5650 N   0  0  0  0  0  0  0  0  0  0  0  0
  1  2  1  0
  2  3  1  0
  3  4  1  1
  3  5  1  0
  5  6  2  0
  5  7  1  0
  6  8  1  0
  7  9  2  0
  8 10  2  0
  9 10  1  0
 10 11  1  0
 11 12  1  0
 12 13  1  0
 13 14  2  0
 13 15  1  0
 15 16  1  0
 15 17  1  0
 16 18  1  0
 17 18  1  0
M  END
>  <ref_url>  (413) 
https://fakepage.com

>  <submitter_name>  (413) 
Steph Wills

>  <submitter_email>  (413) 
stephanie.wills@dtc.ox.ac.uk

>  <submitter_institution>  (413) 
University of Oxford

>  <generation_date>  (413) 
2020-06-04

>  <method>  (413) 
Fragment network

>  <ref_mols>  (413) 
x0183_0B,x0311_0B

>  <ref_pdb>  (413) 
references/x0183-0B-x0311-0B-3419.holo_minimised_nolig.pdb

>  <original SMILES>  (413) 
CCC(C)c1ccc(CNC(=O)C2CNC2)cc1

>  <synthon>  (413) 
[Xe]C1CNC1

>  <original_name>  (413) 
x0183-0B-x0311-0B-3419

>  <comRMSD_score>  (413) 
0.5275974208253289

>  <IF_score>  (413) 
0.3653846153846154

>  <SuCOS_score>  (413) 
0.5027908387873735

>  <compound_ID>  (413) 
CHEMSPACE-BB:CSMB00134355297

$$$$

     RDKit          3D

 16 17  0  0  0  0  0  0  0  0999 V2000
   -7.0730    2.7190  -77.8730 C   0  0  0  0  0  0  0  0  0  0  0  0
   -8.2370    3.2800  -78.4710 O   0  0  0  0  0  0  0  0  0  0  0  0
   -9.3410    3.5120  -77.6810 C   0  0  0  0  0  0  0  0  0  0  0  0
   -9.5290    2.8680  -76.4480 C   0  0  0  0  0  0  0  0  0  0  0  0
  -10.3450    4.4060  -78.0730 C   0  0  0  0  0  0  0  0  0  0  0  0
  -10.6600    3.1020  -75.6530 C   0  0  0  0  0  0  0  0  0  0  0  0
  -11.4730    4.6400  -77.2800 C   0  0  0  0  0  0  0  0  0  0  0  0
  -11.6620    3.9940  -76.0530 C   0  0  0  0  0  0  0  0  0  0  0  0
  -12.8050    4.2650  -75.3240 N   0  0  0  0  0  0  0  0  0  0  0  0
  -13.3730    5.6040  -75.2110 C   0  0  0  0  0  0  0  0  0  0  0  0
  -14.1070    6.1780  -76.0030 O   0  0  0  0  0  0  0  0  0  0  0  0
  -13.0710    6.3800  -74.0640 C   0  0  0  0  0  0  0  0  0  0  0  0
  -12.2390    7.6540  -74.2440 C   0  0  0  0  0  0  0  0  0  0  0  0
  -12.1280    8.4040  -75.5950 C   0  0  0  0  0  0  0  0  0  0  0  0
  -12.8090    8.9890  -73.6270 C   0  0  0  0  0  0  0  0  0  0  0  0
  -12.9420    9.4430  -74.9990 N   0  0  0  0  0  0  0  0  0  0  0  0
  1  2  1  0
  2  3  1  0
  3  4  2  0
  3  5  1  0
  4  6  1  0
  5  7  2  0
  6  8  2  0
  7  8  1  0
  8  9  1  0
  9 10  1  0
 10 11  2  0
 10 12  1  0
 12 13  1  0
 13 14  1  0
 13 15  1  0
 14 16  1  0
 15 16  1  0
M  END
>  <ref_url>  (414) 
https://fakepage.com

>  <submitter_name>  (414) 
Steph Wills

>  <submitter_email>  (414) 
stephanie.wills@dtc.ox.ac.uk

>  <submitter_institution>  (414) 
University of Oxford

>  <generation_date>  (414) 
2020-06-04

>  <method>  (414) 
Fragment network

>  <ref_mols>  (414) 
x0183_0B,x0311_0B

>  <ref_pdb>  (414) 
references/x0183-0B-x0311-0B-3435.holo_minimised_nolig.pdb

>  <original SMILES>  (414) 
COc1ccc(NC(=O)CC2CNC2)cc1

>  <synthon>  (414) 
[Xe]C1CNC1

>  <original_name>  (414) 
x0183-0B-x0311-0B-3435

>  <comRMSD_score>  (414) 
0.6083428667110845

>  <IF_score>  (414) 
0.1634615384615384

>  <SuCOS_score>  (414) 
0.3396925185551649

>  <compound_ID>  (414) 
CHEMSPACE-BB:CSMB00005885481

$$$$

     RDKit          3D

 18 19  0  0  0  0  0  0  0  0999 V2000
  -14.6350    5.6380  -75.9430 O   0  0  0  0  0  0  0  0  0  0  0  0
  -13.6420    5.3890  -75.2810 C   0  0  0  0  0  0  0  0  0  0  0  0
  -13.1430    6.4000  -74.2460 C   0  0  0  0  0  0  0  0  0  0  0  0
  -12.8940    4.2170  -75.4020 N   0  0  0  0  0  0  0  0  0  0  0  0
  -12.5500    7.5740  -74.9960 C   0  0  0  0  0  0  0  0  0  0  0  0
  -11.7090    3.9910  -76.1880 C   0  0  0  0  0  0  0  0  0  0  0  0
  -12.2950    8.9150  -74.2920 C   0  0  0  0  0  0  0  0  0  0  0  0
  -13.6270    8.3770  -75.7690 C   0  0  0  0  0  0  0  0  0  0  0  0
  -10.7640    3.1110  -75.6440 C   0  0  0  0  0  0  0  0  0  0  0  0
  -11.4120    4.5550  -77.4440 C   0  0  0  0  0  0  0  0  0  0  0  0
  -13.6400    9.3830  -74.6840 N   0  0  0  0  0  0  0  0  0  0  0  0
   -9.5700    2.7910  -76.3160 C   0  0  0  0  0  0  0  0  0  0  0  0
  -10.2100    4.2340  -78.1210 C   0  0  0  0  0  0  0  0  0  0  0  0
   -9.2680    3.3390  -77.5650 C   0  0  0  0  0  0  0  0  0  0  0  0
   -7.9630    2.9510  -78.2620 C   0  0  0  0  0  0  0  0  0  0  0  0
   -7.3710    1.8620  -77.7110 F   0  0  0  0  0  0  0  0  0  0  0  0
   -6.9800    3.8770  -78.2220 F   0  0  0  0  0  0  0  0  0  0  0  0
   -8.1170    2.5970  -79.5610 F   0  0  0  0  0  0  0  0  0  0  0  0
  1  2  2  0
  2  3  1  0
  2  4  1  0
  3  5  1  0
  4  6  1  0
  5  7  1  0
  5  8  1  0
  6  9  2  0
  6 10  1  0
  7 11  1  0
  8 11  1  0
  9 12  1  0
 10 13  2  0
 12 14  2  0
 13 14  1  0
 14 15  1  0
 15 16  1  0
 15 17  1  0
 15 18  1  0
M  END
>  <ref_url>  (415) 
https://fakepage.com

>  <submitter_name>  (415) 
Steph Wills

>  <submitter_email>  (415) 
stephanie.wills@dtc.ox.ac.uk

>  <submitter_institution>  (415) 
University of Oxford

>  <generation_date>  (415) 
2020-06-04

>  <method>  (415) 
Fragment network

>  <ref_mols>  (415) 
x0183_0B,x0311_0B

>  <ref_pdb>  (415) 
references/x0183-0B-x0311-0B-3486.holo_minimised_nolig.pdb

>  <original SMILES>  (415) 
O=C(CC1CNC1)Nc1ccc(C(F)(F)F)cc1

>  <synthon>  (415) 
[Xe]C1CNC1

>  <original_name>  (415) 
x0183-0B-x0311-0B-3486

>  <comRMSD_score>  (415) 
0.7962280916377178

>  <IF_score>  (415) 
0.2083333333333333

>  <SuCOS_score>  (415) 
0.3717386793262432

>  <compound_ID>  (415) 
CHEMSPACE-BB:CSMB00003546673

$$$$

     RDKit          3D

 19 20  0  0  0  0  0  0  0  0999 V2000
   -8.0190    3.7510  -80.3030 C   0  0  0  0  0  0  0  0  0  0  0  0
   -8.0790    3.3160  -78.8660 C   0  0  0  0  0  0  0  0  0  0  0  0
   -7.1660    2.6840  -78.3310 O   0  0  0  0  0  0  0  0  0  0  0  0
   -9.3060    3.6750  -78.1110 C   0  0  0  0  0  0  0  0  0  0  0  0
  -10.3070    4.4240  -78.7100 C   0  0  0  0  0  0  0  0  0  0  0  0
   -9.4650    3.2610  -76.7920 C   0  0  0  0  0  0  0  0  0  0  0  0
  -11.4700    4.7670  -78.0160 C   0  0  0  0  0  0  0  0  0  0  0  0
  -10.6270    3.6030  -76.0930 C   0  0  0  0  0  0  0  0  0  0  0  0
  -11.6540    4.3650  -76.7000 C   0  0  0  0  0  0  0  0  0  0  0  0
  -12.8220    4.6820  -75.9490 N   0  0  0  0  0  0  0  0  0  0  0  0
  -13.3590    5.9520  -75.6960 C   0  0  0  0  0  0  0  0  0  0  0  0
  -13.8480    6.7220  -76.5190 O   0  0  0  0  0  0  0  0  0  0  0  0
  -13.2700    6.2960  -74.2240 C   0  0  0  0  0  0  0  0  0  0  0  0
  -12.1160    5.5480  -73.6420 C   0  0  0  0  0  0  0  0  0  0  0  0
  -11.9440    4.3710  -74.4490 O   0  0  0  0  0  0  0  0  0  0  0  0
  -12.4300    3.0740  -73.9670 C   0  0  0  0  0  0  0  0  0  0  0  0
  -11.9180    1.7960  -74.6860 C   0  0  0  0  0  0  0  0  0  0  0  0
  -13.8130    2.5680  -74.4560 C   0  0  0  0  0  0  0  0  0  0  0  0
  -13.2600    1.2040  -74.5310 N   0  0  0  0  0  0  0  0  0  0  0  0
  1  2  1  0
  2  3  2  0
  2  4  1  0
  4  5  2  0
  4  6  1  0
  5  7  1  0
  6  8  2  0
  7  9  2  0
  8  9  1  0
  9 10  1  0
 10 11  1  0
 11 12  2  0
 11 13  1  0
 13 14  1  0
 14 15  1  0
 15 16  1  0
 16 17  1  0
 16 18  1  0
 17 19  1  0
 18 19  1  0
M  END
>  <ref_url>  (416) 
https://fakepage.com

>  <submitter_name>  (416) 
Steph Wills

>  <submitter_email>  (416) 
stephanie.wills@dtc.ox.ac.uk

>  <submitter_institution>  (416) 
University of Oxford

>  <generation_date>  (416) 
2020-06-04

>  <method>  (416) 
Fragment network

>  <ref_mols>  (416) 
x0183_0B,x0311_0B

>  <ref_pdb>  (416) 
references/x0183-0B-x0311-0B-3522.holo_minimised_nolig.pdb

>  <original SMILES>  (416) 
CC(=O)c1ccc(NC(=O)CCOC2CNC2)cc1

>  <synthon>  (416) 
[Xe]C1CNC1

>  <original_name>  (416) 
x0183-0B-x0311-0B-3522

>  <comRMSD_score>  (416) 
0.763846416386232

>  <IF_score>  (416) 
0.3611111111111111

>  <SuCOS_score>  (416) 
0.3713935047626698

>  <compound_ID>  (416) 
REAL:Z2439365237

$$$$

     RDKit          3D

 19 20  0  0  0  0  0  0  0  0999 V2000
  -13.9890    6.7560  -73.2540 C   0  0  0  0  0  0  0  0  0  0  0  0
  -12.8600    6.4130  -74.1060 N   0  0  0  0  0  0  0  0  0  0  0  0
  -13.2870    5.9120  -75.4320 C   0  0  0  0  0  0  0  0  0  0  0  0
  -12.1070    7.6370  -74.3210 C   0  0  0  0  0  0  0  0  0  0  0  0
  -13.1830    4.4130  -75.7750 C   0  0  0  0  0  0  0  0  0  0  0  0
  -13.0100    8.8500  -74.5160 C   0  0  0  0  0  0  0  0  0  0  0  0
  -11.8920    3.9800  -76.4600 C   0  0  0  0  0  0  0  0  0  0  0  0
  -12.6450    9.6930  -75.7570 C   0  0  0  0  0  0  0  0  0  0  0  0
  -12.7160   10.1450  -73.7380 C   0  0  0  0  0  0  0  0  0  0  0  0
  -11.0960    2.9800  -75.8950 C   0  0  0  0  0  0  0  0  0  0  0  0
  -11.4800    4.5500  -77.6760 C   0  0  0  0  0  0  0  0  0  0  0  0
  -12.9440   10.9130  -74.9820 N   0  0  0  0  0  0  0  0  0  0  0  0
   -9.9360    2.5430  -76.5380 C   0  0  0  0  0  0  0  0  0  0  0  0
  -10.3110    4.1060  -78.3180 C   0  0  0  0  0  0  0  0  0  0  0  0
   -9.5190    3.0820  -77.7670 C   0  0  0  0  0  0  0  0  0  0  0  0
   -8.2580    2.5040  -78.4340 C   0  0  0  0  0  0  0  0  0  0  0  0
   -8.2100    2.8730  -79.9290 C   0  0  0  0  0  0  0  0  0  0  0  0
   -8.4700    0.9830  -78.4440 C   0  0  0  0  0  0  0  0  0  0  0  0
   -6.8900    2.6830  -77.7430 C   0  0  0  0  0  0  0  0  0  0  0  0
  1  2  1  0
  2  3  1  0
  2  4  1  0
  3  5  1  0
  4  6  1  0
  5  7  1  0
  6  8  1  0
  6  9  1  0
  7 10  2  0
  7 11  1  0
  8 12  1  0
  9 12  1  0
 10 13  1  0
 11 14  2  0
 13 15  2  0
 14 15  1  0
 15 16  1  0
 16 17  1  0
 16 18  1  0
 16 19  1  0
M  END
>  <ref_url>  (417) 
https://fakepage.com

>  <submitter_name>  (417) 
Steph Wills

>  <submitter_email>  (417) 
stephanie.wills@dtc.ox.ac.uk

>  <submitter_institution>  (417) 
University of Oxford

>  <generation_date>  (417) 
2020-06-04

>  <method>  (417) 
Fragment network

>  <ref_mols>  (417) 
x0183_0B,x0311_0B

>  <ref_pdb>  (417) 
references/x0183-0B-x0311-0B-3703.holo_minimised_nolig.pdb

>  <original SMILES>  (417) 
CN(CCc1ccc(C(C)(C)C)cc1)CC1CNC1

>  <synthon>  (417) 
[Xe]C1CNC1

>  <original_name>  (417) 
x0183-0B-x0311-0B-3703

>  <comRMSD_score>  (417) 
0.8425810620669365

>  <IF_score>  (417) 
0.1805555555555555

>  <SuCOS_score>  (417) 
0.4387929710408577

>  <compound_ID>  (417) 
CHEMSPACE-BB:CSMB00134341729

$$$$

     RDKit          3D

 17 18  0  0  0  0  0  0  0  0999 V2000
   -8.0260    3.6590  -78.6660 C   0  0  0  0  0  0  0  0  0  0  0  0
   -9.2770    3.7820  -77.8430 C   0  0  0  0  0  0  0  0  0  0  0  0
   -9.4380    3.1640  -76.6000 C   0  0  0  0  0  0  0  0  0  0  0  0
  -10.3230    4.5490  -78.3370 C   0  0  0  0  0  0  0  0  0  0  0  0
  -10.6320    3.3310  -75.8740 C   0  0  0  0  0  0  0  0  0  0  0  0
  -11.5040    4.7170  -77.6210 C   0  0  0  0  0  0  0  0  0  0  0  0
  -11.6960    4.1180  -76.3710 C   0  0  0  0  0  0  0  0  0  0  0  0
  -12.9400    4.3120  -75.6320 N   0  0  0  0  0  0  0  0  0  0  0  0
  -13.8790    3.1970  -75.7570 C   0  0  0  0  0  0  0  0  0  0  0  0
  -13.4050    5.6330  -75.4530 C   0  0  0  0  0  0  0  0  0  0  0  0
  -14.0590    6.2320  -76.3170 O   0  0  0  0  0  0  0  0  0  0  0  0
  -13.1330    6.4220  -74.1540 C   0  0  1  0  0  0  0  0  0  0  0  0
  -12.8210    5.5370  -72.9730 C   0  0  0  0  0  0  0  0  0  0  0  0
  -12.1940    7.6180  -74.3000 C   0  0  0  0  0  0  0  0  0  0  0  0
  -12.2370    8.3210  -75.6880 C   0  0  0  0  0  0  0  0  0  0  0  0
  -12.7470    8.9900  -73.8190 C   0  0  0  0  0  0  0  0  0  0  0  0
  -13.3130    9.1830  -75.1640 N   0  0  0  0  0  0  0  0  0  0  0  0
  1  2  1  0
  2  3  2  0
  2  4  1  0
  3  5  1  0
  4  6  2  0
  5  7  2  0
  6  7  1  0
  7  8  1  0
  8  9  1  0
  8 10  1  0
 10 11  2  0
 10 12  1  0
 12 13  1  1
 12 14  1  0
 14 15  1  0
 14 16  1  0
 15 17  1  0
 16 17  1  0
M  END
>  <ref_url>  (418) 
https://fakepage.com

>  <submitter_name>  (418) 
Steph Wills

>  <submitter_email>  (418) 
stephanie.wills@dtc.ox.ac.uk

>  <submitter_institution>  (418) 
University of Oxford

>  <generation_date>  (418) 
2020-06-04

>  <method>  (418) 
Fragment network

>  <ref_mols>  (418) 
x0183_0B,x0311_0B

>  <ref_pdb>  (418) 
references/x0183-0B-x0311-0B-3735.holo_minimised_nolig.pdb

>  <original SMILES>  (418) 
Cc1ccc(N(C)C(=O)C(C)C2CNC2)cc1

>  <synthon>  (418) 
[Xe]C1CNC1

>  <original_name>  (418) 
x0183-0B-x0311-0B-3735

>  <comRMSD_score>  (418) 
0.5996205239376599

>  <IF_score>  (418) 
0.4666666666666667

>  <SuCOS_score>  (418) 
0.3959896958432495

>  <compound_ID>  (418) 
CHEMSPACE-BB:CSMB00002139181

$$$$

     RDKit          3D

 18 19  0  0  0  0  0  0  0  0999 V2000
  -12.7280    6.3010  -73.8040 C   0  0  0  0  0  0  0  0  0  0  0  0
  -13.0880    6.1030  -75.2830 C   0  0  0  0  0  0  0  0  0  0  0  0
  -13.1000    4.6680  -75.8790 C   0  0  2  0  0  0  0  0  0  0  0  0
  -13.6730    3.5620  -74.9920 C   0  0  0  0  0  0  0  0  0  0  0  0
  -11.7740    4.2560  -76.5220 C   0  0  0  0  0  0  0  0  0  0  0  0
  -11.4490    4.7180  -77.8030 C   0  0  0  0  0  0  0  0  0  0  0  0
  -10.8600    3.4090  -75.8670 C   0  0  0  0  0  0  0  0  0  0  0  0
  -10.2590    4.3450  -78.4210 C   0  0  0  0  0  0  0  0  0  0  0  0
   -9.6620    3.0340  -76.4900 C   0  0  0  0  0  0  0  0  0  0  0  0
   -9.3570    3.4980  -77.7750 C   0  0  0  0  0  0  0  0  0  0  0  0
   -8.0810    3.0960  -78.4790 C   0  0  0  0  0  0  0  0  0  0  0  0
   -8.3860    1.8980  -79.4000 C   0  0  0  0  0  0  0  0  0  0  0  0
   -7.1870    1.2490  -79.9400 N   0  0  0  0  0  0  0  0  0  0  0  0
   -7.4930   -0.1300  -80.3250 C   0  0  0  0  0  0  0  0  0  0  0  0
   -6.7900    1.8630  -81.1910 C   0  0  0  0  0  0  0  0  0  0  0  0
   -5.8180    1.0760  -82.0880 C   0  0  0  0  0  0  0  0  0  0  0  0
   -7.8670    1.5870  -82.2540 C   0  0  0  0  0  0  0  0  0  0  0  0
   -6.9880    0.5230  -82.8280 N   0  0  0  0  0  0  0  0  0  0  0  0
  1  2  1  0
  2  3  1  0
  3  4  1  1
  3  5  1  0
  5  6  2  0
  5  7  1  0
  6  8  1  0
  7  9  2  0
  8 10  2  0
  9 10  1  0
 10 11  1  0
 11 12  1  0
 12 13  1  0
 13 14  1  0
 13 15  1  0
 15 16  1  0
 15 17  1  0
 16 18  1  0
 17 18  1  0
M  END
>  <ref_url>  (419) 
https://fakepage.com

>  <submitter_name>  (419) 
Steph Wills

>  <submitter_email>  (419) 
stephanie.wills@dtc.ox.ac.uk

>  <submitter_institution>  (419) 
University of Oxford

>  <generation_date>  (419) 
2020-06-04

>  <method>  (419) 
Fragment network

>  <ref_mols>  (419) 
x0183_0B,x0311_0B

>  <ref_pdb>  (419) 
references/x0183-0B-x0311-0B-3775.holo_minimised_nolig.pdb

>  <original SMILES>  (419) 
CCC(C)c1ccc(CCN(C)C2CNC2)cc1

>  <synthon>  (419) 
[Xe]C1CNC1

>  <original_name>  (419) 
x0183-0B-x0311-0B-3775

>  <comRMSD_score>  (419) 
0.6938864780671593

>  <IF_score>  (419) 
0.375

>  <SuCOS_score>  (419) 
0.4744332009035504

>  <compound_ID>  (419) 
CHEMSPACE-BB:CSMB00134522303

$$$$

     RDKit          3D

 17 18  0  0  0  0  0  0  0  0999 V2000
   -8.2590    3.6940  -79.9170 C   0  0  0  0  0  0  0  0  0  0  0  0
   -8.2660    3.3120  -78.5420 O   0  0  0  0  0  0  0  0  0  0  0  0
   -9.4180    3.5790  -77.8500 C   0  0  0  0  0  0  0  0  0  0  0  0
   -9.5290    2.9720  -76.6000 C   0  0  0  0  0  0  0  0  0  0  0  0
  -10.4570    4.3880  -78.2880 C   0  0  0  0  0  0  0  0  0  0  0  0
  -10.6700    3.1640  -75.8020 C   0  0  0  0  0  0  0  0  0  0  0  0
  -11.5970    4.5820  -77.4920 C   0  0  0  0  0  0  0  0  0  0  0  0
  -11.7350    3.9750  -76.2290 C   0  0  0  0  0  0  0  0  0  0  0  0
  -12.9360    4.1780  -75.4250 N   0  0  0  0  0  0  0  0  0  0  0  0
  -13.8820    3.0700  -75.5570 C   0  0  0  0  0  0  0  0  0  0  0  0
  -13.4850    5.4710  -75.3000 C   0  0  0  0  0  0  0  0  0  0  0  0
  -14.2100    5.9770  -76.1610 O   0  0  0  0  0  0  0  0  0  0  0  0
  -13.2250    6.3510  -74.0730 C   0  0  0  0  0  0  0  0  0  0  0  0
  -13.0300    7.7680  -74.5480 C   0  0  0  0  0  0  0  0  0  0  0  0
  -11.7630    8.5340  -74.2280 C   0  0  0  0  0  0  0  0  0  0  0  0
  -12.5990    7.9380  -76.0230 C   0  0  0  0  0  0  0  0  0  0  0  0
  -11.7680    9.0830  -75.6020 N   0  0  0  0  0  0  0  0  0  0  0  0
  1  2  1  0
  2  3  1  0
  3  4  2  0
  3  5  1  0
  4  6  1  0
  5  7  2  0
  6  8  2  0
  7  8  1  0
  8  9  1  0
  9 10  1  0
  9 11  1  0
 11 12  2  0
 11 13  1  0
 13 14  1  0
 14 15  1  0
 14 16  1  0
 15 17  1  0
 16 17  1  0
M  END
>  <ref_url>  (420) 
https://fakepage.com

>  <submitter_name>  (420) 
Steph Wills

>  <submitter_email>  (420) 
stephanie.wills@dtc.ox.ac.uk

>  <submitter_institution>  (420) 
University of Oxford

>  <generation_date>  (420) 
2020-06-04

>  <method>  (420) 
Fragment network

>  <ref_mols>  (420) 
x0183_0B,x0311_0B

>  <ref_pdb>  (420) 
references/x0183-0B-x0311-0B-3825.holo_minimised_nolig.pdb

>  <original SMILES>  (420) 
COc1ccc(N(C)C(=O)CC2CNC2)cc1

>  <synthon>  (420) 
[Xe]C1CNC1

>  <original_name>  (420) 
x0183-0B-x0311-0B-3825

>  <comRMSD_score>  (420) 
0.8062411380767366

>  <IF_score>  (420) 
0.375

>  <SuCOS_score>  (420) 
0.3585122320954061

>  <compound_ID>  (420) 
CHEMSPACE-BB:CSMB00008224522

$$$$

     RDKit          3D

 18 19  0  0  0  0  0  0  0  0999 V2000
  -12.4850    5.6010  -73.2040 C   0  0  0  0  0  0  0  0  0  0  0  0
  -13.1450    6.4820  -74.2330 C   0  0  2  0  0  0  0  0  0  0  0  0
  -13.4760    5.6870  -75.5180 C   0  0  0  0  0  0  0  0  0  0  0  0
  -12.2770    7.7040  -74.4770 C   0  0  0  0  0  0  0  0  0  0  0  0
  -14.2410    6.1600  -76.3490 O   0  0  0  0  0  0  0  0  0  0  0  0
  -12.8460    4.4390  -75.6340 N   0  0  0  0  0  0  0  0  0  0  0  0
  -12.8590    9.0550  -73.9790 C   0  0  0  0  0  0  0  0  0  0  0  0
  -12.4240    8.3670  -75.8710 C   0  0  0  0  0  0  0  0  0  0  0  0
  -11.6360    4.1890  -76.3540 C   0  0  0  0  0  0  0  0  0  0  0  0
  -12.3370    9.6810  -75.2090 N   0  0  0  0  0  0  0  0  0  0  0  0
  -10.6770    3.3500  -75.7590 C   0  0  0  0  0  0  0  0  0  0  0  0
  -11.3400    4.7280  -77.6150 C   0  0  0  0  0  0  0  0  0  0  0  0
   -9.4570    3.0610  -76.4000 C   0  0  0  0  0  0  0  0  0  0  0  0
  -10.1210    4.4380  -78.2550 C   0  0  0  0  0  0  0  0  0  0  0  0
   -9.1670    3.6080  -77.6570 C   0  0  0  0  0  0  0  0  0  0  0  0
   -7.8780    3.3350  -78.3730 C   0  0  0  0  0  0  0  0  0  0  0  0
   -6.7630    3.4020  -77.9000 O   0  0  0  0  0  0  0  0  0  0  0  0
   -8.0300    2.9900  -79.6570 O   0  0  0  0  0  0  0  0  0  0  0  0
  2  1  1  1
  2  3  1  0
  2  4  1  0
  3  5  2  0
  3  6  1  0
  4  7  1  0
  4  8  1  0
  6  9  1  0
  7 10  1  0
  8 10  1  0
  9 11  2  0
  9 12  1  0
 11 13  1  0
 12 14  2  0
 13 15  2  0
 14 15  1  0
 15 16  1  0
 16 17  2  0
 16 18  1  0
M  END
>  <ref_url>  (421) 
https://fakepage.com

>  <submitter_name>  (421) 
Steph Wills

>  <submitter_email>  (421) 
stephanie.wills@dtc.ox.ac.uk

>  <submitter_institution>  (421) 
University of Oxford

>  <generation_date>  (421) 
2020-06-04

>  <method>  (421) 
Fragment network

>  <ref_mols>  (421) 
x0183_0B,x0311_0B

>  <ref_pdb>  (421) 
references/x0183-0B-x0311-0B-3832.holo_minimised_nolig.pdb

>  <original SMILES>  (421) 
CC(C(=O)Nc1ccc(C(=O)O)cc1)C1CNC1

>  <synthon>  (421) 
[Xe]C1CNC1

>  <original_name>  (421) 
x0183-0B-x0311-0B-3832

>  <comRMSD_score>  (421) 
0.7385548756509741

>  <IF_score>  (421) 
0.3333333333333333

>  <SuCOS_score>  (421) 
0.3881618236230664

>  <compound_ID>  (421) 
CHEMSPACE-BB:CSMB00002139071

$$$$

     RDKit          3D

 17 18  0  0  0  0  0  0  0  0999 V2000
   -6.6660    3.5140  -77.6650 C   0  0  0  0  0  0  0  0  0  0  0  0
   -7.8520    3.3820  -78.5650 C   0  0  0  0  0  0  0  0  0  0  0  0
   -7.8860    2.2660  -79.3550 C   0  0  0  0  0  0  0  0  0  0  0  0
   -9.1640    3.5830  -77.8150 C   0  0  0  0  0  0  0  0  0  0  0  0
   -9.4060    3.0420  -76.5420 C   0  0  0  0  0  0  0  0  0  0  0  0
  -10.1810    4.3400  -78.4080 C   0  0  0  0  0  0  0  0  0  0  0  0
  -10.6310    3.2570  -75.8880 C   0  0  0  0  0  0  0  0  0  0  0  0
  -11.3950    4.5570  -77.7650 C   0  0  0  0  0  0  0  0  0  0  0  0
  -11.6450    4.0190  -76.4910 C   0  0  0  0  0  0  0  0  0  0  0  0
  -13.0250    4.2910  -75.8240 C   0  0  0  0  0  0  0  0  0  0  0  0
  -13.4860    5.7200  -75.5400 C   0  0  0  0  0  0  0  0  0  0  0  0
  -13.0550    6.0640  -74.2730 N   0  0  0  0  0  0  0  0  0  0  0  0
  -13.8300    7.2420  -73.8000 C   0  0  0  0  0  0  0  0  0  0  0  0
  -13.4620    8.5210  -74.6060 C   0  0  0  0  0  0  0  0  0  0  0  0
  -12.0790    9.1680  -74.4080 C   0  0  0  0  0  0  0  0  0  0  0  0
  -12.9760    8.3820  -76.0710 C   0  0  0  0  0  0  0  0  0  0  0  0
  -12.1100    9.5600  -75.8410 N   0  0  0  0  0  0  0  0  0  0  0  0
  1  2  1  0
  2  3  1  0
  2  4  1  0
  4  5  2  0
  4  6  1  0
  5  7  1  0
  6  8  2  0
  7  9  2  0
  8  9  1  0
  9 10  1  0
 10 11  1  0
 11 12  1  0
 12 13  1  0
 13 14  1  0
 14 15  1  0
 14 16  1  0
 15 17  1  0
 16 17  1  0
M  END
>  <ref_url>  (422) 
https://fakepage.com

>  <submitter_name>  (422) 
Steph Wills

>  <submitter_email>  (422) 
stephanie.wills@dtc.ox.ac.uk

>  <submitter_institution>  (422) 
University of Oxford

>  <generation_date>  (422) 
2020-06-04

>  <method>  (422) 
Fragment network

>  <ref_mols>  (422) 
x0183_0B,x0311_0B

>  <ref_pdb>  (422) 
references/x0183-0B-x0311-0B-3834.holo_minimised_nolig.pdb

>  <original SMILES>  (422) 
CC(C)c1ccc(CCNCC2CNC2)cc1

>  <synthon>  (422) 
[Xe]C1CNC1

>  <original_name>  (422) 
x0183-0B-x0311-0B-3834

>  <comRMSD_score>  (422) 
0.9261453200476444

>  <IF_score>  (422) 
0.3928571428571428

>  <SuCOS_score>  (422) 
0.4441270453773321

>  <compound_ID>  (422) 
CHEMSPACE-BB:CSMB00134337268

$$$$

     RDKit          3D

 18 19  0  0  0  0  0  0  0  0999 V2000
   -8.0120    3.5000  -79.9940 C   0  0  0  0  0  0  0  0  0  0  0  0
   -8.2880    2.6760  -78.7240 C   0  0  0  0  0  0  0  0  0  0  0  0
   -8.7430    1.3290  -79.2620 C   0  0  0  0  0  0  0  0  0  0  0  0
   -7.0020    2.3040  -77.9630 C   0  0  0  0  0  0  0  0  0  0  0  0
   -9.5060    3.2010  -77.9480 C   0  0  0  0  0  0  0  0  0  0  0  0
  -10.3270    4.2200  -78.4490 C   0  0  0  0  0  0  0  0  0  0  0  0
   -9.8550    2.6470  -76.7010 C   0  0  0  0  0  0  0  0  0  0  0  0
  -11.4600    4.6530  -77.7530 C   0  0  0  0  0  0  0  0  0  0  0  0
  -10.9870    3.0770  -75.9990 C   0  0  0  0  0  0  0  0  0  0  0  0
  -11.8110    4.0800  -76.5270 C   0  0  0  0  0  0  0  0  0  0  0  0
  -13.0720    4.5420  -75.8120 C   0  0  0  0  0  0  0  0  0  0  0  0
  -13.1030    6.0400  -75.4430 C   0  0  0  0  0  0  0  0  0  0  0  0
  -13.0740    6.3350  -74.0010 N   0  0  0  0  0  0  0  0  0  0  0  0
  -13.6870    7.6460  -73.6940 C   0  0  0  0  0  0  0  0  0  0  0  0
  -15.0320    7.5350  -72.9640 C   0  0  0  0  0  0  0  0  0  0  0  0
  -15.1890    8.4470  -71.7230 C   0  0  0  0  0  0  0  0  0  0  0  0
  -16.2210    8.3650  -73.5060 C   0  0  0  0  0  0  0  0  0  0  0  0
  -16.5980    8.6760  -72.1100 N   0  0  0  0  0  0  0  0  0  0  0  0
  2  1  1  0
  2  3  1  0
  2  4  1  0
  2  5  1  0
  5  6  2  0
  5  7  1  0
  6  8  1  0
  7  9  2  0
  8 10  2  0
  9 10  1  0
 10 11  1  0
 11 12  1  0
 12 13  1  0
 13 14  1  0
 14 15  1  0
 15 16  1  0
 15 17  1  0
 16 18  1  0
 17 18  1  0
M  END
>  <ref_url>  (423) 
https://fakepage.com

>  <submitter_name>  (423) 
Steph Wills

>  <submitter_email>  (423) 
stephanie.wills@dtc.ox.ac.uk

>  <submitter_institution>  (423) 
University of Oxford

>  <generation_date>  (423) 
2020-06-04

>  <method>  (423) 
Fragment network

>  <ref_mols>  (423) 
x0183_0B,x0311_0B

>  <ref_pdb>  (423) 
references/x0183-0B-x0311-0B-3899.holo_minimised_nolig.pdb

>  <original SMILES>  (423) 
CC(C)(C)c1ccc(CCNCC2CNC2)cc1

>  <synthon>  (423) 
[Xe]C1CNC1

>  <original_name>  (423) 
x0183-0B-x0311-0B-3899

>  <comRMSD_score>  (423) 
0.8317481812646399

>  <IF_score>  (423) 
0.1964285714285714

>  <SuCOS_score>  (423) 
0.4378090709500261

>  <compound_ID>  (423) 
CHEMSPACE-BB:CSMB00134337269

$$$$

     RDKit          3D

 18 19  0  0  0  0  0  0  0  0999 V2000
   -8.7020    1.8130  -79.4210 C   0  0  0  0  0  0  0  0  0  0  0  0
   -8.4810    3.1960  -78.8350 C   0  0  0  0  0  0  0  0  0  0  0  0
   -8.4360    4.1330  -80.0310 C   0  0  0  0  0  0  0  0  0  0  0  0
   -9.6240    3.5390  -77.9010 C   0  0  0  0  0  0  0  0  0  0  0  0
  -10.5990    4.4460  -78.2970 C   0  0  0  0  0  0  0  0  0  0  0  0
   -9.7400    2.9520  -76.6320 C   0  0  0  0  0  0  0  0  0  0  0  0
  -11.6710    4.7630  -77.4690 C   0  0  0  0  0  0  0  0  0  0  0  0
  -10.8200    3.2680  -75.7930 C   0  0  0  0  0  0  0  0  0  0  0  0
  -11.8020    4.1780  -76.2100 C   0  0  0  0  0  0  0  0  0  0  0  0
  -12.9410    4.5640  -75.4620 N   0  0  0  0  0  0  0  0  0  0  0  0
  -13.4470    5.8700  -75.4110 C   0  0  0  0  0  0  0  0  0  0  0  0
  -14.0720    6.4270  -76.3070 O   0  0  0  0  0  0  0  0  0  0  0  0
  -13.1390    6.6050  -74.0920 C   0  0  2  0  0  0  0  0  0  0  0  0
  -11.7530    6.2160  -73.6240 C   0  0  0  0  0  0  0  0  0  0  0  0
  -14.2240    6.3690  -73.0450 C   0  0  0  0  0  0  0  0  0  0  0  0
  -15.6680    6.0400  -73.5070 C   0  0  0  0  0  0  0  0  0  0  0  0
  -14.8670    7.5840  -72.3300 C   0  0  0  0  0  0  0  0  0  0  0  0
  -16.1900    6.9500  -72.4660 N   0  0  0  0  0  0  0  0  0  0  0  0
  1  2  1  0
  2  3  1  0
  2  4  1  0
  4  5  2  0
  4  6  1  0
  5  7  1  0
  6  8  2  0
  7  9  2  0
  8  9  1  0
  9 10  1  0
 10 11  1  0
 11 12  2  0
 11 13  1  0
 13 14  1  1
 13 15  1  0
 15 16  1  0
 15 17  1  0
 16 18  1  0
 17 18  1  0
M  END
>  <ref_url>  (424) 
https://fakepage.com

>  <submitter_name>  (424) 
Steph Wills

>  <submitter_email>  (424) 
stephanie.wills@dtc.ox.ac.uk

>  <submitter_institution>  (424) 
University of Oxford

>  <generation_date>  (424) 
2020-06-04

>  <method>  (424) 
Fragment network

>  <ref_mols>  (424) 
x0183_0B,x0311_0B

>  <ref_pdb>  (424) 
references/x0183-0B-x0311-0B-4312.holo_minimised_nolig.pdb

>  <original SMILES>  (424) 
CC(C)c1ccc(NC(=O)C(C)C2CNC2)cc1

>  <synthon>  (424) 
[Xe]C1CNC1

>  <original_name>  (424) 
x0183-0B-x0311-0B-4312

>  <comRMSD_score>  (424) 
0.6753541046493062

>  <IF_score>  (424) 
0.4642857142857143

>  <SuCOS_score>  (424) 
0.3974131138605127

>  <compound_ID>  (424) 
CHEMSPACE-BB:CSMB00008874956

$$$$

     RDKit          3D

 18 19  0  0  0  0  0  0  0  0999 V2000
   -8.3240    3.2000  -78.8880 C   0  0  0  0  0  0  0  0  0  0  0  0
   -9.4780    3.5330  -77.9810 C   0  0  0  0  0  0  0  0  0  0  0  0
  -10.4480    4.4220  -78.4210 C   0  0  0  0  0  0  0  0  0  0  0  0
   -9.6200    2.9740  -76.7040 C   0  0  0  0  0  0  0  0  0  0  0  0
  -11.5500    4.7590  -77.6290 C   0  0  0  0  0  0  0  0  0  0  0  0
  -10.7250    3.3080  -75.9020 C   0  0  0  0  0  0  0  0  0  0  0  0
  -11.7070    4.2050  -76.3570 C   0  0  0  0  0  0  0  0  0  0  0  0
  -12.8090    4.5000  -75.5000 N   0  0  0  0  0  0  0  0  0  0  0  0
  -13.3570    5.7760  -75.3160 C   0  0  0  0  0  0  0  0  0  0  0  0
  -14.1290    6.3270  -76.0930 O   0  0  0  0  0  0  0  0  0  0  0  0
  -12.9000    6.4690  -74.0320 C   0  0  0  0  0  0  0  0  0  0  0  0
  -13.6510    5.8080  -72.5250 S   0  0  0  0  0  0  0  0  0  0  0  0
  -14.2010    4.2630  -72.8070 O   0  0  0  0  0  0  0  0  0  0  0  0
  -15.0700    6.9450  -72.3890 C   0  0  0  0  0  0  0  0  0  0  0  0
  -16.0800    6.5630  -71.3110 C   0  0  0  0  0  0  0  0  0  0  0  0
  -16.2240    7.4280  -70.0370 C   0  0  0  0  0  0  0  0  0  0  0  0
  -17.6000    6.7910  -71.4790 C   0  0  0  0  0  0  0  0  0  0  0  0
  -17.6780    7.1210  -70.0330 N   0  0  0  0  0  0  0  0  0  0  0  0
  1  2  1  0
  2  3  2  0
  2  4  1  0
  3  5  1  0
  4  6  2  0
  5  7  2  0
  6  7  1  0
  7  8  1  0
  8  9  1  0
  9 10  2  0
  9 11  1  0
 11 12  1  0
 12 13  1  6
 12 14  1  0
 14 15  1  0
 15 16  1  0
 15 17  1  0
 16 18  1  0
 17 18  1  0
M  CHG  2  12   1  13  -1
M  END
>  <ref_url>  (425) 
https://fakepage.com

>  <submitter_name>  (425) 
Steph Wills

>  <submitter_email>  (425) 
stephanie.wills@dtc.ox.ac.uk

>  <submitter_institution>  (425) 
University of Oxford

>  <generation_date>  (425) 
2020-06-04

>  <method>  (425) 
Fragment network

>  <ref_mols>  (425) 
x0183_0B,x0311_0B

>  <ref_pdb>  (425) 
references/x0183-0B-x0311-0B-4395.holo_minimised_nolig.pdb

>  <original SMILES>  (425) 
Cc1ccc(NC(=O)C[S+]([O-])CC2CNC2)cc1

>  <synthon>  (425) 
[Xe]C1CNC1

>  <original_name>  (425) 
x0183-0B-x0311-0B-4395

>  <comRMSD_score>  (425) 
0.8076251013606656

>  <IF_score>  (425) 
0.4166666666666666

>  <SuCOS_score>  (425) 
0.364871831873487

>  <compound_ID>  (425) 
CHEMSPACE-BB:CSMB00004003850

$$$$

     RDKit          3D

 16 17  0  0  0  0  0  0  0  0999 V2000
   -7.9690    3.2690  -78.5860 C   0  0  0  0  0  0  0  0  0  0  0  0
   -9.2240    3.5750  -77.8250 C   0  0  0  0  0  0  0  0  0  0  0  0
   -9.4540    3.0150  -76.5660 C   0  0  0  0  0  0  0  0  0  0  0  0
  -10.1820    4.4320  -78.3650 C   0  0  0  0  0  0  0  0  0  0  0  0
  -10.6260    3.3100  -75.8580 C   0  0  0  0  0  0  0  0  0  0  0  0
  -11.3510    4.7280  -77.6620 C   0  0  0  0  0  0  0  0  0  0  0  0
  -11.5870    4.1720  -76.3960 C   0  0  0  0  0  0  0  0  0  0  0  0
  -12.7950    4.5370  -75.7510 N   0  0  0  0  0  0  0  0  0  0  0  0
  -13.1230    5.8300  -75.3430 C   0  0  0  0  0  0  0  0  0  0  0  0
  -13.3860    6.7830  -76.0710 O   0  0  0  0  0  0  0  0  0  0  0  0
  -13.1250    5.9640  -73.8250 C   0  0  0  0  0  0  0  0  0  0  0  0
  -14.1550    4.9900  -73.2240 C   0  0  0  0  0  0  0  0  0  0  0  0
  -13.7440    4.0470  -72.0880 C   0  0  0  0  0  0  0  0  0  0  0  0
  -12.3050    4.0760  -71.5550 C   0  0  0  0  0  0  0  0  0  0  0  0
  -13.4170    2.5490  -72.2960 C   0  0  0  0  0  0  0  0  0  0  0  0
  -12.0400    3.0110  -72.5390 N   0  0  0  0  0  0  0  0  0  0  0  0
  1  2  1  0
  2  3  2  0
  2  4  1  0
  3  5  1  0
  4  6  2  0
  5  7  2  0
  6  7  1  0
  7  8  1  0
  8  9  1  0
  9 10  2  0
  9 11  1  0
 11 12  1  0
 12 13  1  0
 13 14  1  0
 13 15  1  0
 14 16  1  0
 15 16  1  0
M  END
>  <ref_url>  (426) 
https://fakepage.com

>  <submitter_name>  (426) 
Steph Wills

>  <submitter_email>  (426) 
stephanie.wills@dtc.ox.ac.uk

>  <submitter_institution>  (426) 
University of Oxford

>  <generation_date>  (426) 
2020-06-04

>  <method>  (426) 
Fragment network

>  <ref_mols>  (426) 
x0183_0B,x0311_0B

>  <ref_pdb>  (426) 
references/x0183-0B-x0311-0B-4436.holo_minimised_nolig.pdb

>  <original SMILES>  (426) 
Cc1ccc(NC(=O)CCC2CNC2)cc1

>  <synthon>  (426) 
[Xe]C1CNC1

>  <original_name>  (426) 
x0183-0B-x0311-0B-4436

>  <comRMSD_score>  (426) 
0.6119162895809744

>  <IF_score>  (426) 
0.375

>  <SuCOS_score>  (426) 
0.3577711651465407

>  <compound_ID>  (426) 
REAL:Z2824630464

$$$$

     RDKit          3D

 18 19  0  0  0  0  0  0  0  0999 V2000
  -12.2440    5.8530  -73.2770 C   0  0  0  0  0  0  0  0  0  0  0  0
  -13.2680    6.4090  -74.2460 C   0  0  2  0  0  0  0  0  0  0  0  0
  -13.5060    5.5190  -75.4670 C   0  0  0  0  0  0  0  0  0  0  0  0
  -13.0420    7.8600  -74.6240 C   0  0  0  0  0  0  0  0  0  0  0  0
  -14.2530    5.9280  -76.3530 O   0  0  0  0  0  0  0  0  0  0  0  0
  -12.8480    4.3010  -75.4900 N   0  0  0  0  0  0  0  0  0  0  0  0
  -11.6820    8.5210  -74.5810 C   0  0  0  0  0  0  0  0  0  0  0  0
  -13.4780    8.9430  -73.6130 C   0  0  0  0  0  0  0  0  0  0  0  0
  -11.6730    3.9930  -76.2380 C   0  0  0  0  0  0  0  0  0  0  0  0
  -12.2580    9.7090  -73.9300 N   0  0  0  0  0  0  0  0  0  0  0  0
  -10.8340    2.9920  -75.7270 C   0  0  0  0  0  0  0  0  0  0  0  0
  -11.3050    4.6070  -77.4420 C   0  0  0  0  0  0  0  0  0  0  0  0
   -9.6670    2.6020  -76.4010 C   0  0  0  0  0  0  0  0  0  0  0  0
  -10.1350    4.2190  -78.1150 C   0  0  0  0  0  0  0  0  0  0  0  0
   -9.3070    3.2010  -77.6080 C   0  0  0  0  0  0  0  0  0  0  0  0
   -8.0590    2.7510  -78.3580 C   0  0  0  0  0  0  0  0  0  0  0  0
   -6.7820    2.6010  -77.5570 C   0  0  0  0  0  0  0  0  0  0  0  0
   -6.6780    1.2750  -77.0540 O   0  0  0  0  0  0  0  0  0  0  0  0
  2  1  1  6
  2  3  1  0
  2  4  1  0
  3  5  2  0
  3  6  1  0
  4  7  1  0
  4  8  1  0
  6  9  1  0
  7 10  1  0
  8 10  1  0
  9 11  2  0
  9 12  1  0
 11 13  1  0
 12 14  2  0
 13 15  2  0
 14 15  1  0
 15 16  1  0
 16 17  1  0
 17 18  1  0
M  END
>  <ref_url>  (427) 
https://fakepage.com

>  <submitter_name>  (427) 
Steph Wills

>  <submitter_email>  (427) 
stephanie.wills@dtc.ox.ac.uk

>  <submitter_institution>  (427) 
University of Oxford

>  <generation_date>  (427) 
2020-06-04

>  <method>  (427) 
Fragment network

>  <ref_mols>  (427) 
x0183_0B,x0311_0B

>  <ref_pdb>  (427) 
references/x0183-0B-x0311-0B-4541.holo_minimised_nolig.pdb

>  <original SMILES>  (427) 
CC(C(=O)Nc1ccc(CCO)cc1)C1CNC1

>  <synthon>  (427) 
[Xe]C1CNC1

>  <original_name>  (427) 
x0183-0B-x0311-0B-4541

>  <comRMSD_score>  (427) 
0.8388492117180537

>  <IF_score>  (427) 
0.3269230769230769

>  <SuCOS_score>  (427) 
0.386480254378628

>  <compound_ID>  (427) 
CHEMSPACE-BB:CSMB00008875130

$$$$

     RDKit          3D

 20 21  0  0  0  0  0  0  0  0999 V2000
  -12.7900    6.2550  -73.8170 C   0  0  0  0  0  0  0  0  0  0  0  0
  -13.3220    5.6700  -75.1230 C   0  0  0  0  0  0  0  0  0  0  0  0
  -14.1160    6.3270  -75.7880 O   0  0  0  0  0  0  0  0  0  0  0  0
  -12.8350    4.3970  -75.4490 N   0  0  0  0  0  0  0  0  0  0  0  0
  -11.6460    4.1520  -76.1940 C   0  0  0  0  0  0  0  0  0  0  0  0
  -10.5720    3.3680  -75.7570 C   0  0  0  0  0  0  0  0  0  0  0  0
  -11.5490    4.7440  -77.4600 C   0  0  0  0  0  0  0  0  0  0  0  0
   -9.4290    3.1940  -76.5620 C   0  0  0  0  0  0  0  0  0  0  0  0
  -10.4120    4.5630  -78.2570 C   0  0  0  0  0  0  0  0  0  0  0  0
   -9.3380    3.7950  -77.8220 C   0  0  0  0  0  0  0  0  0  0  0  0
   -8.1600    3.6080  -78.5870 N   0  0  0  0  0  0  0  0  0  0  0  0
   -8.0440    2.8900  -79.7750 C   0  0  0  0  0  0  0  0  0  0  0  0
   -8.9500    2.3490  -80.3800 O   0  0  0  0  0  0  0  0  0  0  0  0
   -6.6260    2.8140  -80.3040 C   0  0  0  0  0  0  0  0  0  0  0  0
   -6.5180    1.7680  -81.4100 C   0  0  0  0  0  0  0  0  0  0  0  0
   -6.6700    0.4730  -80.8280 O   0  0  0  0  0  0  0  0  0  0  0  0
   -6.7030   -0.6340  -81.7650 C   0  0  0  0  0  0  0  0  0  0  0  0
   -5.8450   -1.8590  -81.3820 C   0  0  0  0  0  0  0  0  0  0  0  0
   -5.7690   -0.5470  -82.9930 C   0  0  0  0  0  0  0  0  0  0  0  0
   -5.3790   -1.9630  -82.7860 N   0  0  0  0  0  0  0  0  0  0  0  0
  1  2  1  0
  2  3  2  0
  2  4  1  0
  4  5  1  0
  5  6  2  0
  5  7  1  0
  6  8  1  0
  7  9  2  0
  8 10  2  0
  9 10  1  0
 10 11  1  0
 11 12  1  0
 12 13  2  0
 12 14  1  0
 14 15  1  0
 15 16  1  0
 16 17  1  0
 17 18  1  0
 17 19  1  0
 18 20  1  0
 19 20  1  0
M  END
>  <ref_url>  (428) 
https://fakepage.com

>  <submitter_name>  (428) 
Steph Wills

>  <submitter_email>  (428) 
stephanie.wills@dtc.ox.ac.uk

>  <submitter_institution>  (428) 
University of Oxford

>  <generation_date>  (428) 
2020-06-04

>  <method>  (428) 
Fragment network

>  <ref_mols>  (428) 
x0183_0B,x0311_0B

>  <ref_pdb>  (428) 
references/x0183-0B-x0311-0B-4631.holo_minimised_nolig.pdb

>  <original SMILES>  (428) 
CC(=O)Nc1ccc(NC(=O)CCOC2CNC2)cc1

>  <synthon>  (428) 
[Xe]C1CNC1

>  <original_name>  (428) 
x0183-0B-x0311-0B-4631

>  <comRMSD_score>  (428) 
0.5472349434505553

>  <IF_score>  (428) 
0.3611111111111111

>  <SuCOS_score>  (428) 
0.349274194779942

>  <compound_ID>  (428) 
REAL:Z2390378999

$$$$

     RDKit          3D

 17 19  0  0  0  0  0  0  0  0999 V2000
  -15.9920    4.2710  -74.6510 C   0  0  0  0  0  0  0  0  0  0  0  0
  -14.5570    4.3110  -74.3810 N   0  0  0  0  0  0  0  0  0  0  0  0
  -14.1620    5.5710  -73.6360 C   0  0  0  0  0  0  0  0  0  0  0  0
  -13.7540    3.8220  -75.5450 C   0  0  0  0  0  0  0  0  0  0  0  0
  -13.0780    6.4980  -74.2270 C   0  0  0  0  0  0  0  0  0  0  0  0
  -12.4500    4.6250  -75.5820 C   0  0  2  0  0  0  0  0  0  0  0  0
  -12.8010    6.1070  -75.6650 C   0  0  0  0  0  0  0  0  0  0  0  0
  -11.2400    4.0560  -76.3590 C   0  0  0  0  0  0  0  0  0  0  0  0
  -10.5770    3.0290  -75.6840 C   0  0  0  0  0  0  0  0  0  0  0  0
  -10.7130    4.4480  -77.6460 C   0  0  0  0  0  0  0  0  0  0  0  0
   -9.4620    2.4160  -76.2130 C   0  0  0  0  0  0  0  0  0  0  0  0
   -9.5380    3.8070  -78.2030 C   0  0  0  0  0  0  0  0  0  0  0  0
   -8.9710    2.8120  -77.4400 C   0  0  0  0  0  0  0  0  0  0  0  0
   -8.7800    4.0890  -79.5820 C   0  0  0  0  0  0  0  0  0  0  0  0
   -7.2120    4.0960  -79.5550 C   0  0  0  0  0  0  0  0  0  0  0  0
   -8.4860    2.9630  -80.6070 C   0  0  0  0  0  0  0  0  0  0  0  0
   -7.1970    2.6840  -79.9640 N   0  0  0  0  0  0  0  0  0  0  0  0
  1  2  1  0
  2  3  1  0
  2  4  1  0
  3  5  1  0
  4  6  1  0
  5  7  1  0
  6  7  1  0
  6  8  1  6
  8  9  2  0
  8 10  1  0
  9 11  1  0
 10 12  2  0
 11 13  2  0
 12 13  1  0
 12 14  1  0
 14 15  1  0
 14 16  1  0
 15 17  1  0
 16 17  1  0
M  END
>  <ref_url>  (429) 
https://fakepage.com

>  <submitter_name>  (429) 
Steph Wills

>  <submitter_email>  (429) 
stephanie.wills@dtc.ox.ac.uk

>  <submitter_institution>  (429) 
University of Oxford

>  <generation_date>  (429) 
2020-06-04

>  <method>  (429) 
Fragment network

>  <ref_mols>  (429) 
x0183_0B,x0311_0B

>  <ref_pdb>  (429) 
references/x0183-0B-x0311-0B-5182.holo_minimised_nolig.pdb

>  <original SMILES>  (429) 
CN1CCCC(c2cccc(C3CNC3)c2)C1

>  <synthon>  (429) 
[Xe]C1CNC1

>  <original_name>  (429) 
x0183-0B-x0311-0B-5182

>  <comRMSD_score>  (429) 
0.8883280442976664

>  <IF_score>  (429) 
0.3928571428571428

>  <SuCOS_score>  (429) 
0.3998699074648656

>  <compound_ID>  (429) 
CHEMSPACE-BB:CSMB00134451958

$$$$

     RDKit          3D

 18 19  0  0  0  0  0  0  0  0999 V2000
   -7.5870    1.9120  -78.3990 C   0  0  0  0  0  0  0  0  0  0  0  0
   -7.9850    3.2710  -78.2650 O   0  0  0  0  0  0  0  0  0  0  0  0
   -9.1920    3.5820  -77.6810 C   0  0  0  0  0  0  0  0  0  0  0  0
   -9.4580    2.9870  -76.4520 C   0  0  0  0  0  0  0  0  0  0  0  0
  -10.1510    4.4370  -78.2210 C   0  0  0  0  0  0  0  0  0  0  0  0
  -10.6610    3.2420  -75.7690 C   0  0  0  0  0  0  0  0  0  0  0  0
  -11.3490    4.6910  -77.5420 C   0  0  0  0  0  0  0  0  0  0  0  0
  -11.6390    4.1050  -76.2990 C   0  0  0  0  0  0  0  0  0  0  0  0
  -12.8890    4.3890  -75.6090 N   0  0  0  0  0  0  0  0  0  0  0  0
  -13.8720    3.3010  -75.6700 C   0  0  0  0  0  0  0  0  0  0  0  0
  -13.3410    5.7330  -75.5240 C   0  0  0  0  0  0  0  0  0  0  0  0
  -13.8950    6.3170  -76.4580 O   0  0  0  0  0  0  0  0  0  0  0  0
  -13.1440    6.5330  -74.2130 C   0  0  1  0  0  0  0  0  0  0  0  0
  -12.6760    5.6170  -73.1040 C   0  0  0  0  0  0  0  0  0  0  0  0
  -12.2440    7.7440  -74.4220 C   0  0  0  0  0  0  0  0  0  0  0  0
  -12.2140    8.4880  -75.7810 C   0  0  0  0  0  0  0  0  0  0  0  0
  -12.7220    9.1230  -73.9000 C   0  0  0  0  0  0  0  0  0  0  0  0
  -13.2680    9.3850  -75.2540 N   0  0  0  0  0  0  0  0  0  0  0  0
  1  2  1  0
  2  3  1  0
  3  4  2  0
  3  5  1  0
  4  6  1  0
  5  7  2  0
  6  8  2  0
  7  8  1  0
  8  9  1  0
  9 10  1  0
  9 11  1  0
 11 12  2  0
 11 13  1  0
 13 14  1  1
 13 15  1  0
 15 16  1  0
 15 17  1  0
 16 18  1  0
 17 18  1  0
M  END
>  <ref_url>  (430) 
https://fakepage.com

>  <submitter_name>  (430) 
Steph Wills

>  <submitter_email>  (430) 
stephanie.wills@dtc.ox.ac.uk

>  <submitter_institution>  (430) 
University of Oxford

>  <generation_date>  (430) 
2020-06-04

>  <method>  (430) 
Fragment network

>  <ref_mols>  (430) 
x0183_0B,x0311_0B

>  <ref_pdb>  (430) 
references/x0183-0B-x0311-0B-5185.holo_minimised_nolig.pdb

>  <original SMILES>  (430) 
COc1ccc(N(C)C(=O)C(C)C2CNC2)cc1

>  <synthon>  (430) 
[Xe]C1CNC1

>  <original_name>  (430) 
x0183-0B-x0311-0B-5185

>  <comRMSD_score>  (430) 
0.7935636395400186

>  <IF_score>  (430) 
0.2714285714285714

>  <SuCOS_score>  (430) 
0.3720464618408118

>  <compound_ID>  (430) 
CHEMSPACE-BB:CSMB00002139175

$$$$

     RDKit          3D

 19 21  0  0  0  0  0  0  0  0999 V2000
   -5.7220    3.3380  -79.0090 C   0  0  0  0  0  0  0  0  0  0  0  0
   -6.8380    3.2430  -78.0110 C   0  0  0  0  0  0  0  0  0  0  0  0
   -7.9640    2.9710  -78.3990 O   0  0  0  0  0  0  0  0  0  0  0  0
   -9.0790    3.3390  -77.6970 C   0  0  0  0  0  0  0  0  0  0  0  0
   -9.4900    2.8500  -76.4560 C   0  0  0  0  0  0  0  0  0  0  0  0
   -9.8710    4.2960  -78.3190 C   0  0  0  0  0  0  0  0  0  0  0  0
  -10.6700    3.3050  -75.8570 C   0  0  0  0  0  0  0  0  0  0  0  0
  -11.0390    4.7440  -77.7260 C   0  0  0  0  0  0  0  0  0  0  0  0
  -11.4800    4.2660  -76.4770 C   0  0  0  0  0  0  0  0  0  0  0  0
  -12.6820    4.7760  -75.9410 N   0  0  0  0  0  0  0  0  0  0  0  0
  -13.0240    6.1080  -75.8770 C   0  0  0  0  0  0  0  0  0  0  0  0
  -13.5340    3.9500  -75.0810 C   0  0  0  0  0  0  0  0  0  0  0  0
  -13.4780    6.4970  -74.4640 C   0  0  0  0  0  0  0  0  0  0  0  0
  -13.1080    4.2000  -73.7690 C   0  0  0  0  0  0  0  0  0  0  0  0
  -12.9070    5.6630  -73.4400 N   0  0  0  0  0  0  0  0  0  0  0  0
  -13.7430    6.0010  -72.2760 C   0  0  0  0  0  0  0  0  0  0  0  0
  -14.6090    7.2460  -72.4700 C   0  0  0  0  0  0  0  0  0  0  0  0
  -15.0980    5.2520  -72.2370 C   0  0  0  0  0  0  0  0  0  0  0  0
  -15.7600    6.5200  -71.8610 N   0  0  0  0  0  0  0  0  0  0  0  0
  1  2  1  0
  2  3  1  0
  3  4  1  0
  4  5  2  0
  4  6  1  0
  5  7  1  0
  6  8  2  0
  7  9  2  0
  8  9  1  0
  9 10  1  0
 10 11  1  0
 10 12  1  0
 11 13  1  0
 12 14  1  0
 13 15  1  0
 14 15  1  0
 15 16  1  0
 16 17  1  0
 16 18  1  0
 17 19  1  0
 18 19  1  0
M  END
>  <ref_url>  (431) 
https://fakepage.com

>  <submitter_name>  (431) 
Steph Wills

>  <submitter_email>  (431) 
stephanie.wills@dtc.ox.ac.uk

>  <submitter_institution>  (431) 
University of Oxford

>  <generation_date>  (431) 
2020-06-04

>  <method>  (431) 
Fragment network

>  <ref_mols>  (431) 
x0183_0B,x0311_0B

>  <ref_pdb>  (431) 
references/x0183-0B-x0311-0B-5186.holo_minimised_nolig.pdb

>  <original SMILES>  (431) 
CCOc1ccc(N2CCN(C3CNC3)CC2)cc1

>  <synthon>  (431) 
[Xe]C1CNC1

>  <original_name>  (431) 
x0183-0B-x0311-0B-5186

>  <comRMSD_score>  (431) 
0.904194254571439

>  <IF_score>  (431) 
0.2714285714285714

>  <SuCOS_score>  (431) 
0.3912197599112219

>  <compound_ID>  (431) 
CHEMSPACE-BB:CSMB00134157932

$$$$

     RDKit          3D

 18 19  0  0  0  0  0  0  0  0999 V2000
  -13.9360    3.2480  -76.0080 C   0  0  0  0  0  0  0  0  0  0  0  0
  -12.7900    4.0770  -75.4470 C   0  0  0  0  0  0  0  0  0  0  0  0
  -11.5400    3.9630  -76.2920 C   0  0  0  0  0  0  0  0  0  0  0  0
  -11.4560    4.6280  -77.5140 C   0  0  0  0  0  0  0  0  0  0  0  0
  -10.4490    3.1880  -75.8640 C   0  0  0  0  0  0  0  0  0  0  0  0
  -10.3080    4.5210  -78.2930 C   0  0  0  0  0  0  0  0  0  0  0  0
   -9.2920    3.0850  -76.6490 C   0  0  0  0  0  0  0  0  0  0  0  0
   -9.2140    3.7560  -77.8750 C   0  0  0  0  0  0  0  0  0  0  0  0
   -8.0000    3.6920  -78.7720 C   0  0  0  0  0  0  0  0  0  0  0  0
   -6.6560    3.6980  -78.0260 C   0  0  0  0  0  0  0  0  0  0  0  0
   -5.5310    3.5960  -78.9650 N   0  0  0  0  0  0  0  0  0  0  0  0
   -5.3350    4.7370  -79.8560 C   0  0  0  0  0  0  0  0  0  0  0  0
   -5.0300    2.2960  -79.1250 C   0  0  0  0  0  0  0  0  0  0  0  0
   -5.1740    1.5140  -78.1700 O   0  0  0  0  0  0  0  0  0  0  0  0
   -4.3350    1.7680  -80.3910 C   0  0  0  0  0  0  0  0  0  0  0  0
   -5.0830    1.5530  -81.7080 C   0  0  0  0  0  0  0  0  0  0  0  0
   -3.8820    0.3110  -80.5200 C   0  0  0  0  0  0  0  0  0  0  0  0
   -4.8250    0.1040  -81.6320 N   0  0  0  0  0  0  0  0  0  0  0  0
  1  2  1  0
  2  3  1  0
  3  4  2  0
  3  5  1  0
  4  6  1  0
  5  7  2  0
  6  8  2  0
  7  8  1  0
  8  9  1  0
  9 10  1  0
 10 11  1  0
 11 12  1  0
 11 13  1  0
 13 14  2  0
 13 15  1  0
 15 16  1  0
 15 17  1  0
 16 18  1  0
 17 18  1  0
M  END
>  <ref_url>  (432) 
https://fakepage.com

>  <submitter_name>  (432) 
Steph Wills

>  <submitter_email>  (432) 
stephanie.wills@dtc.ox.ac.uk

>  <submitter_institution>  (432) 
University of Oxford

>  <generation_date>  (432) 
2020-06-04

>  <method>  (432) 
Fragment network

>  <ref_mols>  (432) 
x0183_0B,x0311_0B

>  <ref_pdb>  (432) 
references/x0183-0B-x0311-0B-5347.holo_minimised_nolig.pdb

>  <original SMILES>  (432) 
CCc1ccc(CCN(C)C(=O)C2CNC2)cc1

>  <synthon>  (432) 
[Xe]C1CNC1

>  <original_name>  (432) 
x0183-0B-x0311-0B-5347

>  <comRMSD_score>  (432) 
0.5902697123631987

>  <IF_score>  (432) 
0.4038461538461538

>  <SuCOS_score>  (432) 
0.4209660790722306

>  <compound_ID>  (432) 
CHEMSPACE-BB:CSMB00134363604

$$$$

     RDKit          3D

 18 19  0  0  0  0  0  0  0  0999 V2000
  -12.7310    7.1930  -73.9250 C   0  0  0  0  0  0  0  0  0  0  0  0
  -12.7980    5.7590  -74.2490 N   0  0  0  0  0  0  0  0  0  0  0  0
  -13.2390    5.6070  -75.6410 C   0  0  0  0  0  0  0  0  0  0  0  0
  -13.6710    5.0630  -73.2690 C   0  0  0  0  0  0  0  0  0  0  0  0
  -12.9500    4.2210  -76.2550 C   0  0  0  0  0  0  0  0  0  0  0  0
  -12.9440    4.1260  -72.2860 C   0  0  0  0  0  0  0  0  0  0  0  0
  -14.3610    3.7580  -73.7040 C   0  0  0  0  0  0  0  0  0  0  0  0
  -11.5200    3.9700  -76.7050 C   0  0  0  0  0  0  0  0  0  0  0  0
  -14.1840    3.2990  -72.2980 N   0  0  0  0  0  0  0  0  0  0  0  0
  -10.6290    3.1700  -75.9750 C   0  0  0  0  0  0  0  0  0  0  0  0
  -11.0620    4.5440  -77.8900 C   0  0  0  0  0  0  0  0  0  0  0  0
   -9.3190    2.9570  -76.4330 C   0  0  0  0  0  0  0  0  0  0  0  0
   -9.7590    4.3280  -78.3420 C   0  0  0  0  0  0  0  0  0  0  0  0
   -8.8480    3.5290  -77.6330 C   0  0  0  0  0  0  0  0  0  0  0  0
   -7.4030    3.2800  -78.1350 C   0  0  0  0  0  0  0  0  0  0  0  0
   -7.0030    1.8390  -77.8530 C   0  0  0  0  0  0  0  0  0  0  0  0
   -6.2850    4.0220  -77.3880 C   0  0  0  0  0  0  0  0  0  0  0  0
   -7.1900    3.5730  -79.6400 C   0  0  0  0  0  0  0  0  0  0  0  0
  1  2  1  0
  2  3  1  0
  2  4  1  0
  3  5  1  0
  4  6  1  0
  4  7  1  0
  5  8  1  0
  6  9  1  0
  7  9  1  0
  8 10  2  0
  8 11  1  0
 10 12  1  0
 11 13  2  0
 12 14  2  0
 13 14  1  0
 14 15  1  0
 15 16  1  0
 15 17  1  0
 15 18  1  0
M  END
>  <ref_url>  (433) 
https://fakepage.com

>  <submitter_name>  (433) 
Steph Wills

>  <submitter_email>  (433) 
stephanie.wills@dtc.ox.ac.uk

>  <submitter_institution>  (433) 
University of Oxford

>  <generation_date>  (433) 
2020-06-04

>  <method>  (433) 
Fragment network

>  <ref_mols>  (433) 
x0183_0B,x0311_0B

>  <ref_pdb>  (433) 
references/x0183-0B-x0311-0B-5356.holo_minimised_nolig.pdb

>  <original SMILES>  (433) 
CN(CCc1ccc(C(C)(C)C)cc1)C1CNC1

>  <synthon>  (433) 
[Xe]C1CNC1

>  <original_name>  (433) 
x0183-0B-x0311-0B-5356

>  <comRMSD_score>  (433) 
0.8155616096472633

>  <IF_score>  (433) 
0.3653846153846154

>  <SuCOS_score>  (433) 
0.4291876517890626

>  <compound_ID>  (433) 
CHEMSPACE-BB:CSMB00134522289

$$$$

     RDKit          3D

 16 17  0  0  0  0  0  0  0  0999 V2000
   -8.1270    3.6600  -78.7350 C   0  0  0  0  0  0  0  0  0  0  0  0
   -9.3380    3.7910  -77.8480 C   0  0  0  0  0  0  0  0  0  0  0  0
   -9.4400    3.1600  -76.6000 C   0  0  0  0  0  0  0  0  0  0  0  0
  -10.4010    4.5760  -78.2810 C   0  0  0  0  0  0  0  0  0  0  0  0
  -10.5950    3.3270  -75.8100 C   0  0  0  0  0  0  0  0  0  0  0  0
  -11.5440    4.7480  -77.5020 C   0  0  0  0  0  0  0  0  0  0  0  0
  -11.6570    4.1270  -76.2550 C   0  0  0  0  0  0  0  0  0  0  0  0
  -12.8550    4.3660  -75.5360 N   0  0  0  0  0  0  0  0  0  0  0  0
  -13.3710    5.6140  -75.1900 C   0  0  0  0  0  0  0  0  0  0  0  0
  -14.1810    6.2730  -75.8390 O   0  0  0  0  0  0  0  0  0  0  0  0
  -12.8280    6.1750  -73.8560 C   0  0  0  0  0  0  0  0  0  0  0  0
  -13.2180    5.4030  -72.7130 O   0  0  0  0  0  0  0  0  0  0  0  0
  -13.0980    3.9560  -72.8050 C   0  0  0  0  0  0  0  0  0  0  0  0
  -12.7230    3.2320  -71.4940 C   0  0  0  0  0  0  0  0  0  0  0  0
  -14.4080    3.1410  -72.6710 C   0  0  0  0  0  0  0  0  0  0  0  0
  -14.1700    3.0840  -71.2090 N   0  0  0  0  0  0  0  0  0  0  0  0
  1  2  1  0
  2  3  2  0
  2  4  1  0
  3  5  1  0
  4  6  2  0
  5  7  2  0
  6  7  1  0
  7  8  1  0
  8  9  1  0
  9 10  2  0
  9 11  1  0
 11 12  1  0
 12 13  1  0
 13 14  1  0
 13 15  1  0
 14 16  1  0
 15 16  1  0
M  END
>  <ref_url>  (434) 
https://fakepage.com

>  <submitter_name>  (434) 
Steph Wills

>  <submitter_email>  (434) 
stephanie.wills@dtc.ox.ac.uk

>  <submitter_institution>  (434) 
University of Oxford

>  <generation_date>  (434) 
2020-06-04

>  <method>  (434) 
Fragment network

>  <ref_mols>  (434) 
x0183_0B,x0311_0B

>  <ref_pdb>  (434) 
references/x0183-0B-x0311-0B-5468.holo_minimised_nolig.pdb

>  <original SMILES>  (434) 
Cc1ccc(NC(=O)COC2CNC2)cc1

>  <synthon>  (434) 
[Xe]C1CNC1

>  <original_name>  (434) 
x0183-0B-x0311-0B-5468

>  <comRMSD_score>  (434) 
0.4760326573976739

>  <IF_score>  (434) 
0.4166666666666666

>  <SuCOS_score>  (434) 
0.3882378275203753

>  <compound_ID>  (434) 
CHEMSPACE-BB:CSMB00005721058

$$$$

     RDKit          3D

 16 17  0  0  0  0  0  0  0  0999 V2000
   -8.1940    3.5280  -78.7270 C   0  0  0  0  0  0  0  0  0  0  0  0
   -9.3960    3.7290  -77.8350 C   0  0  0  0  0  0  0  0  0  0  0  0
   -9.5290    3.1140  -76.5840 C   0  0  0  0  0  0  0  0  0  0  0  0
  -10.4220    4.5600  -78.2750 C   0  0  0  0  0  0  0  0  0  0  0  0
  -10.6790    3.3400  -75.8040 C   0  0  0  0  0  0  0  0  0  0  0  0
  -11.5610    4.7870  -77.5030 C   0  0  0  0  0  0  0  0  0  0  0  0
  -11.7100    4.1820  -76.2560 C   0  0  0  0  0  0  0  0  0  0  0  0
  -12.8490    4.3720  -75.4240 N   0  0  0  0  0  0  0  0  0  0  0  0
  -13.5470    5.5780  -75.2680 C   0  0  0  0  0  0  0  0  0  0  0  0
  -14.3820    6.0110  -76.0510 O   0  0  0  0  0  0  0  0  0  0  0  0
  -13.1930    6.3690  -73.9910 C   0  0  1  0  0  0  0  0  0  0  0  0
  -12.6990    5.5460  -73.0070 F   0  0  0  0  0  0  0  0  0  0  0  0
  -12.2110    7.4890  -74.2330 C   0  0  0  0  0  0  0  0  0  0  0  0
  -12.7080    8.8980  -73.8140 C   0  0  0  0  0  0  0  0  0  0  0  0
  -12.2860    8.1100  -75.6500 C   0  0  0  0  0  0  0  0  0  0  0  0
  -13.3450    9.0010  -75.1430 N   0  0  0  0  0  0  0  0  0  0  0  0
  1  2  1  0
  2  3  2  0
  2  4  1  0
  3  5  1  0
  4  6  2  0
  5  7  2  0
  6  7  1  0
  7  8  1  0
  8  9  1  0
  9 10  2  0
  9 11  1  0
 11 12  1  1
 11 13  1  0
 13 14  1  0
 13 15  1  0
 14 16  1  0
 15 16  1  0
M  END
>  <ref_url>  (435) 
https://fakepage.com

>  <submitter_name>  (435) 
Steph Wills

>  <submitter_email>  (435) 
stephanie.wills@dtc.ox.ac.uk

>  <submitter_institution>  (435) 
University of Oxford

>  <generation_date>  (435) 
2020-06-04

>  <method>  (435) 
Fragment network

>  <ref_mols>  (435) 
x0183_0B,x0311_0B

>  <ref_pdb>  (435) 
references/x0183-0B-x0311-0B-5561.holo_minimised_nolig.pdb

>  <original SMILES>  (435) 
Cc1ccc(NC(=O)C(F)C2CNC2)cc1

>  <synthon>  (435) 
[Xe]C1CNC1

>  <original_name>  (435) 
x0183-0B-x0311-0B-5561

>  <comRMSD_score>  (435) 
0.7509430882158314

>  <IF_score>  (435) 
0.4166666666666666

>  <SuCOS_score>  (435) 
0.3846252141739836

>  <compound_ID>  (435) 
CHEMSPACE-BB:CSMB00007740389

$$$$

     RDKit          3D

 17 18  0  0  0  0  0  0  0  0999 V2000
  -12.8260    6.3640  -73.7510 C   0  0  0  0  0  0  0  0  0  0  0  0
  -13.3550    5.8120  -75.0840 C   0  0  0  0  0  0  0  0  0  0  0  0
  -13.0700    4.3180  -75.3850 C   0  0  1  0  0  0  0  0  0  0  0  0
  -14.2920    3.5590  -75.9240 C   0  0  0  0  0  0  0  0  0  0  0  0
  -11.8200    4.1300  -76.2270 C   0  0  0  0  0  0  0  0  0  0  0  0
  -10.8160    3.2900  -75.7310 C   0  0  0  0  0  0  0  0  0  0  0  0
  -11.6200    4.7510  -77.4710 C   0  0  0  0  0  0  0  0  0  0  0  0
   -9.6500    3.0770  -76.4480 C   0  0  0  0  0  0  0  0  0  0  0  0
  -10.4460    4.5330  -78.1890 C   0  0  0  0  0  0  0  0  0  0  0  0
   -9.4540    3.6970  -77.6820 C   0  0  0  0  0  0  0  0  0  0  0  0
   -8.1700    3.4350  -78.4050 C   0  0  0  0  0  0  0  0  0  0  0  0
   -7.2200    3.1660  -77.3520 N   0  0  0  0  0  0  0  0  0  0  0  0
   -5.9080    3.7250  -77.5370 C   0  0  0  0  0  0  0  0  0  0  0  0
   -4.9980    2.5770  -77.8250 C   0  0  0  0  0  0  0  0  0  0  0  0
   -5.5730    1.1840  -77.4420 C   0  0  0  0  0  0  0  0  0  0  0  0
   -5.0940    2.0600  -79.2740 C   0  0  0  0  0  0  0  0  0  0  0  0
   -5.1950    0.6630  -78.7770 N   0  0  0  0  0  0  0  0  0  0  0  0
  1  2  1  0
  2  3  1  0
  3  4  1  6
  3  5  1  0
  5  6  2  0
  5  7  1  0
  6  8  1  0
  7  9  2  0
  8 10  2  0
  9 10  1  0
 10 11  1  0
 11 12  1  0
 12 13  1  0
 13 14  1  0
 14 15  1  0
 14 16  1  0
 15 17  1  0
 16 17  1  0
M  END
>  <ref_url>  (436) 
https://fakepage.com

>  <submitter_name>  (436) 
Steph Wills

>  <submitter_email>  (436) 
stephanie.wills@dtc.ox.ac.uk

>  <submitter_institution>  (436) 
University of Oxford

>  <generation_date>  (436) 
2020-06-04

>  <method>  (436) 
Fragment network

>  <ref_mols>  (436) 
x0183_0B,x0311_0B

>  <ref_pdb>  (436) 
references/x0183-0B-x0311-0B-5612.holo_minimised_nolig.pdb

>  <original SMILES>  (436) 
CCC(C)c1ccc(CNCC2CNC2)cc1

>  <synthon>  (436) 
[Xe]C1CNC1

>  <original_name>  (436) 
x0183-0B-x0311-0B-5612

>  <comRMSD_score>  (436) 
0.4885495408309728

>  <IF_score>  (436) 
0.3269230769230769

>  <SuCOS_score>  (436) 
0.5288645755757277

>  <compound_ID>  (436) 
CHEMSPACE-BB:CSMB00134329877

$$$$

     RDKit          3D

 18 19  0  0  0  0  0  0  0  0999 V2000
   -5.5430    5.1620  -80.1310 C   0  0  0  0  0  0  0  0  0  0  0  0
   -6.7380    4.2340  -79.9320 C   0  0  0  0  0  0  0  0  0  0  0  0
   -6.8030    3.6550  -78.5220 C   0  0  0  0  0  0  0  0  0  0  0  0
   -8.0080    2.8990  -78.3820 O   0  0  0  0  0  0  0  0  0  0  0  0
   -9.1510    3.3710  -77.7430 C   0  0  0  0  0  0  0  0  0  0  0  0
   -9.4510    2.7710  -76.5170 C   0  0  0  0  0  0  0  0  0  0  0  0
  -10.0300    4.3580  -78.2100 C   0  0  0  0  0  0  0  0  0  0  0  0
  -10.5970    3.1280  -75.7770 C   0  0  0  0  0  0  0  0  0  0  0  0
  -11.1770    4.7170  -77.4770 C   0  0  0  0  0  0  0  0  0  0  0  0
  -11.4850    4.1080  -76.2460 C   0  0  0  0  0  0  0  0  0  0  0  0
  -12.6770    4.5240  -75.5700 N   0  0  0  0  0  0  0  0  0  0  0  0
  -12.8360    4.6720  -74.1930 C   0  0  0  0  0  0  0  0  0  0  0  0
  -12.7670    3.7290  -73.3940 O   0  0  0  0  0  0  0  0  0  0  0  0
  -13.1090    6.0980  -73.6820 C   0  0  0  0  0  0  0  0  0  0  0  0
  -12.2220    7.2180  -74.2060 C   0  0  0  0  0  0  0  0  0  0  0  0
  -12.4620    7.6670  -75.6700 C   0  0  0  0  0  0  0  0  0  0  0  0
  -12.7510    8.6280  -73.8900 C   0  0  0  0  0  0  0  0  0  0  0  0
  -13.4880    8.6060  -75.1680 N   0  0  0  0  0  0  0  0  0  0  0  0
  1  2  1  0
  2  3  1  0
  3  4  1  0
  4  5  1  0
  5  6  2  0
  5  7  1  0
  6  8  1  0
  7  9  2  0
  8 10  2  0
  9 10  1  0
 10 11  1  0
 11 12  1  0
 12 13  2  0
 12 14  1  0
 14 15  1  0
 15 16  1  0
 15 17  1  0
 16 18  1  0
 17 18  1  0
M  END
>  <ref_url>  (437) 
https://fakepage.com

>  <submitter_name>  (437) 
Steph Wills

>  <submitter_email>  (437) 
stephanie.wills@dtc.ox.ac.uk

>  <submitter_institution>  (437) 
University of Oxford

>  <generation_date>  (437) 
2020-06-04

>  <method>  (437) 
Fragment network

>  <ref_mols>  (437) 
x0183_0B,x0311_0B

>  <ref_pdb>  (437) 
references/x0183-0B-x0311-0B-5749.holo_minimised_nolig.pdb

>  <original SMILES>  (437) 
CCCOc1ccc(NC(=O)CC2CNC2)cc1

>  <synthon>  (437) 
[Xe]C1CNC1

>  <original_name>  (437) 
x0183-0B-x0311-0B-5749

>  <comRMSD_score>  (437) 
0.7746558843321558

>  <IF_score>  (437) 
0.2714285714285714

>  <SuCOS_score>  (437) 
0.343105339513217

>  <compound_ID>  (437) 
CHEMSPACE-BB:CSMB00008224527

$$$$

     RDKit          3D

 19 20  0  0  0  0  0  0  0  0999 V2000
   -7.1530    2.3150  -78.0860 N   0  0  0  0  0  0  0  0  0  0  0  0
   -7.9820    3.2680  -78.5980 C   0  0  0  0  0  0  0  0  0  0  0  0
   -7.7210    3.8260  -79.6550 O   0  0  0  0  0  0  0  0  0  0  0  0
   -9.2110    3.5820  -77.8160 C   0  0  0  0  0  0  0  0  0  0  0  0
  -10.1740    4.4460  -78.3390 C   0  0  0  0  0  0  0  0  0  0  0  0
   -9.4090    3.0090  -76.5530 C   0  0  0  0  0  0  0  0  0  0  0  0
  -11.3240    4.7450  -77.6060 C   0  0  0  0  0  0  0  0  0  0  0  0
  -10.5700    3.3130  -75.8180 C   0  0  0  0  0  0  0  0  0  0  0  0
  -11.5370    4.1860  -76.3370 C   0  0  0  0  0  0  0  0  0  0  0  0
  -12.7280    4.5670  -75.6740 N   0  0  0  0  0  0  0  0  0  0  0  0
  -13.0940    5.9060  -75.4740 C   0  0  0  0  0  0  0  0  0  0  0  0
  -13.4280    6.7100  -76.3400 O   0  0  0  0  0  0  0  0  0  0  0  0
  -13.0480    6.3410  -74.0150 C   0  0  0  0  0  0  0  0  0  0  0  0
  -14.0100    5.4390  -73.2900 C   0  0  0  0  0  0  0  0  0  0  0  0
  -14.3360    5.9110  -71.9850 O   0  0  0  0  0  0  0  0  0  0  0  0
  -15.5800    6.6680  -71.8290 C   0  0  0  0  0  0  0  0  0  0  0  0
  -15.4790    8.1330  -71.3430 C   0  0  0  0  0  0  0  0  0  0  0  0
  -16.2410    7.2780  -73.0810 C   0  0  0  0  0  0  0  0  0  0  0  0
  -16.5400    8.4880  -72.2940 N   0  0  0  0  0  0  0  0  0  0  0  0
  1  2  1  0
  2  3  2  0
  2  4  1  0
  4  5  2  0
  4  6  1  0
  5  7  1  0
  6  8  2  0
  7  9  2  0
  8  9  1  0
  9 10  1  0
 10 11  1  0
 11 12  2  0
 11 13  1  0
 13 14  1  0
 14 15  1  0
 15 16  1  0
 16 17  1  0
 16 18  1  0
 17 19  1  0
 18 19  1  0
M  END
>  <ref_url>  (438) 
https://fakepage.com

>  <submitter_name>  (438) 
Steph Wills

>  <submitter_email>  (438) 
stephanie.wills@dtc.ox.ac.uk

>  <submitter_institution>  (438) 
University of Oxford

>  <generation_date>  (438) 
2020-06-04

>  <method>  (438) 
Fragment network

>  <ref_mols>  (438) 
x0183_0B,x0311_0B

>  <ref_pdb>  (438) 
references/x0183-0B-x0311-0B-5800.holo_minimised_nolig.pdb

>  <original SMILES>  (438) 
NC(=O)c1ccc(NC(=O)CCOC2CNC2)cc1

>  <synthon>  (438) 
[Xe]C1CNC1

>  <original_name>  (438) 
x0183-0B-x0311-0B-5800

>  <comRMSD_score>  (438) 
0.6264626710833384

>  <IF_score>  (438) 
0.425

>  <SuCOS_score>  (438) 
0.4038656673309116

>  <compound_ID>  (438) 
REAL:Z2391653667

$$$$

     RDKit          3D

 17 18  0  0  0  0  0  0  0  0999 V2000
   -8.1450    2.8280  -79.9120 C   0  0  0  0  0  0  0  0  0  0  0  0
   -8.0110    2.8910  -78.4020 C   0  0  0  0  0  0  0  0  0  0  0  0
   -9.3080    3.3000  -77.7420 C   0  0  0  0  0  0  0  0  0  0  0  0
   -9.6580    2.7940  -76.4820 C   0  0  0  0  0  0  0  0  0  0  0  0
  -10.1850    4.1840  -78.3820 C   0  0  0  0  0  0  0  0  0  0  0  0
  -10.8690    3.1580  -75.8820 C   0  0  0  0  0  0  0  0  0  0  0  0
  -11.3920    4.5460  -77.7840 C   0  0  0  0  0  0  0  0  0  0  0  0
  -11.7490    4.0320  -76.5300 C   0  0  0  0  0  0  0  0  0  0  0  0
  -13.0770    4.4220  -75.9020 C   0  0  0  0  0  0  0  0  0  0  0  0
  -13.0810    5.8870  -75.4130 C   0  0  0  0  0  0  0  0  0  0  0  0
  -13.0850    6.0850  -73.9460 N   0  0  0  0  0  0  0  0  0  0  0  0
  -12.9090    7.5320  -73.7520 C   0  0  0  0  0  0  0  0  0  0  0  0
  -14.3950    5.6700  -73.4170 C   0  0  0  0  0  0  0  0  0  0  0  0
  -14.4610    5.1220  -71.9980 C   0  0  0  0  0  0  0  0  0  0  0  0
  -15.1530    3.7660  -71.7360 C   0  0  0  0  0  0  0  0  0  0  0  0
  -15.4450    5.6820  -70.9450 C   0  0  0  0  0  0  0  0  0  0  0  0
  -16.3120    4.4920  -71.1540 N   0  0  0  0  0  0  0  0  0  0  0  0
  1  2  1  0
  2  3  1  0
  3  4  2  0
  3  5  1  0
  4  6  1  0
  5  7  2  0
  6  8  2  0
  7  8  1  0
  8  9  1  0
  9 10  1  0
 10 11  1  0
 11 12  1  0
 11 13  1  0
 13 14  1  0
 14 15  1  0
 14 16  1  0
 15 17  1  0
 16 17  1  0
M  END
>  <ref_url>  (439) 
https://fakepage.com

>  <submitter_name>  (439) 
Steph Wills

>  <submitter_email>  (439) 
stephanie.wills@dtc.ox.ac.uk

>  <submitter_institution>  (439) 
University of Oxford

>  <generation_date>  (439) 
2020-06-04

>  <method>  (439) 
Fragment network

>  <ref_mols>  (439) 
x0183_0B,x0311_0B

>  <ref_pdb>  (439) 
references/x0183-0B-x0311-0B-6018.holo_minimised_nolig.pdb

>  <original SMILES>  (439) 
CCc1ccc(CCN(C)CC2CNC2)cc1

>  <synthon>  (439) 
[Xe]C1CNC1

>  <original_name>  (439) 
x0183-0B-x0311-0B-6018

>  <comRMSD_score>  (439) 
0.712847931829113

>  <IF_score>  (439) 
0.375

>  <SuCOS_score>  (439) 
0.4365376979401194

>  <compound_ID>  (439) 
CHEMSPACE-BB:CSMB00134341727

$$$$

     RDKit          3D

 18 19  0  0  0  0  0  0  0  0999 V2000
   -5.9370    4.2560  -79.3460 C   0  0  0  0  0  0  0  0  0  0  0  0
   -7.3690    3.8700  -79.5980 C   0  0  0  0  0  0  0  0  0  0  0  0
   -7.8390    3.1120  -78.4360 O   0  0  0  0  0  0  0  0  0  0  0  0
   -9.0010    3.4050  -77.7280 C   0  0  0  0  0  0  0  0  0  0  0  0
   -9.9000    4.3150  -78.3210 C   0  0  0  0  0  0  0  0  0  0  0  0
   -9.3320    2.8550  -76.4780 C   0  0  0  0  0  0  0  0  0  0  0  0
  -11.1210    4.6930  -77.7050 C   0  0  0  0  0  0  0  0  0  0  0  0
  -10.5090    3.1640  -75.7930 C   0  0  0  0  0  0  0  0  0  0  0  0
  -11.4510    4.0610  -76.3200 C   0  0  0  0  0  0  0  0  0  0  0  0
  -12.6820    4.3660  -75.5700 N   0  0  0  0  0  0  0  0  0  0  0  0
  -13.0670    5.7900  -75.4250 C   0  0  0  0  0  0  0  0  0  0  0  0
  -13.5250    6.4880  -76.3310 O   0  0  0  0  0  0  0  0  0  0  0  0
  -12.8460    6.3900  -74.0160 C   0  0  0  0  0  0  0  0  0  0  0  0
  -13.8130    5.9770  -72.8860 C   0  0  0  0  0  0  0  0  0  0  0  0
  -14.6740    7.0250  -72.4870 C   0  0  0  0  0  0  0  0  0  0  0  0
  -15.7550    7.3530  -73.2690 C   0  0  0  0  0  0  0  0  0  0  0  0
  -15.4370    6.6890  -71.2310 C   0  0  0  0  0  0  0  0  0  0  0  0
  -16.6160    7.1190  -72.0510 N   0  0  0  0  0  0  0  0  0  0  0  0
  1  2  1  0
  2  3  1  0
  3  4  1  0
  4  5  2  0
  4  6  1  0
  5  7  1  0
  6  8  2  0
  7  9  2  0
  8  9  1  0
  9 10  1  0
 10 11  1  0
 11 12  2  0
 11 13  1  0
 13 14  1  0
 14 15  1  0
 15 16  1  0
 15 17  1  0
 16 18  1  0
 17 18  1  0
M  END
>  <ref_url>  (440) 
https://fakepage.com

>  <submitter_name>  (440) 
Steph Wills

>  <submitter_email>  (440) 
stephanie.wills@dtc.ox.ac.uk

>  <submitter_institution>  (440) 
University of Oxford

>  <generation_date>  (440) 
2020-06-04

>  <method>  (440) 
Fragment network

>  <ref_mols>  (440) 
x0183_0B,x0311_0B

>  <ref_pdb>  (440) 
references/x0183-0B-x0311-0B-6154.holo_minimised_nolig.pdb

>  <original SMILES>  (440) 
CCOc1ccc(NC(=O)CCC2CNC2)cc1

>  <synthon>  (440) 
[Xe]C1CNC1

>  <original_name>  (440) 
x0183-0B-x0311-0B-6154

>  <comRMSD_score>  (440) 
0.6574874696351798

>  <IF_score>  (440) 
0.2714285714285714

>  <SuCOS_score>  (440) 
0.3372088917643439

>  <compound_ID>  (440) 
REAL:Z2824629982

$$$$

     RDKit          3D

 18 19  0  0  0  0  0  0  0  0999 V2000
   -6.8440    2.5100  -77.7550 C   0  0  0  0  0  0  0  0  0  0  0  0
   -7.7950    3.5320  -78.3100 C   0  0  1  0  0  0  0  0  0  0  0  0
   -7.8130    3.5610  -79.7680 N   0  0  0  0  0  0  0  0  0  0  0  0
   -9.1340    3.6750  -77.5810 C   0  0  0  0  0  0  0  0  0  0  0  0
  -10.1720    4.4610  -78.1130 C   0  0  0  0  0  0  0  0  0  0  0  0
   -9.3750    3.0520  -76.3500 C   0  0  0  0  0  0  0  0  0  0  0  0
  -11.3870    4.6310  -77.4270 C   0  0  0  0  0  0  0  0  0  0  0  0
  -10.5910    3.2170  -75.6630 C   0  0  0  0  0  0  0  0  0  0  0  0
  -11.6130    4.0160  -76.1810 C   0  0  0  0  0  0  0  0  0  0  0  0
  -12.8700    4.2550  -75.5300 N   0  0  0  0  0  0  0  0  0  0  0  0
  -13.4760    5.5170  -75.3520 C   0  0  0  0  0  0  0  0  0  0  0  0
  -14.2010    6.0520  -76.1800 O   0  0  0  0  0  0  0  0  0  0  0  0
  -13.1850    6.2260  -74.0070 C   0  0  0  0  0  0  0  0  0  0  0  0
  -12.1590    7.3480  -74.1190 C   0  0  0  0  0  0  0  0  0  0  0  0
  -12.3360    8.0970  -75.4460 C   0  0  0  0  0  0  0  0  0  0  0  0
  -13.7800    8.5820  -75.7190 C   0  0  0  0  0  0  0  0  0  0  0  0
  -11.9650    9.6050  -75.4780 C   0  0  0  0  0  0  0  0  0  0  0  0
  -13.2830    9.9330  -76.0570 N   0  0  0  0  0  0  0  0  0  0  0  0
  2  1  1  6
  2  3  1  0
  2  4  1  0
  4  5  2  0
  4  6  1  0
  5  7  1  0
  6  8  2  0
  7  9  2  0
  8  9  1  0
  9 10  1  0
 10 11  1  0
 11 12  2  0
 11 13  1  0
 13 14  1  0
 14 15  1  0
 15 16  1  0
 15 17  1  0
 16 18  1  0
 17 18  1  0
M  END
>  <ref_url>  (441) 
https://fakepage.com

>  <submitter_name>  (441) 
Steph Wills

>  <submitter_email>  (441) 
stephanie.wills@dtc.ox.ac.uk

>  <submitter_institution>  (441) 
University of Oxford

>  <generation_date>  (441) 
2020-06-04

>  <method>  (441) 
Fragment network

>  <ref_mols>  (441) 
x0183_0B,x0311_0B

>  <ref_pdb>  (441) 
references/x0183-0B-x0311-0B-6160.holo_minimised_nolig.pdb

>  <original SMILES>  (441) 
CC(N)c1ccc(NC(=O)CCC2CNC2)cc1

>  <synthon>  (441) 
[Xe]C1CNC1

>  <original_name>  (441) 
x0183-0B-x0311-0B-6160

>  <comRMSD_score>  (441) 
0.6732864360730886

>  <IF_score>  (441) 
0.1634615384615384

>  <SuCOS_score>  (441) 
0.3763346573667693

>  <compound_ID>  (441) 
REAL:Z2824602277

$$$$

     RDKit          3D

 18 19  0  0  0  0  0  0  0  0999 V2000
   -8.1910    2.4580  -79.8620 C   0  0  0  0  0  0  0  0  0  0  0  0
   -8.1570    3.6580  -78.9470 C   0  0  0  0  0  0  0  0  0  0  0  0
   -9.3480    3.7870  -78.0150 C   0  0  0  0  0  0  0  0  0  0  0  0
   -9.4390    3.1980  -76.7450 C   0  0  0  0  0  0  0  0  0  0  0  0
  -10.4140    4.5460  -78.4500 C   0  0  0  0  0  0  0  0  0  0  0  0
  -10.5930    3.3930  -75.9490 C   0  0  0  0  0  0  0  0  0  0  0  0
  -11.5520    4.7420  -77.6690 C   0  0  0  0  0  0  0  0  0  0  0  0
  -11.6810    4.1760  -76.3920 C   0  0  0  0  0  0  0  0  0  0  0  0
  -12.8960    4.4150  -75.6080 N   0  0  0  0  0  0  0  0  0  0  0  0
  -13.8450    3.2930  -75.6660 C   0  0  0  0  0  0  0  0  0  0  0  0
  -13.3860    5.7480  -75.5170 C   0  0  0  0  0  0  0  0  0  0  0  0
  -13.9930    6.3060  -76.4390 O   0  0  0  0  0  0  0  0  0  0  0  0
  -13.1610    6.5920  -74.2390 C   0  0  2  0  0  0  0  0  0  0  0  0
  -11.8610    6.1550  -73.5900 C   0  0  0  0  0  0  0  0  0  0  0  0
  -14.3390    6.5470  -73.2540 C   0  0  0  0  0  0  0  0  0  0  0  0
  -15.5180    5.6050  -73.5830 C   0  0  0  0  0  0  0  0  0  0  0  0
  -14.2140    5.7050  -71.9900 C   0  0  0  0  0  0  0  0  0  0  0  0
  -15.6360    5.3350  -72.1320 N   0  0  0  0  0  0  0  0  0  0  0  0
  1  2  1  0
  2  3  1  0
  3  4  2  0
  3  5  1  0
  4  6  1  0
  5  7  2  0
  6  8  2  0
  7  8  1  0
  8  9  1  0
  9 10  1  0
  9 11  1  0
 11 12  2  0
 11 13  1  0
 13 14  1  1
 13 15  1  0
 15 16  1  0
 15 17  1  0
 16 18  1  0
 17 18  1  0
M  END
>  <ref_url>  (442) 
https://fakepage.com

>  <submitter_name>  (442) 
Steph Wills

>  <submitter_email>  (442) 
stephanie.wills@dtc.ox.ac.uk

>  <submitter_institution>  (442) 
University of Oxford

>  <generation_date>  (442) 
2020-06-04

>  <method>  (442) 
Fragment network

>  <ref_mols>  (442) 
x0183_0B,x0311_0B

>  <ref_pdb>  (442) 
references/x0183-0B-x0311-0B-6189.holo_minimised_nolig.pdb

>  <original SMILES>  (442) 
CCc1ccc(N(C)C(=O)C(C)C2CNC2)cc1

>  <synthon>  (442) 
[Xe]C1CNC1

>  <original_name>  (442) 
x0183-0B-x0311-0B-6189

>  <comRMSD_score>  (442) 
0.6444891064504765

>  <IF_score>  (442) 
0.4166666666666666

>  <SuCOS_score>  (442) 
0.4116362080449472

>  <compound_ID>  (442) 
CHEMSPACE-BB:CSMB00004409968

$$$$

     RDKit          3D

 18 19  0  0  0  0  0  0  0  0999 V2000
   -7.6730    1.5610  -78.2210 C   0  0  0  0  0  0  0  0  0  0  0  0
   -7.7980    3.0390  -78.0480 C   0  0  0  0  0  0  0  0  0  0  0  0
   -7.3870    3.8320  -79.0980 C   0  0  0  0  0  0  0  0  0  0  0  0
   -9.1870    3.4310  -77.4740 C   0  0  0  0  0  0  0  0  0  0  0  0
  -10.0010    4.2930  -78.2380 C   0  0  0  0  0  0  0  0  0  0  0  0
   -9.6100    2.9390  -76.2230 C   0  0  0  0  0  0  0  0  0  0  0  0
  -11.3820    4.6830  -77.6530 C   0  0  0  0  0  0  0  0  0  0  0  0
  -10.8480    3.2560  -75.6390 C   0  0  0  0  0  0  0  0  0  0  0  0
  -11.7570    4.0950  -76.2810 C   0  0  0  0  0  0  0  0  0  0  0  0
  -13.0940    4.5090  -75.8060 N   0  0  0  0  0  0  0  0  0  0  0  0
  -13.5530    4.9130  -74.4460 C   0  0  0  0  0  0  0  0  0  0  0  0
  -14.2980    4.2070  -73.7700 O   0  0  0  0  0  0  0  0  0  0  0  0
  -13.1150    6.2750  -73.8280 C   0  0  0  0  0  0  0  0  0  0  0  0
  -12.1180    6.9840  -74.4700 C   0  0  0  0  0  0  0  0  0  0  0  0
  -12.3200    8.3540  -74.6870 C   0  0  0  0  0  0  0  0  0  0  0  0
  -13.6200    8.8980  -74.6300 C   0  0  0  0  0  0  0  0  0  0  0  0
  -12.2650    8.8960  -76.1270 C   0  0  0  0  0  0  0  0  0  0  0  0
  -13.2550    9.8790  -75.6790 N   0  0  0  0  0  0  0  0  0  0  0  0
  1  2  1  0
  2  3  1  0
  2  4  1  0
  4  5  2  0
  4  6  1  0
  5  7  1  0
  6  8  2  0
  7  9  2  0
  8  9  1  0
  9 10  1  0
 10 11  1  0
 11 12  2  0
 11 13  1  0
 13 14  1  0
 14 15  1  0
 15 16  1  0
 15 17  1  0
 16 18  1  0
 17 18  1  0
M  END
>  <ref_url>  (443) 
https://fakepage.com

>  <submitter_name>  (443) 
Steph Wills

>  <submitter_email>  (443) 
stephanie.wills@dtc.ox.ac.uk

>  <submitter_institution>  (443) 
University of Oxford

>  <generation_date>  (443) 
2020-06-04

>  <method>  (443) 
Fragment network

>  <ref_mols>  (443) 
x0183_0B,x0311_0B

>  <ref_pdb>  (443) 
references/x0183-0B-x0311-0B-6235.holo_minimised_nolig.pdb

>  <original SMILES>  (443) 
CC(C)c1ccc(NC(=O)CCC2CNC2)cc1

>  <synthon>  (443) 
[Xe]C1CNC1

>  <original_name>  (443) 
x0183-0B-x0311-0B-6235

>  <comRMSD_score>  (443) 
0.8657312419760148

>  <IF_score>  (443) 
0.2769230769230769

>  <SuCOS_score>  (443) 
0.3820828636250372

>  <compound_ID>  (443) 
REAL:Z2824636881

$$$$

     RDKit          3D

 17 18  0  0  0  0  0  0  0  0999 V2000
   -8.4290    4.3490  -80.1990 C   0  0  0  0  0  0  0  0  0  0  0  0
   -8.3290    3.3230  -79.1190 C   0  0  0  0  0  0  0  0  0  0  0  0
   -8.3310    2.0360  -79.9160 C   0  0  0  0  0  0  0  0  0  0  0  0
   -9.4570    3.5320  -78.1210 C   0  0  0  0  0  0  0  0  0  0  0  0
   -9.5000    2.8890  -76.8760 C   0  0  0  0  0  0  0  0  0  0  0  0
  -10.4980    4.4020  -78.4390 C   0  0  0  0  0  0  0  0  0  0  0  0
  -10.5670    3.1200  -75.9910 C   0  0  0  0  0  0  0  0  0  0  0  0
  -11.5550    4.6390  -77.5720 C   0  0  0  0  0  0  0  0  0  0  0  0
  -11.6110    4.0020  -76.3330 C   0  0  0  0  0  0  0  0  0  0  0  0
  -12.7730    4.2670  -75.3970 C   0  0  0  0  0  0  0  0  0  0  0  0
  -13.1630    5.7650  -75.3920 C   0  0  0  0  0  0  0  0  0  0  0  0
  -12.7120    6.5010  -74.1850 N   0  0  0  0  0  0  0  0  0  0  0  0
  -12.9670    7.9310  -74.2770 C   0  0  0  0  0  0  0  0  0  0  0  0
  -13.2990    5.8480  -73.0000 C   0  0  0  0  0  0  0  0  0  0  0  0
  -14.4860    4.8970  -73.2650 C   0  0  0  0  0  0  0  0  0  0  0  0
  -14.3220    6.7370  -72.2600 C   0  0  0  0  0  0  0  0  0  0  0  0
  -15.4380    5.8800  -72.7120 N   0  0  0  0  0  0  0  0  0  0  0  0
  1  2  1  0
  2  3  1  0
  2  4  1  0
  4  5  2  0
  4  6  1  0
  5  7  1  0
  6  8  2  0
  7  9  2  0
  8  9  1  0
  9 10  1  0
 10 11  1  0
 11 12  1  0
 12 13  1  0
 12 14  1  0
 14 15  1  0
 14 16  1  0
 15 17  1  0
 16 17  1  0
M  END
>  <ref_url>  (444) 
https://fakepage.com

>  <submitter_name>  (444) 
Steph Wills

>  <submitter_email>  (444) 
stephanie.wills@dtc.ox.ac.uk

>  <submitter_institution>  (444) 
University of Oxford

>  <generation_date>  (444) 
2020-06-04

>  <method>  (444) 
Fragment network

>  <ref_mols>  (444) 
x0183_0B,x0311_0B

>  <ref_pdb>  (444) 
references/x0183-0B-x0311-0B-6277.holo_minimised_nolig.pdb

>  <original SMILES>  (444) 
CC(C)c1ccc(CCN(C)C2CNC2)cc1

>  <synthon>  (444) 
[Xe]C1CNC1

>  <original_name>  (444) 
x0183-0B-x0311-0B-6277

>  <comRMSD_score>  (444) 
0.7869253747685009

>  <IF_score>  (444) 
0.4166666666666666

>  <SuCOS_score>  (444) 
0.4637464303796451

>  <compound_ID>  (444) 
CHEMSPACE-BB:CSMB00072072126

$$$$

     RDKit          3D

 18 19  0  0  0  0  0  0  0  0999 V2000
   -7.4440    2.0510  -78.2700 C   0  0  0  0  0  0  0  0  0  0  0  0
   -8.0820    3.3040  -78.4870 O   0  0  0  0  0  0  0  0  0  0  0  0
   -9.2470    3.6270  -77.8270 C   0  0  0  0  0  0  0  0  0  0  0  0
   -9.4420    3.0610  -76.5630 C   0  0  0  0  0  0  0  0  0  0  0  0
  -10.2330    4.4750  -78.3300 C   0  0  0  0  0  0  0  0  0  0  0  0
  -10.6040    3.3420  -75.8210 C   0  0  0  0  0  0  0  0  0  0  0  0
  -11.3900    4.7580  -77.5950 C   0  0  0  0  0  0  0  0  0  0  0  0
  -11.5950    4.2010  -76.3310 C   0  0  0  0  0  0  0  0  0  0  0  0
  -12.7530    4.4620  -75.5440 N   0  0  0  0  0  0  0  0  0  0  0  0
  -13.2800    5.7450  -75.3450 C   0  0  0  0  0  0  0  0  0  0  0  0
  -14.0090    6.3340  -76.1380 O   0  0  0  0  0  0  0  0  0  0  0  0
  -12.8780    6.4130  -74.0230 C   0  0  0  0  0  0  0  0  0  0  0  0
  -13.9150    5.8480  -72.6550 S   0  0  0  0  0  0  0  0  0  0  0  0
  -14.7960    7.3910  -72.2830 C   0  0  0  0  0  0  0  0  0  0  0  0
  -16.1020    7.2780  -71.4970 C   0  0  0  0  0  0  0  0  0  0  0  0
  -17.1610    8.3960  -71.5940 C   0  0  0  0  0  0  0  0  0  0  0  0
  -16.1390    7.5550  -69.9780 C   0  0  0  0  0  0  0  0  0  0  0  0
  -17.4380    8.2220  -70.1630 N   0  0  0  0  0  0  0  0  0  0  0  0
  1  2  1  0
  2  3  1  0
  3  4  2  0
  3  5  1  0
  4  6  1  0
  5  7  2  0
  6  8  2  0
  7  8  1  0
  8  9  1  0
  9 10  1  0
 10 11  2  0
 10 12  1  0
 12 13  1  0
 13 14  1  0
 14 15  1  0
 15 16  1  0
 15 17  1  0
 16 18  1  0
 17 18  1  0
M  END
>  <ref_url>  (445) 
https://fakepage.com

>  <submitter_name>  (445) 
Steph Wills

>  <submitter_email>  (445) 
stephanie.wills@dtc.ox.ac.uk

>  <submitter_institution>  (445) 
University of Oxford

>  <generation_date>  (445) 
2020-06-04

>  <method>  (445) 
Fragment network

>  <ref_mols>  (445) 
x0183_0B,x0311_0B

>  <ref_pdb>  (445) 
references/x0183-0B-x0311-0B-6288.holo_minimised_nolig.pdb

>  <original SMILES>  (445) 
COc1ccc(NC(=O)CSCC2CNC2)cc1

>  <synthon>  (445) 
[Xe]C1CNC1

>  <original_name>  (445) 
x0183-0B-x0311-0B-6288

>  <comRMSD_score>  (445) 
0.6710148408691622

>  <IF_score>  (445) 
0.4071428571428571

>  <SuCOS_score>  (445) 
0.3445645356818847

>  <compound_ID>  (445) 
CHEMSPACE-BB:CSMB00001372170

$$$$

     RDKit          3D

 17 18  0  0  0  0  0  0  0  0999 V2000
   -8.2790    3.3510  -80.0500 C   0  0  0  0  0  0  0  0  0  0  0  0
   -8.0410    3.3570  -78.5380 C   0  0  0  0  0  0  0  0  0  0  0  0
   -9.3090    3.5910  -77.7490 C   0  0  0  0  0  0  0  0  0  0  0  0
   -9.4610    3.0470  -76.4730 C   0  0  0  0  0  0  0  0  0  0  0  0
  -10.3640    4.3470  -78.2620 C   0  0  0  0  0  0  0  0  0  0  0  0
  -10.6400    3.2440  -75.7380 C   0  0  0  0  0  0  0  0  0  0  0  0
  -11.5450    4.5470  -77.5240 C   0  0  0  0  0  0  0  0  0  0  0  0
  -11.7190    3.9950  -76.2400 C   0  0  0  0  0  0  0  0  0  0  0  0
  -12.9440    4.1620  -75.4480 N   0  0  0  0  0  0  0  0  0  0  0  0
  -13.8300    3.0030  -75.5610 C   0  0  0  0  0  0  0  0  0  0  0  0
  -13.5860    5.4140  -75.3390 C   0  0  0  0  0  0  0  0  0  0  0  0
  -14.4000    5.8170  -76.1680 O   0  0  0  0  0  0  0  0  0  0  0  0
  -13.2980    6.3460  -74.1590 C   0  0  0  0  0  0  0  0  0  0  0  0
  -13.0210    7.7140  -74.7380 C   0  0  0  0  0  0  0  0  0  0  0  0
  -13.7910    8.8740  -74.0700 C   0  0  0  0  0  0  0  0  0  0  0  0
  -11.7560    8.4400  -74.3620 C   0  0  0  0  0  0  0  0  0  0  0  0
  -12.5210    9.4850  -73.6400 N   0  0  0  0  0  0  0  0  0  0  0  0
  1  2  1  0
  2  3  1  0
  3  4  2  0
  3  5  1  0
  4  6  1  0
  5  7  2  0
  6  8  2  0
  7  8  1  0
  8  9  1  0
  9 10  1  0
  9 11  1  0
 11 12  2  0
 11 13  1  0
 13 14  1  0
 14 15  1  0
 14 16  1  0
 15 17  1  0
 16 17  1  0
M  END
>  <ref_url>  (446) 
https://fakepage.com

>  <submitter_name>  (446) 
Steph Wills

>  <submitter_email>  (446) 
stephanie.wills@dtc.ox.ac.uk

>  <submitter_institution>  (446) 
University of Oxford

>  <generation_date>  (446) 
2020-06-04

>  <method>  (446) 
Fragment network

>  <ref_mols>  (446) 
x0183_0B,x0311_0B

>  <ref_pdb>  (446) 
references/x0183-0B-x0311-0B-6306.holo_minimised_nolig.pdb

>  <original SMILES>  (446) 
CCc1ccc(N(C)C(=O)CC2CNC2)cc1

>  <synthon>  (446) 
[Xe]C1CNC1

>  <original_name>  (446) 
x0183-0B-x0311-0B-6306

>  <comRMSD_score>  (446) 
0.8705571679152933

>  <IF_score>  (446) 
0.4642857142857143

>  <SuCOS_score>  (446) 
0.3995540156447955

>  <compound_ID>  (446) 
CHEMSPACE-BB:CSMB00008224523

$$$$

     RDKit          3D

 16 18  0  0  0  0  0  0  0  0999 V2000
  -10.1790    4.4080  -78.6220 C   0  0  0  0  0  0  0  0  0  0  0  0
  -11.1980    4.8300  -77.6350 C   0  0  0  0  0  0  0  0  0  0  0  0
  -11.3420    4.1360  -76.4370 C   0  0  0  0  0  0  0  0  0  0  0  0
   -9.3730    3.3300  -78.3670 C   0  0  0  0  0  0  0  0  0  0  0  0
   -9.4890    2.5890  -77.1790 C   0  0  0  0  0  0  0  0  0  0  0  0
  -12.3020    4.5640  -75.4870 C   0  0  1  0  0  0  0  0  0  0  0  0
  -10.4730    3.0120  -76.2330 C   0  0  0  0  0  0  0  0  0  0  0  0
   -8.6350    1.4900  -77.0150 C   0  0  0  0  0  0  0  0  0  0  0  0
  -12.8000    5.8720  -75.5290 C   0  0  0  0  0  0  0  0  0  0  0  0
  -13.5440    3.6900  -75.2650 C   0  0  0  0  0  0  0  0  0  0  0  0
   -8.8690    0.5650  -75.9830 C   0  0  0  0  0  0  0  0  0  0  0  0
   -7.2630    1.6920  -76.3500 C   0  0  0  0  0  0  0  0  0  0  0  0
  -12.9320    6.3030  -74.0550 C   0  0  0  0  0  0  0  0  0  0  0  0
  -14.3790    4.2850  -74.2230 N   0  0  0  0  0  0  0  0  0  0  0  0
   -7.4180    0.2680  -75.9940 N   0  0  0  0  0  0  0  0  0  0  0  0
  -13.6160    5.1640  -73.2800 C   0  0  0  0  0  0  0  0  0  0  0  0
  1  2  2  0
  2  3  1  0
  1  4  1  0
  4  5  2  0
  6  3  1  6
  3  7  2  0
  5  7  1  0
  5  8  1  0
  6  9  1  0
  6 10  1  0
  8 11  1  0
  8 12  1  0
  9 13  1  0
 10 14  1  0
 11 15  1  0
 12 15  1  0
 13 16  1  0
 14 16  1  0
M  END
>  <ref_url>  (447) 
https://fakepage.com

>  <submitter_name>  (447) 
Steph Wills

>  <submitter_email>  (447) 
stephanie.wills@dtc.ox.ac.uk

>  <submitter_institution>  (447) 
University of Oxford

>  <generation_date>  (447) 
2020-06-04

>  <method>  (447) 
Fragment network

>  <ref_mols>  (447) 
x0183_0B,x0311_0B

>  <ref_pdb>  (447) 
references/x0183-0B-x0311-0B-6353.holo_minimised_nolig.pdb

>  <original SMILES>  (447) 
c1cc(C2CCCNC2)cc(C2CNC2)c1

>  <synthon>  (447) 
[Xe]C1CNC1

>  <original_name>  (447) 
x0183-0B-x0311-0B-6353

>  <comRMSD_score>  (447) 
0.8216362304804337

>  <IF_score>  (447) 
0.1805555555555555

>  <SuCOS_score>  (447) 
0.3652175784870154

>  <compound_ID>  (447) 
CHEMSPACE-BB:CSMB00039712733

$$$$

     RDKit          3D

 17 18  0  0  0  0  0  0  0  0999 V2000
   -7.8350    3.9460  -79.5580 C   0  0  0  0  0  0  0  0  0  0  0  0
   -8.1770    3.2140  -78.3840 O   0  0  0  0  0  0  0  0  0  0  0  0
   -9.3370    3.5700  -77.7520 C   0  0  0  0  0  0  0  0  0  0  0  0
   -9.5450    2.9700  -76.5160 C   0  0  0  0  0  0  0  0  0  0  0  0
  -10.3000    4.4570  -78.2390 C   0  0  0  0  0  0  0  0  0  0  0  0
  -10.6960    3.2430  -75.7680 C   0  0  0  0  0  0  0  0  0  0  0  0
  -11.4520    4.7310  -77.4950 C   0  0  0  0  0  0  0  0  0  0  0  0
  -11.6660    4.1300  -76.2500 C   0  0  0  0  0  0  0  0  0  0  0  0
  -12.8620    4.4620  -75.5600 N   0  0  0  0  0  0  0  0  0  0  0  0
  -12.9580    4.6530  -74.1830 C   0  0  0  0  0  0  0  0  0  0  0  0
  -13.0080    3.7100  -73.3860 O   0  0  0  0  0  0  0  0  0  0  0  0
  -12.9870    6.1320  -73.6880 C   0  0  0  0  0  0  0  0  0  0  0  0
  -11.8650    6.9290  -74.0160 O   0  0  0  0  0  0  0  0  0  0  0  0
  -12.1710    8.1240  -74.7940 C   0  0  0  0  0  0  0  0  0  0  0  0
  -12.8480    9.3090  -74.0640 C   0  0  0  0  0  0  0  0  0  0  0  0
  -13.4460    8.1250  -75.6720 C   0  0  0  0  0  0  0  0  0  0  0  0
  -14.1590    8.9030  -74.6320 N   0  0  0  0  0  0  0  0  0  0  0  0
  1  2  1  0
  2  3  1  0
  3  4  2  0
  3  5  1  0
  4  6  1  0
  5  7  2  0
  6  8  2  0
  7  8  1  0
  8  9  1  0
  9 10  1  0
 10 11  2  0
 10 12  1  0
 12 13  1  0
 13 14  1  0
 14 15  1  0
 14 16  1  0
 15 17  1  0
 16 17  1  0
M  END
>  <ref_url>  (448) 
https://fakepage.com

>  <submitter_name>  (448) 
Steph Wills

>  <submitter_email>  (448) 
stephanie.wills@dtc.ox.ac.uk

>  <submitter_institution>  (448) 
University of Oxford

>  <generation_date>  (448) 
2020-06-04

>  <method>  (448) 
Fragment network

>  <ref_mols>  (448) 
x0183_0B,x0311_0B

>  <ref_pdb>  (448) 
references/x0183-0B-x0311-0B-6447.holo_minimised_nolig.pdb

>  <original SMILES>  (448) 
COc1ccc(NC(=O)COC2CNC2)cc1

>  <synthon>  (448) 
[Xe]C1CNC1

>  <original_name>  (448) 
x0183-0B-x0311-0B-6447

>  <comRMSD_score>  (448) 
0.7123131652963777

>  <IF_score>  (448) 
0.3653846153846154

>  <SuCOS_score>  (448) 
0.3663832317111866

>  <compound_ID>  (448) 
CHEMSPACE-BB:CSMB00003376234

$$$$

     RDKit          3D

 19 20  0  0  0  0  0  0  0  0999 V2000
   -7.2880    1.8180  -78.0990 C   0  0  0  0  0  0  0  0  0  0  0  0
   -8.1180    3.0000  -78.4780 C   0  0  1  0  0  0  0  0  0  0  0  0
   -8.4570    2.9240  -79.9160 N   0  0  0  0  0  0  0  0  0  0  0  0
   -9.2550    3.3130  -77.7070 C   0  0  0  0  0  0  0  0  0  0  0  0
  -10.2200    4.2230  -78.1830 C   0  0  0  0  0  0  0  0  0  0  0  0
   -9.4380    2.7110  -76.4380 C   0  0  0  0  0  0  0  0  0  0  0  0
  -11.3880    4.6020  -77.4970 C   0  0  0  0  0  0  0  0  0  0  0  0
  -10.5570    2.9940  -75.6440 C   0  0  0  0  0  0  0  0  0  0  0  0
  -11.5120    3.8990  -76.1250 C   0  0  0  0  0  0  0  0  0  0  0  0
  -12.7360    4.4120  -75.6150 N   0  0  0  0  0  0  0  0  0  0  0  0
  -12.9760    5.8520  -75.4120 C   0  0  0  0  0  0  0  0  0  0  0  0
  -13.1960    6.6580  -76.3110 O   0  0  0  0  0  0  0  0  0  0  0  0
  -12.9570    6.3920  -73.9670 C   0  0  0  0  0  0  0  0  0  0  0  0
  -13.8500    5.6300  -72.9630 C   0  0  0  0  0  0  0  0  0  0  0  0
  -13.9720    6.3680  -71.8270 O   0  0  0  0  0  0  0  0  0  0  0  0
  -14.9760    7.4120  -71.6430 C   0  0  0  0  0  0  0  0  0  0  0  0
  -15.7710    7.1610  -70.5430 C   0  0  0  0  0  0  0  0  0  0  0  0
  -16.0570    7.3780  -72.6860 C   0  0  0  0  0  0  0  0  0  0  0  0
  -16.9330    7.0510  -71.5050 N   0  0  0  0  0  0  0  0  0  0  0  0
  2  1  1  1
  2  3  1  0
  2  4  1  0
  4  5  2  0
  4  6  1  0
  5  7  1  0
  6  8  2  0
  7  9  2  0
  8  9  1  0
  9 10  1  0
 10 11  1  0
 11 12  2  0
 11 13  1  0
 13 14  1  0
 14 15  1  0
 15 16  1  0
 16 17  1  0
 16 18  1  0
 17 19  1  0
 18 19  1  0
M  END
>  <ref_url>  (449) 
https://fakepage.com

>  <submitter_name>  (449) 
Steph Wills

>  <submitter_email>  (449) 
stephanie.wills@dtc.ox.ac.uk

>  <submitter_institution>  (449) 
University of Oxford

>  <generation_date>  (449) 
2020-06-04

>  <method>  (449) 
Fragment network

>  <ref_mols>  (449) 
x0183_0B,x0311_0B

>  <ref_pdb>  (449) 
references/x0183-0B-x0311-0B-6509.holo_minimised_nolig.pdb

>  <original SMILES>  (449) 
CC(N)c1ccc(NC(=O)CCOC2CNC2)cc1

>  <synthon>  (449) 
[Xe]C1CNC1

>  <original_name>  (449) 
x0183-0B-x0311-0B-6509

>  <comRMSD_score>  (449) 
0.7856031489831921

>  <IF_score>  (449) 
0.1875

>  <SuCOS_score>  (449) 
0.3805207454094026

>  <compound_ID>  (449) 
REAL:Z2392725712

$$$$

     RDKit          3D

 18 19  0  0  0  0  0  0  0  0999 V2000
  -12.8010    5.3200  -74.6120 C   0  0  0  0  0  0  0  0  0  0  0  0
  -12.9440    4.5960  -75.9520 C   0  0  0  0  0  0  0  0  0  0  0  0
  -13.9150    3.4090  -75.8620 C   0  0  0  0  0  0  0  0  0  0  0  0
  -11.6050    4.1760  -76.5450 C   0  0  0  0  0  0  0  0  0  0  0  0
  -10.7920    3.2450  -75.8740 C   0  0  0  0  0  0  0  0  0  0  0  0
  -11.1510    4.6940  -77.7660 C   0  0  0  0  0  0  0  0  0  0  0  0
   -9.5700    2.8410  -76.4180 C   0  0  0  0  0  0  0  0  0  0  0  0
   -9.9280    4.2920  -78.3060 C   0  0  0  0  0  0  0  0  0  0  0  0
   -9.1300    3.3530  -77.6400 C   0  0  0  0  0  0  0  0  0  0  0  0
   -7.8200    2.8950  -78.2390 C   0  0  0  0  0  0  0  0  0  0  0  0
   -6.5600    3.5170  -77.6550 C   0  0  0  0  0  0  0  0  0  0  0  0
   -5.4480    3.3560  -78.5780 N   0  0  0  0  0  0  0  0  0  0  0  0
   -5.1110    2.0930  -79.0360 C   0  0  0  0  0  0  0  0  0  0  0  0
   -5.1080    1.1260  -78.2730 O   0  0  0  0  0  0  0  0  0  0  0  0
   -4.7610    2.0100  -80.5490 C   0  0  0  0  0  0  0  0  0  0  0  0
   -3.2720    2.0010  -80.9410 C   0  0  0  0  0  0  0  0  0  0  0  0
   -4.7800    0.6100  -81.1910 C   0  0  0  0  0  0  0  0  0  0  0  0
   -3.3180    0.5260  -80.9970 N   0  0  0  0  0  0  0  0  0  0  0  0
  1  2  1  0
  2  3  1  0
  2  4  1  0
  4  5  2  0
  4  6  1  0
  5  7  1  0
  6  8  2  0
  7  9  2  0
  8  9  1  0
  9 10  1  0
 10 11  1  0
 11 12  1  0
 12 13  1  0
 13 14  2  0
 13 15  1  0
 15 16  1  0
 15 17  1  0
 16 18  1  0
 17 18  1  0
M  END
>  <ref_url>  (450) 
https://fakepage.com

>  <submitter_name>  (450) 
Steph Wills

>  <submitter_email>  (450) 
stephanie.wills@dtc.ox.ac.uk

>  <submitter_institution>  (450) 
University of Oxford

>  <generation_date>  (450) 
2020-06-04

>  <method>  (450) 
Fragment network

>  <ref_mols>  (450) 
x0183_0B,x0311_0B

>  <ref_pdb>  (450) 
references/x0183-0B-x0311-0B-6555.holo_minimised_nolig.pdb

>  <original SMILES>  (450) 
CC(C)c1ccc(CCNC(=O)C2CNC2)cc1

>  <synthon>  (450) 
[Xe]C1CNC1

>  <original_name>  (450) 
x0183-0B-x0311-0B-6555

>  <comRMSD_score>  (450) 
0.698730244475975

>  <IF_score>  (450) 
0.3269230769230769

>  <SuCOS_score>  (450) 
0.4296754753611033

>  <compound_ID>  (450) 
CHEMSPACE-BB:CSMB00134360170

$$$$

     RDKit          3D

 19 21  0  0  0  0  0  0  0  0999 V2000
   -8.2430    2.0740  -79.7980 C   0  0  0  0  0  0  0  0  0  0  0  0
   -8.1860    2.9660  -78.5950 C   0  0  0  0  0  0  0  0  0  0  0  0
   -7.0960    3.2970  -78.1880 O   0  0  0  0  0  0  0  0  0  0  0  0
   -9.4470    3.4020  -77.8950 C   0  0  0  0  0  0  0  0  0  0  0  0
  -10.3570    4.3160  -78.4320 C   0  0  0  0  0  0  0  0  0  0  0  0
   -9.7210    2.8590  -76.6390 C   0  0  0  0  0  0  0  0  0  0  0  0
  -11.5270    4.6680  -77.7200 C   0  0  0  0  0  0  0  0  0  0  0  0
  -10.8860    3.2140  -75.9360 C   0  0  0  0  0  0  0  0  0  0  0  0
  -11.8280    4.1230  -76.4520 C   0  0  0  0  0  0  0  0  0  0  0  0
  -13.0200    4.4730  -75.7430 N   0  0  0  0  0  0  0  0  0  0  0  0
  -13.6310    5.8220  -75.8470 C   0  0  0  0  0  0  0  0  0  0  0  0
  -12.9220    4.1820  -74.3270 C   0  0  0  0  0  0  0  0  0  0  0  0
  -13.9520    6.4240  -74.4260 C   0  0  0  0  0  0  0  0  0  0  0  0
  -12.1130    5.3530  -73.6680 C   0  0  0  0  0  0  0  0  0  0  0  0
  -12.7770    6.6560  -73.6450 N   0  0  0  0  0  0  0  0  0  0  0  0
  -12.0170    7.7910  -74.2220 C   0  0  0  0  0  0  0  0  0  0  0  0
  -12.6930    9.1440  -73.8600 C   0  0  0  0  0  0  0  0  0  0  0  0
  -12.4810    8.2190  -75.6450 C   0  0  0  0  0  0  0  0  0  0  0  0
  -12.2820    9.6210  -75.2040 N   0  0  0  0  0  0  0  0  0  0  0  0
  1  2  1  0
  2  3  2  0
  2  4  1  0
  4  5  2  0
  4  6  1  0
  5  7  1  0
  6  8  2  0
  7  9  2  0
  8  9  1  0
  9 10  1  0
 10 11  1  0
 10 12  1  0
 11 13  1  0
 12 14  1  0
 13 15  1  0
 14 15  1  0
 15 16  1  0
 16 17  1  0
 16 18  1  0
 17 19  1  0
 18 19  1  0
M  END
>  <ref_url>  (451) 
https://fakepage.com

>  <submitter_name>  (451) 
Steph Wills

>  <submitter_email>  (451) 
stephanie.wills@dtc.ox.ac.uk

>  <submitter_institution>  (451) 
University of Oxford

>  <generation_date>  (451) 
2020-06-04

>  <method>  (451) 
Fragment network

>  <ref_mols>  (451) 
x0183_0B,x0311_0B

>  <ref_pdb>  (451) 
references/x0183-0B-x0311-0B-6573.holo_minimised_nolig.pdb

>  <original SMILES>  (451) 
CC(=O)c1ccc(N2CCN(C3CNC3)CC2)cc1

>  <synthon>  (451) 
[Xe]C1CNC1

>  <original_name>  (451) 
x0183-0B-x0311-0B-6573

>  <comRMSD_score>  (451) 
0.8766084739874853

>  <IF_score>  (451) 
0.3611111111111111

>  <SuCOS_score>  (451) 
0.4069932546012156

>  <compound_ID>  (451) 
CHEMSPACE-BB:CSMB00134165747

$$$$

     RDKit          3D

 16 17  0  0  0  0  0  0  0  0999 V2000
   -7.0100    3.0660  -79.1410 N   0  0  0  0  0  0  0  0  0  0  0  0
   -7.9670    3.2970  -78.5200 C   0  0  0  0  0  0  0  0  0  0  0  0
   -9.2140    3.6020  -77.7400 C   0  0  0  0  0  0  0  0  0  0  0  0
   -9.4470    3.0390  -76.4720 C   0  0  0  0  0  0  0  0  0  0  0  0
  -10.1710    4.4580  -78.2740 C   0  0  0  0  0  0  0  0  0  0  0  0
  -10.6170    3.3420  -75.7590 C   0  0  0  0  0  0  0  0  0  0  0  0
  -11.3280    4.7560  -77.5660 C   0  0  0  0  0  0  0  0  0  0  0  0
  -11.5690    4.2140  -76.3030 C   0  0  0  0  0  0  0  0  0  0  0  0
  -12.7550    4.5640  -75.6150 N   0  0  0  0  0  0  0  0  0  0  0  0
  -13.2270    5.9460  -75.4770 C   0  0  0  0  0  0  0  0  0  0  0  0
  -13.8150    6.6470  -76.4900 O   0  0  0  0  0  0  0  0  0  0  0  0
  -13.0050    6.4810  -74.1900 C   0  0  0  0  0  0  0  0  0  0  0  0
  -14.0110    6.1460  -73.0990 C   0  0  0  0  0  0  0  0  0  0  0  0
  -15.4220    5.6630  -73.4190 C   0  0  0  0  0  0  0  0  0  0  0  0
  -14.7750    7.3000  -72.4140 C   0  0  0  0  0  0  0  0  0  0  0  0
  -15.8930    6.3510  -72.1980 N   0  0  0  0  0  0  0  0  0  0  0  0
  1  2  3  0
  2  3  1  0
  3  4  2  0
  3  5  1  0
  4  6  1  0
  5  7  2  0
  6  8  2  0
  7  8  1  0
  8  9  1  0
  9 10  1  0
 10 11  2  0
 10 12  1  0
 12 13  1  0
 13 14  1  0
 13 15  1  0
 14 16  1  0
 15 16  1  0
M  END
>  <ref_url>  (452) 
https://fakepage.com

>  <submitter_name>  (452) 
Steph Wills

>  <submitter_email>  (452) 
stephanie.wills@dtc.ox.ac.uk

>  <submitter_institution>  (452) 
University of Oxford

>  <generation_date>  (452) 
2020-06-04

>  <method>  (452) 
Fragment network

>  <ref_mols>  (452) 
x0183_0B,x0311_0B

>  <ref_pdb>  (452) 
references/x0183-0B-x0311-0B-6785.holo_minimised_nolig.pdb

>  <original SMILES>  (452) 
N#Cc1ccc(NC(=O)CC2CNC2)cc1

>  <synthon>  (452) 
[Xe]C1CNC1

>  <original_name>  (452) 
x0183-0B-x0311-0B-6785

>  <comRMSD_score>  (452) 
0.5791175553004274

>  <IF_score>  (452) 
0.3269230769230769

>  <SuCOS_score>  (452) 
0.3672910092145071

>  <compound_ID>  (452) 
CHEMSPACE-BB:CSMB00005885517

$$$$

     RDKit          3D

 19 21  0  0  0  0  0  0  0  0999 V2000
   -6.6570    3.2660  -77.4710 C   0  0  0  0  0  0  0  0  0  0  0  0
   -7.8480    3.3230  -78.3930 C   0  0  0  0  0  0  0  0  0  0  0  0
   -9.0590    3.5870  -77.7520 C   0  0  0  0  0  0  0  0  0  0  0  0
   -9.3850    2.9630  -76.3910 C   0  0  0  0  0  0  0  0  0  0  0  0
  -10.0050    4.4280  -78.3420 C   0  0  0  0  0  0  0  0  0  0  0  0
  -10.6050    3.2600  -75.7870 C   0  0  0  0  0  0  0  0  0  0  0  0
  -11.2320    4.7240  -77.7270 C   0  0  0  0  0  0  0  0  0  0  0  0
  -11.6180    4.2060  -76.4750 C   0  0  0  0  0  0  0  0  0  0  0  0
  -12.8500    4.5290  -75.8680 N   0  0  0  0  0  0  0  0  0  0  0  0
  -13.9060    3.5380  -75.6110 C   0  0  0  0  0  0  0  0  0  0  0  0
  -13.0340    5.9190  -75.4250 C   0  0  0  0  0  0  0  0  0  0  0  0
  -15.1880    4.1770  -75.0300 C   0  0  0  0  0  0  0  0  0  0  0  0
  -12.9860    6.0900  -73.8910 C   0  0  0  0  0  0  0  0  0  0  0  0
  -15.1040    4.9260  -73.6720 C   0  0  0  0  0  0  0  0  0  0  0  0
  -13.7550    5.0730  -73.1220 N   0  0  0  0  0  0  0  0  0  0  0  0
  -12.9830    3.8130  -72.9960 C   0  0  0  0  0  0  0  0  0  0  0  0
  -12.5020    3.5550  -71.5580 C   0  0  0  0  0  0  0  0  0  0  0  0
  -13.8720    2.5790  -72.6990 C   0  0  0  0  0  0  0  0  0  0  0  0
  -13.8580    3.0170  -71.2790 N   0  0  0  0  0  0  0  0  0  0  0  0
  1  2  1  0
  2  3  1  0
  3  4  2  0
  3  5  1  0
  4  6  1  0
  5  7  2  0
  6  8  2  0
  7  8  1  0
  8  9  1  0
  9 10  1  0
  9 11  1  0
 10 12  1  0
 11 13  1  0
 12 14  1  0
 13 15  1  0
 14 15  1  0
 15 16  1  0
 16 17  1  0
 16 18  1  0
 17 19  1  0
 18 19  1  0
M  END
>  <ref_url>  (453) 
https://fakepage.com

>  <submitter_name>  (453) 
Steph Wills

>  <submitter_email>  (453) 
stephanie.wills@dtc.ox.ac.uk

>  <submitter_institution>  (453) 
University of Oxford

>  <generation_date>  (453) 
2020-06-04

>  <method>  (453) 
Fragment network

>  <ref_mols>  (453) 
x0183_0B,x0311_0B

>  <ref_pdb>  (453) 
references/x0183-0B-x0311-0B-6855.holo_minimised_nolig.pdb

>  <original SMILES>  (453) 
CCc1ccc(N2CCCN(C3CNC3)CC2)cc1

>  <synthon>  (453) 
[Xe]C1CNC1

>  <original_name>  (453) 
x0183-0B-x0311-0B-6855

>  <comRMSD_score>  (453) 
0.6032176914956435

>  <IF_score>  (453) 
0.3269230769230769

>  <SuCOS_score>  (453) 
0.410304767418435

>  <compound_ID>  (453) 
CHEMSPACE-BB:CSMB00134153704

$$$$

     RDKit          3D

 18 19  0  0  0  0  0  0  0  0999 V2000
   -7.2450    2.3250  -80.5740 C   0  0  0  0  0  0  0  0  0  0  0  0
   -8.4200    2.9550  -79.8310 C   0  0  0  0  0  0  0  0  0  0  0  0
   -8.5740    4.3910  -80.2060 C   0  0  0  0  0  0  0  0  0  0  0  0
   -8.2460    2.9650  -78.4130 O   0  0  0  0  0  0  0  0  0  0  0  0
   -9.3290    3.2850  -77.6290 C   0  0  0  0  0  0  0  0  0  0  0  0
   -9.5820    2.8050  -76.3500 C   0  0  0  0  0  0  0  0  0  0  0  0
  -10.2520    4.1790  -78.1910 C   0  0  0  0  0  0  0  0  0  0  0  0
  -10.7330    3.2000  -75.6480 C   0  0  0  0  0  0  0  0  0  0  0  0
  -11.4000    4.5790  -77.4930 C   0  0  0  0  0  0  0  0  0  0  0  0
  -11.6570    4.0890  -76.2060 C   0  0  0  0  0  0  0  0  0  0  0  0
  -12.8430    4.5200  -75.5450 N   0  0  0  0  0  0  0  0  0  0  0  0
  -12.9800    4.6700  -74.1720 C   0  0  0  0  0  0  0  0  0  0  0  0
  -12.9710    3.7190  -73.3810 O   0  0  0  0  0  0  0  0  0  0  0  0
  -13.1450    6.1090  -73.6560 C   0  0  0  0  0  0  0  0  0  0  0  0
  -12.2030    7.1470  -74.2220 C   0  0  0  0  0  0  0  0  0  0  0  0
  -12.6160    8.6150  -73.9720 C   0  0  0  0  0  0  0  0  0  0  0  0
  -12.4320    7.5420  -75.7030 C   0  0  0  0  0  0  0  0  0  0  0  0
  -13.3920    8.5630  -75.2300 N   0  0  0  0  0  0  0  0  0  0  0  0
  1  2  1  0
  2  3  1  0
  2  4  1  0
  4  5  1  0
  5  6  2  0
  5  7  1  0
  6  8  1  0
  7  9  2  0
  8 10  2  0
  9 10  1  0
 10 11  1  0
 11 12  1  0
 12 13  2  0
 12 14  1  0
 14 15  1  0
 15 16  1  0
 15 17  1  0
 16 18  1  0
 17 18  1  0
M  END
>  <ref_url>  (454) 
https://fakepage.com

>  <submitter_name>  (454) 
Steph Wills

>  <submitter_email>  (454) 
stephanie.wills@dtc.ox.ac.uk

>  <submitter_institution>  (454) 
University of Oxford

>  <generation_date>  (454) 
2020-06-04

>  <method>  (454) 
Fragment network

>  <ref_mols>  (454) 
x0183_0B,x0311_0B

>  <ref_pdb>  (454) 
references/x0183-0B-x0311-0B-6872.holo_minimised_nolig.pdb

>  <original SMILES>  (454) 
CC(C)Oc1ccc(NC(=O)CC2CNC2)cc1

>  <synthon>  (454) 
[Xe]C1CNC1

>  <original_name>  (454) 
x0183-0B-x0311-0B-6872

>  <comRMSD_score>  (454) 
0.8979599100182589

>  <IF_score>  (454) 
0.4166666666666666

>  <SuCOS_score>  (454) 
0.3516709236742828

>  <compound_ID>  (454) 
CHEMSPACE-BB:CSMB00008224348

$$$$

     RDKit          3D

 31 33  0  0  0  0  0  0  0  0999 V2000
   -9.6990    0.2040  -76.7440 O   0  0  0  0  0  0  0  0  0  0  0  0
   -8.7860    1.0180  -76.7710 C   0  0  0  0  0  0  0  0  0  0  0  0
   -7.3530    0.6560  -77.1540 C   0  0  0  0  0  0  0  0  0  0  0  0
   -8.8520    2.3510  -76.4720 N   0  0  0  0  0  0  0  0  0  0  0  0
   -6.6010    1.8240  -77.3950 O   0  0  0  0  0  0  0  0  0  0  0  0
   -9.9420    3.2300  -76.4890 C   0  0  0  0  0  0  0  0  0  0  0  0
   -5.9500    1.7930  -78.5790 C   0  0  0  0  0  0  0  0  0  0  0  0
  -10.7850    3.3980  -75.4070 C   0  0  0  0  0  0  0  0  0  0  0  0
  -10.1810    3.9750  -77.6590 C   0  0  0  0  0  0  0  0  0  0  0  0
   -4.7980    1.4250  -78.7050 O   0  0  0  0  0  0  0  0  0  0  0  0
   -6.7580    2.2990  -79.7370 C   0  0  0  0  0  0  0  0  0  0  0  0
  -11.8430    4.2950  -75.4670 C   0  0  0  0  0  0  0  0  0  0  0  0
  -11.2450    4.8790  -77.7230 C   0  0  0  0  0  0  0  0  0  0  0  0
   -9.3540    3.7960  -78.7530 O   0  0  0  0  0  0  0  0  0  0  0  0
   -7.7540    1.3740  -80.3590 C   0  0  0  0  0  0  0  0  0  0  0  0
  -12.0770    5.0370  -76.6170 C   0  0  0  0  0  0  0  0  0  0  0  0
   -7.9890    3.9970  -78.6590 C   0  0  0  0  0  0  0  0  0  0  0  0
   -8.4650    1.8790  -81.4410 C   0  0  0  0  0  0  0  0  0  0  0  0
   -7.9990    0.0640  -79.9180 C   0  0  0  0  0  0  0  0  0  0  0  0
   -7.2000    4.2700  -79.7900 C   0  0  0  0  0  0  0  0  0  0  0  0
   -7.3730    3.9350  -77.3990 C   0  0  0  0  0  0  0  0  0  0  0  0
   -9.4010    1.0990  -82.0720 C   0  0  0  0  0  0  0  0  0  0  0  0
   -8.9570   -0.7410  -80.5610 C   0  0  0  0  0  0  0  0  0  0  0  0
   -5.8180    4.4870  -79.6580 C   0  0  0  0  0  0  0  0  0  0  0  0
   -5.9950    4.1490  -77.2690 C   0  0  0  0  0  0  0  0  0  0  0  0
   -9.6560   -0.1990  -81.6470 C   0  0  0  0  0  0  0  0  0  0  0  0
   -9.2360   -2.1600  -80.1070 C   0  0  0  0  0  0  0  0  0  0  0  0
   -5.2170    4.4250  -78.3970 C   0  0  0  0  0  0  0  0  0  0  0  0
   -9.3850   -3.0360  -81.1420 F   0  0  0  0  0  0  0  0  0  0  0  0
  -10.3790   -2.2670  -79.3730 F   0  0  0  0  0  0  0  0  0  0  0  0
   -8.2440   -2.6900  -79.3330 F   0  0  0  0  0  0  0  0  0  0  0  0
  1  2  2  0
  2  3  1  0
  2  4  1  0
  3  5  1  0
  4  6  1  0
  5  7  1  0
  6  8  2  0
  6  9  1  0
  7 10  2  0
  7 11  1  0
  8 12  1  0
  9 13  2  0
  9 14  1  0
 11 15  1  0
 12 16  2  0
 13 16  1  0
 14 17  1  0
 15 18  2  0
 15 19  1  0
 17 20  2  0
 17 21  1  0
 18 22  1  0
 19 23  2  0
 20 24  1  0
 21 25  2  0
 22 26  2  0
 23 26  1  0
 23 27  1  0
 24 28  2  0
 25 28  1  0
 27 29  1  0
 27 30  1  0
 27 31  1  0
M  END
>  <ref_url>  (455) 
https://fakepage.com

>  <submitter_name>  (455) 
Steph Wills

>  <submitter_email>  (455) 
stephanie.wills@dtc.ox.ac.uk

>  <submitter_institution>  (455) 
University of Oxford

>  <generation_date>  (455) 
2020-06-04

>  <method>  (455) 
Fragment network

>  <ref_mols>  (455) 
x0438_0B,x0212_0B

>  <ref_pdb>  (455) 
references/x0438-0B-x0212-0B-3860.holo_minimised_nolig.pdb

>  <original SMILES>  (455) 
O=C(COC(=O)Cc1cccc(C(F)(F)F)c1)Nc1ccccc1Oc1ccccc1

>  <synthon>  (455) 
[Xe]c1ccccc1

>  <original_name>  (455) 
x0438-0B-x0212-0B-3860

>  <comRMSD_score>  (455) 
0.7055319137005782

>  <IF_score>  (455) 
0.95

>  <SuCOS_score>  (455) 
0.5465605973663992

>  <compound_ID>  (455) 
MOLPORT:005-901-658

$$$$

     RDKit          3D

 30 32  0  0  0  0  0  0  0  0999 V2000
   -5.5550    5.7220  -75.2830 N   0  0  0  0  0  0  0  0  0  0  0  0
   -5.7910    4.7220  -75.8040 C   0  0  0  0  0  0  0  0  0  0  0  0
   -6.0410    3.4380  -76.4490 C   0  0  0  0  0  0  0  0  0  0  0  0
   -7.3100    3.4850  -77.3000 C   0  0  0  0  0  0  0  0  0  0  0  0
   -8.4510    2.7180  -76.7700 N   0  0  0  0  0  0  0  0  0  0  0  0
   -8.3710    1.3140  -76.7450 C   0  0  0  0  0  0  0  0  0  0  0  0
   -9.6800    3.4400  -76.7100 C   0  0  0  0  0  0  0  0  0  0  0  0
   -9.3940    0.6280  -76.6070 O   0  0  0  0  0  0  0  0  0  0  0  0
   -6.9920    0.6270  -76.8910 C   0  0  0  0  0  0  0  0  0  0  0  0
  -10.5060    3.3220  -75.5950 C   0  0  0  0  0  0  0  0  0  0  0  0
  -10.0880    4.2860  -77.7580 C   0  0  0  0  0  0  0  0  0  0  0  0
   -5.9420    1.4850  -77.3130 O   0  0  0  0  0  0  0  0  0  0  0  0
  -11.7040    4.0300  -75.5120 C   0  0  0  0  0  0  0  0  0  0  0  0
  -11.2910    4.9950  -77.6730 C   0  0  0  0  0  0  0  0  0  0  0  0
   -5.9090    1.5880  -78.6610 C   0  0  0  0  0  0  0  0  0  0  0  0
  -12.0970    4.8680  -76.5480 C   0  0  0  0  0  0  0  0  0  0  0  0
   -4.9380    1.2800  -79.3430 O   0  0  0  0  0  0  0  0  0  0  0  0
   -7.2220    2.1200  -79.1440 C   0  0  0  0  0  0  0  0  0  0  0  0
   -8.1350    1.1030  -79.7470 C   0  0  0  0  0  0  0  0  0  0  0  0
   -8.8810    1.5380  -80.7910 C   0  0  0  0  0  0  0  0  0  0  0  0
   -8.2690   -0.2240  -79.3300 C   0  0  0  0  0  0  0  0  0  0  0  0
   -9.7530    0.6920  -81.4510 C   0  0  0  0  0  0  0  0  0  0  0  0
   -9.1610   -1.0790  -79.9940 C   0  0  0  0  0  0  0  0  0  0  0  0
   -9.9180   -0.6200  -81.0750 C   0  0  0  0  0  0  0  0  0  0  0  0
  -10.8650   -1.4540  -81.8150 C   0  0  0  0  0  0  0  0  0  0  0  0
  -11.3010   -2.6970  -81.3360 C   0  0  0  0  0  0  0  0  0  0  0  0
  -11.3620   -1.0010  -83.0470 C   0  0  0  0  0  0  0  0  0  0  0  0
  -12.2070   -3.4650  -82.0710 C   0  0  0  0  0  0  0  0  0  0  0  0
  -12.2660   -1.7660  -83.7820 C   0  0  0  0  0  0  0  0  0  0  0  0
  -12.6890   -2.9990  -83.2940 C   0  0  0  0  0  0  0  0  0  0  0  0
  1  2  3  0
  2  3  1  0
  3  4  1  0
  4  5  1  0
  5  6  1  0
  5  7  1  0
  6  8  2  0
  6  9  1  0
  7 10  2  0
  7 11  1  0
  9 12  1  0
 10 13  1  0
 11 14  2  0
 12 15  1  0
 13 16  2  0
 14 16  1  0
 15 17  2  0
 15 18  1  0
 18 19  1  0
 19 20  2  0
 19 21  1  0
 20 22  1  0
 21 23  2  0
 22 24  2  0
 23 24  1  0
 24 25  1  0
 25 26  2  0
 25 27  1  0
 26 28  1  0
 27 29  2  0
 28 30  2  0
 29 30  1  0
M  END
>  <ref_url>  (456) 
https://fakepage.com

>  <submitter_name>  (456) 
Steph Wills

>  <submitter_email>  (456) 
stephanie.wills@dtc.ox.ac.uk

>  <submitter_institution>  (456) 
University of Oxford

>  <generation_date>  (456) 
2020-06-04

>  <method>  (456) 
Fragment network

>  <ref_mols>  (456) 
x0438_0B,x0212_0B

>  <ref_pdb>  (456) 
references/x0438-0B-x0212-0B-30595.holo_minimised_nolig.pdb

>  <original SMILES>  (456) 
N#CCCN(C(=O)COC(=O)Cc1ccc(-c2ccccc2)cc1)c1ccccc1

>  <synthon>  (456) 
[Xe]c1ccccc1

>  <original_name>  (456) 
x0438-0B-x0212-0B-30595

>  <comRMSD_score>  (456) 
0.823028059971226

>  <IF_score>  (456) 
0.7375

>  <SuCOS_score>  (456) 
0.4951536869444903

>  <compound_ID>  (456) 
MOLPORT:005-901-723

$$$$

     RDKit          3D

 23 25  0  0  0  0  0  0  0  0999 V2000
   -9.3590    0.9860  -78.2280 O   0  0  0  0  0  0  0  0  0  0  0  0
   -8.5530    1.6070  -77.5580 C   0  0  0  0  0  0  0  0  0  0  0  0
   -7.0940    1.4260  -77.4760 C   0  0  0  0  0  0  0  0  0  0  0  0
   -8.7010    2.5990  -76.6410 N   0  0  0  0  0  0  0  0  0  0  0  0
   -6.0930    1.6340  -78.2930 C   0  0  0  0  0  0  0  0  0  0  0  0
   -6.8930    0.9810  -75.9040 S   0  0  0  0  0  0  0  0  0  0  0  0
   -7.4530    2.6850  -76.0070 C   0  0  0  0  0  0  0  0  0  0  0  0
   -9.8610    3.4320  -76.6090 C   0  0  0  0  0  0  0  0  0  0  0  0
   -5.9770    2.1690  -79.5940 C   0  0  0  0  0  0  0  0  0  0  0  0
   -6.4940    3.9840  -75.5330 S   0  0  0  0  0  0  0  0  0  0  0  0
  -10.7250    3.3970  -75.5140 C   0  0  0  0  0  0  0  0  0  0  0  0
  -10.1810    4.3040  -77.6710 C   0  0  0  0  0  0  0  0  0  0  0  0
   -6.7110    1.9700  -80.6460 C   0  0  0  0  0  0  0  0  0  0  0  0
  -11.8610    4.1950  -75.4630 C   0  0  0  0  0  0  0  0  0  0  0  0
  -11.3260    5.1070  -77.6200 C   0  0  0  0  0  0  0  0  0  0  0  0
   -7.8610    1.1350  -80.7840 C   0  0  0  0  0  0  0  0  0  0  0  0
  -12.1560    5.0460  -76.5140 C   0  0  0  0  0  0  0  0  0  0  0  0
   -8.0500   -0.0250  -80.0310 C   0  0  0  0  0  0  0  0  0  0  0  0
   -8.7810    1.5250  -81.7160 C   0  0  0  0  0  0  0  0  0  0  0  0
  -13.2770    5.8070  -76.4130 O   0  0  0  0  0  0  0  0  0  0  0  0
   -9.1920   -0.7990  -80.2380 C   0  0  0  0  0  0  0  0  0  0  0  0
   -9.9030    0.7610  -81.9220 C   0  0  0  0  0  0  0  0  0  0  0  0
  -10.1180   -0.4020  -81.1920 C   0  0  0  0  0  0  0  0  0  0  0  0
  1  2  2  0
  2  3  1  0
  2  4  1  0
  3  5  2  3
  3  6  1  0
  4  7  1  0
  6  7  1  0
  4  8  1  0
  5  9  1  0
  7 10  2  0
  8 11  2  0
  8 12  1  0
  9 13  2  3
 11 14  1  0
 12 15  2  0
 13 16  1  0
 14 17  2  0
 15 17  1  0
 16 18  2  0
 16 19  1  0
 17 20  1  0
 18 21  1  0
 19 22  2  0
 21 23  2  0
 22 23  1  0
M  END
>  <ref_url>  (457) 
https://fakepage.com

>  <submitter_name>  (457) 
Steph Wills

>  <submitter_email>  (457) 
stephanie.wills@dtc.ox.ac.uk

>  <submitter_institution>  (457) 
University of Oxford

>  <generation_date>  (457) 
2020-06-04

>  <method>  (457) 
Fragment network

>  <ref_mols>  (457) 
x0438_0B,x0212_0B

>  <ref_pdb>  (457) 
references/x0438-0B-x0212-0B-33924.holo_minimised_nolig.pdb

>  <original SMILES>  (457) 
O=C1C(=CC=Cc2ccccc2)SC(=S)N1c1ccc(O)cc1

>  <synthon>  (457) 
[Xe]c1ccccc1

>  <original_name>  (457) 
x0438-0B-x0212-0B-33924

>  <comRMSD_score>  (457) 
0.9185564762168952

>  <IF_score>  (457) 
0.775

>  <SuCOS_score>  (457) 
0.5452319612213898

>  <compound_ID>  (457) 
MOLPORT:000-436-527

$$$$

     RDKit          3D

 27 29  0  0  0  0  0  0  0  0999 V2000
  -11.8660    5.6530  -78.0730 C   0  0  0  0  0  0  0  0  0  0  0  0
  -11.3820    4.6840  -77.1190 C   0  0  0  0  0  0  0  0  0  0  0  0
  -12.1210    4.4230  -75.9970 C   0  0  0  0  0  0  0  0  0  0  0  0
  -10.1680    4.0360  -77.3680 C   0  0  0  0  0  0  0  0  0  0  0  0
  -11.6550    3.4890  -75.0970 C   0  0  0  0  0  0  0  0  0  0  0  0
   -9.6710    3.0900  -76.4670 C   0  0  0  0  0  0  0  0  0  0  0  0
  -10.4440    2.8280  -75.3330 C   0  0  0  0  0  0  0  0  0  0  0  0
   -8.4420    2.4550  -76.7310 N   0  0  0  0  0  0  0  0  0  0  0  0
   -8.3860    0.9970  -76.4840 C   0  0  0  0  0  0  0  0  0  0  0  0
   -7.0180    0.3490  -76.8040 C   0  0  0  0  0  0  0  0  0  0  0  0
   -6.7860   -0.8180  -76.5000 O   0  0  0  0  0  0  0  0  0  0  0  0
   -6.1320    1.1970  -77.4730 N   0  0  0  0  0  0  0  0  0  0  0  0
   -6.5720    2.3510  -78.0170 N   0  0  0  0  0  0  0  0  0  0  0  0
   -7.4980    2.2880  -78.9280 C   0  0  0  0  0  0  0  0  0  0  0  0
   -8.2040    1.1280  -79.5520 C   0  0  0  0  0  0  0  0  0  0  0  0
   -8.1610   -0.1550  -79.0280 C   0  0  0  0  0  0  0  0  0  0  0  0
   -8.9310    1.3480  -80.7070 C   0  0  0  0  0  0  0  0  0  0  0  0
   -8.8340   -1.2020  -79.6480 C   0  0  0  0  0  0  0  0  0  0  0  0
   -9.6150    0.2770  -81.3360 C   0  0  0  0  0  0  0  0  0  0  0  0
   -9.5580   -0.9870  -80.8000 C   0  0  0  0  0  0  0  0  0  0  0  0
  -10.3310    0.5090  -82.4730 O   0  0  0  0  0  0  0  0  0  0  0  0
  -10.7670   -0.5700  -83.2060 C   0  0  0  0  0  0  0  0  0  0  0  0
  -12.0830   -0.5530  -83.6740 C   0  0  0  0  0  0  0  0  0  0  0  0
   -9.9320   -1.6490  -83.4850 C   0  0  0  0  0  0  0  0  0  0  0  0
  -12.5620   -1.6210  -84.4270 C   0  0  0  0  0  0  0  0  0  0  0  0
  -10.4160   -2.7170  -84.2390 C   0  0  0  0  0  0  0  0  0  0  0  0
  -11.7300   -2.7000  -84.7080 C   0  0  0  0  0  0  0  0  0  0  0  0
  1  2  1  0
  2  3  2  0
  2  4  1  0
  3  5  1  0
  4  6  2  0
  5  7  2  0
  6  7  1  0
  6  8  1  0
  8  9  1  0
  9 10  1  0
 10 11  2  0
 10 12  1  0
 12 13  1  0
 13 14  2  3
 14 15  1  0
 15 16  2  0
 15 17  1  0
 16 18  1  0
 17 19  2  0
 18 20  2  0
 19 20  1  0
 19 21  1  0
 21 22  1  0
 22 23  2  0
 22 24  1  0
 23 25  1  0
 24 26  2  0
 25 27  2  0
 26 27  1  0
M  END
>  <ref_url>  (458) 
https://fakepage.com

>  <submitter_name>  (458) 
Steph Wills

>  <submitter_email>  (458) 
stephanie.wills@dtc.ox.ac.uk

>  <submitter_institution>  (458) 
University of Oxford

>  <generation_date>  (458) 
2020-06-04

>  <method>  (458) 
Fragment network

>  <ref_mols>  (458) 
x0438_0B,x0212_0B

>  <ref_pdb>  (458) 
references/x0438-0B-x0212-0B-42667.holo_minimised_nolig.pdb

>  <original SMILES>  (458) 
Cc1cccc(NCC(=O)NN=Cc2cccc(Oc3ccccc3)c2)c1

>  <synthon>  (458) 
[Xe]c1ccccc1

>  <original_name>  (458) 
x0438-0B-x0212-0B-42667

>  <comRMSD_score>  (458) 
0.995518897359563

>  <IF_score>  (458) 
0.875

>  <SuCOS_score>  (458) 
0.4466513606606809

>  <compound_ID>  (458) 
MOLPORT:003-706-051

$$$$

     RDKit          3D

 27 29  0  0  0  0  0  0  0  0999 V2000
   -9.3690    0.3670  -76.7680 O   0  0  0  0  0  0  0  0  0  0  0  0
   -8.6240    1.2780  -77.0950 C   0  0  0  0  0  0  0  0  0  0  0  0
   -7.1480    1.0990  -77.0960 C   0  0  0  0  0  0  0  0  0  0  0  0
   -8.9460    2.5460  -77.5210 N   0  0  0  0  0  0  0  0  0  0  0  0
   -6.5410    2.6360  -77.7040 S   0  0  0  0  0  0  0  0  0  0  0  0
  -10.0040    3.3990  -77.1610 C   0  0  0  0  0  0  0  0  0  0  0  0
   -5.1020    2.6450  -77.5150 O   0  0  0  0  0  0  0  0  0  0  0  0
   -7.3350    3.6730  -77.0690 O   0  0  0  0  0  0  0  0  0  0  0  0
   -6.7870    2.6920  -79.4890 C   0  0  0  0  0  0  0  0  0  0  0  0
  -10.3800    4.4680  -77.9620 C   0  0  0  0  0  0  0  0  0  0  0  0
  -10.6970    3.1670  -75.9630 C   0  0  0  0  0  0  0  0  0  0  0  0
   -7.7830    1.7380  -80.1070 C   0  0  0  0  0  0  0  0  0  0  0  0
  -11.4370    5.2960  -77.5820 C   0  0  0  0  0  0  0  0  0  0  0  0
  -11.7510    3.9970  -75.5790 C   0  0  0  0  0  0  0  0  0  0  0  0
  -10.3310    2.1070  -75.1610 O   0  0  0  0  0  0  0  0  0  0  0  0
   -8.3890    2.1270  -81.3080 C   0  0  0  0  0  0  0  0  0  0  0  0
   -8.1240    0.4880  -79.5610 C   0  0  0  0  0  0  0  0  0  0  0  0
  -12.1190    5.0610  -76.3950 C   0  0  0  0  0  0  0  0  0  0  0  0
  -11.0510    0.9470  -75.3340 C   0  0  0  0  0  0  0  0  0  0  0  0
   -9.3030    1.3040  -81.9430 C   0  0  0  0  0  0  0  0  0  0  0  0
   -9.0500   -0.3390  -80.2060 C   0  0  0  0  0  0  0  0  0  0  0  0
  -10.4660   -0.2470  -74.9090 C   0  0  0  0  0  0  0  0  0  0  0  0
  -12.3180    0.9420  -75.9160 C   0  0  0  0  0  0  0  0  0  0  0  0
   -9.6380    0.0700  -81.3960 C   0  0  0  0  0  0  0  0  0  0  0  0
  -11.1520   -1.4500  -75.0660 C   0  0  0  0  0  0  0  0  0  0  0  0
  -13.0030   -0.2610  -76.0750 C   0  0  0  0  0  0  0  0  0  0  0  0
  -12.4210   -1.4550  -75.6510 C   0  0  0  0  0  0  0  0  0  0  0  0
  1  2  2  0
  2  3  1  0
  2  4  1  0
  5  3  1  0
  4  6  1  0
  5  7  2  0
  5  8  2  0
  5  9  1  0
  6 10  2  0
  6 11  1  0
  9 12  1  0
 10 13  1  0
 11 14  2  0
 11 15  1  0
 12 16  2  0
 12 17  1  0
 13 18  2  0
 14 18  1  0
 15 19  1  0
 16 20  1  0
 17 21  2  0
 19 22  2  0
 19 23  1  0
 20 24  2  0
 21 24  1  0
 22 25  1  0
 23 26  2  0
 25 27  2  0
 26 27  1  0
M  END
>  <ref_url>  (459) 
https://fakepage.com

>  <submitter_name>  (459) 
Steph Wills

>  <submitter_email>  (459) 
stephanie.wills@dtc.ox.ac.uk

>  <submitter_institution>  (459) 
University of Oxford

>  <generation_date>  (459) 
2020-06-04

>  <method>  (459) 
Fragment network

>  <ref_mols>  (459) 
x0438_0B,x0212_0B

>  <ref_pdb>  (459) 
references/x0438-0B-x0212-0B-49244.holo_minimised_nolig.pdb

>  <original SMILES>  (459) 
O=C(CS(=O)(=O)Cc1ccccc1)Nc1ccccc1Oc1ccccc1

>  <synthon>  (459) 
[Xe]c1ccccc1

>  <original_name>  (459) 
x0438-0B-x0212-0B-49244

>  <comRMSD_score>  (459) 
0.6797726412191063

>  <IF_score>  (459) 
0.788888888888889

>  <SuCOS_score>  (459) 
0.578138368186651

>  <compound_ID>  (459) 
REAL:Z339634502

$$$$

     RDKit          3D

 33 36  0  0  0  0  0  0  0  0999 V2000
   -9.4980    0.3310  -77.1790 O   0  0  0  0  0  0  0  0  0  0  0  0
   -8.5850    1.1290  -77.0040 C   0  0  0  0  0  0  0  0  0  0  0  0
   -7.1690    0.6310  -76.6380 C   0  0  0  0  0  0  0  0  0  0  0  0
   -8.6790    2.5070  -77.1120 N   0  0  0  0  0  0  0  0  0  0  0  0
   -6.1640    1.0900  -77.5360 O   0  0  0  0  0  0  0  0  0  0  0  0
   -9.8210    3.3300  -76.9810 C   0  0  0  0  0  0  0  0  0  0  0  0
   -6.3230    2.4070  -77.8170 C   0  0  0  0  0  0  0  0  0  0  0  0
  -10.1620    4.3440  -77.8730 C   0  0  0  0  0  0  0  0  0  0  0  0
  -10.6640    3.1110  -75.8790 C   0  0  0  0  0  0  0  0  0  0  0  0
   -6.0860    3.3100  -77.0290 O   0  0  0  0  0  0  0  0  0  0  0  0
   -6.8140    2.5400  -79.2280 C   0  0  0  0  0  0  0  0  0  0  0  0
  -11.3060    5.1180  -77.6610 C   0  0  0  0  0  0  0  0  0  0  0  0
  -11.8030    3.8840  -75.6630 C   0  0  0  0  0  0  0  0  0  0  0  0
  -10.3540    2.1090  -74.9990 O   0  0  0  0  0  0  0  0  0  0  0  0
   -7.7770    1.4800  -79.7160 C   0  0  0  0  0  0  0  0  0  0  0  0
  -12.1240    4.8920  -76.5560 C   0  0  0  0  0  0  0  0  0  0  0  0
  -10.9680    0.9000  -75.2480 C   0  0  0  0  0  0  0  0  0  0  0  0
   -8.6480    1.8650  -80.6960 C   0  0  0  0  0  0  0  0  0  0  0  0
   -7.8490    0.1510  -79.2610 C   0  0  0  0  0  0  0  0  0  0  0  0
  -10.1860   -0.2480  -75.1000 C   0  0  0  0  0  0  0  0  0  0  0  0
  -12.3060    0.7900  -75.6340 C   0  0  0  0  0  0  0  0  0  0  0  0
   -9.5710    0.9800  -81.2380 C   0  0  0  0  0  0  0  0  0  0  0  0
   -8.7950   -0.7400  -79.8080 C   0  0  0  0  0  0  0  0  0  0  0  0
  -10.7390   -1.5030  -75.3360 C   0  0  0  0  0  0  0  0  0  0  0  0
  -12.8560   -0.4690  -75.8680 C   0  0  0  0  0  0  0  0  0  0  0  0
   -9.6730   -0.3270  -80.8120 C   0  0  0  0  0  0  0  0  0  0  0  0
  -12.0750   -1.6160  -75.7200 C   0  0  0  0  0  0  0  0  0  0  0  0
  -10.6800   -1.1960  -81.4250 C   0  0  0  0  0  0  0  0  0  0  0  0
  -11.1820   -2.3310  -80.7700 C   0  0  0  0  0  0  0  0  0  0  0  0
  -11.1700   -0.8940  -82.7020 C   0  0  0  0  0  0  0  0  0  0  0  0
  -12.1480   -3.1370  -81.3790 C   0  0  0  0  0  0  0  0  0  0  0  0
  -12.1320   -1.6950  -83.3130 C   0  0  0  0  0  0  0  0  0  0  0  0
  -12.6210   -2.8170  -82.6510 C   0  0  0  0  0  0  0  0  0  0  0  0
  1  2  2  0
  2  3  1  0
  2  4  1  0
  3  5  1  0
  4  6  1  0
  5  7  1  0
  6  8  2  0
  6  9  1  0
  7 10  2  0
  7 11  1  0
  8 12  1  0
  9 13  2  0
  9 14  1  0
 11 15  1  0
 12 16  2  0
 13 16  1  0
 14 17  1  0
 15 18  2  0
 15 19  1  0
 17 20  2  0
 17 21  1  0
 18 22  1  0
 19 23  2  0
 20 24  1  0
 21 25  2  0
 22 26  2  0
 23 26  1  0
 24 27  2  0
 25 27  1  0
 26 28  1  0
 28 29  2  0
 28 30  1  0
 29 31  1  0
 30 32  2  0
 31 33  2  0
 32 33  1  0
M  END
>  <ref_url>  (460) 
https://fakepage.com

>  <submitter_name>  (460) 
Steph Wills

>  <submitter_email>  (460) 
stephanie.wills@dtc.ox.ac.uk

>  <submitter_institution>  (460) 
University of Oxford

>  <generation_date>  (460) 
2020-06-04

>  <method>  (460) 
Fragment network

>  <ref_mols>  (460) 
x0438_0B,x0212_0B

>  <ref_pdb>  (460) 
references/x0438-0B-x0212-0B-51216.holo_minimised_nolig.pdb

>  <original SMILES>  (460) 
O=C(COC(=O)Cc1ccc(-c2ccccc2)cc1)Nc1ccccc1Oc1ccccc1

>  <synthon>  (460) 
[Xe]c1ccccc1

>  <original_name>  (460) 
x0438-0B-x0212-0B-51216

>  <comRMSD_score>  (460) 
0.7069454319464842

>  <IF_score>  (460) 
0.6071428571428572

>  <SuCOS_score>  (460) 
0.5322859832096052

>  <compound_ID>  (460) 
MOLPORT:005-902-249

$$$$

     RDKit          3D

 29 31  0  0  0  0  0  0  0  0999 V2000
  -13.9770    5.8650  -77.9490 C   0  0  0  0  0  0  0  0  0  0  0  0
  -13.3510    5.6700  -76.6810 O   0  0  0  0  0  0  0  0  0  0  0  0
  -12.1790    4.9680  -76.7150 C   0  0  0  0  0  0  0  0  0  0  0  0
  -11.9310    4.1580  -75.6100 C   0  0  0  0  0  0  0  0  0  0  0  0
  -11.2530    5.0050  -77.7400 C   0  0  0  0  0  0  0  0  0  0  0  0
  -10.7620    3.3980  -75.5410 C   0  0  0  0  0  0  0  0  0  0  0  0
  -10.0810    4.2440  -77.6730 C   0  0  0  0  0  0  0  0  0  0  0  0
   -9.8150    3.4280  -76.5680 C   0  0  0  0  0  0  0  0  0  0  0  0
   -8.6550    2.6450  -76.4270 N   0  0  0  0  0  0  0  0  0  0  0  0
   -8.6460    1.2160  -76.8160 C   0  0  2  0  0  0  0  0  0  0  0  0
   -9.1680    0.3520  -75.6690 C   0  0  0  0  0  0  0  0  0  0  0  0
   -7.2270    0.7630  -77.1870 C   0  0  0  0  0  0  0  0  0  0  0  0
   -6.7700   -0.3280  -76.8400 O   0  0  0  0  0  0  0  0  0  0  0  0
   -6.4650    1.6150  -77.9430 N   0  0  0  0  0  0  0  0  0  0  0  0
   -6.8170    2.8920  -78.1910 N   0  0  0  0  0  0  0  0  0  0  0  0
   -7.6070    3.0580  -79.2010 C   0  0  0  0  0  0  0  0  0  0  0  0
   -8.1090    1.9540  -80.0580 C   0  0  0  0  0  0  0  0  0  0  0  0
   -8.3080    2.2070  -81.4080 C   0  0  0  0  0  0  0  0  0  0  0  0
   -8.3870    0.6670  -79.5460 C   0  0  0  0  0  0  0  0  0  0  0  0
   -8.7740    1.2070  -82.2410 C   0  0  0  0  0  0  0  0  0  0  0  0
   -8.8630   -0.3240  -80.4010 C   0  0  0  0  0  0  0  0  0  0  0  0
   -9.0550   -0.0560  -81.7450 C   0  0  0  0  0  0  0  0  0  0  0  0
   -9.1330   -1.5640  -79.8750 O   0  0  0  0  0  0  0  0  0  0  0  0
  -10.3900   -2.0840  -80.1200 C   0  0  0  0  0  0  0  0  0  0  0  0
  -10.8720   -3.2490  -79.5210 C   0  0  0  0  0  0  0  0  0  0  0  0
  -11.1950   -1.3840  -81.0210 C   0  0  0  0  0  0  0  0  0  0  0  0
  -12.1570   -3.7090  -79.8240 C   0  0  0  0  0  0  0  0  0  0  0  0
  -12.4760   -1.8450  -81.3220 C   0  0  0  0  0  0  0  0  0  0  0  0
  -12.9560   -3.0050  -80.7240 C   0  0  0  0  0  0  0  0  0  0  0  0
  1  2  1  0
  2  3  1  0
  3  4  2  0
  3  5  1  0
  4  6  1  0
  5  7  2  0
  6  8  2  0
  7  8  1  0
  8  9  1  0
  9 10  1  0
 10 11  1  1
 10 12  1  0
 12 13  2  0
 12 14  1  0
 14 15  1  0
 15 16  2  3
 16 17  1  0
 17 18  2  0
 17 19  1  0
 18 20  1  0
 19 21  2  0
 20 22  2  0
 21 22  1  0
 21 23  1  0
 23 24  1  0
 24 25  2  0
 24 26  1  0
 25 27  1  0
 26 28  2  0
 27 29  2  0
 28 29  1  0
M  END
>  <ref_url>  (461) 
https://fakepage.com

>  <submitter_name>  (461) 
Steph Wills

>  <submitter_email>  (461) 
stephanie.wills@dtc.ox.ac.uk

>  <submitter_institution>  (461) 
University of Oxford

>  <generation_date>  (461) 
2020-06-04

>  <method>  (461) 
Fragment network

>  <ref_mols>  (461) 
x0438_0B,x0212_0B

>  <ref_pdb>  (461) 
references/x0438-0B-x0212-0B-53837.holo_minimised_nolig.pdb

>  <original SMILES>  (461) 
COc1ccc(NC(C)C(=O)NN=Cc2cccc(Oc3ccccc3)c2)cc1

>  <synthon>  (461) 
[Xe]c1ccccc1

>  <original_name>  (461) 
x0438-0B-x0212-0B-53837

>  <comRMSD_score>  (461) 
0.7448754719750141

>  <IF_score>  (461) 
0.6527777777777778

>  <SuCOS_score>  (461) 
0.5328730019254065

>  <compound_ID>  (461) 
MOLPORT:028-867-140

$$$$

     RDKit          3D

 23 24  0  0  0  0  0  0  0  0999 V2000
   -6.8000    0.4280  -78.0020 C   0  0  0  0  0  0  0  0  0  0  0  0
   -6.5250    1.2390  -76.7360 C   0  0  2  0  0  0  0  0  0  0  0  0
   -7.7870    1.9710  -76.1800 C   0  0  0  0  0  0  0  0  0  0  0  0
   -5.4290    2.1770  -77.0140 N   0  0  0  0  0  0  0  0  0  0  0  0
   -8.7930    2.3120  -77.1720 N   0  0  0  0  0  0  0  0  0  0  0  0
   -5.1180    2.5070  -78.3110 C   0  0  0  0  0  0  0  0  0  0  0  0
   -9.8440    3.2080  -76.9410 C   0  0  0  0  0  0  0  0  0  0  0  0
   -4.0130    2.8180  -78.7240 O   0  0  0  0  0  0  0  0  0  0  0  0
   -6.2300    2.4660  -79.0860 N   0  0  0  0  0  0  0  0  0  0  0  0
  -10.2270    4.2260  -77.8310 C   0  0  0  0  0  0  0  0  0  0  0  0
  -10.5740    3.0910  -75.7540 C   0  0  0  0  0  0  0  0  0  0  0  0
   -7.2220    3.4300  -78.7930 C   0  0  0  0  0  0  0  0  0  0  0  0
  -11.2930    5.0790  -77.5530 C   0  0  0  0  0  0  0  0  0  0  0  0
  -11.6410    3.9460  -75.4690 C   0  0  0  0  0  0  0  0  0  0  0  0
   -8.5040    3.1690  -79.5510 C   0  0  0  0  0  0  0  0  0  0  0  0
  -12.0050    4.9420  -76.3710 C   0  0  0  0  0  0  0  0  0  0  0  0
   -8.6100    1.8550  -80.2900 C   0  0  0  0  0  0  0  0  0  0  0  0
   -8.9170    0.6460  -79.6380 C   0  0  0  0  0  0  0  0  0  0  0  0
   -8.4120    1.8470  -81.6620 C   0  0  0  0  0  0  0  0  0  0  0  0
   -9.0230   -0.5440  -80.3600 C   0  0  0  0  0  0  0  0  0  0  0  0
   -8.5150    0.6610  -82.3860 C   0  0  0  0  0  0  0  0  0  0  0  0
   -8.8200   -0.5330  -81.7340 C   0  0  0  0  0  0  0  0  0  0  0  0
   -8.9110   -1.6930  -82.4650 O   0  0  0  0  0  0  0  0  0  0  0  0
  2  1  1  6
  2  3  1  0
  2  4  1  0
  3  5  1  0
  4  6  1  0
  5  7  1  0
  6  8  2  0
  6  9  1  0
  7 10  2  0
  7 11  1  0
  9 12  1  0
 10 13  1  0
 11 14  2  0
 12 15  1  0
 13 16  2  0
 14 16  1  0
 15 17  1  0
 17 18  2  0
 17 19  1  0
 18 20  1  0
 19 21  2  0
 20 22  2  0
 21 22  1  0
 22 23  1  0
M  END
>  <ref_url>  (462) 
https://fakepage.com

>  <submitter_name>  (462) 
Steph Wills

>  <submitter_email>  (462) 
stephanie.wills@dtc.ox.ac.uk

>  <submitter_institution>  (462) 
University of Oxford

>  <generation_date>  (462) 
2020-06-04

>  <method>  (462) 
Fragment network

>  <ref_mols>  (462) 
x0438_0B,x0212_0B

>  <ref_pdb>  (462) 
references/x0438-0B-x0212-0B-65176.holo_minimised_nolig.pdb

>  <original SMILES>  (462) 
CC(CNc1ccccc1)NC(=O)NCCc1ccc(O)cc1

>  <synthon>  (462) 
[Xe]c1ccccc1

>  <original_name>  (462) 
x0438-0B-x0212-0B-65176

>  <comRMSD_score>  (462) 
0.8492988759236422

>  <IF_score>  (462) 
0.8444444444444444

>  <SuCOS_score>  (462) 
0.4752006420742671

>  <compound_ID>  (462) 
REAL:Z1429623361

$$$$

     RDKit          3D

 27 29  0  0  0  0  0  0  0  0999 V2000
   -6.3580    0.7880  -75.6470 O   0  0  0  0  0  0  0  0  0  0  0  0
   -6.9000    0.9290  -76.7350 C   0  0  0  0  0  0  0  0  0  0  0  0
   -8.3730    1.3190  -76.8940 C   0  0  0  0  0  0  0  0  0  0  0  0
   -6.1700    0.7680  -77.8750 N   0  0  0  0  0  0  0  0  0  0  0  0
   -8.4570    2.7640  -77.1620 N   0  0  0  0  0  0  0  0  0  0  0  0
   -5.8540    1.8690  -78.5790 N   0  0  0  0  0  0  0  0  0  0  0  0
   -9.6310    3.4750  -76.9310 C   0  0  0  0  0  0  0  0  0  0  0  0
   -6.5460    2.1620  -79.6320 C   0  0  0  0  0  0  0  0  0  0  0  0
  -10.3750    3.3600  -75.7560 C   0  0  0  0  0  0  0  0  0  0  0  0
  -10.0970    4.3510  -77.9190 C   0  0  0  0  0  0  0  0  0  0  0  0
   -7.6840    1.4700  -80.2710 C   0  0  0  0  0  0  0  0  0  0  0  0
  -11.5470    4.1020  -75.5650 C   0  0  0  0  0  0  0  0  0  0  0  0
  -11.2660    5.0950  -77.7380 C   0  0  0  0  0  0  0  0  0  0  0  0
   -8.2680    2.0050  -81.4160 C   0  0  0  0  0  0  0  0  0  0  0  0
   -8.1630    0.2730  -79.7220 C   0  0  0  0  0  0  0  0  0  0  0  0
  -11.9840    4.9680  -76.5610 C   0  0  0  0  0  0  0  0  0  0  0  0
   -9.3280    1.3480  -82.0170 C   0  0  0  0  0  0  0  0  0  0  0  0
   -9.2350   -0.3790  -80.3330 C   0  0  0  0  0  0  0  0  0  0  0  0
  -13.5590    5.9840  -76.3210 Br  0  0  0  0  0  0  0  0  0  0  0  0
   -9.8140    0.1560  -81.4800 C   0  0  0  0  0  0  0  0  0  0  0  0
   -9.6720   -1.5470  -79.7490 O   0  0  0  0  0  0  0  0  0  0  0  0
   -8.9550   -2.6810  -80.0240 C   0  0  0  0  0  0  0  0  0  0  0  0
   -8.3300   -3.4410  -79.0320 C   0  0  0  0  0  0  0  0  0  0  0  0
   -8.8660   -3.0550  -81.3620 C   0  0  0  0  0  0  0  0  0  0  0  0
   -7.6140   -4.5830  -79.3890 C   0  0  0  0  0  0  0  0  0  0  0  0
   -8.1500   -4.1960  -81.7170 C   0  0  0  0  0  0  0  0  0  0  0  0
   -7.5220   -4.9590  -80.7310 C   0  0  0  0  0  0  0  0  0  0  0  0
  1  2  2  0
  2  3  1  0
  2  4  1  0
  3  5  1  0
  4  6  1  0
  5  7  1  0
  6  8  2  3
  7  9  2  0
  7 10  1  0
  8 11  1  0
  9 12  1  0
 10 13  2  0
 11 14  2  0
 11 15  1  0
 12 16  2  0
 13 16  1  0
 14 17  1  0
 15 18  2  0
 16 19  1  0
 17 20  2  0
 18 20  1  0
 18 21  1  0
 21 22  1  0
 22 23  2  0
 22 24  1  0
 23 25  1  0
 24 26  2  0
 25 27  2  0
 26 27  1  0
M  END
>  <ref_url>  (463) 
https://fakepage.com

>  <submitter_name>  (463) 
Steph Wills

>  <submitter_email>  (463) 
stephanie.wills@dtc.ox.ac.uk

>  <submitter_institution>  (463) 
University of Oxford

>  <generation_date>  (463) 
2020-06-04

>  <method>  (463) 
Fragment network

>  <ref_mols>  (463) 
x0438_0B,x0212_0B

>  <ref_pdb>  (463) 
references/x0438-0B-x0212-0B-65895.holo_minimised_nolig.pdb

>  <original SMILES>  (463) 
O=C(CNc1ccc(Br)cc1)NN=Cc1cccc(Oc2ccccc2)c1

>  <synthon>  (463) 
[Xe]c1ccccc1

>  <original_name>  (463) 
x0438-0B-x0212-0B-65895

>  <comRMSD_score>  (463) 
0.8618944613466304

>  <IF_score>  (463) 
0.8

>  <SuCOS_score>  (463) 
0.5345904268534832

>  <compound_ID>  (463) 
MOLPORT:003-709-088

$$$$

     RDKit          3D

 23 25  0  0  0  0  0  0  0  0999 V2000
   -8.1010    3.5550  -76.6750 O   0  0  0  0  0  0  0  0  0  0  0  0
   -8.6710    2.5860  -76.2070 C   0  0  0  0  0  0  0  0  0  0  0  0
   -8.1820    1.2260  -76.4030 C   0  0  0  0  0  0  0  0  0  0  0  0
   -9.8350    2.6130  -75.4880 N   0  0  0  0  0  0  0  0  0  0  0  0
   -7.1890    0.9150  -77.2140 C   0  0  0  0  0  0  0  0  0  0  0  0
   -9.1000    0.1280  -75.4410 S   0  0  0  0  0  0  0  0  0  0  0  0
  -10.2270    1.4000  -74.9310 C   0  0  0  0  0  0  0  0  0  0  0  0
  -10.6270    3.5590  -76.1280 C   0  0  0  0  0  0  0  0  0  0  0  0
   -6.4880    1.8850  -77.9990 C   0  0  0  0  0  0  0  0  0  0  0  0
  -11.5140    1.0470  -73.9170 S   0  0  0  0  0  0  0  0  0  0  0  0
  -10.1800    3.8960  -77.3970 C   0  0  0  0  0  0  0  0  0  0  0  0
  -11.7660    4.1690  -75.6170 C   0  0  0  0  0  0  0  0  0  0  0  0
   -6.7170    2.1430  -79.2940 C   0  0  0  0  0  0  0  0  0  0  0  0
  -10.8340    4.8250  -78.1630 C   0  0  0  0  0  0  0  0  0  0  0  0
  -12.4270    5.1090  -76.4000 C   0  0  0  0  0  0  0  0  0  0  0  0
   -7.7310    1.4570  -80.0900 C   0  0  0  0  0  0  0  0  0  0  0  0
  -11.9690    5.4410  -77.6700 C   0  0  0  0  0  0  0  0  0  0  0  0
  -13.5400    5.6980  -75.8860 O   0  0  0  0  0  0  0  0  0  0  0  0
   -8.1860    0.1950  -79.6930 C   0  0  0  0  0  0  0  0  0  0  0  0
   -8.2480    2.0520  -81.2430 C   0  0  0  0  0  0  0  0  0  0  0  0
   -9.1530   -0.4690  -80.4390 C   0  0  0  0  0  0  0  0  0  0  0  0
   -9.2140    1.3820  -81.9830 C   0  0  0  0  0  0  0  0  0  0  0  0
   -9.6650    0.1280  -81.5820 C   0  0  0  0  0  0  0  0  0  0  0  0
  1  2  2  0
  2  3  1  0
  2  4  1  0
  3  5  2  3
  3  6  1  0
  4  7  1  0
  6  7  1  0
  4  8  1  0
  5  9  1  0
  7 10  2  0
  8 11  2  0
  8 12  1  0
  9 13  2  3
 11 14  1  0
 12 15  2  0
 13 16  1  0
 14 17  2  0
 15 17  1  0
 15 18  1  0
 16 19  2  0
 16 20  1  0
 19 21  1  0
 20 22  2  0
 21 23  2  0
 22 23  1  0
M  END
>  <ref_url>  (464) 
https://fakepage.com

>  <submitter_name>  (464) 
Steph Wills

>  <submitter_email>  (464) 
stephanie.wills@dtc.ox.ac.uk

>  <submitter_institution>  (464) 
University of Oxford

>  <generation_date>  (464) 
2020-06-04

>  <method>  (464) 
Fragment network

>  <ref_mols>  (464) 
x0438_0B,x0212_0B

>  <ref_pdb>  (464) 
references/x0438-0B-x0212-0B-67853.holo_minimised_nolig.pdb

>  <original SMILES>  (464) 
O=C1C(=CC=Cc2ccccc2)SC(=S)N1c1cccc(O)c1

>  <synthon>  (464) 
[Xe]c1ccccc1

>  <original_name>  (464) 
x0438-0B-x0212-0B-67853

>  <comRMSD_score>  (464) 
0.8687325212908673

>  <IF_score>  (464) 
0.85

>  <SuCOS_score>  (464) 
0.5906633802397558

>  <compound_ID>  (464) 
MOLPORT:000-500-065

$$$$

     RDKit          3D

 29 31  0  0  0  0  0  0  0  0999 V2000
  -14.3600    6.7170  -77.4890 C   0  0  0  0  0  0  0  0  0  0  0  0
  -14.1080    5.9770  -76.1810 C   0  0  0  0  0  0  0  0  0  0  0  0
  -12.7380    6.1060  -75.8880 O   0  0  0  0  0  0  0  0  0  0  0  0
  -11.8270    5.1350  -76.2080 C   0  0  0  0  0  0  0  0  0  0  0  0
  -11.2120    5.2990  -77.4470 C   0  0  0  0  0  0  0  0  0  0  0  0
  -11.4550    4.0490  -75.4210 C   0  0  0  0  0  0  0  0  0  0  0  0
  -10.2250    4.4110  -77.8880 C   0  0  0  0  0  0  0  0  0  0  0  0
  -10.4680    3.1560  -75.8690 C   0  0  0  0  0  0  0  0  0  0  0  0
   -9.8340    3.3270  -77.1060 C   0  0  0  0  0  0  0  0  0  0  0  0
   -8.8460    2.4240  -77.5130 N   0  0  0  0  0  0  0  0  0  0  0  0
   -8.1790    1.5030  -76.5640 C   0  0  0  0  0  0  0  0  0  0  0  0
   -6.6650    1.8230  -76.4120 C   0  0  0  0  0  0  0  0  0  0  0  0
   -6.2460    2.7950  -75.7910 O   0  0  0  0  0  0  0  0  0  0  0  0
   -5.9270    0.8860  -77.1000 N   0  0  0  0  0  0  0  0  0  0  0  0
   -6.5550    0.3830  -78.1630 N   0  0  0  0  0  0  0  0  0  0  0  0
   -7.0500    1.3260  -78.8820 C   0  0  0  0  0  0  0  0  0  0  0  0
   -7.9590    0.9870  -79.9530 C   0  0  0  0  0  0  0  0  0  0  0  0
   -8.1780    1.7910  -81.0780 C   0  0  0  0  0  0  0  0  0  0  0  0
   -8.6240   -0.2080  -79.7580 C   0  0  0  0  0  0  0  0  0  0  0  0
   -9.1080    1.3540  -82.0060 C   0  0  0  0  0  0  0  0  0  0  0  0
   -9.5380   -0.6280  -80.6790 C   0  0  0  0  0  0  0  0  0  0  0  0
   -9.7860    0.1520  -81.7950 C   0  0  0  0  0  0  0  0  0  0  0  0
  -10.1790   -1.8250  -80.4430 O   0  0  0  0  0  0  0  0  0  0  0  0
  -11.4380   -1.9840  -80.9690 C   0  0  0  0  0  0  0  0  0  0  0  0
  -12.2480   -0.8530  -81.0340 C   0  0  0  0  0  0  0  0  0  0  0  0
  -11.9090   -3.2170  -81.4230 C   0  0  0  0  0  0  0  0  0  0  0  0
  -13.5380   -0.9520  -81.5560 C   0  0  0  0  0  0  0  0  0  0  0  0
  -13.1980   -3.3150  -81.9470 C   0  0  0  0  0  0  0  0  0  0  0  0
  -14.0110   -2.1840  -82.0130 C   0  0  0  0  0  0  0  0  0  0  0  0
  1  2  1  0
  2  3  1  0
  3  4  1  0
  4  5  2  0
  4  6  1  0
  5  7  1  0
  6  8  2  0
  7  9  2  0
  8  9  1  0
  9 10  1  0
 10 11  1  0
 11 12  1  0
 12 13  2  0
 12 14  1  0
 14 15  1  0
 15 16  2  3
 16 17  1  0
 17 18  2  0
 17 19  1  0
 18 20  1  0
 19 21  2  0
 20 22  2  0
 21 22  1  0
 21 23  1  0
 23 24  1  0
 24 25  2  0
 24 26  1  0
 25 27  1  0
 26 28  2  0
 27 29  2  0
 28 29  1  0
M  END
>  <ref_url>  (465) 
https://fakepage.com

>  <submitter_name>  (465) 
Steph Wills

>  <submitter_email>  (465) 
stephanie.wills@dtc.ox.ac.uk

>  <submitter_institution>  (465) 
University of Oxford

>  <generation_date>  (465) 
2020-06-04

>  <method>  (465) 
Fragment network

>  <ref_mols>  (465) 
x0438_0B,x0212_0B

>  <ref_pdb>  (465) 
references/x0438-0B-x0212-0B-68619.holo_minimised_nolig.pdb

>  <original SMILES>  (465) 
CCOc1ccc(NCC(=O)NN=Cc2cccc(Oc3ccccc3)c2)cc1

>  <synthon>  (465) 
[Xe]c1ccccc1

>  <original_name>  (465) 
x0438-0B-x0212-0B-68619

>  <comRMSD_score>  (465) 
0.8218542297755724

>  <IF_score>  (465) 
0.6904761904761905

>  <SuCOS_score>  (465) 
0.5121947850677906

>  <compound_ID>  (465) 
MOLPORT:003-706-289

$$$$

     RDKit          3D

 30 32  0  0  0  0  0  0  0  0999 V2000
   -5.7580    2.4510  -77.5680 C   0  0  0  0  0  0  0  0  0  0  0  0
   -6.2340    1.0030  -77.5820 C   0  0  0  0  0  0  0  0  0  0  0  0
   -7.0710    0.5400  -76.4230 C   0  0  0  0  0  0  0  0  0  0  0  0
   -5.9680    0.1710  -78.5400 N   0  0  0  0  0  0  0  0  0  0  0  0
   -8.4230    1.2540  -76.3990 C   0  0  0  0  0  0  0  0  0  0  0  0
   -5.2920    0.8060  -79.5150 N   0  0  0  0  0  0  0  0  0  0  0  0
   -9.4250    0.5640  -76.1840 O   0  0  0  0  0  0  0  0  0  0  0  0
   -8.4500    2.6480  -76.6260 N   0  0  0  0  0  0  0  0  0  0  0  0
   -5.8150    2.0920  -79.6780 C   0  0  0  0  0  0  0  0  0  0  0  0
   -7.3020    3.4820  -76.2780 C   0  0  0  0  0  0  0  0  0  0  0  0
   -9.6840    3.3830  -76.6700 C   0  0  0  0  0  0  0  0  0  0  0  0
   -5.2290    3.0430  -80.1890 O   0  0  0  0  0  0  0  0  0  0  0  0
   -7.2390    2.1870  -79.1160 C   0  0  0  0  0  0  0  0  0  0  0  0
  -10.0370    4.2190  -77.7410 C   0  0  0  0  0  0  0  0  0  0  0  0
  -10.5910    3.2880  -75.6080 C   0  0  0  0  0  0  0  0  0  0  0  0
   -8.1450    1.1360  -79.6920 C   0  0  0  0  0  0  0  0  0  0  0  0
  -11.2410    4.9300  -77.7430 C   0  0  0  0  0  0  0  0  0  0  0  0
  -11.7940    3.9970  -75.6080 C   0  0  0  0  0  0  0  0  0  0  0  0
   -8.2810   -0.1690  -79.1980 C   0  0  0  0  0  0  0  0  0  0  0  0
   -8.8680    1.4990  -80.7790 C   0  0  0  0  0  0  0  0  0  0  0  0
  -12.1170    4.8190  -76.6740 C   0  0  0  0  0  0  0  0  0  0  0  0
   -9.1430   -1.0750  -79.8350 C   0  0  0  0  0  0  0  0  0  0  0  0
   -9.7130    0.6030  -81.4130 C   0  0  0  0  0  0  0  0  0  0  0  0
   -9.8730   -0.6920  -80.9660 C   0  0  0  0  0  0  0  0  0  0  0  0
  -10.7850   -1.5830  -81.6910 C   0  0  0  0  0  0  0  0  0  0  0  0
  -11.3470   -1.1540  -82.9040 C   0  0  0  0  0  0  0  0  0  0  0  0
  -11.1210   -2.8590  -81.2170 C   0  0  0  0  0  0  0  0  0  0  0  0
  -12.2170   -1.9720  -83.6250 C   0  0  0  0  0  0  0  0  0  0  0  0
  -11.9930   -3.6810  -81.9390 C   0  0  0  0  0  0  0  0  0  0  0  0
  -12.5400   -3.2370  -83.1410 C   0  0  0  0  0  0  0  0  0  0  0  0
  1  2  1  0
  2  3  1  0
  2  4  2  3
  3  5  1  0
  4  6  1  0
  5  7  2  0
  5  8  1  0
  6  9  1  0
  8 10  1  0
  8 11  1  0
  9 12  2  0
  9 13  1  0
 11 14  2  0
 11 15  1  0
 13 16  1  0
 14 17  1  0
 15 18  2  0
 16 19  2  0
 16 20  1  0
 17 21  2  0
 18 21  1  0
 19 22  1  0
 20 23  2  0
 22 24  2  0
 23 24  1  0
 24 25  1  0
 25 26  2  0
 25 27  1  0
 26 28  1  0
 27 29  2  0
 28 30  2  0
 29 30  1  0
M  END
>  <ref_url>  (466) 
https://fakepage.com

>  <submitter_name>  (466) 
Steph Wills

>  <submitter_email>  (466) 
stephanie.wills@dtc.ox.ac.uk

>  <submitter_institution>  (466) 
University of Oxford

>  <generation_date>  (466) 
2020-06-04

>  <method>  (466) 
Fragment network

>  <ref_mols>  (466) 
x0438_0B,x0212_0B

>  <ref_pdb>  (466) 
references/x0438-0B-x0212-0B-74494.holo_minimised_nolig.pdb

>  <original SMILES>  (466) 
CC(CC(=O)N(C)c1ccccc1)=NNC(=O)Cc1ccc(-c2ccccc2)cc1

>  <synthon>  (466) 
[Xe]c1ccccc1

>  <original_name>  (466) 
x0438-0B-x0212-0B-74494

>  <comRMSD_score>  (466) 
0.9743408669454448

>  <IF_score>  (466) 
0.8375

>  <SuCOS_score>  (466) 
0.4933280278516347

>  <compound_ID>  (466) 
MOLPORT:046-927-341

$$$$

     RDKit          3D

 19 20  0  0  0  0  0  0  0  0999 V2000
  -13.4500    5.7490  -75.9070 O   0  0  0  0  0  0  0  0  0  0  0  0
  -12.3320    5.1130  -76.3560 C   0  0  0  0  0  0  0  0  0  0  0  0
  -11.9220    5.4010  -77.6530 C   0  0  0  0  0  0  0  0  0  0  0  0
  -11.6250    4.2150  -75.5560 C   0  0  0  0  0  0  0  0  0  0  0  0
  -10.7970    4.7860  -78.1630 C   0  0  0  0  0  0  0  0  0  0  0  0
  -10.4950    3.6120  -76.0960 C   0  0  0  0  0  0  0  0  0  0  0  0
  -10.1020    3.8990  -77.3770 C   0  0  0  0  0  0  0  0  0  0  0  0
   -9.6270    2.7380  -75.5880 O   0  0  0  0  0  0  0  0  0  0  0  0
   -8.4620    2.5510  -76.3990 C   0  0  0  0  0  0  0  0  0  0  0  0
   -8.1810    3.7620  -77.2810 C   0  0  0  0  0  0  0  0  0  0  0  0
   -8.1610    3.4080  -78.7430 C   0  0  0  0  0  0  0  0  0  0  0  0
   -6.8510    3.2820  -79.2260 O   0  0  0  0  0  0  0  0  0  0  0  0
   -6.6200    1.9070  -79.1660 C   0  0  0  0  0  0  0  0  0  0  0  0
   -7.6830    1.2280  -79.9970 C   0  0  0  0  0  0  0  0  0  0  0  0
   -8.1500    1.8260  -81.1810 C   0  0  0  0  0  0  0  0  0  0  0  0
   -8.2200    0.0050  -79.5960 C   0  0  0  0  0  0  0  0  0  0  0  0
   -9.1340    1.1980  -81.9390 C   0  0  0  0  0  0  0  0  0  0  0  0
   -9.2060   -0.6220  -80.3590 C   0  0  0  0  0  0  0  0  0  0  0  0
   -9.6580   -0.0240  -81.5260 C   0  0  0  0  0  0  0  0  0  0  0  0
  1  2  1  0
  2  3  2  0
  2  4  1  0
  3  5  1  0
  4  6  2  0
  5  7  2  0
  6  7  1  0
  6  8  1  0
  8  9  1  0
  9 10  1  0
 10 11  1  0
 11 12  1  0
 12 13  1  0
 13 14  1  0
 14 15  2  0
 14 16  1  0
 15 17  1  0
 16 18  2  0
 17 19  2  0
 18 19  1  0
M  END
>  <ref_url>  (467) 
https://fakepage.com

>  <submitter_name>  (467) 
Steph Wills

>  <submitter_email>  (467) 
stephanie.wills@dtc.ox.ac.uk

>  <submitter_institution>  (467) 
University of Oxford

>  <generation_date>  (467) 
2020-06-04

>  <method>  (467) 
Fragment network

>  <ref_mols>  (467) 
x0438_0B,x0212_0B

>  <ref_pdb>  (467) 
references/x0438-0B-x0212-0B-75875.holo_minimised_nolig.pdb

>  <original SMILES>  (467) 
Oc1cccc(OCCCOCc2ccccc2)c1

>  <synthon>  (467) 
[Xe]c1ccccc1

>  <original_name>  (467) 
x0438-0B-x0212-0B-75875

>  <comRMSD_score>  (467) 
0.969287783092107

>  <IF_score>  (467) 
0.75

>  <SuCOS_score>  (467) 
0.5173044857183475

>  <compound_ID>  (467) 
CHEMSPACE-BB:CSMB00015069359

$$$$

     RDKit          3D

 24 25  0  0  0  0  0  0  0  0999 V2000
   -6.3180    0.6320  -78.1850 C   0  0  0  0  0  0  0  0  0  0  0  0
   -6.8070    0.8790  -76.7680 C   0  0  1  0  0  0  0  0  0  0  0  0
   -5.8770    1.8180  -76.1170 N   0  0  0  0  0  0  0  0  0  0  0  0
   -8.3050    1.3310  -76.7460 C   0  0  0  0  0  0  0  0  0  0  0  0
   -5.8600    3.1720  -76.3890 C   0  0  0  0  0  0  0  0  0  0  0  0
   -9.2050    0.4870  -76.6910 O   0  0  0  0  0  0  0  0  0  0  0  0
   -8.4990    2.7030  -76.7880 N   0  0  0  0  0  0  0  0  0  0  0  0
   -5.7650    4.0540  -75.5290 O   0  0  0  0  0  0  0  0  0  0  0  0
   -5.8960    3.4050  -77.7380 N   0  0  0  0  0  0  0  0  0  0  0  0
   -9.7110    3.4150  -76.6770 C   0  0  0  0  0  0  0  0  0  0  0  0
   -7.0780    3.1460  -78.5370 C   0  0  0  0  0  0  0  0  0  0  0  0
  -10.5530    3.3150  -75.5750 C   0  0  0  0  0  0  0  0  0  0  0  0
  -10.0830    4.2690  -77.7330 C   0  0  0  0  0  0  0  0  0  0  0  0
   -6.7520    2.6080  -79.9300 C   0  0  0  0  0  0  0  0  0  0  0  0
  -11.7340    4.0530  -75.5100 C   0  0  0  0  0  0  0  0  0  0  0  0
  -11.2690    5.0060  -77.6660 C   0  0  0  0  0  0  0  0  0  0  0  0
   -7.8100    1.6460  -80.4120 C   0  0  0  0  0  0  0  0  0  0  0  0
  -12.0930    4.9000  -76.5510 C   0  0  0  0  0  0  0  0  0  0  0  0
   -8.5290    1.9640  -81.5450 C   0  0  0  0  0  0  0  0  0  0  0  0
   -8.0930    0.4370  -79.7440 C   0  0  0  0  0  0  0  0  0  0  0  0
   -9.5120    1.1070  -82.0080 C   0  0  0  0  0  0  0  0  0  0  0  0
   -9.0800   -0.4210  -80.2110 C   0  0  0  0  0  0  0  0  0  0  0  0
   -9.7890   -0.0820  -81.3410 C   0  0  0  0  0  0  0  0  0  0  0  0
  -10.7580   -0.9510  -81.7540 O   0  0  0  0  0  0  0  0  0  0  0  0
  2  1  1  6
  2  3  1  0
  2  4  1  0
  3  5  1  0
  4  6  2  0
  4  7  1  0
  5  8  2  0
  5  9  1  0
  7 10  1  0
  9 11  1  0
 10 12  2  0
 10 13  1  0
 11 14  1  0
 12 15  1  0
 13 16  2  0
 14 17  1  0
 15 18  2  0
 16 18  1  0
 17 19  2  0
 17 20  1  0
 19 21  1  0
 20 22  2  0
 21 23  2  0
 22 23  1  0
 23 24  1  0
M  END
>  <ref_url>  (468) 
https://fakepage.com

>  <submitter_name>  (468) 
Steph Wills

>  <submitter_email>  (468) 
stephanie.wills@dtc.ox.ac.uk

>  <submitter_institution>  (468) 
University of Oxford

>  <generation_date>  (468) 
2020-06-04

>  <method>  (468) 
Fragment network

>  <ref_mols>  (468) 
x0438_0B,x0212_0B

>  <ref_pdb>  (468) 
references/x0438-0B-x0212-0B-80089.holo_minimised_nolig.pdb

>  <original SMILES>  (468) 
CC(NC(=O)NCCc1ccc(O)cc1)C(=O)Nc1ccccc1

>  <synthon>  (468) 
[Xe]c1ccccc1

>  <original_name>  (468) 
x0438-0B-x0212-0B-80089

>  <comRMSD_score>  (468) 
0.5615158334811233

>  <IF_score>  (468) 
0.9444444444444444

>  <SuCOS_score>  (468) 
0.5529375962939289

>  <compound_ID>  (468) 
REAL:Z1209069047

$$$$

     RDKit          3D

 21 22  0  0  0  0  0  0  0  0999 V2000
   -7.3670    0.7210  -76.5460 C   0  0  0  0  0  0  0  0  0  0  0  0
   -8.7340    1.1540  -77.0720 C   0  0  0  0  0  0  0  0  0  0  0  0
   -8.7430    2.6320  -77.2360 N   0  0  0  0  0  0  0  0  0  0  0  0
   -9.9200    3.3490  -76.8480 C   0  0  0  0  0  0  0  0  0  0  0  0
   -8.2910    2.9640  -78.8050 S   0  0  0  0  0  0  0  0  0  0  0  0
  -10.5430    3.1590  -75.6250 C   0  0  0  0  0  0  0  0  0  0  0  0
  -10.4390    4.2750  -77.7640 C   0  0  0  0  0  0  0  0  0  0  0  0
   -8.5030    4.3590  -79.0780 O   0  0  0  0  0  0  0  0  0  0  0  0
   -8.9170    1.9670  -79.6350 O   0  0  0  0  0  0  0  0  0  0  0  0
   -6.5450    2.6940  -78.6740 C   0  0  0  0  0  0  0  0  0  0  0  0
  -11.6820    3.8950  -75.3170 C   0  0  0  0  0  0  0  0  0  0  0  0
  -11.5760    4.9960  -77.4400 C   0  0  0  0  0  0  0  0  0  0  0  0
   -6.1470    1.7750  -79.8020 C   0  0  0  0  0  0  0  0  0  0  0  0
  -12.2030    4.8180  -76.2250 C   0  0  0  0  0  0  0  0  0  0  0  0
  -12.0770    5.8870  -78.3330 O   0  0  0  0  0  0  0  0  0  0  0  0
   -7.3900    1.1710  -80.3970 C   0  0  0  0  0  0  0  0  0  0  0  0
   -7.8910   -0.0460  -79.9060 C   0  0  0  0  0  0  0  0  0  0  0  0
   -8.0620    1.8210  -81.4400 C   0  0  0  0  0  0  0  0  0  0  0  0
   -9.0450   -0.5980  -80.4500 C   0  0  0  0  0  0  0  0  0  0  0  0
   -9.2090    1.2610  -81.9760 C   0  0  0  0  0  0  0  0  0  0  0  0
   -9.7030    0.0530  -81.4830 C   0  0  0  0  0  0  0  0  0  0  0  0
  1  2  1  0
  2  3  1  0
  3  4  1  0
  5  3  1  0
  4  6  2  0
  4  7  1  0
  5  8  2  0
  5  9  2  0
  5 10  1  0
  6 11  1  0
  7 12  2  0
 10 13  1  0
 11 14  2  0
 12 14  1  0
 12 15  1  0
 13 16  1  0
 16 17  2  0
 16 18  1  0
 17 19  1  0
 18 20  2  0
 19 21  2  0
 20 21  1  0
M  END
>  <ref_url>  (469) 
https://fakepage.com

>  <submitter_name>  (469) 
Steph Wills

>  <submitter_email>  (469) 
stephanie.wills@dtc.ox.ac.uk

>  <submitter_institution>  (469) 
University of Oxford

>  <generation_date>  (469) 
2020-06-04

>  <method>  (469) 
Fragment network

>  <ref_mols>  (469) 
x0438_0B,x0212_0B

>  <ref_pdb>  (469) 
references/x0438-0B-x0212-0B-85248.holo_minimised_nolig.pdb

>  <original SMILES>  (469) 
CCN(c1cccc(O)c1)S(=O)(=O)CCc1ccccc1

>  <synthon>  (469) 
[Xe]c1ccccc1

>  <original_name>  (469) 
x0438-0B-x0212-0B-85248

>  <comRMSD_score>  (469) 
0.8118865376393433

>  <IF_score>  (469) 
0.85

>  <SuCOS_score>  (469) 
0.4875711842032438

>  <compound_ID>  (469) 
REAL:Z1828184882

$$$$

     RDKit          3D

 28 30  0  0  0  0  0  0  0  0999 V2000
   -9.4010    0.3820  -76.6180 O   0  0  0  0  0  0  0  0  0  0  0  0
   -8.5330    1.2300  -76.7840 C   0  0  0  0  0  0  0  0  0  0  0  0
   -7.0460    0.8590  -76.7690 C   0  0  0  0  0  0  0  0  0  0  0  0
   -8.7290    2.5810  -77.0040 N   0  0  0  0  0  0  0  0  0  0  0  0
   -6.3500    1.2270  -77.9630 O   0  0  0  0  0  0  0  0  0  0  0  0
   -9.8910    3.3320  -76.7840 C   0  0  0  0  0  0  0  0  0  0  0  0
   -6.5440    2.5160  -78.3810 C   0  0  0  0  0  0  0  0  0  0  0  0
  -10.1140    4.4040  -77.6550 C   0  0  0  0  0  0  0  0  0  0  0  0
  -10.8100    3.0720  -75.7690 C   0  0  0  0  0  0  0  0  0  0  0  0
   -6.5520    3.4920  -77.6510 O   0  0  0  0  0  0  0  0  0  0  0  0
   -6.7340    2.4980  -79.8850 C   0  0  0  0  0  0  0  0  0  0  0  0
  -11.2340    5.2190  -77.5030 C   0  0  0  0  0  0  0  0  0  0  0  0
  -11.9360    3.8870  -75.6310 C   0  0  0  0  0  0  0  0  0  0  0  0
   -7.8390    1.5560  -80.2750 C   0  0  0  0  0  0  0  0  0  0  0  0
  -12.1430    4.9630  -76.4870 C   0  0  0  0  0  0  0  0  0  0  0  0
  -12.8300    3.5800  -74.6350 O   0  0  0  0  0  0  0  0  0  0  0  0
   -8.0920    0.4320  -79.4810 C   0  0  0  0  0  0  0  0  0  0  0  0
   -8.6250    1.7820  -81.4040 C   0  0  0  0  0  0  0  0  0  0  0  0
  -13.7680    2.6620  -75.0770 C   0  0  0  0  0  0  0  0  0  0  0  0
   -9.1140   -0.4480  -79.7920 C   0  0  0  0  0  0  0  0  0  0  0  0
   -9.6590    0.8870  -81.7160 C   0  0  0  0  0  0  0  0  0  0  0  0
  -15.1200    2.9490  -74.8850 C   0  0  0  0  0  0  0  0  0  0  0  0
  -13.3880    1.4740  -75.7090 C   0  0  0  0  0  0  0  0  0  0  0  0
   -9.8980   -0.2220  -80.8970 C   0  0  0  0  0  0  0  0  0  0  0  0
  -16.0920    2.0510  -75.3260 C   0  0  0  0  0  0  0  0  0  0  0  0
  -14.3610    0.5790  -76.1490 C   0  0  0  0  0  0  0  0  0  0  0  0
  -11.2830   -1.4710  -81.2120 Br  0  0  0  0  0  0  0  0  0  0  0  0
  -15.7110    0.8670  -75.9580 C   0  0  0  0  0  0  0  0  0  0  0  0
  1  2  2  0
  2  3  1  0
  2  4  1  0
  3  5  1  0
  4  6  1  0
  5  7  1  0
  6  8  2  0
  6  9  1  0
  7 10  2  0
  7 11  1  0
  8 12  1  0
  9 13  2  0
 11 14  1  0
 12 15  2  0
 13 15  1  0
 13 16  1  0
 14 17  2  0
 14 18  1  0
 16 19  1  0
 17 20  1  0
 18 21  2  0
 19 22  2  0
 19 23  1  0
 20 24  2  0
 21 24  1  0
 22 25  1  0
 23 26  2  0
 24 27  1  0
 25 28  2  0
 26 28  1  0
M  END
>  <ref_url>  (470) 
https://fakepage.com

>  <submitter_name>  (470) 
Steph Wills

>  <submitter_email>  (470) 
stephanie.wills@dtc.ox.ac.uk

>  <submitter_institution>  (470) 
University of Oxford

>  <generation_date>  (470) 
2020-06-04

>  <method>  (470) 
Fragment network

>  <ref_mols>  (470) 
x0438_0B,x0212_0B

>  <ref_pdb>  (470) 
references/x0438-0B-x0212-0B-101379.holo_minimised_nolig.pdb

>  <original SMILES>  (470) 
O=C(COC(=O)Cc1ccc(Br)cc1)Nc1cccc(Oc2ccccc2)c1

>  <synthon>  (470) 
[Xe]c1ccccc1

>  <original_name>  (470) 
x0438-0B-x0212-0B-101379

>  <comRMSD_score>  (470) 
0.6152586600365737

>  <IF_score>  (470) 
0.4222222222222222

>  <SuCOS_score>  (470) 
0.5419344416800276

>  <compound_ID>  (470) 
MOLPORT:005-899-864

$$$$

     RDKit          3D

 27 29  0  0  0  0  0  0  0  0999 V2000
   -8.7580    4.2570  -79.5060 C   0  0  0  0  0  0  0  0  0  0  0  0
   -9.3890    3.3380  -78.6350 O   0  0  0  0  0  0  0  0  0  0  0  0
  -10.2430    3.7780  -77.6480 C   0  0  0  0  0  0  0  0  0  0  0  0
  -11.1420    4.8530  -77.7460 C   0  0  0  0  0  0  0  0  0  0  0  0
  -10.1780    3.0350  -76.4450 C   0  0  0  0  0  0  0  0  0  0  0  0
  -11.9620    5.1720  -76.6580 C   0  0  0  0  0  0  0  0  0  0  0  0
  -11.0000    3.3790  -75.3870 C   0  0  0  0  0  0  0  0  0  0  0  0
   -9.2860    1.9460  -76.3390 N   0  0  0  0  0  0  0  0  0  0  0  0
  -11.8840    4.4380  -75.4920 C   0  0  0  0  0  0  0  0  0  0  0  0
   -8.1250    1.5260  -76.9580 C   0  0  0  0  0  0  0  0  0  0  0  0
   -7.4080    0.0200  -76.8530 S   0  0  0  0  0  0  0  0  0  0  0  0
   -7.5960    2.5770  -77.7050 N   0  0  0  0  0  0  0  0  0  0  0  0
   -6.3850    2.4190  -78.2940 N   0  0  0  0  0  0  0  0  0  0  0  0
   -6.3570    1.6000  -79.2870 C   0  0  0  0  0  0  0  0  0  0  0  0
   -7.5360    0.8660  -79.8070 C   0  0  0  0  0  0  0  0  0  0  0  0
   -8.4290    1.4970  -80.6440 C   0  0  0  0  0  0  0  0  0  0  0  0
   -7.7480   -0.4710  -79.4760 C   0  0  0  0  0  0  0  0  0  0  0  0
   -9.5150    0.8030  -81.1730 C   0  0  0  0  0  0  0  0  0  0  0  0
   -8.8520   -1.1570  -79.9970 C   0  0  0  0  0  0  0  0  0  0  0  0
   -9.7390   -0.5200  -80.8520 C   0  0  0  0  0  0  0  0  0  0  0  0
  -10.8060   -1.2600  -81.3280 O   0  0  0  0  0  0  0  0  0  0  0  0
  -11.0740   -1.3130  -82.6780 C   0  0  0  0  0  0  0  0  0  0  0  0
  -12.2870   -0.8760  -83.2200 C   0  0  0  0  0  0  0  0  0  0  0  0
  -10.0850   -1.8320  -83.5130 C   0  0  0  0  0  0  0  0  0  0  0  0
  -12.5080   -0.9590  -84.5930 C   0  0  0  0  0  0  0  0  0  0  0  0
  -10.3080   -1.9160  -84.8870 C   0  0  0  0  0  0  0  0  0  0  0  0
  -11.5200   -1.4800  -85.4300 C   0  0  0  0  0  0  0  0  0  0  0  0
  1  2  1  0
  2  3  1  0
  3  4  2  0
  3  5  1  0
  4  6  1  0
  5  7  2  0
  5  8  1  0
  6  9  2  0
  7  9  1  0
  8 10  1  0
 10 11  2  0
 10 12  1  0
 12 13  1  0
 13 14  2  3
 14 15  1  0
 15 16  2  0
 15 17  1  0
 16 18  1  0
 17 19  2  0
 18 20  2  0
 19 20  1  0
 20 21  1  0
 21 22  1  0
 22 23  2  0
 22 24  1  0
 23 25  1  0
 24 26  2  0
 25 27  2  0
 26 27  1  0
M  END
>  <ref_url>  (471) 
https://fakepage.com

>  <submitter_name>  (471) 
Steph Wills

>  <submitter_email>  (471) 
stephanie.wills@dtc.ox.ac.uk

>  <submitter_institution>  (471) 
University of Oxford

>  <generation_date>  (471) 
2020-06-04

>  <method>  (471) 
Fragment network

>  <ref_mols>  (471) 
x0438_0B,x0212_0B

>  <ref_pdb>  (471) 
references/x0438-0B-x0212-0B-104773.holo_minimised_nolig.pdb

>  <original SMILES>  (471) 
COc1ccccc1NC(=S)NN=Cc1ccc(Oc2ccccc2)cc1

>  <synthon>  (471) 
[Xe]c1ccccc1

>  <original_name>  (471) 
x0438-0B-x0212-0B-104773

>  <comRMSD_score>  (471) 
0.9389287478549084

>  <IF_score>  (471) 
0.788888888888889

>  <SuCOS_score>  (471) 
0.4965071092974392

>  <compound_ID>  (471) 
MOLPORT:044-247-598

$$$$

     RDKit          3D

 26 28  0  0  0  0  0  0  0  0999 V2000
   -8.9390    3.8890  -79.0080 C   0  0  0  0  0  0  0  0  0  0  0  0
   -8.9290    2.9820  -77.9130 N   0  0  0  0  0  0  0  0  0  0  0  0
   -9.9550    3.5420  -77.1420 C   0  0  0  0  0  0  0  0  0  0  0  0
   -7.4300    2.5380  -77.3910 P   0  0  0  0  0  0  0  0  0  0  0  0
  -10.3610    3.2440  -75.8450 C   0  0  0  0  0  0  0  0  0  0  0  0
  -10.6360    4.5330  -77.8580 C   0  0  0  0  0  0  0  0  0  0  0  0
   -6.6180    3.4670  -76.5310 O   0  0  0  0  0  0  0  0  0  0  0  0
   -7.7420    0.9550  -76.9780 N   0  0  0  0  0  0  0  0  0  0  0  0
   -6.8070    2.1470  -78.9070 N   0  0  0  0  0  0  0  0  0  0  0  0
  -11.4500    3.9460  -75.2960 C   0  0  0  0  0  0  0  0  0  0  0  0
  -11.7000    5.2220  -77.3260 C   0  0  0  0  0  0  0  0  0  0  0  0
   -6.5760    0.0790  -76.9220 C   0  0  0  0  0  0  0  0  0  0  0  0
   -8.9160    0.4400  -76.3770 C   0  0  0  0  0  0  0  0  0  0  0  0
   -6.3350    3.3850  -79.5820 C   0  0  0  0  0  0  0  0  0  0  0  0
   -7.7000    1.5220  -79.8600 C   0  0  0  0  0  0  0  0  0  0  0  0
  -12.1120    4.9290  -76.0450 C   0  0  0  0  0  0  0  0  0  0  0  0
  -10.1980    0.8790  -76.7350 C   0  0  0  0  0  0  0  0  0  0  0  0
   -8.8620   -0.5530  -75.3780 C   0  0  0  0  0  0  0  0  0  0  0  0
   -8.0910    2.0880  -81.0900 C   0  0  0  0  0  0  0  0  0  0  0  0
   -8.2190    0.2560  -79.5220 C   0  0  0  0  0  0  0  0  0  0  0  0
  -11.3560    0.3660  -76.1380 C   0  0  0  0  0  0  0  0  0  0  0  0
  -10.0080   -1.0740  -74.7710 C   0  0  0  0  0  0  0  0  0  0  0  0
   -8.9650    1.4090  -81.9370 C   0  0  0  0  0  0  0  0  0  0  0  0
   -9.0930   -0.4180  -80.3730 C   0  0  0  0  0  0  0  0  0  0  0  0
  -11.2590   -0.6130  -75.1530 C   0  0  0  0  0  0  0  0  0  0  0  0
   -9.4630    0.1620  -81.5760 C   0  0  0  0  0  0  0  0  0  0  0  0
  1  2  1  0
  2  3  1  0
  2  4  1  0
  3  5  2  0
  3  6  1  0
  4  7  2  0
  4  8  1  0
  4  9  1  0
  5 10  1  0
  6 11  2  0
  8 12  1  0
  8 13  1  0
  9 14  1  0
  9 15  1  0
 10 16  2  0
 11 16  1  0
 13 17  2  0
 13 18  1  0
 15 19  2  0
 15 20  1  0
 17 21  1  0
 18 22  2  0
 19 23  1  0
 20 24  2  0
 21 25  2  0
 22 25  1  0
 23 26  2  0
 24 26  1  0
M  END
>  <ref_url>  (472) 
https://fakepage.com

>  <submitter_name>  (472) 
Steph Wills

>  <submitter_email>  (472) 
stephanie.wills@dtc.ox.ac.uk

>  <submitter_institution>  (472) 
University of Oxford

>  <generation_date>  (472) 
2020-06-04

>  <method>  (472) 
Fragment network

>  <ref_mols>  (472) 
x0438_0B,x0212_0B

>  <ref_pdb>  (472) 
references/x0438-0B-x0212-0B-108550.holo_minimised_nolig.pdb

>  <original SMILES>  (472) 
CN(c1ccccc1)P(=O)(N(C)c1ccccc1)N(C)c1ccccc1

>  <synthon>  (472) 
[Xe]c1ccccc1

>  <original_name>  (472) 
x0438-0B-x0212-0B-108550

>  <comRMSD_score>  (472) 
0.7671848905250935

>  <IF_score>  (472) 
0.8888888888888888

>  <SuCOS_score>  (472) 
0.46018003856479

>  <compound_ID>  (472) 
MOLPORT:005-908-949

$$$$

     RDKit          3D

 28 30  0  0  0  0  0  0  0  0999 V2000
   -6.6570    0.1490  -78.2010 C   0  0  0  0  0  0  0  0  0  0  0  0
   -6.9630    0.7510  -76.8390 C   0  0  1  0  0  0  0  0  0  0  0  0
   -5.9800    1.7810  -76.6550 O   0  0  0  0  0  0  0  0  0  0  0  0
   -8.4540    1.2130  -76.7530 C   0  0  0  0  0  0  0  0  0  0  0  0
   -6.3910    3.0510  -76.9250 C   0  0  0  0  0  0  0  0  0  0  0  0
   -9.3720    0.4010  -76.8220 O   0  0  0  0  0  0  0  0  0  0  0  0
   -8.6120    2.5850  -76.5860 N   0  0  0  0  0  0  0  0  0  0  0  0
   -6.1180    4.0280  -76.2310 O   0  0  0  0  0  0  0  0  0  0  0  0
   -7.2270    3.1060  -78.1830 C   0  0  0  0  0  0  0  0  0  0  0  0
   -9.7920    3.3530  -76.5440 C   0  0  0  0  0  0  0  0  0  0  0  0
   -6.5690    2.3660  -79.3470 C   0  0  0  0  0  0  0  0  0  0  0  0
  -10.0850    4.1930  -77.6390 C   0  0  0  0  0  0  0  0  0  0  0  0
  -10.6730    3.3220  -75.4720 C   0  0  0  0  0  0  0  0  0  0  0  0
   -5.4670    3.1580  -80.0490 C   0  0  0  0  0  0  0  0  0  0  0  0
   -7.6450    1.6910  -80.2170 C   0  0  0  0  0  0  0  0  0  0  0  0
  -11.2380    4.9820  -77.6380 C   0  0  0  0  0  0  0  0  0  0  0  0
  -11.8200    4.1120  -75.4730 C   0  0  0  0  0  0  0  0  0  0  0  0
   -5.5380    4.5590  -80.0120 C   0  0  0  0  0  0  0  0  0  0  0  0
   -4.3820    2.5680  -80.7140 C   0  0  0  0  0  0  0  0  0  0  0  0
   -8.1510    2.3030  -81.3640 C   0  0  0  0  0  0  0  0  0  0  0  0
   -8.1550    0.4210  -79.8670 C   0  0  0  0  0  0  0  0  0  0  0  0
  -12.1040    4.9420  -76.5510 C   0  0  0  0  0  0  0  0  0  0  0  0
   -4.5660    5.3510  -80.6050 C   0  0  0  0  0  0  0  0  0  0  0  0
   -3.4040    3.3630  -81.3150 C   0  0  0  0  0  0  0  0  0  0  0  0
   -9.1200    1.6630  -82.1250 C   0  0  0  0  0  0  0  0  0  0  0  0
   -9.1240   -0.2120  -80.6320 C   0  0  0  0  0  0  0  0  0  0  0  0
   -3.4920    4.7520  -81.2600 C   0  0  0  0  0  0  0  0  0  0  0  0
   -9.6050    0.4120  -81.7620 C   0  0  0  0  0  0  0  0  0  0  0  0
  2  1  1  6
  2  3  1  0
  2  4  1  0
  3  5  1  0
  4  6  2  0
  4  7  1  0
  5  8  2  0
  5  9  1  0
  7 10  1  0
  9 11  1  0
 10 12  2  0
 10 13  1  0
 11 14  1  0
 11 15  1  0
 12 16  1  0
 13 17  2  0
 14 18  2  0
 14 19  1  0
 15 20  2  0
 15 21  1  0
 16 22  2  0
 17 22  1  0
 18 23  1  0
 19 24  2  0
 20 25  1  0
 21 26  2  0
 23 27  2  0
 24 27  1  0
 25 28  2  0
 26 28  1  0
M  END
>  <ref_url>  (473) 
https://fakepage.com

>  <submitter_name>  (473) 
Steph Wills

>  <submitter_email>  (473) 
stephanie.wills@dtc.ox.ac.uk

>  <submitter_institution>  (473) 
University of Oxford

>  <generation_date>  (473) 
2020-06-04

>  <method>  (473) 
Fragment network

>  <ref_mols>  (473) 
x0438_0B,x0212_0B

>  <ref_pdb>  (473) 
references/x0438-0B-x0212-0B-109229.holo_minimised_nolig.pdb

>  <original SMILES>  (473) 
CC(OC(=O)CC(c1ccccc1)c1ccccc1)C(=O)Nc1ccccc1

>  <synthon>  (473) 
[Xe]c1ccccc1

>  <original_name>  (473) 
x0438-0B-x0212-0B-109229

>  <comRMSD_score>  (473) 
0.5637707036109637

>  <IF_score>  (473) 
1.0

>  <SuCOS_score>  (473) 
0.5590773936852589

>  <compound_ID>  (473) 
MOLPORT:009-022-308

$$$$

     RDKit          3D

 33 35  0  0  0  0  0  0  0  0999 V2000
   -6.6640    0.1120  -78.4610 C   0  0  0  0  0  0  0  0  0  0  0  0
   -6.7600    0.7870  -77.1050 C   0  0  1  0  0  0  0  0  0  0  0  0
   -5.8010    1.8330  -77.1980 O   0  0  0  0  0  0  0  0  0  0  0  0
   -8.2140    1.2810  -76.8530 C   0  0  0  0  0  0  0  0  0  0  0  0
   -5.7770    2.3700  -78.4390 C   0  0  0  0  0  0  0  0  0  0  0  0
   -9.1230    0.4800  -76.6230 O   0  0  0  0  0  0  0  0  0  0  0  0
   -8.3700    2.6620  -76.9140 N   0  0  0  0  0  0  0  0  0  0  0  0
   -4.9440    2.1390  -79.3080 O   0  0  0  0  0  0  0  0  0  0  0  0
   -6.8980    3.2990  -78.6340 C   0  0  0  0  0  0  0  0  0  0  0  0
   -9.5750    3.3710  -76.7260 C   0  0  0  0  0  0  0  0  0  0  0  0
   -7.9950    3.1030  -79.3910 C   0  0  0  0  0  0  0  0  0  0  0  0
   -9.9920    4.2660  -77.7300 C   0  0  0  0  0  0  0  0  0  0  0  0
  -10.3680    3.2250  -75.5930 C   0  0  0  0  0  0  0  0  0  0  0  0
   -8.3340    1.9200  -80.1940 C   0  0  0  0  0  0  0  0  0  0  0  0
  -11.1760    4.9880  -77.5910 C   0  0  0  0  0  0  0  0  0  0  0  0
  -11.5510    3.9480  -75.4510 C   0  0  0  0  0  0  0  0  0  0  0  0
   -8.6900    0.7170  -79.5650 C   0  0  0  0  0  0  0  0  0  0  0  0
   -8.3260    1.9570  -81.5860 C   0  0  0  0  0  0  0  0  0  0  0  0
  -11.9480    4.8250  -76.4480 C   0  0  0  0  0  0  0  0  0  0  0  0
   -9.0200   -0.4230  -80.3040 C   0  0  0  0  0  0  0  0  0  0  0  0
   -8.6530    0.8190  -82.3260 C   0  0  0  0  0  0  0  0  0  0  0  0
  -13.1150    5.5010  -76.2660 O   0  0  0  0  0  0  0  0  0  0  0  0
   -9.0030   -0.3780  -81.6930 C   0  0  0  0  0  0  0  0  0  0  0  0
  -13.9910    5.2450  -77.2810 C   0  0  0  0  0  0  0  0  0  0  0  0
   -9.2960   -1.4220  -82.5230 O   0  0  0  0  0  0  0  0  0  0  0  0
  -14.5430    6.3350  -77.9220 C   0  0  0  0  0  0  0  0  0  0  0  0
  -14.3240    3.9480  -77.6720 C   0  0  0  0  0  0  0  0  0  0  0  0
   -8.6070   -2.6370  -82.2860 C   0  0  0  0  0  0  0  0  0  0  0  0
  -15.4300    6.1290  -78.9610 C   0  0  0  0  0  0  0  0  0  0  0  0
  -15.2180    3.7460  -78.7240 C   0  0  0  0  0  0  0  0  0  0  0  0
   -9.5300   -3.5620  -81.9120 F   0  0  0  0  0  0  0  0  0  0  0  0
   -8.0700   -3.0830  -83.4500 F   0  0  0  0  0  0  0  0  0  0  0  0
  -15.7720    4.8440  -79.3700 C   0  0  0  0  0  0  0  0  0  0  0  0
  2  1  1  6
  2  3  1  0
  2  4  1  0
  3  5  1  0
  4  6  2  0
  4  7  1  0
  5  8  2  0
  5  9  1  0
  7 10  1  0
  9 11  2  3
 10 12  2  0
 10 13  1  0
 11 14  1  0
 12 15  1  0
 13 16  2  0
 14 17  2  0
 14 18  1  0
 15 19  2  0
 16 19  1  0
 17 20  1  0
 18 21  2  0
 19 22  1  0
 20 23  2  0
 21 23  1  0
 22 24  1  0
 23 25  1  0
 24 26  2  0
 24 27  1  0
 25 28  1  0
 26 29  1  0
 27 30  2  0
 28 31  1  0
 28 32  1  0
 29 33  2  0
 30 33  1  0
M  END
>  <ref_url>  (474) 
https://fakepage.com

>  <submitter_name>  (474) 
Steph Wills

>  <submitter_email>  (474) 
stephanie.wills@dtc.ox.ac.uk

>  <submitter_institution>  (474) 
University of Oxford

>  <generation_date>  (474) 
2020-06-04

>  <method>  (474) 
Fragment network

>  <ref_mols>  (474) 
x0438_0B,x0212_0B

>  <ref_pdb>  (474) 
references/x0438-0B-x0212-0B-120544.holo_minimised_nolig.pdb

>  <original SMILES>  (474) 
CC(OC(=O)C=Cc1ccc(OC(F)F)cc1)C(=O)Nc1ccc(Oc2ccccc2)cc1

>  <synthon>  (474) 
[Xe]c1ccccc1

>  <original_name>  (474) 
x0438-0B-x0212-0B-120544

>  <comRMSD_score>  (474) 
0.6761888373450123

>  <IF_score>  (474) 
0.6333333333333333

>  <SuCOS_score>  (474) 
0.5639866005547629

>  <compound_ID>  (474) 
MOLPORT:044-393-097

$$$$

     RDKit          3D

 28 30  0  0  0  0  0  0  0  0999 V2000
   -9.7020    0.2640  -76.3410 O   0  0  0  0  0  0  0  0  0  0  0  0
   -8.7630    0.9120  -76.7970 C   0  0  0  0  0  0  0  0  0  0  0  0
   -7.6700    0.2670  -77.5830 C   0  0  0  0  0  0  0  0  0  0  0  0
   -8.7850    2.2390  -76.5600 N   0  0  0  0  0  0  0  0  0  0  0  0
   -6.2850    1.2940  -77.8920 S   0  0  0  0  0  0  0  0  0  0  0  0
   -9.8190    3.1800  -76.6530 C   0  0  0  0  0  0  0  0  0  0  0  0
   -5.2320    0.3740  -78.2620 O   0  0  0  0  0  0  0  0  0  0  0  0
   -6.1400    2.2100  -76.7800 O   0  0  0  0  0  0  0  0  0  0  0  0
   -6.7350    2.1420  -79.4050 C   0  0  0  0  0  0  0  0  0  0  0  0
  -10.6340    3.2940  -75.5310 C   0  0  0  0  0  0  0  0  0  0  0  0
  -10.0830    3.9810  -77.7570 C   0  0  0  0  0  0  0  0  0  0  0  0
   -7.7410    1.3710  -80.2100 C   0  0  0  0  0  0  0  0  0  0  0  0
  -11.6940    4.1950  -75.5020 C   0  0  0  0  0  0  0  0  0  0  0  0
  -11.1550    4.8950  -77.7330 C   0  0  0  0  0  0  0  0  0  0  0  0
   -9.3050    3.8790  -78.8820 O   0  0  0  0  0  0  0  0  0  0  0  0
   -8.3390    1.9770  -81.3170 C   0  0  0  0  0  0  0  0  0  0  0  0
   -8.1020    0.0550  -79.8790 C   0  0  0  0  0  0  0  0  0  0  0  0
  -11.9580    4.9980  -76.5990 C   0  0  0  0  0  0  0  0  0  0  0  0
   -7.9340    4.0310  -78.7760 C   0  0  0  0  0  0  0  0  0  0  0  0
   -9.2700    1.2860  -82.0660 C   0  0  0  0  0  0  0  0  0  0  0  0
   -9.0440   -0.6300  -80.6400 C   0  0  0  0  0  0  0  0  0  0  0  0
   -7.3550    3.9840  -77.4930 C   0  0  0  0  0  0  0  0  0  0  0  0
   -7.1090    4.2370  -79.8880 C   0  0  0  0  0  0  0  0  0  0  0  0
   -9.6250   -0.0130  -81.7300 C   0  0  0  0  0  0  0  0  0  0  0  0
   -9.4940   -2.2430  -80.2390 Cl  0  0  0  0  0  0  0  0  0  0  0  0
   -5.9700    4.1530  -77.3410 C   0  0  0  0  0  0  0  0  0  0  0  0
   -5.7230    4.4080  -79.7300 C   0  0  0  0  0  0  0  0  0  0  0  0
   -5.1590    4.3650  -78.4540 C   0  0  0  0  0  0  0  0  0  0  0  0
  1  2  2  0
  2  3  1  0
  2  4  1  0
  5  3  1  0
  4  6  1  0
  5  7  2  0
  5  8  2  0
  5  9  1  0
  6 10  2  0
  6 11  1  0
  9 12  1  0
 10 13  1  0
 11 14  2  0
 11 15  1  0
 12 16  2  0
 12 17  1  0
 13 18  2  0
 14 18  1  0
 15 19  1  0
 16 20  1  0
 17 21  2  0
 19 22  2  0
 19 23  1  0
 20 24  2  0
 21 24  1  0
 21 25  1  0
 22 26  1  0
 23 27  2  0
 26 28  2  0
 27 28  1  0
M  END
>  <ref_url>  (475) 
https://fakepage.com

>  <submitter_name>  (475) 
Steph Wills

>  <submitter_email>  (475) 
stephanie.wills@dtc.ox.ac.uk

>  <submitter_institution>  (475) 
University of Oxford

>  <generation_date>  (475) 
2020-06-04

>  <method>  (475) 
Fragment network

>  <ref_mols>  (475) 
x0438_0B,x0212_0B

>  <ref_pdb>  (475) 
references/x0438-0B-x0212-0B-131251.holo_minimised_nolig.pdb

>  <original SMILES>  (475) 
O=C(CS(=O)(=O)Cc1cccc(Cl)c1)Nc1ccccc1Oc1ccccc1

>  <synthon>  (475) 
[Xe]c1ccccc1

>  <original_name>  (475) 
x0438-0B-x0212-0B-131251

>  <comRMSD_score>  (475) 
0.7865500421142955

>  <IF_score>  (475) 
0.9545454545454546

>  <SuCOS_score>  (475) 
0.5689232947327485

>  <compound_ID>  (475) 
REAL:Z339517766

$$$$

     RDKit          3D

 34 37  0  0  0  0  0  0  0  0999 V2000
   -6.7010    0.5680  -76.9890 C   0  0  0  0  0  0  0  0  0  0  0  0
   -8.0710    1.2050  -77.0090 C   0  0  1  0  0  0  0  0  0  0  0  0
   -9.2470    0.4630  -76.3860 C   0  0  0  0  0  0  0  0  0  0  0  0
   -7.9890    2.6790  -76.8480 N   0  0  0  0  0  0  0  0  0  0  0  0
   -9.3680    0.4350  -75.1550 O   0  0  0  0  0  0  0  0  0  0  0  0
  -10.1530   -0.1860  -77.1710 N   0  0  0  0  0  0  0  0  0  0  0  0
   -9.2580    3.3750  -76.6920 C   0  0  0  0  0  0  0  0  0  0  0  0
   -6.5640    3.4270  -77.4370 S   0  0  0  0  0  0  0  0  0  0  0  0
  -10.4160    0.5620  -78.3810 C   0  0  0  0  0  0  0  0  0  0  0  0
  -10.1940   -1.6370  -77.4740 C   0  0  0  0  0  0  0  0  0  0  0  0
   -9.6740    4.3200  -77.6400 C   0  0  0  0  0  0  0  0  0  0  0  0
  -10.0850    3.1210  -75.6010 C   0  0  0  0  0  0  0  0  0  0  0  0
   -6.0580    4.5740  -76.1600 C   0  0  0  0  0  0  0  0  0  0  0  0
   -5.5040    2.4420  -77.5410 O   0  0  0  0  0  0  0  0  0  0  0  0
   -6.9240    4.1510  -78.6290 O   0  0  0  0  0  0  0  0  0  0  0  0
  -11.4460   -0.1870  -79.2280 C   0  0  0  0  0  0  0  0  0  0  0  0
   -9.9250   -2.0050  -78.9750 C   0  0  0  0  0  0  0  0  0  0  0  0
  -10.8830    5.0000  -77.4610 C   0  0  0  0  0  0  0  0  0  0  0  0
  -11.2920    3.7940  -75.4290 C   0  0  0  0  0  0  0  0  0  0  0  0
  -10.4970   -1.0240  -79.9290 N   0  0  0  0  0  0  0  0  0  0  0  0
  -11.6900    4.7370  -76.3540 C   0  0  0  0  0  0  0  0  0  0  0  0
   -9.6280   -0.0990  -80.4520 C   0  0  0  0  0  0  0  0  0  0  0  0
  -12.8900    5.3670  -76.1210 O   0  0  0  0  0  0  0  0  0  0  0  0
   -9.9730    0.6480  -81.5720 C   0  0  0  0  0  0  0  0  0  0  0  0
   -8.3770    0.1790  -79.8720 C   0  0  0  0  0  0  0  0  0  0  0  0
  -12.7790    6.6520  -75.6480 C   0  0  0  0  0  0  0  0  0  0  0  0
   -9.1420    1.6300  -82.0880 C   0  0  0  0  0  0  0  0  0  0  0  0
   -7.5390    1.1680  -80.3880 C   0  0  0  0  0  0  0  0  0  0  0  0
  -12.2580    7.6430  -76.4580 C   0  0  0  0  0  0  0  0  0  0  0  0
  -13.1860    6.9450  -74.3490 C   0  0  0  0  0  0  0  0  0  0  0  0
   -7.9300    1.8950  -81.4960 C   0  0  0  0  0  0  0  0  0  0  0  0
  -12.1300    8.9490  -75.9870 C   0  0  0  0  0  0  0  0  0  0  0  0
  -13.0610    8.2530  -73.8710 C   0  0  0  0  0  0  0  0  0  0  0  0
  -12.5320    9.2530  -74.6890 C   0  0  0  0  0  0  0  0  0  0  0  0
  2  1  1  1
  2  3  1  0
  2  4  1  0
  3  5  2  0
  3  6  1  0
  4  7  1  0
  8  4  1  0
  6  9  1  0
  6 10  1  0
  7 11  2  0
  7 12  1  0
  8 13  1  0
  8 14  2  0
  8 15  2  0
  9 16  1  0
 10 17  1  0
 11 18  1  0
 12 19  2  0
 16 20  1  0
 17 20  1  0
 18 21  2  0
 19 21  1  0
 20 22  1  0
 21 23  1  0
 22 24  2  0
 22 25  1  0
 23 26  1  0
 24 27  1  0
 25 28  2  0
 26 29  2  0
 26 30  1  0
 27 31  2  0
 28 31  1  0
 29 32  1  0
 30 33  2  0
 32 34  2  0
 33 34  1  0
M  END
>  <ref_url>  (476) 
https://fakepage.com

>  <submitter_name>  (476) 
Steph Wills

>  <submitter_email>  (476) 
stephanie.wills@dtc.ox.ac.uk

>  <submitter_institution>  (476) 
University of Oxford

>  <generation_date>  (476) 
2020-06-04

>  <method>  (476) 
Fragment network

>  <ref_mols>  (476) 
x0438_0B,x0212_0B

>  <ref_pdb>  (476) 
references/x0438-0B-x0212-0B-134274.holo_minimised_nolig.pdb

>  <original SMILES>  (476) 
CC(C(=O)N1CCN(c2ccccc2)CC1)N(c1ccc(Oc2ccccc2)cc1)S(C)(=O)=O

>  <synthon>  (476) 
[Xe]c1ccccc1

>  <original_name>  (476) 
x0438-0B-x0212-0B-134274

>  <comRMSD_score>  (476) 
0.9198539456076712

>  <IF_score>  (476) 
0.6666666666666666

>  <SuCOS_score>  (476) 
0.4571955546861641

>  <compound_ID>  (476) 
MOLPORT:002-339-416

$$$$

     RDKit          3D

 25 27  0  0  0  0  0  0  0  0999 V2000
  -12.6960    6.6810  -74.2620 C   0  0  0  0  0  0  0  0  0  0  0  0
  -12.8290    5.2970  -74.5890 O   0  0  0  0  0  0  0  0  0  0  0  0
  -12.0800    4.9070  -75.6580 C   0  0  0  0  0  0  0  0  0  0  0  0
  -12.4070    5.5460  -76.8400 C   0  0  0  0  0  0  0  0  0  0  0  0
  -11.0520    3.9700  -75.6490 C   0  0  0  0  0  0  0  0  0  0  0  0
  -11.7270    5.2680  -77.9880 C   0  0  0  0  0  0  0  0  0  0  0  0
  -10.3520    3.6930  -76.8190 C   0  0  0  0  0  0  0  0  0  0  0  0
  -10.6950    4.3490  -77.9840 C   0  0  0  0  0  0  0  0  0  0  0  0
   -9.3530    2.7890  -76.7250 O   0  0  0  0  0  0  0  0  0  0  0  0
   -8.1650    3.2750  -77.3440 C   0  0  0  0  0  0  0  0  0  0  0  0
   -7.1680    2.1850  -77.7290 C   0  0  0  0  0  0  0  0  0  0  0  0
   -6.9770    2.1270  -79.1430 O   0  0  0  0  0  0  0  0  0  0  0  0
   -7.8410    1.3570  -79.8560 C   0  0  0  0  0  0  0  0  0  0  0  0
   -8.2550    1.8930  -81.0820 C   0  0  0  0  0  0  0  0  0  0  0  0
   -8.3150    0.1180  -79.4480 C   0  0  0  0  0  0  0  0  0  0  0  0
   -9.1370    1.1840  -81.8870 C   0  0  0  0  0  0  0  0  0  0  0  0
   -9.2000   -0.5920  -80.2560 C   0  0  0  0  0  0  0  0  0  0  0  0
   -9.6100   -0.0610  -81.4720 C   0  0  0  0  0  0  0  0  0  0  0  0
   -9.6990   -1.8260  -79.8980 O   0  0  0  0  0  0  0  0  0  0  0  0
   -9.0100   -2.5240  -78.9260 C   0  0  0  0  0  0  0  0  0  0  0  0
   -9.7600   -3.1110  -77.9030 C   0  0  0  0  0  0  0  0  0  0  0  0
   -7.6180   -2.6570  -78.9380 C   0  0  0  0  0  0  0  0  0  0  0  0
   -9.1180   -3.8310  -76.8940 C   0  0  0  0  0  0  0  0  0  0  0  0
   -6.9800   -3.3800  -77.9250 C   0  0  0  0  0  0  0  0  0  0  0  0
   -7.7300   -3.9670  -76.9050 C   0  0  0  0  0  0  0  0  0  0  0  0
  1  2  1  0
  2  3  1  0
  3  4  2  0
  3  5  1  0
  4  6  1  0
  5  7  2  0
  6  8  2  0
  7  8  1  0
  7  9  1  0
  9 10  1  0
 10 11  1  0
 11 12  1  0
 12 13  1  0
 13 14  2  0
 13 15  1  0
 14 16  1  0
 15 17  2  0
 16 18  2  0
 17 18  1  0
 17 19  1  0
 19 20  1  0
 20 21  2  0
 20 22  1  0
 21 23  1  0
 22 24  2  0
 23 25  2  0
 24 25  1  0
M  END
>  <ref_url>  (477) 
https://fakepage.com

>  <submitter_name>  (477) 
Steph Wills

>  <submitter_email>  (477) 
stephanie.wills@dtc.ox.ac.uk

>  <submitter_institution>  (477) 
University of Oxford

>  <generation_date>  (477) 
2020-06-04

>  <method>  (477) 
Fragment network

>  <ref_mols>  (477) 
x0438_0B,x0212_0B

>  <ref_pdb>  (477) 
references/x0438-0B-x0212-0B-143410.holo_minimised_nolig.pdb

>  <original SMILES>  (477) 
COc1cccc(OCCOc2cccc(Oc3ccccc3)c2)c1

>  <synthon>  (477) 
[Xe]c1ccccc1

>  <original_name>  (477) 
x0438-0B-x0212-0B-143410

>  <comRMSD_score>  (477) 
0.8635871923029418

>  <IF_score>  (477) 
0.6

>  <SuCOS_score>  (477) 
0.3981781355276855

>  <compound_ID>  (477) 
MOLPORT:002-204-712

$$$$

     RDKit          3D

 31 33  0  0  0  0  0  0  0  0999 V2000
   -6.3230    1.3860  -78.2290 C   0  0  0  0  0  0  0  0  0  0  0  0
   -7.2080    0.4100  -77.4640 C   0  0  2  0  0  0  0  0  0  0  0  0
   -7.4600   -0.7640  -78.3030 O   0  0  0  0  0  0  0  0  0  0  0  0
   -8.5340    1.0920  -76.9850 C   0  0  0  0  0  0  0  0  0  0  0  0
   -7.3140   -0.6240  -79.6740 C   0  0  0  0  0  0  0  0  0  0  0  0
   -9.4310    0.3980  -76.5120 O   0  0  0  0  0  0  0  0  0  0  0  0
   -8.6210    2.4870  -77.1330 N   0  0  0  0  0  0  0  0  0  0  0  0
   -6.8850    0.4160  -80.1970 O   0  0  0  0  0  0  0  0  0  0  0  0
   -7.7860   -1.9480  -80.4020 C   0  0  0  0  0  0  0  0  0  0  0  0
   -9.7570    3.2890  -76.8350 C   0  0  0  0  0  0  0  0  0  0  0  0
   -8.7540   -1.5890  -81.4010 O   0  0  0  0  0  0  0  0  0  0  0  0
  -10.2080    4.2320  -77.7860 C   0  0  0  0  0  0  0  0  0  0  0  0
  -10.4600    3.1880  -75.6380 C   0  0  0  0  0  0  0  0  0  0  0  0
   -8.6650   -0.2940  -81.2210 C   0  0  0  0  0  0  0  0  0  0  0  0
  -11.3230    5.0400  -77.5360 C   0  0  0  0  0  0  0  0  0  0  0  0
  -11.5730    3.9970  -75.3850 C   0  0  0  0  0  0  0  0  0  0  0  0
   -8.2800    0.7200  -82.0820 C   0  0  0  0  0  0  0  0  0  0  0  0
   -8.9930   -0.0580  -79.9090 C   0  0  0  0  0  0  0  0  0  0  0  0
  -12.0060    4.9210  -76.3250 C   0  0  0  0  0  0  0  0  0  0  0  0
   -8.1940    1.9980  -81.5650 C   0  0  0  0  0  0  0  0  0  0  0  0
   -8.9030    1.2040  -79.4070 C   0  0  0  0  0  0  0  0  0  0  0  0
  -13.1070    5.6770  -75.9860 O   0  0  0  0  0  0  0  0  0  0  0  0
   -8.4880    2.2170  -80.2380 C   0  0  0  0  0  0  0  0  0  0  0  0
  -12.8500    6.9540  -75.5420 C   0  0  0  0  0  0  0  0  0  0  0  0
   -8.3470    3.5110  -79.7370 C   0  0  0  0  0  0  0  0  0  0  0  0
  -12.2370    7.7950  -76.4490 C   0  0  0  0  0  0  0  0  0  0  0  0
  -13.1650    7.4210  -74.2630 C   0  0  0  0  0  0  0  0  0  0  0  0
   -8.2140    4.5600  -79.3500 N   0  0  0  0  0  0  0  0  0  0  0  0
  -11.9260    9.1110  -76.1080 C   0  0  0  0  0  0  0  0  0  0  0  0
  -12.8550    8.7380  -73.9170 C   0  0  0  0  0  0  0  0  0  0  0  0
  -12.2370    9.5830  -74.8360 C   0  0  0  0  0  0  0  0  0  0  0  0
  2  1  1  6
  2  3  1  0
  2  4  1  0
  3  5  1  0
  4  6  2  0
  4  7  1  0
  5  8  2  0
  5  9  1  0
  7 10  1  0
  9 11  1  0
 10 12  2  0
 10 13  1  0
 11 14  1  0
 12 15  1  0
 13 16  2  0
 14 17  2  0
 14 18  1  0
 15 19  2  0
 16 19  1  0
 17 20  1  0
 18 21  2  0
 19 22  1  0
 20 23  2  0
 21 23  1  0
 22 24  1  0
 23 25  1  0
 24 26  2  0
 24 27  1  0
 25 28  3  0
 26 29  1  0
 27 30  2  0
 29 31  2  0
 30 31  1  0
M  END
>  <ref_url>  (478) 
https://fakepage.com

>  <submitter_name>  (478) 
Steph Wills

>  <submitter_email>  (478) 
stephanie.wills@dtc.ox.ac.uk

>  <submitter_institution>  (478) 
University of Oxford

>  <generation_date>  (478) 
2020-06-04

>  <method>  (478) 
Fragment network

>  <ref_mols>  (478) 
x0438_0B,x0212_0B

>  <ref_pdb>  (478) 
references/x0438-0B-x0212-0B-145011.holo_minimised_nolig.pdb

>  <original SMILES>  (478) 
CC(OC(=O)COc1ccc(C#N)cc1)C(=O)Nc1ccc(Oc2ccccc2)cc1

>  <synthon>  (478) 
[Xe]c1ccccc1

>  <original_name>  (478) 
x0438-0B-x0212-0B-145011

>  <comRMSD_score>  (478) 
0.8779857095932708

>  <IF_score>  (478) 
0.6333333333333333

>  <SuCOS_score>  (478) 
0.5430279089913447

>  <compound_ID>  (478) 
MOLPORT:005-859-943

$$$$

     RDKit          3D

 17 18  0  0  0  0  0  0  0  0999 V2000
  -13.3910    6.1020  -76.6260 O   0  0  0  0  0  0  0  0  0  0  0  0
  -12.3940    5.1860  -76.4930 C   0  0  0  0  0  0  0  0  0  0  0  0
  -12.3420    4.3600  -75.3810 C   0  0  0  0  0  0  0  0  0  0  0  0
  -11.4410    5.1030  -77.4950 C   0  0  0  0  0  0  0  0  0  0  0  0
  -11.3240    3.4310  -75.2470 C   0  0  0  0  0  0  0  0  0  0  0  0
  -10.4240    4.1710  -77.3570 C   0  0  0  0  0  0  0  0  0  0  0  0
  -10.3700    3.3440  -76.2360 C   0  0  0  0  0  0  0  0  0  0  0  0
   -9.1430    3.9500  -78.5390 S   0  0  0  0  0  0  0  0  0  0  0  0
   -8.4330    2.5680  -77.6130 C   0  0  0  0  0  0  0  0  0  0  0  0
   -7.0580    2.3920  -77.9150 O   0  0  0  0  0  0  0  0  0  0  0  0
   -6.8200    2.4950  -79.3110 C   0  0  0  0  0  0  0  0  0  0  0  0
   -7.8120    1.6630  -80.0830 C   0  0  0  0  0  0  0  0  0  0  0  0
   -8.2310    0.4050  -79.6190 C   0  0  0  0  0  0  0  0  0  0  0  0
   -8.3320    2.1410  -81.2910 C   0  0  0  0  0  0  0  0  0  0  0  0
   -9.1480   -0.3550  -80.3470 C   0  0  0  0  0  0  0  0  0  0  0  0
   -9.2460    1.3820  -82.0130 C   0  0  0  0  0  0  0  0  0  0  0  0
   -9.6540    0.1380  -81.5430 C   0  0  0  0  0  0  0  0  0  0  0  0
  1  2  1  0
  2  3  2  0
  2  4  1  0
  3  5  1  0
  4  6  2  0
  5  7  2  0
  6  7  1  0
  6  8  1  0
  8  9  1  0
  9 10  1  0
 10 11  1  0
 11 12  1  0
 12 13  2  0
 12 14  1  0
 13 15  1  0
 14 16  2  0
 15 17  2  0
 16 17  1  0
M  END
>  <ref_url>  (479) 
https://fakepage.com

>  <submitter_name>  (479) 
Steph Wills

>  <submitter_email>  (479) 
stephanie.wills@dtc.ox.ac.uk

>  <submitter_institution>  (479) 
University of Oxford

>  <generation_date>  (479) 
2020-06-04

>  <method>  (479) 
Fragment network

>  <ref_mols>  (479) 
x0438_0B,x0212_0B

>  <ref_pdb>  (479) 
references/x0438-0B-x0212-0B-145816.holo_minimised_nolig.pdb

>  <original SMILES>  (479) 
Oc1cccc(SCOCc2ccccc2)c1

>  <synthon>  (479) 
[Xe]c1ccccc1

>  <original_name>  (479) 
x0438-0B-x0212-0B-145816

>  <comRMSD_score>  (479) 
0.7352461514525634

>  <IF_score>  (479) 
0.85

>  <SuCOS_score>  (479) 
0.5230677490860678

>  <compound_ID>  (479) 
CHEMSPACE-BB:CSMB00013914140

$$$$

     RDKit          3D

 33 36  0  0  0  0  0  0  0  0999 V2000
   -9.5780    0.3760  -76.7090 O   0  0  0  0  0  0  0  0  0  0  0  0
   -8.6070    1.1170  -76.6370 C   0  0  0  0  0  0  0  0  0  0  0  0
   -7.1790    0.5330  -76.5670 C   0  0  0  0  0  0  0  0  0  0  0  0
   -8.6440    2.5080  -76.6040 N   0  0  0  0  0  0  0  0  0  0  0  0
   -6.2530    1.1290  -77.4780 O   0  0  0  0  0  0  0  0  0  0  0  0
   -9.7580    3.3820  -76.6930 C   0  0  0  0  0  0  0  0  0  0  0  0
   -6.5470    2.4330  -77.6990 C   0  0  0  0  0  0  0  0  0  0  0  0
  -10.0790    4.1240  -77.8360 C   0  0  0  0  0  0  0  0  0  0  0  0
  -10.5780    3.5140  -75.5600 C   0  0  0  0  0  0  0  0  0  0  0  0
   -6.4680    3.3130  -76.8560 O   0  0  0  0  0  0  0  0  0  0  0  0
   -6.9710    2.6030  -79.1260 C   0  0  0  0  0  0  0  0  0  0  0  0
  -11.1860    4.9710  -77.8420 C   0  0  0  0  0  0  0  0  0  0  0  0
  -11.6830    4.3830  -75.5840 C   0  0  0  0  0  0  0  0  0  0  0  0
   -7.8650    1.5060  -79.6650 C   0  0  0  0  0  0  0  0  0  0  0  0
  -11.9780    5.0970  -76.7240 C   0  0  0  0  0  0  0  0  0  0  0  0
  -12.5620    4.6470  -74.5560 O   0  0  0  0  0  0  0  0  0  0  0  0
   -8.6950    1.8500  -80.6930 C   0  0  0  0  0  0  0  0  0  0  0  0
   -7.9040    0.1790  -79.2070 C   0  0  0  0  0  0  0  0  0  0  0  0
  -13.0570    5.9380  -74.6640 C   0  0  0  0  0  0  0  0  0  0  0  0
   -9.5510    0.9200  -81.2770 C   0  0  0  0  0  0  0  0  0  0  0  0
   -8.7780   -0.7560  -79.7990 C   0  0  0  0  0  0  0  0  0  0  0  0
  -12.2690    6.9620  -74.1350 C   0  0  0  0  0  0  0  0  0  0  0  0
  -14.2820    6.2380  -75.2750 C   0  0  0  0  0  0  0  0  0  0  0  0
   -9.6160   -0.3890  -80.8510 C   0  0  0  0  0  0  0  0  0  0  0  0
  -12.6970    8.2880  -74.2170 C   0  0  0  0  0  0  0  0  0  0  0  0
  -14.7080    7.5670  -75.3520 C   0  0  0  0  0  0  0  0  0  0  0  0
  -10.5440   -1.3110  -81.5110 C   0  0  0  0  0  0  0  0  0  0  0  0
  -13.9160    8.5890  -74.8250 C   0  0  0  0  0  0  0  0  0  0  0  0
  -11.1430   -0.9410  -82.7220 C   0  0  0  0  0  0  0  0  0  0  0  0
  -10.8610   -2.5660  -80.9680 C   0  0  0  0  0  0  0  0  0  0  0  0
  -12.0310   -1.7900  -83.3780 C   0  0  0  0  0  0  0  0  0  0  0  0
  -11.7520   -3.4210  -81.6230 C   0  0  0  0  0  0  0  0  0  0  0  0
  -12.3360   -3.0320  -82.8270 C   0  0  0  0  0  0  0  0  0  0  0  0
  1  2  2  0
  2  3  1  0
  2  4  1  0
  3  5  1  0
  4  6  1  0
  5  7  1  0
  6  8  2  0
  6  9  1  0
  7 10  2  0
  7 11  1  0
  8 12  1  0
  9 13  2  0
 11 14  1  0
 12 15  2  0
 13 15  1  0
 13 16  1  0
 14 17  2  0
 14 18  1  0
 16 19  1  0
 17 20  1  0
 18 21  2  0
 19 22  2  0
 19 23  1  0
 20 24  2  0
 21 24  1  0
 22 25  1  0
 23 26  2  0
 24 27  1  0
 25 28  2  0
 26 28  1  0
 27 29  2  0
 27 30  1  0
 29 31  1  0
 30 32  2  0
 31 33  2  0
 32 33  1  0
M  END
>  <ref_url>  (480) 
https://fakepage.com

>  <submitter_name>  (480) 
Steph Wills

>  <submitter_email>  (480) 
stephanie.wills@dtc.ox.ac.uk

>  <submitter_institution>  (480) 
University of Oxford

>  <generation_date>  (480) 
2020-06-04

>  <method>  (480) 
Fragment network

>  <ref_mols>  (480) 
x0438_0B,x0212_0B

>  <ref_pdb>  (480) 
references/x0438-0B-x0212-0B-159401.holo_minimised_nolig.pdb

>  <original SMILES>  (480) 
O=C(COC(=O)Cc1ccc(-c2ccccc2)cc1)Nc1cccc(Oc2ccccc2)c1

>  <synthon>  (480) 
[Xe]c1ccccc1

>  <original_name>  (480) 
x0438-0B-x0212-0B-159401

>  <comRMSD_score>  (480) 
0.736512771443918

>  <IF_score>  (480) 
0.7375

>  <SuCOS_score>  (480) 
0.5242735432497312

>  <compound_ID>  (480) 
MOLPORT:005-885-713

$$$$

     RDKit          3D

 21 22  0  0  0  0  0  0  0  0999 V2000
   -8.0170    3.6080  -77.2760 C   0  0  0  0  0  0  0  0  0  0  0  0
   -7.5690    2.3400  -77.5680 N   0  0  0  0  0  0  0  0  0  0  0  0
   -6.9420    2.2850  -78.9110 C   0  0  0  0  0  0  0  0  0  0  0  0
   -8.6200    1.1380  -77.0370 S   0  0  0  0  0  0  0  0  0  0  0  0
   -7.6710    1.5190  -79.8020 C   0  0  0  0  0  0  0  0  0  0  0  0
   -8.3230   -0.1490  -77.6190 O   0  0  0  0  0  0  0  0  0  0  0  0
   -8.7760    1.2830  -75.6080 O   0  0  0  0  0  0  0  0  0  0  0  0
  -10.0220    1.6660  -77.7740 N   0  0  0  0  0  0  0  0  0  0  0  0
   -7.9120    0.1900  -79.4760 C   0  0  0  0  0  0  0  0  0  0  0  0
   -8.1740    2.0430  -81.0170 C   0  0  0  0  0  0  0  0  0  0  0  0
  -10.8230    0.6870  -78.4010 C   0  0  0  0  0  0  0  0  0  0  0  0
  -10.6680    2.8280  -77.2680 C   0  0  0  0  0  0  0  0  0  0  0  0
   -8.7190   -0.7270  -80.3860 C   0  0  0  0  0  0  0  0  0  0  0  0
   -8.9110    1.2370  -81.8760 C   0  0  0  0  0  0  0  0  0  0  0  0
  -11.2170    2.8030  -75.9930 C   0  0  0  0  0  0  0  0  0  0  0  0
  -10.7720    4.0000  -78.0340 C   0  0  0  0  0  0  0  0  0  0  0  0
   -9.2460   -0.1020  -81.6900 C   0  0  0  0  0  0  0  0  0  0  0  0
  -11.9280    4.0430  -75.4790 C   0  0  0  0  0  0  0  0  0  0  0  0
  -11.4260    5.1340  -77.5670 C   0  0  0  0  0  0  0  0  0  0  0  0
  -12.0050    5.1570  -76.3020 C   0  0  0  0  0  0  0  0  0  0  0  0
  -12.6410    6.2930  -75.8990 O   0  0  0  0  0  0  0  0  0  0  0  0
  1  2  1  0
  2  3  1  0
  4  2  1  0
  3  5  1  0
  4  6  2  0
  4  7  2  0
  4  8  1  0
  5  9  2  0
  5 10  1  0
  8 11  1  0
  8 12  1  0
  9 13  1  0
 10 14  2  0
 12 15  2  0
 12 16  1  0
 13 17  2  0
 14 17  1  0
 15 18  1  0
 16 19  2  0
 18 20  2  0
 19 20  1  0
 20 21  1  0
M  END
>  <ref_url>  (481) 
https://fakepage.com

>  <submitter_name>  (481) 
Steph Wills

>  <submitter_email>  (481) 
stephanie.wills@dtc.ox.ac.uk

>  <submitter_institution>  (481) 
University of Oxford

>  <generation_date>  (481) 
2020-06-04

>  <method>  (481) 
Fragment network

>  <ref_mols>  (481) 
x0438_0B,x0212_0B

>  <ref_pdb>  (481) 
references/x0438-0B-x0212-0B-166666.holo_minimised_nolig.pdb

>  <original SMILES>  (481) 
CN(Cc1ccccc1)S(=O)(=O)N(C)c1ccc(O)cc1

>  <synthon>  (481) 
[Xe]c1ccccc1

>  <original_name>  (481) 
x0438-0B-x0212-0B-166666

>  <comRMSD_score>  (481) 
0.827362450803757

>  <IF_score>  (481) 
0.3541666666666666

>  <SuCOS_score>  (481) 
0.5138127490905379

>  <compound_ID>  (481) 
CHEMSPACE-BB:CSMB00117448144

$$$$

     RDKit          3D

 29 31  0  0  0  0  0  0  0  0999 V2000
   -6.1710    0.7430  -77.2250 C   0  0  0  0  0  0  0  0  0  0  0  0
   -7.5860    0.4020  -77.6490 C   0  0  1  0  0  0  0  0  0  0  0  0
   -7.8300   -1.0700  -77.5410 N   0  0  0  0  0  0  0  0  0  0  0  0
   -8.6160    1.1510  -76.8090 C   0  0  0  0  0  0  0  0  0  0  0  0
   -8.5280   -1.8350  -78.8810 S   0  0  0  0  0  0  0  0  0  0  0  0
   -9.3730    0.5120  -76.0880 O   0  0  0  0  0  0  0  0  0  0  0  0
   -8.6230    2.5290  -76.9650 N   0  0  0  0  0  0  0  0  0  0  0  0
   -7.5530   -2.7610  -79.4150 O   0  0  0  0  0  0  0  0  0  0  0  0
   -9.8730   -2.2400  -78.5250 O   0  0  0  0  0  0  0  0  0  0  0  0
   -8.6180   -0.4430  -79.9660 C   0  0  0  0  0  0  0  0  0  0  0  0
   -9.7560    3.3360  -76.7730 C   0  0  0  0  0  0  0  0  0  0  0  0
   -7.7060    0.5740  -79.7020 C   0  0  0  0  0  0  0  0  0  0  0  0
   -9.5290   -0.3410  -81.0150 C   0  0  0  0  0  0  0  0  0  0  0  0
  -10.1170    4.2490  -77.7780 C   0  0  0  0  0  0  0  0  0  0  0  0
  -10.5370    3.2580  -75.6250 C   0  0  0  0  0  0  0  0  0  0  0  0
   -7.6930    1.7140  -80.4680 C   0  0  0  0  0  0  0  0  0  0  0  0
   -9.5010    0.8200  -81.7840 C   0  0  0  0  0  0  0  0  0  0  0  0
  -11.2430    5.0580  -77.6180 C   0  0  0  0  0  0  0  0  0  0  0  0
  -11.6580    4.0650  -75.4630 C   0  0  0  0  0  0  0  0  0  0  0  0
   -8.5890    1.8240  -81.4970 C   0  0  0  0  0  0  0  0  0  0  0  0
  -12.0120    4.9660  -76.4610 C   0  0  0  0  0  0  0  0  0  0  0  0
   -8.5740    2.9200  -82.2210 F   0  0  0  0  0  0  0  0  0  0  0  0
  -13.1040    5.7870  -76.3710 O   0  0  0  0  0  0  0  0  0  0  0  0
  -14.1290    5.4060  -77.1950 C   0  0  0  0  0  0  0  0  0  0  0  0
  -13.8610    5.4280  -78.5550 C   0  0  0  0  0  0  0  0  0  0  0  0
  -15.3780    5.0070  -76.7260 C   0  0  0  0  0  0  0  0  0  0  0  0
  -14.8420    5.0450  -79.4590 C   0  0  0  0  0  0  0  0  0  0  0  0
  -16.3620    4.6240  -77.6390 C   0  0  0  0  0  0  0  0  0  0  0  0
  -16.0900    4.6430  -79.0080 C   0  0  0  0  0  0  0  0  0  0  0  0
  2  1  1  1
  2  3  1  0
  2  4  1  0
  5  3  1  0
  4  6  2  0
  4  7  1  0
  5  8  2  0
  5  9  2  0
  5 10  1  0
  7 11  1  0
 10 12  2  0
 10 13  1  0
 11 14  2  0
 11 15  1  0
 12 16  1  0
 13 17  2  0
 14 18  1  0
 15 19  2  0
 16 20  2  0
 17 20  1  0
 18 21  2  0
 19 21  1  0
 20 22  1  0
 21 23  1  0
 23 24  1  0
 24 25  2  0
 24 26  1  0
 25 27  1  0
 26 28  2  0
 27 29  2  0
 28 29  1  0
M  END
>  <ref_url>  (482) 
https://fakepage.com

>  <submitter_name>  (482) 
Steph Wills

>  <submitter_email>  (482) 
stephanie.wills@dtc.ox.ac.uk

>  <submitter_institution>  (482) 
University of Oxford

>  <generation_date>  (482) 
2020-06-04

>  <method>  (482) 
Fragment network

>  <ref_mols>  (482) 
x0438_0B,x0212_0B

>  <ref_pdb>  (482) 
references/x0438-0B-x0212-0B-175033.holo_minimised_nolig.pdb

>  <original SMILES>  (482) 
CC(NS(=O)(=O)c1ccc(F)cc1)C(=O)Nc1ccc(Oc2ccccc2)cc1

>  <synthon>  (482) 
[Xe]c1ccccc1

>  <original_name>  (482) 
x0438-0B-x0212-0B-175033

>  <comRMSD_score>  (482) 
0.6761429443912

>  <IF_score>  (482) 
0.6888888888888889

>  <SuCOS_score>  (482) 
0.5292100270905816

>  <compound_ID>  (482) 
MOLPORT:002-283-332

$$$$

     RDKit          3D

 17 18  0  0  0  0  0  0  0  0999 V2000
  -13.3800    5.5380  -75.6060 O   0  0  0  0  0  0  0  0  0  0  0  0
  -12.3160    5.0000  -76.2620 C   0  0  0  0  0  0  0  0  0  0  0  0
  -12.0440    5.4880  -77.5290 C   0  0  0  0  0  0  0  0  0  0  0  0
  -11.5270    4.0040  -75.6940 C   0  0  0  0  0  0  0  0  0  0  0  0
  -10.9730    4.9760  -78.2340 C   0  0  0  0  0  0  0  0  0  0  0  0
  -10.4530    3.5140  -76.4410 C   0  0  0  0  0  0  0  0  0  0  0  0
  -10.1950    4.0060  -77.6980 C   0  0  0  0  0  0  0  0  0  0  0  0
   -9.3650    2.2700  -75.8590 S   0  0  0  0  0  0  0  0  0  0  0  0
   -7.9680    3.0210  -76.7710 C   0  0  0  0  0  0  0  0  0  0  0  0
   -7.0290    1.9710  -77.3380 C   0  0  0  0  0  0  0  0  0  0  0  0
   -6.4970    2.4030  -79.0390 S   0  0  0  0  0  0  0  0  0  0  0  0
   -7.7120    1.5350  -80.0160 C   0  0  0  0  0  0  0  0  0  0  0  0
   -8.2030    2.0650  -81.2120 C   0  0  0  0  0  0  0  0  0  0  0  0
   -8.1830    0.2920  -79.5740 C   0  0  0  0  0  0  0  0  0  0  0  0
   -9.1470    1.3600  -81.9500 C   0  0  0  0  0  0  0  0  0  0  0  0
   -9.1290   -0.4110  -80.3170 C   0  0  0  0  0  0  0  0  0  0  0  0
   -9.6100    0.1230  -81.5030 C   0  0  0  0  0  0  0  0  0  0  0  0
  1  2  1  0
  2  3  2  0
  2  4  1  0
  3  5  1  0
  4  6  2  0
  5  7  2  0
  6  7  1  0
  6  8  1  0
  8  9  1  0
  9 10  1  0
 10 11  1  0
 11 12  1  0
 12 13  2  0
 12 14  1  0
 13 15  1  0
 14 16  2  0
 15 17  2  0
 16 17  1  0
M  END
>  <ref_url>  (483) 
https://fakepage.com

>  <submitter_name>  (483) 
Steph Wills

>  <submitter_email>  (483) 
stephanie.wills@dtc.ox.ac.uk

>  <submitter_institution>  (483) 
University of Oxford

>  <generation_date>  (483) 
2020-06-04

>  <method>  (483) 
Fragment network

>  <ref_mols>  (483) 
x0438_0B,x0212_0B

>  <ref_pdb>  (483) 
references/x0438-0B-x0212-0B-176094.holo_minimised_nolig.pdb

>  <original SMILES>  (483) 
Oc1cccc(SCCSc2ccccc2)c1

>  <synthon>  (483) 
[Xe]c1ccccc1

>  <original_name>  (483) 
x0438-0B-x0212-0B-176094

>  <comRMSD_score>  (483) 
0.8056848819682909

>  <IF_score>  (483) 
0.85

>  <SuCOS_score>  (483) 
0.522898267031698

>  <compound_ID>  (483) 
CHEMSPACE-BB:CSMB00008794814

$$$$

     RDKit          3D

 27 29  0  0  0  0  0  0  0  0999 V2000
   -6.8230   -0.3370  -76.5210 O   0  0  0  0  0  0  0  0  0  0  0  0
   -7.1540    0.6770  -77.1150 C   0  0  0  0  0  0  0  0  0  0  0  0
   -8.5190    1.3310  -76.8460 C   0  0  0  0  0  0  0  0  0  0  0  0
   -6.3940    1.3300  -78.0840 N   0  0  0  0  0  0  0  0  0  0  0  0
   -8.4980    2.7760  -77.1500 N   0  0  0  0  0  0  0  0  0  0  0  0
   -6.5660    2.6440  -78.3750 N   0  0  0  0  0  0  0  0  0  0  0  0
   -9.6670    3.5060  -76.9020 C   0  0  0  0  0  0  0  0  0  0  0  0
   -7.4060    2.9090  -79.3280 C   0  0  0  0  0  0  0  0  0  0  0  0
  -10.4060    3.3940  -75.7240 C   0  0  0  0  0  0  0  0  0  0  0  0
  -10.1150    4.3990  -77.8810 C   0  0  0  0  0  0  0  0  0  0  0  0
   -8.1410    1.8540  -80.0650 C   0  0  0  0  0  0  0  0  0  0  0  0
  -11.5590    4.1610  -75.5230 C   0  0  0  0  0  0  0  0  0  0  0  0
  -11.2630    5.1650  -77.6910 C   0  0  0  0  0  0  0  0  0  0  0  0
   -8.3920    2.0670  -81.4140 C   0  0  0  0  0  0  0  0  0  0  0  0
   -8.5840    0.6720  -79.4490 C   0  0  0  0  0  0  0  0  0  0  0  0
  -11.9780    5.0480  -76.5100 C   0  0  0  0  0  0  0  0  0  0  0  0
   -9.0780    1.1080  -82.1440 C   0  0  0  0  0  0  0  0  0  0  0  0
   -9.2780   -0.2880  -80.1870 C   0  0  0  0  0  0  0  0  0  0  0  0
  -13.6710    6.2130  -76.2360 I   0  0  0  0  0  0  0  0  0  0  0  0
   -9.5250   -0.0700  -81.5410 C   0  0  0  0  0  0  0  0  0  0  0  0
   -9.6880   -1.4250  -79.5100 O   0  0  0  0  0  0  0  0  0  0  0  0
   -9.8990   -1.3050  -78.1490 C   0  0  0  0  0  0  0  0  0  0  0  0
  -11.1220   -0.8990  -77.6050 C   0  0  0  0  0  0  0  0  0  0  0  0
   -8.8270   -1.6080  -77.3040 C   0  0  0  0  0  0  0  0  0  0  0  0
  -11.2670   -0.7910  -76.2190 C   0  0  0  0  0  0  0  0  0  0  0  0
   -8.9760   -1.5010  -75.9180 C   0  0  0  0  0  0  0  0  0  0  0  0
  -10.1940   -1.0920  -75.3770 C   0  0  0  0  0  0  0  0  0  0  0  0
  1  2  2  0
  2  3  1  0
  2  4  1  0
  3  5  1  0
  4  6  1  0
  5  7  1  0
  6  8  2  3
  7  9  2  0
  7 10  1  0
  8 11  1  0
  9 12  1  0
 10 13  2  0
 11 14  2  0
 11 15  1  0
 12 16  2  0
 13 16  1  0
 14 17  1  0
 15 18  2  0
 16 19  1  0
 17 20  2  0
 18 20  1  0
 18 21  1  0
 21 22  1  0
 22 23  2  0
 22 24  1  0
 23 25  1  0
 24 26  2  0
 25 27  2  0
 26 27  1  0
M  END
>  <ref_url>  (484) 
https://fakepage.com

>  <submitter_name>  (484) 
Steph Wills

>  <submitter_email>  (484) 
stephanie.wills@dtc.ox.ac.uk

>  <submitter_institution>  (484) 
University of Oxford

>  <generation_date>  (484) 
2020-06-04

>  <method>  (484) 
Fragment network

>  <ref_mols>  (484) 
x0438_0B,x0212_0B

>  <ref_pdb>  (484) 
references/x0438-0B-x0212-0B-179013.holo_minimised_nolig.pdb

>  <original SMILES>  (484) 
O=C(CNc1ccc(I)cc1)NN=Cc1cccc(Oc2ccccc2)c1

>  <synthon>  (484) 
[Xe]c1ccccc1

>  <original_name>  (484) 
x0438-0B-x0212-0B-179013

>  <comRMSD_score>  (484) 
0.6423779310110205

>  <IF_score>  (484) 
0.9

>  <SuCOS_score>  (484) 
0.5342509273455115

>  <compound_ID>  (484) 
MOLPORT:002-687-557

$$$$

     RDKit          3D

 27 29  0  0  0  0  0  0  0  0999 V2000
   -6.5820    0.0130  -77.3290 O   0  0  0  0  0  0  0  0  0  0  0  0
   -7.0320    1.1410  -77.3610 C   0  0  0  0  0  0  0  0  0  0  0  0
   -8.4200    1.5020  -76.8230 C   0  0  0  0  0  0  0  0  0  0  0  0
   -6.3540    2.2270  -77.8790 N   0  0  0  0  0  0  0  0  0  0  0  0
   -8.5410    2.9620  -76.8690 N   0  0  0  0  0  0  0  0  0  0  0  0
   -7.0080    3.2930  -78.3890 N   0  0  0  0  0  0  0  0  0  0  0  0
   -9.7640    3.6150  -76.7420 C   0  0  0  0  0  0  0  0  0  0  0  0
   -7.8410    3.1840  -79.3760 C   0  0  0  0  0  0  0  0  0  0  0  0
  -10.5640    3.4690  -75.6150 C   0  0  0  0  0  0  0  0  0  0  0  0
  -10.2030    4.4520  -77.7760 C   0  0  0  0  0  0  0  0  0  0  0  0
   -8.2930    2.0190  -80.1670 C   0  0  0  0  0  0  0  0  0  0  0  0
  -11.7750    4.1500  -75.5100 C   0  0  0  0  0  0  0  0  0  0  0  0
  -11.4140    5.1350  -77.6770 C   0  0  0  0  0  0  0  0  0  0  0  0
   -8.3450    2.1700  -81.5420 C   0  0  0  0  0  0  0  0  0  0  0  0
   -8.6670    0.8040  -79.5710 C   0  0  0  0  0  0  0  0  0  0  0  0
  -12.1910    4.9840  -76.5410 C   0  0  0  0  0  0  0  0  0  0  0  0
   -8.7650    1.1200  -82.3350 C   0  0  0  0  0  0  0  0  0  0  0  0
   -9.0940   -0.2490  -80.3860 C   0  0  0  0  0  0  0  0  0  0  0  0
  -13.6790    5.8310  -76.4100 Cl  0  0  0  0  0  0  0  0  0  0  0  0
   -9.1420   -0.0860  -81.7650 C   0  0  0  0  0  0  0  0  0  0  0  0
   -9.4600   -1.4260  -79.7830 O   0  0  0  0  0  0  0  0  0  0  0  0
   -9.7240   -2.4630  -80.6450 C   0  0  0  0  0  0  0  0  0  0  0  0
  -10.9450   -3.1360  -80.6560 C   0  0  0  0  0  0  0  0  0  0  0  0
   -8.7110   -2.8260  -81.5320 C   0  0  0  0  0  0  0  0  0  0  0  0
  -11.1500   -4.1810  -81.5580 C   0  0  0  0  0  0  0  0  0  0  0  0
   -8.9190   -3.8690  -82.4340 C   0  0  0  0  0  0  0  0  0  0  0  0
  -10.1380   -4.5460  -82.4460 C   0  0  0  0  0  0  0  0  0  0  0  0
  1  2  2  0
  2  3  1  0
  2  4  1  0
  3  5  1  0
  4  6  1  0
  5  7  1  0
  6  8  2  3
  7  9  2  0
  7 10  1  0
  8 11  1  0
  9 12  1  0
 10 13  2  0
 11 14  2  0
 11 15  1  0
 12 16  2  0
 13 16  1  0
 14 17  1  0
 15 18  2  0
 16 19  1  0
 17 20  2  0
 18 20  1  0
 18 21  1  0
 21 22  1  0
 22 23  2  0
 22 24  1  0
 23 25  1  0
 24 26  2  0
 25 27  2  0
 26 27  1  0
M  END
>  <ref_url>  (485) 
https://fakepage.com

>  <submitter_name>  (485) 
Steph Wills

>  <submitter_email>  (485) 
stephanie.wills@dtc.ox.ac.uk

>  <submitter_institution>  (485) 
University of Oxford

>  <generation_date>  (485) 
2020-06-04

>  <method>  (485) 
Fragment network

>  <ref_mols>  (485) 
x0438_0B,x0212_0B

>  <ref_pdb>  (485) 
references/x0438-0B-x0212-0B-185703.holo_minimised_nolig.pdb

>  <original SMILES>  (485) 
O=C(CNc1ccc(Cl)cc1)NN=Cc1cccc(Oc2ccccc2)c1

>  <synthon>  (485) 
[Xe]c1ccccc1

>  <original_name>  (485) 
x0438-0B-x0212-0B-185703

>  <comRMSD_score>  (485) 
0.761070565880721

>  <IF_score>  (485) 
0.8333333333333333

>  <SuCOS_score>  (485) 
0.5064265031033534

>  <compound_ID>  (485) 
MOLPORT:002-692-872

$$$$

     RDKit          3D

 28 30  0  0  0  0  0  0  0  0999 V2000
   -6.4610    4.1170  -76.0480 C   0  0  0  0  0  0  0  0  0  0  0  0
   -7.3210    3.4910  -77.1430 C   0  0  0  0  0  0  0  0  0  0  0  0
   -8.5180    2.7710  -76.6910 N   0  0  0  0  0  0  0  0  0  0  0  0
   -8.4480    1.3710  -76.6470 C   0  0  0  0  0  0  0  0  0  0  0  0
   -9.7390    3.5010  -76.6660 C   0  0  0  0  0  0  0  0  0  0  0  0
   -9.4610    0.6600  -76.6750 O   0  0  0  0  0  0  0  0  0  0  0  0
   -7.0530    0.7230  -76.5470 C   0  0  0  0  0  0  0  0  0  0  0  0
  -10.5760    3.4020  -75.5560 C   0  0  0  0  0  0  0  0  0  0  0  0
  -10.1310    4.3270  -77.7290 C   0  0  0  0  0  0  0  0  0  0  0  0
   -6.3740    0.6330  -77.7980 O   0  0  0  0  0  0  0  0  0  0  0  0
  -11.7680    4.1130  -75.4940 C   0  0  0  0  0  0  0  0  0  0  0  0
  -11.3330    5.0400  -77.6660 C   0  0  0  0  0  0  0  0  0  0  0  0
   -6.0790    1.8210  -78.3610 C   0  0  0  0  0  0  0  0  0  0  0  0
  -12.1490    4.9320  -76.5450 C   0  0  0  0  0  0  0  0  0  0  0  0
   -5.0030    2.4120  -78.2370 O   0  0  0  0  0  0  0  0  0  0  0  0
   -7.2240    2.3290  -79.1760 C   0  0  0  0  0  0  0  0  0  0  0  0
   -8.1420    1.2850  -79.7350 C   0  0  0  0  0  0  0  0  0  0  0  0
   -8.8790    1.6660  -80.8060 C   0  0  0  0  0  0  0  0  0  0  0  0
   -8.2970   -0.0280  -79.2570 C   0  0  0  0  0  0  0  0  0  0  0  0
   -9.7610    0.7990  -81.4300 C   0  0  0  0  0  0  0  0  0  0  0  0
   -9.1950   -0.9030  -79.8840 C   0  0  0  0  0  0  0  0  0  0  0  0
   -9.9440   -0.4930  -80.9880 C   0  0  0  0  0  0  0  0  0  0  0  0
  -10.9080   -1.3510  -81.6860 C   0  0  0  0  0  0  0  0  0  0  0  0
  -11.5550   -2.4130  -81.0370 C   0  0  0  0  0  0  0  0  0  0  0  0
  -11.2080   -1.1130  -83.0330 C   0  0  0  0  0  0  0  0  0  0  0  0
  -12.4760   -3.2140  -81.7190 C   0  0  0  0  0  0  0  0  0  0  0  0
  -12.1270   -1.9080  -83.7200 C   0  0  0  0  0  0  0  0  0  0  0  0
  -12.7620   -2.9590  -83.0610 C   0  0  0  0  0  0  0  0  0  0  0  0
  1  2  1  0
  2  3  1  0
  3  4  1  0
  3  5  1  0
  4  6  2  0
  4  7  1  0
  5  8  2  0
  5  9  1  0
  7 10  1  0
  8 11  1  0
  9 12  2  0
 10 13  1  0
 11 14  2  0
 12 14  1  0
 13 15  2  0
 13 16  1  0
 16 17  1  0
 17 18  2  0
 17 19  1  0
 18 20  1  0
 19 21  2  0
 20 22  2  0
 21 22  1  0
 22 23  1  0
 23 24  2  0
 23 25  1  0
 24 26  1  0
 25 27  2  0
 26 28  2  0
 27 28  1  0
M  END
>  <ref_url>  (486) 
https://fakepage.com

>  <submitter_name>  (486) 
Steph Wills

>  <submitter_email>  (486) 
stephanie.wills@dtc.ox.ac.uk

>  <submitter_institution>  (486) 
University of Oxford

>  <generation_date>  (486) 
2020-06-04

>  <method>  (486) 
Fragment network

>  <ref_mols>  (486) 
x0438_0B,x0212_0B

>  <ref_pdb>  (486) 
references/x0438-0B-x0212-0B-192397.holo_minimised_nolig.pdb

>  <original SMILES>  (486) 
CCN(C(=O)COC(=O)Cc1ccc(-c2ccccc2)cc1)c1ccccc1

>  <synthon>  (486) 
[Xe]c1ccccc1

>  <original_name>  (486) 
x0438-0B-x0212-0B-192397

>  <comRMSD_score>  (486) 
0.7479750998529286

>  <IF_score>  (486) 
0.6875

>  <SuCOS_score>  (486) 
0.4963747646123446

>  <compound_ID>  (486) 
MOLPORT:005-863-453

$$$$

     RDKit          3D

 28 30  0  0  0  0  0  0  0  0999 V2000
   -9.3400    0.4560  -76.5010 O   0  0  0  0  0  0  0  0  0  0  0  0
   -8.5120    1.3000  -76.8790 C   0  0  0  0  0  0  0  0  0  0  0  0
   -7.0250    0.9960  -76.9660 C   0  0  0  0  0  0  0  0  0  0  0  0
   -8.9780    2.5370  -77.2350 N   0  0  0  0  0  0  0  0  0  0  0  0
   -6.2910    2.1760  -77.2530 O   0  0  0  0  0  0  0  0  0  0  0  0
  -10.0480    3.3480  -76.8490 C   0  0  0  0  0  0  0  0  0  0  0  0
   -6.8610    2.8570  -78.2780 C   0  0  0  0  0  0  0  0  0  0  0  0
  -10.4400    4.3280  -77.7830 C   0  0  0  0  0  0  0  0  0  0  0  0
  -10.7390    3.2670  -75.6480 C   0  0  0  0  0  0  0  0  0  0  0  0
   -7.5480    3.8560  -78.1410 O   0  0  0  0  0  0  0  0  0  0  0  0
   -6.5210    2.1800  -79.5870 C   0  0  0  0  0  0  0  0  0  0  0  0
  -11.5010    5.2020  -77.5200 C   0  0  0  0  0  0  0  0  0  0  0  0
  -11.7950    4.1390  -75.3800 C   0  0  0  0  0  0  0  0  0  0  0  0
   -7.6430    1.3390  -80.1680 C   0  0  0  0  0  0  0  0  0  0  0  0
  -12.1760    5.0970  -76.3060 C   0  0  0  0  0  0  0  0  0  0  0  0
   -8.0110    0.0930  -79.6340 C   0  0  0  0  0  0  0  0  0  0  0  0
   -8.3420    1.8040  -81.2730 C   0  0  0  0  0  0  0  0  0  0  0  0
  -13.2270    5.9170  -75.9630 O   0  0  0  0  0  0  0  0  0  0  0  0
   -9.0540   -0.6460  -80.2110 C   0  0  0  0  0  0  0  0  0  0  0  0
   -9.3690    1.0810  -81.8480 C   0  0  0  0  0  0  0  0  0  0  0  0
   -8.0220    2.9750  -81.8000 F   0  0  0  0  0  0  0  0  0  0  0  0
  -12.8930    7.1860  -75.5450 C   0  0  0  0  0  0  0  0  0  0  0  0
   -9.7290   -0.1490  -81.3170 C   0  0  0  0  0  0  0  0  0  0  0  0
  -13.3050    7.6060  -74.2820 C   0  0  0  0  0  0  0  0  0  0  0  0
  -12.1620    8.0490  -76.3460 C   0  0  0  0  0  0  0  0  0  0  0  0
  -12.9790    8.8900  -73.8370 C   0  0  0  0  0  0  0  0  0  0  0  0
  -11.8320    9.3310  -75.9110 C   0  0  0  0  0  0  0  0  0  0  0  0
  -12.2420    9.7530  -74.6490 C   0  0  0  0  0  0  0  0  0  0  0  0
  1  2  2  0
  2  3  1  0
  2  4  1  0
  3  5  1  0
  4  6  1  0
  5  7  1  0
  6  8  2  0
  6  9  1  0
  7 10  2  0
  7 11  1  0
  8 12  1  0
  9 13  2  0
 11 14  1  0
 12 15  2  0
 13 15  1  0
 14 16  2  0
 14 17  1  0
 15 18  1  0
 16 19  1  0
 17 20  2  0
 17 21  1  0
 18 22  1  0
 19 23  2  0
 20 23  1  0
 22 24  2  0
 22 25  1  0
 24 26  1  0
 25 27  2  0
 26 28  2  0
 27 28  1  0
M  END
>  <ref_url>  (487) 
https://fakepage.com

>  <submitter_name>  (487) 
Steph Wills

>  <submitter_email>  (487) 
stephanie.wills@dtc.ox.ac.uk

>  <submitter_institution>  (487) 
University of Oxford

>  <generation_date>  (487) 
2020-06-04

>  <method>  (487) 
Fragment network

>  <ref_mols>  (487) 
x0438_0B,x0212_0B

>  <ref_pdb>  (487) 
references/x0438-0B-x0212-0B-195211.holo_minimised_nolig.pdb

>  <original SMILES>  (487) 
O=C(COC(=O)Cc1ccccc1F)Nc1ccc(Oc2ccccc2)cc1

>  <synthon>  (487) 
[Xe]c1ccccc1

>  <original_name>  (487) 
x0438-0B-x0212-0B-195211

>  <comRMSD_score>  (487) 
0.5759998372395609

>  <IF_score>  (487) 
0.6333333333333333

>  <SuCOS_score>  (487) 
0.6380936666389376

>  <compound_ID>  (487) 
MOLPORT:004-027-401

$$$$

     RDKit          3D

 21 22  0  0  0  0  0  0  0  0999 V2000
   -6.5850    0.3580  -77.8390 C   0  0  0  0  0  0  0  0  0  0  0  0
   -7.4230    1.5950  -77.6900 C   0  0  2  0  0  0  0  0  0  0  0  0
   -6.8570    2.6420  -77.5030 O   0  0  0  0  0  0  0  0  0  0  0  0
   -8.5790    1.4140  -76.7100 C   0  0  0  0  0  0  0  0  0  0  0  0
   -6.8290    3.3840  -78.6160 C   0  0  0  0  0  0  0  0  0  0  0  0
   -9.1210    0.3500  -76.4350 O   0  0  0  0  0  0  0  0  0  0  0  0
   -8.8620    2.6740  -76.2310 N   0  0  0  0  0  0  0  0  0  0  0  0
   -6.5960    2.7450  -79.8400 C   0  0  0  0  0  0  0  0  0  0  0  0
  -10.0270    3.4410  -76.3800 C   0  0  0  0  0  0  0  0  0  0  0  0
   -7.6470    1.7500  -80.4050 C   0  0  0  0  0  0  0  0  0  0  0  0
  -10.1720    4.2380  -77.5280 C   0  0  0  0  0  0  0  0  0  0  0  0
  -11.0140    3.4160  -75.4000 C   0  0  0  0  0  0  0  0  0  0  0  0
   -7.8700    0.3190  -79.7950 C   0  0  0  0  0  0  0  0  0  0  0  0
   -8.4090    2.1470  -81.4850 C   0  0  0  0  0  0  0  0  0  0  0  0
  -11.3170    5.0160  -77.6690 C   0  0  0  0  0  0  0  0  0  0  0  0
  -12.1510    4.1990  -75.5550 C   0  0  0  0  0  0  0  0  0  0  0  0
   -8.9260   -0.5420  -80.4370 C   0  0  0  0  0  0  0  0  0  0  0  0
   -9.3780    1.3350  -82.0630 C   0  0  0  0  0  0  0  0  0  0  0  0
  -12.2960    4.9980  -76.6870 C   0  0  0  0  0  0  0  0  0  0  0  0
  -13.1710    4.2430  -74.6510 O   0  0  0  0  0  0  0  0  0  0  0  0
   -9.6870    0.0430  -81.6240 C   0  0  0  0  0  0  0  0  0  0  0  0
  2  1  1  1
  2  3  1  0
  2  4  1  0
  3  5  1  0
  4  6  2  0
  4  7  1  0
  5  8  1  0
  7  9  1  0
  8 10  1  0
  9 11  2  0
  9 12  1  0
 10 13  2  0
 10 14  1  0
 11 15  1  0
 12 16  2  0
 13 17  1  0
 14 18  2  0
 15 19  2  0
 16 19  1  0
 16 20  1  0
 17 21  2  0
 18 21  1  0
M  END
>  <ref_url>  (488) 
https://fakepage.com

>  <submitter_name>  (488) 
Steph Wills

>  <submitter_email>  (488) 
stephanie.wills@dtc.ox.ac.uk

>  <submitter_institution>  (488) 
University of Oxford

>  <generation_date>  (488) 
2020-06-04

>  <method>  (488) 
Fragment network

>  <ref_mols>  (488) 
x0438_0B,x0212_0B

>  <ref_pdb>  (488) 
references/x0438-0B-x0212-0B-197223.holo_minimised_nolig.pdb

>  <original SMILES>  (488) 
CC(OCCc1ccccc1)C(=O)Nc1cccc(O)c1

>  <synthon>  (488) 
[Xe]c1ccccc1

>  <original_name>  (488) 
x0438-0B-x0212-0B-197223

>  <comRMSD_score>  (488) 
0.7400885293328092

>  <IF_score>  (488) 
0.95

>  <SuCOS_score>  (488) 
0.5200203428441674

>  <compound_ID>  (488) 
REAL:Z2667933825

$$$$

     RDKit          3D

 25 26  0  0  0  0  0  0  0  0999 V2000
   -7.8910    0.0780  -76.9440 C   0  0  0  0  0  0  0  0  0  0  0  0
   -8.9520    1.0370  -77.4760 C   0  0  0  0  0  0  0  0  0  0  0  0
   -8.7320    2.3260  -76.8570 N   0  0  0  0  0  0  0  0  0  0  0  0
   -9.9070    3.1780  -76.7230 C   0  0  0  0  0  0  0  0  0  0  0  0
   -7.3620    3.1090  -77.3100 S   0  0  0  0  0  0  0  0  0  0  0  0
  -10.6420    3.0100  -75.5660 C   0  0  0  0  0  0  0  0  0  0  0  0
  -10.2890    4.1330  -77.7000 C   0  0  0  0  0  0  0  0  0  0  0  0
   -6.6240    3.4650  -76.1120 O   0  0  0  0  0  0  0  0  0  0  0  0
   -7.7710    4.1140  -78.2460 O   0  0  0  0  0  0  0  0  0  0  0  0
   -6.4690    1.8770  -78.2000 C   0  0  0  0  0  0  0  0  0  0  0  0
  -11.8850    3.8620  -75.3250 C   0  0  0  0  0  0  0  0  0  0  0  0
  -11.4300    4.9380  -77.5170 C   0  0  0  0  0  0  0  0  0  0  0  0
   -6.3280    2.0330  -79.5970 C   0  0  2  0  0  0  0  0  0  0  0  0
  -12.2740    4.8980  -76.4120 C   0  0  0  0  0  0  0  0  0  0  0  0
  -11.8040    5.7730  -78.3300 O   0  0  0  0  0  0  0  0  0  0  0  0
   -6.3630    3.3550  -80.0470 C   0  0  0  0  0  0  0  0  0  0  0  0
   -7.5070    1.3250  -80.2730 C   0  0  0  0  0  0  0  0  0  0  0  0
   -7.6300    3.9370  -80.2730 O   0  0  0  0  0  0  0  0  0  0  0  0
   -5.1360    3.9350  -80.2210 O   0  0  0  0  0  0  0  0  0  0  0  0
   -7.9620    0.0790  -79.8280 C   0  0  0  0  0  0  0  0  0  0  0  0
   -8.1470    1.9250  -81.3620 C   0  0  0  0  0  0  0  0  0  0  0  0
   -5.1560    5.3540  -80.0430 C   0  0  0  0  0  0  0  0  0  0  0  0
   -9.0340   -0.5560  -80.4540 C   0  0  0  0  0  0  0  0  0  0  0  0
   -9.2140    1.2860  -81.9840 C   0  0  0  0  0  0  0  0  0  0  0  0
   -9.6590    0.0470  -81.5320 C   0  0  0  0  0  0  0  0  0  0  0  0
  1  2  1  0
  2  3  1  0
  3  4  1  0
  5  3  1  0
  4  6  2  0
  4  7  1  0
  5  8  2  0
  5  9  2  0
  5 10  1  0
  6 11  1  0
  7 12  2  0
 13 10  1  1
 11 14  2  0
 12 14  1  0
 12 15  1  0
 13 16  1  0
 13 17  1  0
 16 18  2  0
 16 19  1  0
 17 20  2  0
 17 21  1  0
 19 22  1  0
 20 23  1  0
 21 24  2  0
 23 25  2  0
 24 25  1  0
M  END
>  <ref_url>  (489) 
https://fakepage.com

>  <submitter_name>  (489) 
Steph Wills

>  <submitter_email>  (489) 
stephanie.wills@dtc.ox.ac.uk

>  <submitter_institution>  (489) 
University of Oxford

>  <generation_date>  (489) 
2020-06-04

>  <method>  (489) 
Fragment network

>  <ref_mols>  (489) 
x0438_0B,x0212_0B

>  <ref_pdb>  (489) 
references/x0438-0B-x0212-0B-200722.holo_minimised_nolig.pdb

>  <original SMILES>  (489) 
CCN(c1cccc(O)c1)S(=O)(=O)CC(C(=O)OC)c1ccccc1

>  <synthon>  (489) 
[Xe]c1ccccc1

>  <original_name>  (489) 
x0438-0B-x0212-0B-200722

>  <comRMSD_score>  (489) 
0.7784665615811638

>  <IF_score>  (489) 
0.8888888888888888

>  <SuCOS_score>  (489) 
0.5199293485781296

>  <compound_ID>  (489) 
REAL:Z2067572087

$$$$

     RDKit          3D

 27 29  0  0  0  0  0  0  0  0999 V2000
   -6.4870    0.0400  -77.0120 O   0  0  0  0  0  0  0  0  0  0  0  0
   -7.1360    1.0760  -77.1440 C   0  0  0  0  0  0  0  0  0  0  0  0
   -8.6260    1.2560  -77.0280 C   0  0  0  0  0  0  0  0  0  0  0  0
   -6.5660    2.2750  -77.4210 N   0  0  0  0  0  0  0  0  0  0  0  0
   -8.8650    2.6670  -77.3970 N   0  0  0  0  0  0  0  0  0  0  0  0
   -5.8260    2.5220  -78.5150 N   0  0  0  0  0  0  0  0  0  0  0  0
   -9.9910    3.3350  -76.9670 C   0  0  0  0  0  0  0  0  0  0  0  0
   -6.1920    2.1820  -79.7230 C   0  0  0  0  0  0  0  0  0  0  0  0
  -10.3810    3.0990  -75.6510 C   0  0  0  0  0  0  0  0  0  0  0  0
  -10.7540    4.2060  -77.7440 C   0  0  0  0  0  0  0  0  0  0  0  0
   -7.4080    1.4720  -80.2420 C   0  0  0  0  0  0  0  0  0  0  0  0
  -11.5040    3.7070  -75.1070 C   0  0  0  0  0  0  0  0  0  0  0  0
  -11.8940    4.7930  -77.1770 C   0  0  0  0  0  0  0  0  0  0  0  0
   -8.0460    2.0450  -81.3510 C   0  0  0  0  0  0  0  0  0  0  0  0
   -7.9200    0.2700  -79.6980 C   0  0  0  0  0  0  0  0  0  0  0  0
  -12.2590    4.5570  -75.8840 C   0  0  0  0  0  0  0  0  0  0  0  0
  -13.0700    5.9360  -78.0660 Br  0  0  0  0  0  0  0  0  0  0  0  0
   -9.1510    1.4450  -81.9200 C   0  0  0  0  0  0  0  0  0  0  0  0
   -9.0600   -0.3300  -80.2930 C   0  0  0  0  0  0  0  0  0  0  0  0
   -9.6550    0.2650  -81.3980 C   0  0  0  0  0  0  0  0  0  0  0  0
   -9.5580   -1.5040  -79.7580 O   0  0  0  0  0  0  0  0  0  0  0  0
   -8.8400   -2.2560  -78.8750 C   0  0  0  0  0  0  0  0  0  0  0  0
   -7.9450   -3.2410  -79.2910 C   0  0  0  0  0  0  0  0  0  0  0  0
   -9.0390   -2.0040  -77.5180 C   0  0  0  0  0  0  0  0  0  0  0  0
   -7.2450   -3.9820  -78.3410 C   0  0  0  0  0  0  0  0  0  0  0  0
   -8.3410   -2.7430  -76.5720 C   0  0  0  0  0  0  0  0  0  0  0  0
   -7.4450   -3.7310  -76.9800 C   0  0  0  0  0  0  0  0  0  0  0  0
  1  2  2  0
  2  3  1  0
  2  4  1  0
  3  5  1  0
  4  6  1  0
  5  7  1  0
  6  8  2  3
  7  9  2  0
  7 10  1  0
  8 11  1  0
  9 12  1  0
 10 13  2  0
 11 14  2  0
 11 15  1  0
 12 16  2  0
 13 16  1  0
 13 17  1  0
 14 18  1  0
 15 19  2  0
 18 20  2  0
 19 20  1  0
 19 21  1  0
 21 22  1  0
 22 23  2  0
 22 24  1  0
 23 25  1  0
 24 26  2  0
 25 27  2  0
 26 27  1  0
M  END
>  <ref_url>  (490) 
https://fakepage.com

>  <submitter_name>  (490) 
Steph Wills

>  <submitter_email>  (490) 
stephanie.wills@dtc.ox.ac.uk

>  <submitter_institution>  (490) 
University of Oxford

>  <generation_date>  (490) 
2020-06-04

>  <method>  (490) 
Fragment network

>  <ref_mols>  (490) 
x0438_0B,x0212_0B

>  <ref_pdb>  (490) 
references/x0438-0B-x0212-0B-212411.holo_minimised_nolig.pdb

>  <original SMILES>  (490) 
O=C(CNc1cccc(Br)c1)NN=Cc1cccc(Oc2ccccc2)c1

>  <synthon>  (490) 
[Xe]c1ccccc1

>  <original_name>  (490) 
x0438-0B-x0212-0B-212411

>  <comRMSD_score>  (490) 
0.8230872523614969

>  <IF_score>  (490) 
0.788888888888889

>  <SuCOS_score>  (490) 
0.5207826069317194

>  <compound_ID>  (490) 
MOLPORT:002-692-604

$$$$

     RDKit          3D

 22 23  0  0  0  0  0  0  0  0999 V2000
   -6.3610    1.9720  -76.2240 C   0  0  0  0  0  0  0  0  0  0  0  0
   -7.4360    3.0400  -76.1100 C   0  0  0  0  0  0  0  0  0  0  0  0
   -8.7050    2.3590  -76.4100 N   0  0  0  0  0  0  0  0  0  0  0  0
   -9.8870    3.2020  -76.4950 C   0  0  0  0  0  0  0  0  0  0  0  0
   -8.3980    1.1820  -77.5600 S   0  0  0  0  0  0  0  0  0  0  0  0
  -10.7590    3.0980  -75.4200 C   0  0  0  0  0  0  0  0  0  0  0  0
  -10.2140    4.1040  -77.5480 C   0  0  0  0  0  0  0  0  0  0  0  0
   -7.6260    0.1070  -76.9760 O   0  0  0  0  0  0  0  0  0  0  0  0
   -9.5390    0.8960  -78.3650 O   0  0  0  0  0  0  0  0  0  0  0  0
   -7.3750    2.2830  -78.3160 N   0  0  0  0  0  0  0  0  0  0  0  0
  -11.9160    3.8550  -75.3590 C   0  0  0  0  0  0  0  0  0  0  0  0
  -11.3910    4.8550  -77.4570 C   0  0  0  0  0  0  0  0  0  0  0  0
   -7.9510    3.6200  -78.3070 C   0  0  0  0  0  0  0  0  0  0  0  0
   -6.8150    1.9500  -79.6270 C   0  0  0  0  0  0  0  0  0  0  0  0
  -12.2350    4.7410  -76.3760 C   0  0  0  0  0  0  0  0  0  0  0  0
  -11.7270    5.7220  -78.4440 O   0  0  0  0  0  0  0  0  0  0  0  0
   -7.8680    1.1850  -80.3360 C   0  0  0  0  0  0  0  0  0  0  0  0
   -8.5150    1.7760  -81.4140 C   0  0  0  0  0  0  0  0  0  0  0  0
   -8.2160   -0.1010  -79.9200 C   0  0  0  0  0  0  0  0  0  0  0  0
   -9.5070    1.0800  -82.0630 C   0  0  0  0  0  0  0  0  0  0  0  0
   -9.2150   -0.7960  -80.5780 C   0  0  0  0  0  0  0  0  0  0  0  0
   -9.8610   -0.2030  -81.6490 C   0  0  0  0  0  0  0  0  0  0  0  0
  1  2  1  0
  2  3  1  0
  3  4  1  0
  5  3  1  0
  4  6  2  0
  4  7  1  0
  5  8  2  0
  5  9  2  0
  5 10  1  0
  6 11  1  0
  7 12  2  0
 10 13  1  0
 10 14  1  0
 11 15  2  0
 12 15  1  0
 12 16  1  0
 14 17  1  0
 17 18  2  0
 17 19  1  0
 18 20  1  0
 19 21  2  0
 20 22  2  0
 21 22  1  0
M  END
>  <ref_url>  (491) 
https://fakepage.com

>  <submitter_name>  (491) 
Steph Wills

>  <submitter_email>  (491) 
stephanie.wills@dtc.ox.ac.uk

>  <submitter_institution>  (491) 
University of Oxford

>  <generation_date>  (491) 
2020-06-04

>  <method>  (491) 
Fragment network

>  <ref_mols>  (491) 
x0438_0B,x0212_0B

>  <ref_pdb>  (491) 
references/x0438-0B-x0212-0B-213572.holo_minimised_nolig.pdb

>  <original SMILES>  (491) 
CCN(c1cccc(O)c1)S(=O)(=O)N(C)Cc1ccccc1

>  <synthon>  (491) 
[Xe]c1ccccc1

>  <original_name>  (491) 
x0438-0B-x0212-0B-213572

>  <comRMSD_score>  (491) 
0.9396967429708364

>  <IF_score>  (491) 
0.9

>  <SuCOS_score>  (491) 
0.48586201296838

>  <compound_ID>  (491) 
CHEMSPACE-BB:CSMB00117447669

$$$$

     RDKit          3D

 28 30  0  0  0  0  0  0  0  0999 V2000
   -8.3970    2.7370  -82.3560 C   0  0  0  0  0  0  0  0  0  0  0  0
   -8.6270    1.6110  -81.3960 C   0  0  0  0  0  0  0  0  0  0  0  0
   -9.1930    0.4820  -81.9850 C   0  0  0  0  0  0  0  0  0  0  0  0
   -8.3020    1.6820  -80.0320 C   0  0  0  0  0  0  0  0  0  0  0  0
   -9.4690   -0.6510  -81.2290 C   0  0  0  0  0  0  0  0  0  0  0  0
   -8.5610    0.5680  -79.2420 C   0  0  0  0  0  0  0  0  0  0  0  0
   -7.6780    2.9310  -79.3620 C   0  0  0  0  0  0  0  0  0  0  0  0
   -9.1210   -0.6000  -79.7360 C   0  0  0  0  0  0  0  0  0  0  0  0
   -6.6290    2.4950  -78.3430 C   0  0  0  0  0  0  0  0  0  0  0  0
   -5.8540    3.2920  -77.8290 O   0  0  0  0  0  0  0  0  0  0  0  0
   -6.5580    1.1680  -77.9990 O   0  0  0  0  0  0  0  0  0  0  0  0
   -7.2690    0.7940  -76.8910 C   0  0  0  0  0  0  0  0  0  0  0  0
   -8.5970    1.2380  -76.8480 C   0  0  0  0  0  0  0  0  0  0  0  0
   -9.4310    0.3420  -76.7350 O   0  0  0  0  0  0  0  0  0  0  0  0
   -8.7680    2.6060  -76.9650 N   0  0  0  0  0  0  0  0  0  0  0  0
   -9.9420    3.3650  -76.8210 C   0  0  0  0  0  0  0  0  0  0  0  0
  -10.1940    4.3720  -77.7520 C   0  0  0  0  0  0  0  0  0  0  0  0
  -10.8390    3.1290  -75.7800 C   0  0  0  0  0  0  0  0  0  0  0  0
  -11.3440    5.1430  -77.6220 C   0  0  0  0  0  0  0  0  0  0  0  0
  -11.9820    3.9060  -75.6540 C   0  0  0  0  0  0  0  0  0  0  0  0
  -10.5810    2.1190  -74.8870 O   0  0  0  0  0  0  0  0  0  0  0  0
  -12.2340    4.9190  -76.5780 C   0  0  0  0  0  0  0  0  0  0  0  0
  -11.2310    0.9300  -75.1380 C   0  0  0  0  0  0  0  0  0  0  0  0
  -12.5550    0.8730  -75.5660 C   0  0  0  0  0  0  0  0  0  0  0  0
  -10.4930   -0.2470  -74.9420 C   0  0  0  0  0  0  0  0  0  0  0  0
  -13.1540   -0.3620  -75.8030 C   0  0  0  0  0  0  0  0  0  0  0  0
  -11.0960   -1.4840  -75.1810 C   0  0  0  0  0  0  0  0  0  0  0  0
  -12.4270   -1.5350  -75.6130 C   0  0  0  0  0  0  0  0  0  0  0  0
  1  2  1  0
  2  3  2  0
  2  4  1  0
  3  5  1  0
  4  6  2  0
  4  7  1  0
  5  8  2  0
  6  8  1  0
  7  9  1  0
  9 10  2  0
  9 11  1  0
 11 12  1  0
 12 13  1  0
 13 14  2  0
 13 15  1  0
 15 16  1  0
 16 17  2  0
 16 18  1  0
 17 19  1  0
 18 20  2  0
 18 21  1  0
 19 22  2  0
 20 22  1  0
 21 23  1  0
 23 24  2  0
 23 25  1  0
 24 26  1  0
 25 27  2  0
 26 28  2  0
 27 28  1  0
M  END
>  <ref_url>  (492) 
https://fakepage.com

>  <submitter_name>  (492) 
Steph Wills

>  <submitter_email>  (492) 
stephanie.wills@dtc.ox.ac.uk

>  <submitter_institution>  (492) 
University of Oxford

>  <generation_date>  (492) 
2020-06-04

>  <method>  (492) 
Fragment network

>  <ref_mols>  (492) 
x0438_0B,x0212_0B

>  <ref_pdb>  (492) 
references/x0438-0B-x0212-0B-218380.holo_minimised_nolig.pdb

>  <original SMILES>  (492) 
Cc1ccccc1CC(=O)OCC(=O)Nc1ccccc1Oc1ccccc1

>  <synthon>  (492) 
[Xe]c1ccccc1

>  <original_name>  (492) 
x0438-0B-x0212-0B-218380

>  <comRMSD_score>  (492) 
0.6899968976379525

>  <IF_score>  (492) 
0.8285714285714285

>  <SuCOS_score>  (492) 
0.547319989991325

>  <compound_ID>  (492) 
MOLPORT:005-709-052

$$$$

     RDKit          3D

 17 18  0  0  0  0  0  0  0  0999 V2000
  -13.2940    5.9590  -76.8090 O   0  0  0  0  0  0  0  0  0  0  0  0
  -12.3930    5.1430  -76.6320 C   0  0  0  0  0  0  0  0  0  0  0  0
  -12.4410    4.2660  -75.3910 C   0  0  0  0  0  0  0  0  0  0  0  0
  -11.3300    5.0000  -77.5350 C   0  0  0  0  0  0  0  0  0  0  0  0
  -11.2960    3.3070  -75.2600 C   0  0  0  0  0  0  0  0  0  0  0  0
  -10.2950    4.0560  -77.3120 C   0  0  0  0  0  0  0  0  0  0  0  0
  -10.2880    3.2260  -76.1820 C   0  0  0  0  0  0  0  0  0  0  0  0
   -9.3580    3.8920  -78.0570 O   0  0  0  0  0  0  0  0  0  0  0  0
   -8.5850    2.8270  -77.6940 C   0  0  0  0  0  0  0  0  0  0  0  0
   -7.2730    2.9300  -78.0880 O   0  0  0  0  0  0  0  0  0  0  0  0
   -6.9380    2.5740  -79.3750 C   0  0  0  0  0  0  0  0  0  0  0  0
   -7.8110    1.7250  -80.0520 C   0  0  0  0  0  0  0  0  0  0  0  0
   -8.1750    0.4820  -79.5180 C   0  0  0  0  0  0  0  0  0  0  0  0
   -8.3240    2.1280  -81.2830 C   0  0  0  0  0  0  0  0  0  0  0  0
   -9.0500   -0.3530  -80.2200 C   0  0  0  0  0  0  0  0  0  0  0  0
   -9.1900    1.2930  -81.9700 C   0  0  0  0  0  0  0  0  0  0  0  0
   -9.5570    0.0550  -81.4480 C   0  0  0  0  0  0  0  0  0  0  0  0
  1  2  1  0
  2  3  2  0
  2  4  1  0
  3  5  1  0
  4  6  2  0
  5  7  2  0
  6  7  1  0
  6  8  1  0
  8  9  1  0
  9 10  1  0
 10 11  1  0
 11 12  1  0
 12 13  2  0
 12 14  1  0
 13 15  1  0
 14 16  2  0
 15 17  2  0
 16 17  1  0
M  END
>  <ref_url>  (493) 
https://fakepage.com

>  <submitter_name>  (493) 
Steph Wills

>  <submitter_email>  (493) 
stephanie.wills@dtc.ox.ac.uk

>  <submitter_institution>  (493) 
University of Oxford

>  <generation_date>  (493) 
2020-06-04

>  <method>  (493) 
Fragment network

>  <ref_mols>  (493) 
x0438_0B,x0212_0B

>  <ref_pdb>  (493) 
references/x0438-0B-x0212-0B-224265.holo_minimised_nolig.pdb

>  <original SMILES>  (493) 
Oc1cccc(OCOCc2ccccc2)c1

>  <synthon>  (493) 
[Xe]c1ccccc1

>  <original_name>  (493) 
x0438-0B-x0212-0B-224265

>  <comRMSD_score>  (493) 
0.7904273037924767

>  <IF_score>  (493) 
0.85

>  <SuCOS_score>  (493) 
0.5062067096122825

>  <compound_ID>  (493) 
CHEMSPACE-BB:CSMB00013913711

$$$$

     RDKit          3D

 32 34  0  0  0  0  0  0  0  0999 V2000
   -9.4170    0.2820  -76.7990 O   0  0  0  0  0  0  0  0  0  0  0  0
   -8.4980    1.0770  -76.6580 C   0  0  0  0  0  0  0  0  0  0  0  0
   -7.0550    0.5590  -76.4010 C   0  0  0  0  0  0  0  0  0  0  0  0
   -8.6170    2.5450  -76.7020 N   0  0  0  0  0  0  0  0  0  0  0  0
   -6.0070    1.2680  -77.0610 O   0  0  0  0  0  0  0  0  0  0  0  0
   -9.8350    3.4000  -76.7190 C   0  0  0  0  0  0  0  0  0  0  0  0
   -6.2710    1.5240  -78.3480 C   0  0  0  0  0  0  0  0  0  0  0  0
  -10.0770    4.3870  -77.6770 C   0  0  0  0  0  0  0  0  0  0  0  0
  -10.7940    3.2000  -75.7100 C   0  0  0  0  0  0  0  0  0  0  0  0
   -5.9030    0.8210  -79.2770 O   0  0  0  0  0  0  0  0  0  0  0  0
   -7.0350    2.6820  -78.4670 C   0  0  0  0  0  0  0  0  0  0  0  0
  -11.2390    5.1540  -77.6120 C   0  0  0  0  0  0  0  0  0  0  0  0
  -11.9440    3.9680  -75.6500 C   0  0  0  0  0  0  0  0  0  0  0  0
  -10.6510    2.2380  -74.7480 O   0  0  0  0  0  0  0  0  0  0  0  0
   -8.0930    2.8570  -79.3390 C   0  0  0  0  0  0  0  0  0  0  0  0
  -12.1700    4.9520  -76.5960 C   0  0  0  0  0  0  0  0  0  0  0  0
  -11.3400    1.0710  -75.0090 C   0  0  0  0  0  0  0  0  0  0  0  0
   -8.4500    1.8110  -80.1890 C   0  0  0  0  0  0  0  0  0  0  0  0
  -11.6070    0.2380  -73.9210 C   0  0  0  0  0  0  0  0  0  0  0  0
  -11.7750    0.6910  -76.2770 C   0  0  0  0  0  0  0  0  0  0  0  0
   -8.3860    2.0100  -81.5570 C   0  0  0  0  0  0  0  0  0  0  0  0
   -8.8700    0.5650  -79.6830 C   0  0  0  0  0  0  0  0  0  0  0  0
  -12.2970   -0.9610  -74.1020 C   0  0  0  0  0  0  0  0  0  0  0  0
  -12.4680   -0.4990  -76.4630 C   0  0  0  0  0  0  0  0  0  0  0  0
   -8.7280    0.9880  -82.4210 C   0  0  0  0  0  0  0  0  0  0  0  0
   -9.2230   -0.4790  -80.5610 C   0  0  0  0  0  0  0  0  0  0  0  0
  -12.7300   -1.3320  -75.3750 C   0  0  0  0  0  0  0  0  0  0  0  0
   -9.1450   -0.2490  -81.9270 C   0  0  0  0  0  0  0  0  0  0  0  0
   -9.6460   -1.7390  -80.1100 C   0  0  0  0  0  0  0  0  0  0  0  0
  -10.8900   -1.7480  -79.5560 F   0  0  0  0  0  0  0  0  0  0  0  0
   -9.7010   -2.6520  -81.1220 F   0  0  0  0  0  0  0  0  0  0  0  0
   -8.8130   -2.2890  -79.1850 F   0  0  0  0  0  0  0  0  0  0  0  0
  1  2  2  0
  2  3  1  0
  2  4  1  0
  3  5  1  0
  4  6  1  0
  5  7  1  0
  6  8  2  0
  6  9  1  0
  7 10  2  0
  7 11  1  0
  8 12  1  0
  9 13  2  0
  9 14  1  0
 11 15  2  3
 12 16  2  0
 13 16  1  0
 14 17  1  0
 15 18  1  0
 17 19  2  0
 17 20  1  0
 18 21  2  0
 18 22  1  0
 19 23  1  0
 20 24  2  0
 21 25  1  0
 22 26  2  0
 23 27  2  0
 24 27  1  0
 25 28  2  0
 26 28  1  0
 26 29  1  0
 29 30  1  0
 29 31  1  0
 29 32  1  0
M  END
>  <ref_url>  (494) 
https://fakepage.com

>  <submitter_name>  (494) 
Steph Wills

>  <submitter_email>  (494) 
stephanie.wills@dtc.ox.ac.uk

>  <submitter_institution>  (494) 
University of Oxford

>  <generation_date>  (494) 
2020-06-04

>  <method>  (494) 
Fragment network

>  <ref_mols>  (494) 
x0438_0B,x0212_0B

>  <ref_pdb>  (494) 
references/x0438-0B-x0212-0B-229997.holo_minimised_nolig.pdb

>  <original SMILES>  (494) 
O=C(COC(=O)C=Cc1cccc(C(F)(F)F)c1)Nc1ccccc1Oc1ccccc1

>  <synthon>  (494) 
[Xe]c1ccccc1

>  <original_name>  (494) 
x0438-0B-x0212-0B-229997

>  <comRMSD_score>  (494) 
0.6936077556876077

>  <IF_score>  (494) 
0.4375

>  <SuCOS_score>  (494) 
0.5259684896568437

>  <compound_ID>  (494) 
MOLPORT:044-390-154

$$$$

     RDKit          3D

 30 32  0  0  0  0  0  0  0  0999 V2000
   -6.6020   -0.1370  -77.0870 O   0  0  0  0  0  0  0  0  0  0  0  0
   -7.0480    0.9960  -77.2620 C   0  0  0  0  0  0  0  0  0  0  0  0
   -8.4960    1.3630  -76.9350 C   0  0  0  0  0  0  0  0  0  0  0  0
   -6.3290    2.0820  -77.7590 N   0  0  0  0  0  0  0  0  0  0  0  0
   -8.8020    2.7390  -77.3690 N   0  0  0  0  0  0  0  0  0  0  0  0
   -6.9200    3.1370  -78.3920 N   0  0  0  0  0  0  0  0  0  0  0  0
   -9.9440    3.3690  -76.8940 C   0  0  0  0  0  0  0  0  0  0  0  0
   -7.6910    2.9740  -79.4340 C   0  0  0  0  0  0  0  0  0  0  0  0
  -10.4060    2.9350  -75.6500 C   0  0  0  0  0  0  0  0  0  0  0  0
  -10.6450    4.3840  -77.5610 C   0  0  0  0  0  0  0  0  0  0  0  0
   -8.1070    1.7570  -80.1750 C   0  0  0  0  0  0  0  0  0  0  0  0
  -11.5360    3.4900  -75.0720 C   0  0  0  0  0  0  0  0  0  0  0  0
  -11.8020    4.9410  -76.9520 C   0  0  0  0  0  0  0  0  0  0  0  0
   -8.5690    0.5720  -79.5670 C   0  0  0  0  0  0  0  0  0  0  0  0
   -8.0190    1.8300  -81.5540 C   0  0  0  0  0  0  0  0  0  0  0  0
  -12.2150    4.4850  -75.7310 C   0  0  0  0  0  0  0  0  0  0  0  0
  -12.6770    6.0160  -77.4770 C   0  0  0  0  0  0  0  0  0  0  0  0
   -8.9440   -0.5190  -80.3540 C   0  0  0  0  0  0  0  0  0  0  0  0
   -8.3760    0.7360  -82.3250 C   0  0  0  0  0  0  0  0  0  0  0  0
  -12.1850    7.2440  -77.1760 F   0  0  0  0  0  0  0  0  0  0  0  0
  -12.9730    5.9350  -78.7890 F   0  0  0  0  0  0  0  0  0  0  0  0
  -13.8900    5.9870  -76.8610 F   0  0  0  0  0  0  0  0  0  0  0  0
   -8.8470   -0.4380  -81.7370 C   0  0  0  0  0  0  0  0  0  0  0  0
   -8.2300    0.8780  -83.6740 O   0  0  0  0  0  0  0  0  0  0  0  0
   -6.9990    0.5840  -84.2200 C   0  0  0  0  0  0  0  0  0  0  0  0
   -6.5890    1.0770  -85.4630 C   0  0  0  0  0  0  0  0  0  0  0  0
   -6.1560   -0.2420  -83.4820 C   0  0  0  0  0  0  0  0  0  0  0  0
   -5.3350    0.7400  -85.9660 C   0  0  0  0  0  0  0  0  0  0  0  0
   -4.9000   -0.5760  -83.9850 C   0  0  0  0  0  0  0  0  0  0  0  0
   -4.4900   -0.0860  -85.2260 C   0  0  0  0  0  0  0  0  0  0  0  0
  1  2  2  0
  2  3  1  0
  2  4  1  0
  3  5  1  0
  4  6  1  0
  5  7  1  0
  6  8  2  3
  7  9  2  0
  7 10  1  0
  8 11  1  0
  9 12  1  0
 10 13  2  0
 11 14  2  0
 11 15  1  0
 12 16  2  0
 13 16  1  0
 13 17  1  0
 14 18  1  0
 15 19  2  0
 17 20  1  0
 17 21  1  0
 17 22  1  0
 18 23  2  0
 19 23  1  0
 19 24  1  0
 24 25  1  0
 25 26  2  0
 25 27  1  0
 26 28  1  0
 27 29  2  0
 28 30  2  0
 29 30  1  0
M  END
>  <ref_url>  (495) 
https://fakepage.com

>  <submitter_name>  (495) 
Steph Wills

>  <submitter_email>  (495) 
stephanie.wills@dtc.ox.ac.uk

>  <submitter_institution>  (495) 
University of Oxford

>  <generation_date>  (495) 
2020-06-04

>  <method>  (495) 
Fragment network

>  <ref_mols>  (495) 
x0438_0B,x0212_0B

>  <ref_pdb>  (495) 
references/x0438-0B-x0212-0B-234067.holo_minimised_nolig.pdb

>  <original SMILES>  (495) 
O=C(CNc1cccc(C(F)(F)F)c1)NN=Cc1cccc(Oc2ccccc2)c1

>  <synthon>  (495) 
[Xe]c1ccccc1

>  <original_name>  (495) 
x0438-0B-x0212-0B-234067

>  <comRMSD_score>  (495) 
0.86644903918234

>  <IF_score>  (495) 
0.3875

>  <SuCOS_score>  (495) 
0.4987312169726962

>  <compound_ID>  (495) 
MOLPORT:044-400-773

$$$$

     RDKit          3D

 29 31  0  0  0  0  0  0  0  0999 V2000
   -7.3610    1.5610  -74.7360 C   0  0  0  0  0  0  0  0  0  0  0  0
   -7.2010    2.5000  -75.9110 C   0  0  0  0  0  0  0  0  0  0  0  0
   -7.0680    3.9120  -75.4780 C   0  0  0  0  0  0  0  0  0  0  0  0
   -8.2700    2.2440  -76.8900 N   0  0  0  0  0  0  0  0  0  0  0  0
   -8.3440    0.8420  -77.1580 C   0  0  0  0  0  0  0  0  0  0  0  0
   -9.4600    3.0790  -76.9740 C   0  0  0  0  0  0  0  0  0  0  0  0
   -9.3860    0.1940  -77.1800 O   0  0  0  0  0  0  0  0  0  0  0  0
   -7.0560    0.3070  -77.3520 C   0  0  0  0  0  0  0  0  0  0  0  0
  -10.5520    2.8010  -76.1680 C   0  0  0  0  0  0  0  0  0  0  0  0
   -9.5940    4.1730  -77.8440 C   0  0  0  0  0  0  0  0  0  0  0  0
   -6.0720    1.3370  -77.4250 O   0  0  0  0  0  0  0  0  0  0  0  0
  -11.7200    3.5830  -76.2170 C   0  0  0  0  0  0  0  0  0  0  0  0
  -10.7630    4.9480  -77.8770 C   0  0  0  0  0  0  0  0  0  0  0  0
   -6.3830    2.3710  -78.2520 C   0  0  0  0  0  0  0  0  0  0  0  0
  -11.8290    4.6560  -77.0540 C   0  0  0  0  0  0  0  0  0  0  0  0
   -6.5490    3.4910  -77.8070 O   0  0  0  0  0  0  0  0  0  0  0  0
   -6.4850    2.1360  -79.5990 C   0  0  0  0  0  0  0  0  0  0  0  0
   -7.4840    1.2620  -80.0070 C   0  0  0  0  0  0  0  0  0  0  0  0
   -7.4740   -0.2160  -79.7340 C   0  0  0  0  0  0  0  0  0  0  0  0
   -8.5350    1.7610  -80.7160 C   0  0  0  0  0  0  0  0  0  0  0  0
   -8.5200   -1.0190  -80.2200 C   0  0  0  0  0  0  0  0  0  0  0  0
   -9.5250    0.9160  -81.1810 C   0  0  0  0  0  0  0  0  0  0  0  0
   -9.5500   -0.4510  -80.9540 C   0  0  0  0  0  0  0  0  0  0  0  0
  -10.5980   -1.2000  -81.4730 C   0  0  0  0  0  0  0  0  0  0  0  0
  -11.2030   -0.7720  -82.6480 C   0  0  0  0  0  0  0  0  0  0  0  0
  -11.0610   -2.3630  -80.8520 C   0  0  0  0  0  0  0  0  0  0  0  0
  -12.3620   -1.5430  -83.2740 C   0  0  0  0  0  0  0  0  0  0  0  0
  -12.1170   -3.0950  -81.3960 C   0  0  0  0  0  0  0  0  0  0  0  0
  -12.7500   -2.6940  -82.5750 C   0  0  0  0  0  0  0  0  0  0  0  0
  1  2  1  0
  2  3  1  0
  2  4  1  0
  4  5  1  0
  4  6  1  0
  5  7  2  0
  5  8  1  0
  6  9  2  0
  6 10  1  0
  8 11  1  0
  9 12  1  0
 10 13  2  0
 11 14  1  0
 12 15  2  0
 13 15  1  0
 14 16  2  0
 14 17  1  0
 17 18  1  0
 18 19  2  0
 18 20  1  0
 19 21  1  0
 20 22  2  0
 21 23  2  0
 22 23  1  0
 23 24  1  0
 24 25  2  0
 24 26  1  0
 25 27  1  0
 26 28  2  0
 27 29  2  0
 28 29  1  0
M  END
>  <ref_url>  (496) 
https://fakepage.com

>  <submitter_name>  (496) 
Steph Wills

>  <submitter_email>  (496) 
stephanie.wills@dtc.ox.ac.uk

>  <submitter_institution>  (496) 
University of Oxford

>  <generation_date>  (496) 
2020-06-04

>  <method>  (496) 
Fragment network

>  <ref_mols>  (496) 
x0438_0B,x0212_0B

>  <ref_pdb>  (496) 
references/x0438-0B-x0212-0B-242145.holo_minimised_nolig.pdb

>  <original SMILES>  (496) 
CC(C)N(C(=O)COC(=O)Cc1ccc(-c2ccccc2)cc1)c1ccccc1

>  <synthon>  (496) 
[Xe]c1ccccc1

>  <original_name>  (496) 
x0438-0B-x0212-0B-242145

>  <comRMSD_score>  (496) 
0.8683542443899274

>  <IF_score>  (496) 
0.6875

>  <SuCOS_score>  (496) 
0.4864528861073751

>  <compound_ID>  (496) 
MOLPORT:005-901-128

$$$$

     RDKit          3D

 28 30  0  0  0  0  0  0  0  0999 V2000
   -9.1580    0.4370  -76.8140 O   0  0  0  0  0  0  0  0  0  0  0  0
   -8.2960    1.3070  -76.9140 C   0  0  0  0  0  0  0  0  0  0  0  0
   -6.9860    1.0130  -77.1100 C   0  0  0  0  0  0  0  0  0  0  0  0
   -8.5450    2.8130  -76.8300 N   0  0  0  0  0  0  0  0  0  0  0  0
   -6.2640    1.9510  -77.4700 O   0  0  0  0  0  0  0  0  0  0  0  0
   -9.7570    3.5270  -76.7920 C   0  0  0  0  0  0  0  0  0  0  0  0
   -6.8490    2.8680  -78.2980 C   0  0  0  0  0  0  0  0  0  0  0  0
  -10.1870    4.3850  -77.8110 C   0  0  0  0  0  0  0  0  0  0  0  0
  -10.5380    3.3400  -75.6430 C   0  0  0  0  0  0  0  0  0  0  0  0
   -7.4130    4.0070  -77.8770 O   0  0  0  0  0  0  0  0  0  0  0  0
   -6.7730    2.4030  -79.7490 C   0  0  0  0  0  0  0  0  0  0  0  0
  -11.3960    5.0680  -77.6790 C   0  0  0  0  0  0  0  0  0  0  0  0
  -11.7550    3.9940  -75.4500 C   0  0  0  0  0  0  0  0  0  0  0  0
   -7.8320    1.4100  -80.1910 C   0  0  0  0  0  0  0  0  0  0  0  0
  -12.2270    4.8620  -76.4190 C   0  0  0  0  0  0  0  0  0  0  0  0
   -8.0220    0.1570  -79.3530 C   0  0  0  0  0  0  0  0  0  0  0  0
   -8.6200    1.6380  -81.3320 C   0  0  0  0  0  0  0  0  0  0  0  0
  -13.4040    5.5540  -76.3040 O   0  0  0  0  0  0  0  0  0  0  0  0
   -8.9810   -0.7550  -79.7120 C   0  0  0  0  0  0  0  0  0  0  0  0
   -9.6080    0.7060  -81.7140 C   0  0  0  0  0  0  0  0  0  0  0  0
  -13.2410    6.8380  -75.8600 C   0  0  0  0  0  0  0  0  0  0  0  0
   -9.8300   -0.4730  -80.9590 C   0  0  0  0  0  0  0  0  0  0  0  0
  -13.8280    7.9420  -76.4720 C   0  0  0  0  0  0  0  0  0  0  0  0
  -12.4340    7.0050  -74.7420 C   0  0  0  0  0  0  0  0  0  0  0  0
  -11.1350   -1.7800  -81.3490 Br  0  0  0  0  0  0  0  0  0  0  0  0
  -13.6010    9.2190  -75.9650 C   0  0  0  0  0  0  0  0  0  0  0  0
  -12.2080    8.2810  -74.2390 C   0  0  0  0  0  0  0  0  0  0  0  0
  -12.7880    9.3880  -74.8470 C   0  0  0  0  0  0  0  0  0  0  0  0
  1  2  2  0
  2  3  1  0
  2  4  1  0
  3  5  1  0
  4  6  1  0
  5  7  1  0
  6  8  2  0
  6  9  1  0
  7 10  2  0
  7 11  1  0
  8 12  1  0
  9 13  2  0
 11 14  1  0
 12 15  2  0
 13 15  1  0
 14 16  2  0
 14 17  1  0
 15 18  1  0
 16 19  1  0
 17 20  2  0
 18 21  1  0
 19 22  2  0
 20 22  1  0
 21 23  2  0
 21 24  1  0
 22 25  1  0
 23 26  1  0
 24 27  2  0
 26 28  2  0
 27 28  1  0
M  END
>  <ref_url>  (497) 
https://fakepage.com

>  <submitter_name>  (497) 
Steph Wills

>  <submitter_email>  (497) 
stephanie.wills@dtc.ox.ac.uk

>  <submitter_institution>  (497) 
University of Oxford

>  <generation_date>  (497) 
2020-06-04

>  <method>  (497) 
Fragment network

>  <ref_mols>  (497) 
x0438_0B,x0212_0B

>  <ref_pdb>  (497) 
references/x0438-0B-x0212-0B-267486.holo_minimised_nolig.pdb

>  <original SMILES>  (497) 
O=C(COC(=O)Cc1ccc(Br)cc1)Nc1ccc(Oc2ccccc2)cc1

>  <synthon>  (497) 
[Xe]c1ccccc1

>  <original_name>  (497) 
x0438-0B-x0212-0B-267486

>  <comRMSD_score>  (497) 
0.6460721950757521

>  <IF_score>  (497) 
0.6636363636363636

>  <SuCOS_score>  (497) 
0.5759559620993929

>  <compound_ID>  (497) 
MOLPORT:005-885-669

$$$$

     RDKit          3D

 23 24  0  0  0  0  0  0  0  0999 V2000
   -7.3580    0.8950  -76.5510 C   0  0  0  0  0  0  0  0  0  0  0  0
   -8.1350    2.1830  -76.2580 C   0  0  0  0  0  0  0  0  0  0  0  0
   -9.0300    2.5530  -77.3530 N   0  0  0  0  0  0  0  0  0  0  0  0
  -10.1330    3.3770  -76.9440 C   0  0  0  0  0  0  0  0  0  0  0  0
   -8.4200    3.0010  -78.8230 S   0  0  0  0  0  0  0  0  0  0  0  0
  -10.6940    3.1430  -75.7070 C   0  0  0  0  0  0  0  0  0  0  0  0
  -10.6120    4.3830  -77.8000 C   0  0  0  0  0  0  0  0  0  0  0  0
   -8.5280    4.4250  -78.9810 O   0  0  0  0  0  0  0  0  0  0  0  0
   -8.9640    2.1210  -79.8210 O   0  0  0  0  0  0  0  0  0  0  0  0
   -6.7540    2.5780  -78.5640 C   0  0  0  0  0  0  0  0  0  0  0  0
  -11.8700    3.9940  -75.2580 C   0  0  0  0  0  0  0  0  0  0  0  0
  -11.6890    5.1840  -77.4320 C   0  0  0  0  0  0  0  0  0  0  0  0
   -6.2380    1.8420  -79.6230 C   0  0  2  0  0  0  0  0  0  0  0  0
  -12.3800    5.0950  -76.2320 C   0  0  0  0  0  0  0  0  0  0  0  0
  -12.1340    6.0630  -78.1580 O   0  0  0  0  0  0  0  0  0  0  0  0
   -5.5610    2.6410  -80.5840 O   0  0  0  0  0  0  0  0  0  0  0  0
   -7.4370    1.2130  -80.3140 C   0  0  0  0  0  0  0  0  0  0  0  0
   -4.6390    2.0280  -81.3820 C   0  0  0  0  0  0  0  0  0  0  0  0
   -8.0450    1.8620  -81.4030 C   0  0  0  0  0  0  0  0  0  0  0  0
   -7.9450   -0.0120  -79.8580 C   0  0  0  0  0  0  0  0  0  0  0  0
   -9.1470    1.2780  -82.0160 C   0  0  0  0  0  0  0  0  0  0  0  0
   -9.0510   -0.5890  -80.4780 C   0  0  0  0  0  0  0  0  0  0  0  0
   -9.6500    0.0630  -81.5600 C   0  0  0  0  0  0  0  0  0  0  0  0
  1  2  1  0
  2  3  1  0
  3  4  1  0
  5  3  1  0
  4  6  2  0
  4  7  1  0
  5  8  2  0
  5  9  2  0
  5 10  1  0
  6 11  1  0
  7 12  2  0
 13 10  1  1
 11 14  2  0
 12 14  1  0
 12 15  1  0
 13 16  1  0
 13 17  1  0
 16 18  1  0
 17 19  2  0
 17 20  1  0
 19 21  1  0
 20 22  2  0
 21 23  2  0
 22 23  1  0
M  END
>  <ref_url>  (498) 
https://fakepage.com

>  <submitter_name>  (498) 
Steph Wills

>  <submitter_email>  (498) 
stephanie.wills@dtc.ox.ac.uk

>  <submitter_institution>  (498) 
University of Oxford

>  <generation_date>  (498) 
2020-06-04

>  <method>  (498) 
Fragment network

>  <ref_mols>  (498) 
x0438_0B,x0212_0B

>  <ref_pdb>  (498) 
references/x0438-0B-x0212-0B-269338.holo_minimised_nolig.pdb

>  <original SMILES>  (498) 
CCN(c1cccc(O)c1)S(=O)(=O)CC(OC)c1ccccc1

>  <synthon>  (498) 
[Xe]c1ccccc1

>  <original_name>  (498) 
x0438-0B-x0212-0B-269338

>  <comRMSD_score>  (498) 
0.799577056167821

>  <IF_score>  (498) 
0.8888888888888888

>  <SuCOS_score>  (498) 
0.486382144305934

>  <compound_ID>  (498) 
REAL:Z2275291685

$$$$

     RDKit          3D

 21 23  0  0  0  0  0  0  0  0999 V2000
  -16.0380    5.2520  -74.6600 O   0  0  0  0  0  0  0  0  0  0  0  0
  -15.0470    5.8920  -74.3240 C   0  0  0  0  0  0  0  0  0  0  0  0
  -15.0610    6.7700  -73.2350 O   0  0  0  0  0  0  0  0  0  0  0  0
  -13.7240    5.8260  -74.9760 C   0  0  0  0  0  0  0  0  0  0  0  0
  -14.2150    7.8830  -73.2390 C   0  0  0  0  0  0  0  0  0  0  0  0
  -12.6220    6.3910  -74.1880 C   0  0  0  0  0  0  0  0  0  0  0  0
  -13.6330    5.2740  -76.2100 C   0  0  0  0  0  0  0  0  0  0  0  0
  -14.6860    9.1030  -72.7550 C   0  0  0  0  0  0  0  0  0  0  0  0
  -12.9390    7.7360  -73.7310 C   0  0  0  0  0  0  0  0  0  0  0  0
  -11.6060    5.8010  -73.8890 O   0  0  0  0  0  0  0  0  0  0  0  0
  -12.5480    5.0920  -77.0400 N   0  0  0  0  0  0  0  0  0  0  0  0
  -13.8370   10.2040  -72.7820 C   0  0  0  0  0  0  0  0  0  0  0  0
  -12.0960    8.8280  -73.7640 C   0  0  0  0  0  0  0  0  0  0  0  0
  -11.3870    4.3250  -76.8470 C   0  0  0  0  0  0  0  0  0  0  0  0
  -12.5400   10.0670  -73.2900 C   0  0  0  0  0  0  0  0  0  0  0  0
  -10.2930    4.5950  -77.6730 C   0  0  0  0  0  0  0  0  0  0  0  0
  -11.2420    3.3110  -75.8880 C   0  0  0  0  0  0  0  0  0  0  0  0
   -9.0900    3.8890  -77.5540 C   0  0  0  0  0  0  0  0  0  0  0  0
  -10.0430    2.5990  -75.7670 C   0  0  0  0  0  0  0  0  0  0  0  0
   -8.9760    2.8960  -76.6020 C   0  0  0  0  0  0  0  0  0  0  0  0
   -7.8270    2.2200  -76.4940 F   0  0  0  0  0  0  0  0  0  0  0  0
  1  2  2  0
  2  3  1  0
  2  4  1  0
  3  5  1  0
  4  6  1  0
  4  7  2  3
  5  8  1  0
  5  9  2  0
  6  9  1  0
  6 10  2  0
  7 11  1  0
  8 12  2  0
  9 13  1  0
 11 14  1  0
 12 15  1  0
 13 15  2  0
 14 16  2  0
 14 17  1  0
 16 18  1  0
 17 19  2  0
 18 20  2  0
 19 20  1  0
 20 21  1  0
M  END
>  <ref_url>  (499) 
https://fakepage.com

>  <submitter_name>  (499) 
Steph Wills

>  <submitter_email>  (499) 
stephanie.wills@dtc.ox.ac.uk

>  <submitter_institution>  (499) 
University of Oxford

>  <generation_date>  (499) 
2020-06-04

>  <method>  (499) 
Fragment network

>  <ref_mols>  (499) 
x0176_0B,x0276_0B

>  <ref_pdb>  (499) 
references/x0176-0B-x0276-0B-5536.holo_minimised_nolig.pdb

>  <original SMILES>  (499) 
O=C1Oc2ccccc2C(=O)C1=CNc1ccc(F)cc1

>  <synthon>  (499) 
Fc1ccc([Xe])cc1

>  <original_name>  (499) 
x0176-0B-x0276-0B-5536

>  <comRMSD_score>  (499) 
0.8327162381828109

>  <IF_score>  (499) 
0.1

>  <SuCOS_score>  (499) 
0.4836656042916732

>  <compound_ID>  (499) 
MOLPORT:000-422-850, MOLPORT:044-241-022

$$$$

     RDKit          3D

 21 23  0  0  0  0  0  0  0  0999 V2000
  -11.1970    6.3950  -73.5900 O   0  0  0  0  0  0  0  0  0  0  0  0
  -12.3990    6.3660  -73.7700 C   0  0  0  0  0  0  0  0  0  0  0  0
  -13.2360    6.1030  -72.7540 N   0  0  0  0  0  0  0  0  0  0  0  0
  -13.1400    6.7270  -75.0000 C   0  0  0  0  0  0  0  0  0  0  0  0
  -14.1440    7.1320  -72.4450 C   0  0  0  0  0  0  0  0  0  0  0  0
  -13.8870    7.9850  -74.7980 C   0  0  0  0  0  0  0  0  0  0  0  0
  -13.2320    6.0570  -76.1960 C   0  0  0  0  0  0  0  0  0  0  0  0
  -14.7050    7.2260  -71.1640 C   0  0  0  0  0  0  0  0  0  0  0  0
  -14.4830    8.0790  -73.4290 C   0  0  0  0  0  0  0  0  0  0  0  0
  -14.0160    8.8700  -75.6390 O   0  0  0  0  0  0  0  0  0  0  0  0
  -12.7200    4.8670  -76.6980 N   0  0  0  0  0  0  0  0  0  0  0  0
  -15.5950    8.2570  -70.8630 C   0  0  0  0  0  0  0  0  0  0  0  0
  -15.3800    9.1130  -73.1160 C   0  0  0  0  0  0  0  0  0  0  0  0
  -11.4460    4.2920  -76.7820 C   0  0  0  0  0  0  0  0  0  0  0  0
  -15.9330    9.1990  -71.8340 C   0  0  0  0  0  0  0  0  0  0  0  0
  -11.1100    3.3320  -75.8170 C   0  0  0  0  0  0  0  0  0  0  0  0
  -10.4940    4.5980  -77.7600 C   0  0  0  0  0  0  0  0  0  0  0  0
   -9.8680    2.7020  -75.8230 C   0  0  0  0  0  0  0  0  0  0  0  0
   -9.2410    3.9650  -77.7670 C   0  0  0  0  0  0  0  0  0  0  0  0
   -8.9460    3.0250  -76.7940 C   0  0  0  0  0  0  0  0  0  0  0  0
   -7.7520    2.4190  -76.7950 F   0  0  0  0  0  0  0  0  0  0  0  0
  1  2  2  0
  2  3  1  0
  2  4  1  0
  3  5  1  0
  4  6  1  0
  4  7  2  3
  5  8  1  0
  5  9  2  0
  6  9  1  0
  6 10  2  0
  7 11  1  0
  8 12  2  0
  9 13  1  0
 11 14  1  0
 12 15  1  0
 13 15  2  0
 14 16  2  0
 14 17  1  0
 16 18  1  0
 17 19  2  0
 18 20  2  0
 19 20  1  0
 20 21  1  0
M  END
>  <ref_url>  (500) 
https://fakepage.com

>  <submitter_name>  (500) 
Steph Wills

>  <submitter_email>  (500) 
stephanie.wills@dtc.ox.ac.uk

>  <submitter_institution>  (500) 
University of Oxford

>  <generation_date>  (500) 
2020-06-04

>  <method>  (500) 
Fragment network

>  <ref_mols>  (500) 
x0176_0B,x0276_0B

>  <ref_pdb>  (500) 
references/x0176-0B-x0276-0B-14837.holo_minimised_nolig.pdb

>  <original SMILES>  (500) 
O=C1Nc2ccccc2C(=O)C1=CNc1ccc(F)cc1

>  <synthon>  (500) 
Fc1ccc([Xe])cc1

>  <original_name>  (500) 
x0176-0B-x0276-0B-14837

>  <comRMSD_score>  (500) 
0.6904951524489911

>  <IF_score>  (500) 
0.3666666666666667

>  <SuCOS_score>  (500) 
0.5121001829745367

>  <compound_ID>  (500) 
MOLPORT:035-791-762

$$$$

     RDKit          3D

 30 31  0  0  0  0  0  0  0  0999 V2000
  -13.4700    5.5330  -72.6720 C   0  0  0  0  0  0  0  0  0  0  0  0
  -12.9620    6.3270  -73.8490 C   0  0  0  0  0  0  0  0  0  0  0  0
  -13.5840    5.9180  -75.1400 N   0  0  0  0  0  0  0  0  0  0  0  0
  -13.6740    7.0100  -76.1240 C   0  0  0  0  0  0  0  0  0  0  0  0
  -13.5350    4.3440  -75.8240 S   0  0  0  0  0  0  0  0  0  0  0  0
  -12.4500    6.9050  -76.9910 C   0  0  0  0  0  0  0  0  0  0  0  0
  -13.7440    3.3360  -74.8180 O   0  0  0  0  0  0  0  0  0  0  0  0
  -14.4410    4.3790  -76.9540 O   0  0  0  0  0  0  0  0  0  0  0  0
  -11.9180    4.1410  -76.5390 C   0  0  0  0  0  0  0  0  0  0  0  0
  -10.8750    3.6050  -75.7870 C   0  0  0  0  0  0  0  0  0  0  0  0
  -11.7120    4.5220  -77.8690 C   0  0  0  0  0  0  0  0  0  0  0  0
   -9.6180    3.4520  -76.3810 C   0  0  0  0  0  0  0  0  0  0  0  0
  -10.4520    4.3650  -78.4550 C   0  0  0  0  0  0  0  0  0  0  0  0
   -9.3940    3.8280  -77.7210 C   0  0  0  0  0  0  0  0  0  0  0  0
   -8.0150    3.6440  -78.3410 C   0  0  0  0  0  0  0  0  0  0  0  0
   -7.8750    4.0520  -79.8120 C   0  0  0  0  0  0  0  0  0  0  0  0
   -6.4080    4.3100  -80.1860 C   0  0  0  0  0  0  0  0  0  0  0  0
   -5.8860    5.4100  -80.3770 O   0  0  0  0  0  0  0  0  0  0  0  0
   -5.6800    3.1530  -80.2950 N   0  0  0  0  0  0  0  0  0  0  0  0
   -5.4570    2.3060  -79.1470 C   0  0  0  0  0  0  0  0  0  0  0  0
   -6.7390    1.5260  -78.7400 C   0  0  2  0  0  0  0  0  0  0  0  0
   -7.6680    1.0340  -79.8560 C   0  0  0  0  0  0  0  0  0  0  0  0
   -7.5190    2.0520  -77.5920 N   0  0  0  0  0  0  0  0  0  0  0  0
   -8.0090    1.6920  -81.0700 C   0  0  0  0  0  0  0  0  0  0  0  0
   -8.2210   -0.2240  -79.6040 C   0  0  0  0  0  0  0  0  0  0  0  0
   -6.8000    1.9750  -76.3270 C   0  0  0  0  0  0  0  0  0  0  0  0
   -8.8460    1.4370  -77.4660 C   0  0  0  0  0  0  0  0  0  0  0  0
   -8.8740    1.0690  -81.9680 C   0  0  0  0  0  0  0  0  0  0  0  0
   -9.0770   -0.8290  -80.4990 C   0  0  0  0  0  0  0  0  0  0  0  0
   -9.3960   -0.1840  -81.6680 C   0  0  0  0  0  0  0  0  0  0  0  0
  1  2  1  0
  2  3  1  0
  3  4  1  0
  5  3  1  0
  4  6  1  0
  5  7  2  0
  5  8  2  0
  5  9  1  0
  9 10  2  0
  9 11  1  0
 10 12  1  0
 11 13  2  0
 12 14  2  0
 13 14  1  0
 14 15  1  0
 15 16  1  0
 16 17  1  0
 17 18  2  0
 17 19  1  0
 19 20  1  0
 21 20  1  6
 21 22  1  0
 21 23  1  0
 22 24  2  0
 22 25  1  0
 23 26  1  0
 23 27  1  0
 24 28  1  0
 25 29  2  0
 28 30  2  0
 29 30  1  0
M  END
>  <ref_url>  (501) 
https://fakepage.com

>  <submitter_name>  (501) 
Steph Wills

>  <submitter_email>  (501) 
stephanie.wills@dtc.ox.ac.uk

>  <submitter_institution>  (501) 
University of Oxford

>  <generation_date>  (501) 
2020-06-04

>  <method>  (501) 
Fragment network

>  <ref_mols>  (501) 
x0183_0B,x0212_0B

>  <ref_pdb>  (501) 
references/x0183-0B-x0212-0B-899.holo_minimised_nolig.pdb

>  <original SMILES>  (501) 
CCN(CC)S(=O)(=O)c1ccc(CCC(=O)NCC(c2ccccc2)N(C)C)cc1

>  <synthon>  (501) 
[Xe]c1ccccc1

>  <original_name>  (501) 
x0183-0B-x0212-0B-899

>  <comRMSD_score>  (501) 
0.6466240535787902

>  <IF_score>  (501) 
0.55

>  <SuCOS_score>  (501) 
0.5662349591695761

>  <compound_ID>  (501) 
MOLPORT:020-165-655

$$$$

     RDKit          3D

 26 27  0  0  0  0  0  0  0  0999 V2000
  -12.6670    6.3240  -73.8700 C   0  0  0  0  0  0  0  0  0  0  0  0
  -12.6390    5.8860  -75.2450 O   0  0  0  0  0  0  0  0  0  0  0  0
  -13.1220    4.6410  -75.5300 C   0  0  0  0  0  0  0  0  0  0  0  0
  -14.2740    4.2630  -75.3640 O   0  0  0  0  0  0  0  0  0  0  0  0
  -12.1080    3.6960  -76.0970 C   0  0  0  0  0  0  0  0  0  0  0  0
  -11.6100    3.8560  -77.3990 C   0  0  0  0  0  0  0  0  0  0  0  0
  -11.6600    2.6240  -75.3400 C   0  0  0  0  0  0  0  0  0  0  0  0
  -10.6870    2.9090  -77.9000 C   0  0  0  0  0  0  0  0  0  0  0  0
  -10.7520    1.6880  -75.8250 C   0  0  0  0  0  0  0  0  0  0  0  0
  -10.2480    1.7920  -77.1100 C   0  0  0  0  0  0  0  0  0  0  0  0
   -9.3250    0.8120  -77.6270 N   0  0  0  0  0  0  0  0  0  0  0  0
   -7.9560    0.7960  -77.4280 C   0  0  0  0  0  0  0  0  0  0  0  0
   -7.2760   -0.1320  -76.9910 O   0  0  0  0  0  0  0  0  0  0  0  0
   -7.4890    2.0250  -77.8150 N   0  0  0  0  0  0  0  0  0  0  0  0
   -6.9890    2.2070  -79.1720 C   0  0  0  0  0  0  0  0  0  0  0  0
   -8.6190    2.8650  -77.4880 C   0  0  2  0  0  0  0  0  0  0  0  0
   -7.8290    1.3760  -80.0820 C   0  0  0  0  0  0  0  0  0  0  0  0
   -8.9720    3.9750  -78.4740 C   0  0  0  0  0  0  0  0  0  0  0  0
   -8.5090    3.2240  -76.0280 C   0  0  0  0  0  0  0  0  0  0  0  0
   -8.2660    1.8830  -81.3030 C   0  0  0  0  0  0  0  0  0  0  0  0
   -8.1920    0.0810  -79.7050 C   0  0  0  0  0  0  0  0  0  0  0  0
   -7.0520    3.5850  -75.6810 C   0  0  0  0  0  0  0  0  0  0  0  0
   -9.0550    1.0950  -82.1160 C   0  0  0  0  0  0  0  0  0  0  0  0
   -8.9830   -0.6990  -80.5150 C   0  0  0  0  0  0  0  0  0  0  0  0
   -6.2650    3.6940  -76.8540 O   0  0  0  0  0  0  0  0  0  0  0  0
   -9.4130   -0.1910  -81.7170 C   0  0  0  0  0  0  0  0  0  0  0  0
  1  2  1  0
  2  3  1  0
  3  4  2  0
  3  5  1  0
  5  6  2  0
  5  7  1  0
  6  8  1  0
  7  9  2  0
  8 10  2  0
  9 10  1  0
 10 11  1  0
 11 12  1  0
 12 13  2  0
 12 14  1  0
 14 15  1  0
 14 16  1  0
 15 17  1  0
 16 18  1  6
 16 19  1  0
 17 20  2  0
 17 21  1  0
 19 22  1  0
 20 23  1  0
 21 24  2  0
 22 25  1  0
 23 26  2  0
 24 26  1  0
M  END
>  <ref_url>  (502) 
https://fakepage.com

>  <submitter_name>  (502) 
Steph Wills

>  <submitter_email>  (502) 
stephanie.wills@dtc.ox.ac.uk

>  <submitter_institution>  (502) 
University of Oxford

>  <generation_date>  (502) 
2020-06-04

>  <method>  (502) 
Fragment network

>  <ref_mols>  (502) 
x0183_0B,x0212_0B

>  <ref_pdb>  (502) 
references/x0183-0B-x0212-0B-3906.holo_minimised_nolig.pdb

>  <original SMILES>  (502) 
COC(=O)c1ccc(NC(=O)N(Cc2ccccc2)C(C)CCO)cc1

>  <synthon>  (502) 
[Xe]c1ccccc1

>  <original_name>  (502) 
x0183-0B-x0212-0B-3906

>  <comRMSD_score>  (502) 
0.7955005645178053

>  <IF_score>  (502) 
0.65

>  <SuCOS_score>  (502) 
0.4802494144931127

>  <compound_ID>  (502) 
REAL:Z1579866645

$$$$

     RDKit          3D

 25 26  0  0  0  0  0  0  0  0999 V2000
  -14.2320    6.0860  -73.0110 C   0  0  0  0  0  0  0  0  0  0  0  0
  -13.1930    6.6670  -73.9520 C   0  0  0  0  0  0  0  0  0  0  0  0
  -11.7990    6.1960  -73.5980 C   0  0  0  0  0  0  0  0  0  0  0  0
  -13.5920    6.2540  -75.6640 S   0  0  0  0  0  0  0  0  0  0  0  0
  -14.9800    6.6310  -75.8630 O   0  0  0  0  0  0  0  0  0  0  0  0
  -12.5760    6.8820  -76.4940 O   0  0  0  0  0  0  0  0  0  0  0  0
  -13.4990    4.4700  -75.9290 C   0  0  0  0  0  0  0  0  0  0  0  0
  -12.1070    4.0230  -76.2900 C   0  0  0  0  0  0  0  0  0  0  0  0
  -11.3500    3.1940  -75.4540 C   0  0  0  0  0  0  0  0  0  0  0  0
  -11.5510    4.4420  -77.5060 C   0  0  0  0  0  0  0  0  0  0  0  0
  -10.0710    2.7930  -75.8270 C   0  0  0  0  0  0  0  0  0  0  0  0
  -10.2670    4.0300  -77.8670 C   0  0  0  0  0  0  0  0  0  0  0  0
   -9.5430    3.2170  -77.0280 C   0  0  0  0  0  0  0  0  0  0  0  0
   -9.7550    4.4510  -79.0690 N   0  0  0  0  0  0  0  0  0  0  0  0
   -8.6580    3.9230  -79.7030 C   0  0  0  0  0  0  0  0  0  0  0  0
   -8.5830    3.6650  -80.8840 O   0  0  0  0  0  0  0  0  0  0  0  0
   -7.4370    3.6770  -78.8480 C   0  0  0  0  0  0  0  0  0  0  0  0
   -6.9990    2.2210  -78.9010 C   0  0  1  0  0  0  0  0  0  0  0  0
   -7.0860    1.6740  -77.5290 N   0  0  0  0  0  0  0  0  0  0  0  0
   -7.8290    1.3820  -79.8680 C   0  0  0  0  0  0  0  0  0  0  0  0
   -8.1200    1.7850  -81.1870 C   0  0  0  0  0  0  0  0  0  0  0  0
   -8.3260    0.1480  -79.4270 C   0  0  0  0  0  0  0  0  0  0  0  0
   -8.8870    0.9710  -82.0180 C   0  0  0  0  0  0  0  0  0  0  0  0
   -9.0950   -0.6640  -80.2640 C   0  0  0  0  0  0  0  0  0  0  0  0
   -9.3720   -0.2490  -81.5560 C   0  0  0  0  0  0  0  0  0  0  0  0
  1  2  1  0
  2  3  1  0
  2  4  1  0
  4  5  2  0
  4  6  2  0
  4  7  1  0
  7  8  1  0
  8  9  2  0
  8 10  1  0
  9 11  1  0
 10 12  2  0
 11 13  2  0
 12 13  1  0
 12 14  1  0
 14 15  1  0
 15 16  2  0
 15 17  1  0
 17 18  1  0
 18 19  1  1
 18 20  1  0
 20 21  2  0
 20 22  1  0
 21 23  1  0
 22 24  2  0
 23 25  2  0
 24 25  1  0
M  END
>  <ref_url>  (503) 
https://fakepage.com

>  <submitter_name>  (503) 
Steph Wills

>  <submitter_email>  (503) 
stephanie.wills@dtc.ox.ac.uk

>  <submitter_institution>  (503) 
University of Oxford

>  <generation_date>  (503) 
2020-06-04

>  <method>  (503) 
Fragment network

>  <ref_mols>  (503) 
x0183_0B,x0212_0B

>  <ref_pdb>  (503) 
references/x0183-0B-x0212-0B-3918.holo_minimised_nolig.pdb

>  <original SMILES>  (503) 
CC(C)S(=O)(=O)Cc1cccc(NC(=O)CC(N)c2ccccc2)c1

>  <synthon>  (503) 
[Xe]c1ccccc1

>  <original_name>  (503) 
x0183-0B-x0212-0B-3918

>  <comRMSD_score>  (503) 
0.8460070483902167

>  <IF_score>  (503) 
0.55

>  <SuCOS_score>  (503) 
0.5767887049105853

>  <compound_ID>  (503) 
REAL:Z2437505497

$$$$

     RDKit          3D

 16 17  0  0  0  0  0  0  0  0999 V2000
  -13.6310    5.1730  -75.5950 Br  0  0  0  0  0  0  0  0  0  0  0  0
  -12.0790    4.4810  -76.3970 C   0  0  0  0  0  0  0  0  0  0  0  0
  -11.7680    4.6910  -77.7450 C   0  0  0  0  0  0  0  0  0  0  0  0
  -11.2480    3.7470  -75.5940 C   0  0  0  0  0  0  0  0  0  0  0  0
  -10.5940    4.1290  -78.2720 C   0  0  0  0  0  0  0  0  0  0  0  0
  -10.1110    3.2090  -76.1190 C   0  0  0  0  0  0  0  0  0  0  0  0
   -9.7590    3.3720  -77.4350 C   0  0  0  0  0  0  0  0  0  0  0  0
   -8.5850    2.7480  -77.8210 N   0  0  0  0  0  0  0  0  0  0  0  0
   -7.7010    3.3370  -78.6280 N   0  0  0  0  0  0  0  0  0  0  0  0
   -7.0270    2.4150  -79.1330 N   0  0  0  0  0  0  0  0  0  0  0  0
   -7.8230    1.5900  -79.9510 C   0  0  0  0  0  0  0  0  0  0  0  0
   -8.2050    1.9950  -81.2380 C   0  0  0  0  0  0  0  0  0  0  0  0
   -8.2440    0.3360  -79.4840 C   0  0  0  0  0  0  0  0  0  0  0  0
   -8.9830    1.1590  -82.0310 C   0  0  0  0  0  0  0  0  0  0  0  0
   -9.0270   -0.4960  -80.2830 C   0  0  0  0  0  0  0  0  0  0  0  0
   -9.3950   -0.0850  -81.5560 C   0  0  0  0  0  0  0  0  0  0  0  0
  1  2  1  0
  2  3  2  0
  2  4  1  0
  3  5  1  0
  4  6  2  0
  5  7  2  0
  6  7  1  0
  7  8  1  0
  8  9  1  0
  9 10  2  3
 10 11  1  0
 11 12  2  0
 11 13  1  0
 12 14  1  0
 13 15  2  0
 14 16  2  0
 15 16  1  0
M  END
>  <ref_url>  (504) 
https://fakepage.com

>  <submitter_name>  (504) 
Steph Wills

>  <submitter_email>  (504) 
stephanie.wills@dtc.ox.ac.uk

>  <submitter_institution>  (504) 
University of Oxford

>  <generation_date>  (504) 
2020-06-04

>  <method>  (504) 
Fragment network

>  <ref_mols>  (504) 
x0183_0B,x0212_0B

>  <ref_pdb>  (504) 
references/x0183-0B-x0212-0B-4946.holo_minimised_nolig.pdb

>  <original SMILES>  (504) 
Brc1ccc(NN=Nc2ccccc2)cc1

>  <synthon>  (504) 
[Xe]c1ccccc1

>  <original_name>  (504) 
x0183-0B-x0212-0B-4946

>  <comRMSD_score>  (504) 
0.8776961183635689

>  <IF_score>  (504) 
0.55

>  <SuCOS_score>  (504) 
0.433742456792239

>  <compound_ID>  (504) 
MOLPORT:002-935-859

$$$$

     RDKit          3D

 26 27  0  0  0  0  0  0  0  0999 V2000
   -7.9880    3.1010  -76.1350 C   0  0  0  0  0  0  0  0  0  0  0  0
   -9.2590    3.6010  -76.7290 C   0  0  0  0  0  0  0  0  0  0  0  0
   -9.4230    3.9750  -78.0560 C   0  0  0  0  0  0  0  0  0  0  0  0
  -10.4420    3.7930  -76.1170 C   0  0  0  0  0  0  0  0  0  0  0  0
  -10.6960    4.4590  -78.4890 C   0  0  0  0  0  0  0  0  0  0  0  0
  -11.7070    4.2080  -76.3000 C   0  0  0  0  0  0  0  0  0  0  0  0
  -11.8450    4.5850  -77.6350 C   0  0  0  0  0  0  0  0  0  0  0  0
  -12.6720    4.2290  -75.2540 N   0  0  0  0  0  0  0  0  0  0  0  0
  -13.2140    2.8850  -74.9310 C   0  0  0  0  0  0  0  0  0  0  0  0
  -13.6470    5.6100  -75.0180 S   0  0  0  0  0  0  0  0  0  0  0  0
  -11.9740    2.0070  -74.6250 C   0  0  0  0  0  0  0  0  0  0  0  0
  -12.8550    6.3940  -73.6210 C   0  0  0  0  0  0  0  0  0  0  0  0
  -14.9470    5.1480  -74.5710 O   0  0  0  0  0  0  0  0  0  0  0  0
  -13.5470    6.4900  -76.1630 O   0  0  0  0  0  0  0  0  0  0  0  0
  -11.5370    1.1840  -75.8350 C   0  0  0  0  0  0  0  0  0  0  0  0
  -10.0810    0.6940  -75.9080 C   0  0  0  0  0  0  0  0  0  0  0  0
   -9.6230   -0.1570  -75.1570 O   0  0  0  0  0  0  0  0  0  0  0  0
   -9.3520    1.2790  -76.9480 N   0  0  0  0  0  0  0  0  0  0  0  0
   -7.9190    1.0370  -77.1930 C   0  0  0  0  0  0  0  0  0  0  0  0
   -7.3930    1.8030  -78.4360 C   0  0  0  0  0  0  0  0  0  0  0  0
   -8.0560    1.2270  -79.6480 C   0  0  0  0  0  0  0  0  0  0  0  0
   -8.2120    1.8790  -80.8920 C   0  0  0  0  0  0  0  0  0  0  0  0
   -8.5430   -0.0680  -79.4770 C   0  0  0  0  0  0  0  0  0  0  0  0
   -8.8580    1.2070  -81.9250 C   0  0  0  0  0  0  0  0  0  0  0  0
   -9.1780   -0.7150  -80.5050 C   0  0  0  0  0  0  0  0  0  0  0  0
   -9.3340   -0.0830  -81.7100 C   0  0  0  0  0  0  0  0  0  0  0  0
  1  2  1  0
  2  3  2  0
  2  4  1  0
  3  5  1  0
  4  6  2  0
  5  7  2  0
  6  7  1  0
  6  8  1  0
  8  9  1  0
 10  8  1  0
  9 11  1  0
 10 12  1  0
 10 13  2  0
 10 14  2  0
 11 15  1  0
 15 16  1  0
 16 17  2  0
 16 18  1  0
 18 19  1  0
 19 20  1  0
 20 21  1  0
 21 22  2  0
 21 23  1  0
 22 24  1  0
 23 25  2  0
 24 26  2  0
 25 26  1  0
M  END
>  <ref_url>  (505) 
https://fakepage.com

>  <submitter_name>  (505) 
Steph Wills

>  <submitter_email>  (505) 
stephanie.wills@dtc.ox.ac.uk

>  <submitter_institution>  (505) 
University of Oxford

>  <generation_date>  (505) 
2020-06-04

>  <method>  (505) 
Fragment network

>  <ref_mols>  (505) 
x0183_0B,x0212_0B

>  <ref_pdb>  (505) 
references/x0183-0B-x0212-0B-6620.holo_minimised_nolig.pdb

>  <original SMILES>  (505) 
Cc1cccc(N(CCCC(=O)NCCc2ccccc2)S(C)(=O)=O)c1

>  <synthon>  (505) 
[Xe]c1ccccc1

>  <original_name>  (505) 
x0183-0B-x0212-0B-6620

>  <comRMSD_score>  (505) 
0.6647411637734012

>  <IF_score>  (505) 
0.675

>  <SuCOS_score>  (505) 
0.4513767828501797

>  <compound_ID>  (505) 
MOLPORT:002-986-855

$$$$

     RDKit          3D

 23 24  0  0  0  0  0  0  0  0999 V2000
  -12.8800    6.2710  -73.7400 C   0  0  0  0  0  0  0  0  0  0  0  0
  -13.5470    5.8340  -74.9390 O   0  0  0  0  0  0  0  0  0  0  0  0
  -13.4210    4.5210  -75.2960 C   0  0  0  0  0  0  0  0  0  0  0  0
  -14.2610    3.6420  -75.1650 O   0  0  0  0  0  0  0  0  0  0  0  0
  -12.1030    4.2750  -75.9110 C   0  0  0  0  0  0  0  0  0  0  0  0
  -11.2800    3.3050  -75.3400 C   0  0  0  0  0  0  0  0  0  0  0  0
  -11.6770    4.9730  -77.0380 C   0  0  0  0  0  0  0  0  0  0  0  0
  -10.0340    3.0460  -75.8890 C   0  0  0  0  0  0  0  0  0  0  0  0
  -10.4280    4.7010  -77.5850 C   0  0  0  0  0  0  0  0  0  0  0  0
   -9.6080    3.7400  -77.0080 C   0  0  0  0  0  0  0  0  0  0  0  0
   -8.3480    3.4080  -77.4570 N   0  0  0  0  0  0  0  0  0  0  0  0
   -7.2600    3.0780  -76.6600 C   0  0  0  0  0  0  0  0  0  0  0  0
   -6.7260    3.7770  -75.8000 O   0  0  0  0  0  0  0  0  0  0  0  0
   -6.7680    1.6580  -76.9890 C   0  0  2  0  0  0  0  0  0  0  0  0
   -5.6010    1.2610  -76.0880 C   0  0  0  0  0  0  0  0  0  0  0  0
   -6.3140    1.5170  -78.3210 O   0  0  0  0  0  0  0  0  0  0  0  0
   -6.9100    2.3910  -79.2770 C   0  0  0  0  0  0  0  0  0  0  0  0
   -7.8960    1.5750  -80.0560 C   0  0  0  0  0  0  0  0  0  0  0  0
   -8.3430    2.0190  -81.3030 C   0  0  0  0  0  0  0  0  0  0  0  0
   -8.3760    0.3590  -79.5490 C   0  0  0  0  0  0  0  0  0  0  0  0
   -9.2530    1.2600  -82.0240 C   0  0  0  0  0  0  0  0  0  0  0  0
   -9.2900   -0.3980  -80.2780 C   0  0  0  0  0  0  0  0  0  0  0  0
   -9.7270    0.0540  -81.5150 C   0  0  0  0  0  0  0  0  0  0  0  0
  1  2  1  0
  2  3  1  0
  3  4  2  0
  3  5  1  0
  5  6  2  0
  5  7  1  0
  6  8  1  0
  7  9  2  0
  8 10  2  0
  9 10  1  0
 10 11  1  0
 11 12  1  0
 12 13  2  0
 12 14  1  0
 14 15  1  1
 14 16  1  0
 16 17  1  0
 17 18  1  0
 18 19  2  0
 18 20  1  0
 19 21  1  0
 20 22  2  0
 21 23  2  0
 22 23  1  0
M  END
>  <ref_url>  (506) 
https://fakepage.com

>  <submitter_name>  (506) 
Steph Wills

>  <submitter_email>  (506) 
stephanie.wills@dtc.ox.ac.uk

>  <submitter_institution>  (506) 
University of Oxford

>  <generation_date>  (506) 
2020-06-04

>  <method>  (506) 
Fragment network

>  <ref_mols>  (506) 
x0183_0B,x0212_0B

>  <ref_pdb>  (506) 
references/x0183-0B-x0212-0B-6635.holo_minimised_nolig.pdb

>  <original SMILES>  (506) 
COC(=O)c1ccc(NC(=O)C(C)OCc2ccccc2)cc1

>  <synthon>  (506) 
[Xe]c1ccccc1

>  <original_name>  (506) 
x0183-0B-x0212-0B-6635

>  <comRMSD_score>  (506) 
0.6393396477500701

>  <IF_score>  (506) 
0.6666666666666666

>  <SuCOS_score>  (506) 
0.4834667207616893

>  <compound_ID>  (506) 
REAL:Z1708429091, REAL:Z391946878

$$$$

     RDKit          3D

 27 28  0  0  0  0  0  0  0  0999 V2000
  -13.8470    5.7590  -72.7840 C   0  0  0  0  0  0  0  0  0  0  0  0
  -13.2260    6.5300  -73.9210 C   0  0  0  0  0  0  0  0  0  0  0  0
  -11.8510    6.5550  -73.9690 C   0  0  0  0  0  0  0  0  0  0  0  0
  -13.6730    5.9050  -75.1690 N   0  0  0  0  0  0  0  0  0  0  0  0
  -13.3000    6.6300  -76.4120 C   0  0  0  0  0  0  0  0  0  0  0  0
  -13.4810    4.1970  -75.2610 S   0  0  0  0  0  0  0  0  0  0  0  0
  -14.5250    3.6430  -76.0960 O   0  0  0  0  0  0  0  0  0  0  0  0
  -13.2740    3.6860  -73.9180 O   0  0  0  0  0  0  0  0  0  0  0  0
  -11.9410    3.9970  -76.1070 C   0  0  0  0  0  0  0  0  0  0  0  0
  -10.9520    3.2350  -75.5010 C   0  0  0  0  0  0  0  0  0  0  0  0
  -11.7410    4.6010  -77.3640 C   0  0  0  0  0  0  0  0  0  0  0  0
   -9.6480    3.0570  -76.1860 C   0  0  0  0  0  0  0  0  0  0  0  0
  -10.5260    4.4620  -78.0510 C   0  0  0  0  0  0  0  0  0  0  0  0
   -9.4690    3.7220  -77.5160 C   0  0  0  0  0  0  0  0  0  0  0  0
   -8.2240    3.5400  -78.1110 N   0  0  0  0  0  0  0  0  0  0  0  0
   -7.0050    3.7010  -77.4900 C   0  0  0  0  0  0  0  0  0  0  0  0
   -6.7560    3.6200  -76.2930 O   0  0  0  0  0  0  0  0  0  0  0  0
   -5.9780    4.0090  -78.5140 N   0  0  0  0  0  0  0  0  0  0  0  0
   -6.2950    3.3030  -79.7450 C   0  0  0  0  0  0  0  0  0  0  0  0
   -6.6530    2.0020  -79.3980 C   0  0  2  0  0  0  0  0  0  0  0  0
   -5.4650    1.2070  -79.4780 O   0  0  0  0  0  0  0  0  0  0  0  0
   -7.6090    1.3210  -80.1340 C   0  0  0  0  0  0  0  0  0  0  0  0
   -8.1100    1.8380  -81.3160 C   0  0  0  0  0  0  0  0  0  0  0  0
   -8.0620    0.0760  -79.6580 C   0  0  0  0  0  0  0  0  0  0  0  0
   -9.1310    1.0040  -82.0490 C   0  0  0  0  0  0  0  0  0  0  0  0
   -9.0150   -0.6800  -80.3530 C   0  0  0  0  0  0  0  0  0  0  0  0
   -9.5480   -0.2190  -81.5510 C   0  0  0  0  0  0  0  0  0  0  0  0
  1  2  1  0
  2  3  1  0
  2  4  1  0
  4  5  1  0
  6  4  1  0
  6  7  2  0
  6  8  2  0
  6  9  1  0
  9 10  2  0
  9 11  1  0
 10 12  1  0
 11 13  2  0
 12 14  2  0
 13 14  1  0
 14 15  1  0
 15 16  1  0
 16 17  2  0
 16 18  1  0
 18 19  1  0
 19 20  1  0
 20 21  1  6
 20 22  1  0
 22 23  2  0
 22 24  1  0
 23 25  1  0
 24 26  2  0
 25 27  2  0
 26 27  1  0
M  END
>  <ref_url>  (507) 
https://fakepage.com

>  <submitter_name>  (507) 
Steph Wills

>  <submitter_email>  (507) 
stephanie.wills@dtc.ox.ac.uk

>  <submitter_institution>  (507) 
University of Oxford

>  <generation_date>  (507) 
2020-06-04

>  <method>  (507) 
Fragment network

>  <ref_mols>  (507) 
x0183_0B,x0212_0B

>  <ref_pdb>  (507) 
references/x0183-0B-x0212-0B-6896.holo_minimised_nolig.pdb

>  <original SMILES>  (507) 
CC(C)N(C)S(=O)(=O)c1ccc(NC(=O)NCC(O)c2ccccc2)cc1

>  <synthon>  (507) 
[Xe]c1ccccc1

>  <original_name>  (507) 
x0183-0B-x0212-0B-6896

>  <comRMSD_score>  (507) 
0.5751537314621314

>  <IF_score>  (507) 
0.55

>  <SuCOS_score>  (507) 
0.5279516235977263

>  <compound_ID>  (507) 
MOLPORT:009-312-861

$$$$

     RDKit          3D

 24 25  0  0  0  0  0  0  0  0999 V2000
   -6.5120    3.0510  -78.3840 N   0  0  0  0  0  0  0  0  0  0  0  0
   -7.2180    2.3910  -79.0300 C   0  0  0  0  0  0  0  0  0  0  0  0
   -8.0490    1.5680  -79.8590 C   0  0  0  0  0  0  0  0  0  0  0  0
   -8.2800    1.9790  -81.1830 C   0  0  0  0  0  0  0  0  0  0  0  0
   -8.6330    0.3700  -79.3820 C   0  0  0  0  0  0  0  0  0  0  0  0
   -9.0730    1.2130  -82.0230 C   0  0  0  0  0  0  0  0  0  0  0  0
   -9.4280   -0.3830  -80.2500 C   0  0  0  0  0  0  0  0  0  0  0  0
   -8.3860    0.0120  -78.0740 O   0  0  0  0  0  0  0  0  0  0  0  0
   -9.6420    0.0390  -81.5550 C   0  0  0  0  0  0  0  0  0  0  0  0
   -9.0270   -1.1640  -77.5550 C   0  0  0  0  0  0  0  0  0  0  0  0
   -9.7470   -1.0190  -76.2040 C   0  0  0  0  0  0  0  0  0  0  0  0
   -9.1380   -1.1470  -75.1460 O   0  0  0  0  0  0  0  0  0  0  0  0
  -11.1110   -0.7540  -76.3250 N   0  0  0  0  0  0  0  0  0  0  0  0
  -11.6590    0.2600  -75.6100 N   0  0  0  0  0  0  0  0  0  0  0  0
  -12.7400    0.8850  -75.9880 C   0  0  0  0  0  0  0  0  0  0  0  0
  -13.5240    2.0290  -75.3950 C   0  0  0  0  0  0  0  0  0  0  0  0
  -15.1720    1.7310  -74.5670 Br  0  0  0  0  0  0  0  0  0  0  0  0
  -13.0130    3.2780  -75.4850 C   0  0  0  0  0  0  0  0  0  0  0  0
  -11.7520    3.5300  -76.1670 C   0  0  0  0  0  0  0  0  0  0  0  0
  -10.6370    2.7300  -75.8940 C   0  0  0  0  0  0  0  0  0  0  0  0
  -11.6670    4.5450  -77.1140 C   0  0  0  0  0  0  0  0  0  0  0  0
   -9.4490    2.9310  -76.5870 C   0  0  0  0  0  0  0  0  0  0  0  0
  -10.4820    4.7310  -77.8080 C   0  0  0  0  0  0  0  0  0  0  0  0
   -9.3760    3.9230  -77.5510 C   0  0  0  0  0  0  0  0  0  0  0  0
  1  2  3  0
  2  3  1  0
  3  4  2  0
  3  5  1  0
  4  6  1  0
  5  7  2  0
  5  8  1  0
  6  9  2  0
  7  9  1  0
  8 10  1  0
 10 11  1  0
 11 12  2  0
 11 13  1  0
 13 14  1  0
 14 15  2  3
 15 16  1  0
 16 17  1  0
 16 18  2  3
 18 19  1  0
 19 20  2  0
 19 21  1  0
 20 22  1  0
 21 23  2  0
 22 24  2  0
 23 24  1  0
M  END
>  <ref_url>  (508) 
https://fakepage.com

>  <submitter_name>  (508) 
Steph Wills

>  <submitter_email>  (508) 
stephanie.wills@dtc.ox.ac.uk

>  <submitter_institution>  (508) 
University of Oxford

>  <generation_date>  (508) 
2020-06-04

>  <method>  (508) 
Fragment network

>  <ref_mols>  (508) 
x0183_0B,x0212_0B

>  <ref_pdb>  (508) 
references/x0183-0B-x0212-0B-9576.holo_minimised_nolig.pdb

>  <original SMILES>  (508) 
N#Cc1ccccc1OCC(=O)NN=CC(Br)=Cc1ccccc1

>  <synthon>  (508) 
[Xe]c1ccccc1

>  <original_name>  (508) 
x0183-0B-x0212-0B-9576

>  <comRMSD_score>  (508) 
0.6503134209398918

>  <IF_score>  (508) 
0.5833333333333334

>  <SuCOS_score>  (508) 
0.4390587667392548

>  <compound_ID>  (508) 
MOLPORT:009-516-957

$$$$

     RDKit          3D

 26 27  0  0  0  0  0  0  0  0999 V2000
   -6.4680    3.1090  -78.0370 C   0  0  0  0  0  0  0  0  0  0  0  0
   -7.2080    2.5020  -78.7480 C   0  0  0  0  0  0  0  0  0  0  0  0
   -8.1250    1.7590  -79.5330 C   0  0  0  0  0  0  0  0  0  0  0  0
   -8.0820    1.7650  -80.9140 C   0  0  0  0  0  0  0  0  0  0  0  0
   -9.0890    1.0210  -78.8610 C   0  0  0  0  0  0  0  0  0  0  0  0
   -9.0030    1.0020  -81.6010 C   0  0  0  0  0  0  0  0  0  0  0  0
  -10.0350    0.2640  -79.5420 C   0  0  0  0  0  0  0  0  0  0  0  0
   -9.9750    0.2460  -80.9320 C   0  0  0  0  0  0  0  0  0  0  0  0
  -10.9860   -0.4090  -78.7230 N   0  0  0  0  0  0  0  0  0  0  0  0
  -12.2620    0.0740  -78.3350 C   0  0  0  0  0  0  0  0  0  0  0  0
  -13.3300   -0.3550  -78.7700 O   0  0  0  0  0  0  0  0  0  0  0  0
  -12.2500    1.2250  -77.2900 C   0  0  0  0  0  0  0  0  0  0  0  0
  -13.5850    2.0300  -77.2410 C   0  0  0  0  0  0  0  0  0  0  0  0
  -13.8180    2.9030  -75.9650 C   0  0  0  0  0  0  0  0  0  0  0  0
  -14.7000    2.5870  -75.1580 O   0  0  0  0  0  0  0  0  0  0  0  0
  -13.0050    4.0370  -75.7640 N   0  0  0  0  0  0  0  0  0  0  0  0
  -13.6970    5.3670  -75.6610 C   0  0  0  0  0  0  0  0  0  0  0  0
  -11.7550    3.9900  -76.4310 C   0  0  0  0  0  0  0  0  0  0  0  0
  -13.0560    6.4660  -74.7750 C   0  0  0  0  0  0  0  0  0  0  0  0
  -11.6090    4.5680  -77.6920 C   0  0  0  0  0  0  0  0  0  0  0  0
  -10.6590    3.3470  -75.8440 C   0  0  0  0  0  0  0  0  0  0  0  0
  -12.5280    5.9740  -73.5560 C   0  0  0  0  0  0  0  0  0  0  0  0
  -10.3890    4.4960  -78.3550 C   0  0  0  0  0  0  0  0  0  0  0  0
   -9.4380    3.2790  -76.5110 C   0  0  0  0  0  0  0  0  0  0  0  0
  -12.0030    5.6400  -72.6410 N   0  0  0  0  0  0  0  0  0  0  0  0
   -9.3120    3.8550  -77.7700 C   0  0  0  0  0  0  0  0  0  0  0  0
  1  2  3  0
  2  3  1  0
  3  4  2  0
  3  5  1  0
  4  6  1  0
  5  7  2  0
  6  8  2  0
  7  8  1  0
  7  9  1  0
  9 10  1  0
 10 11  2  0
 10 12  1  0
 12 13  1  0
 13 14  1  0
 14 15  2  0
 14 16  1  0
 16 17  1  0
 16 18  1  0
 17 19  1  0
 18 20  2  0
 18 21  1  0
 19 22  1  0
 20 23  1  0
 21 24  2  0
 22 25  3  0
 23 26  2  0
 24 26  1  0
M  END
>  <ref_url>  (509) 
https://fakepage.com

>  <submitter_name>  (509) 
Steph Wills

>  <submitter_email>  (509) 
stephanie.wills@dtc.ox.ac.uk

>  <submitter_institution>  (509) 
University of Oxford

>  <generation_date>  (509) 
2020-06-04

>  <method>  (509) 
Fragment network

>  <ref_mols>  (509) 
x0183_0B,x0212_0B

>  <ref_pdb>  (509) 
references/x0183-0B-x0212-0B-9717.holo_minimised_nolig.pdb

>  <original SMILES>  (509) 
C#Cc1cccc(NC(=O)CCC(=O)N(CCC#N)c2ccccc2)c1

>  <synthon>  (509) 
[Xe]c1ccccc1

>  <original_name>  (509) 
x0183-0B-x0212-0B-9717

>  <comRMSD_score>  (509) 
0.8802282742645882

>  <IF_score>  (509) 
0.45

>  <SuCOS_score>  (509) 
0.4472742412520595

>  <compound_ID>  (509) 
MOLPORT:020-152-580

$$$$

     RDKit          3D

 24 25  0  0  0  0  0  0  0  0999 V2000
  -12.3590    8.2450  -75.3120 C   0  0  0  0  0  0  0  0  0  0  0  0
  -13.4630    7.6490  -74.4350 C   0  0  0  0  0  0  0  0  0  0  0  0
  -13.1690    6.2190  -73.9140 C   0  0  0  0  0  0  0  0  0  0  0  0
  -14.0230    5.9140  -72.6980 C   0  0  0  0  0  0  0  0  0  0  0  0
  -11.7170    6.1740  -73.5200 C   0  0  0  0  0  0  0  0  0  0  0  0
  -13.4260    5.2670  -74.9600 O   0  0  0  0  0  0  0  0  0  0  0  0
  -12.6470    4.0470  -75.0380 C   0  0  0  0  0  0  0  0  0  0  0  0
  -11.7760    4.1150  -76.2750 C   0  0  0  0  0  0  0  0  0  0  0  0
  -12.4240    4.7710  -77.3090 C   0  0  0  0  0  0  0  0  0  0  0  0
  -10.4350    3.6350  -76.5510 C   0  0  0  0  0  0  0  0  0  0  0  0
  -11.8450    4.9580  -78.5170 C   0  0  0  0  0  0  0  0  0  0  0  0
   -9.8900    3.8560  -77.7920 C   0  0  0  0  0  0  0  0  0  0  0  0
   -9.5210    2.9520  -75.7550 N   0  0  0  0  0  0  0  0  0  0  0  0
  -10.5690    4.5050  -78.7690 C   0  0  0  0  0  0  0  0  0  0  0  0
   -8.2090    2.9320  -76.2200 C   0  0  0  0  0  0  0  0  0  0  0  0
   -7.2790    3.6070  -75.7970 O   0  0  0  0  0  0  0  0  0  0  0  0
   -7.9070    2.1100  -77.2850 N   0  0  0  0  0  0  0  0  0  0  0  0
   -7.4200    2.4530  -78.6240 C   0  0  0  0  0  0  0  0  0  0  0  0
   -8.0720    1.5640  -79.6520 C   0  0  0  0  0  0  0  0  0  0  0  0
   -8.4960    0.2900  -79.2570 C   0  0  0  0  0  0  0  0  0  0  0  0
   -8.2710    1.9630  -80.9880 C   0  0  0  0  0  0  0  0  0  0  0  0
   -9.1050   -0.5700  -80.1560 C   0  0  0  0  0  0  0  0  0  0  0  0
   -8.8820    1.0950  -81.8850 C   0  0  0  0  0  0  0  0  0  0  0  0
   -9.2970   -0.1670  -81.4640 C   0  0  0  0  0  0  0  0  0  0  0  0
  1  2  1  0
  2  3  1  0
  3  4  1  0
  3  5  1  0
  3  6  1  0
  6  7  1  0
  7  8  1  0
  8  9  2  0
  8 10  1  0
  9 11  1  0
 10 12  2  0
 10 13  1  0
 11 14  2  0
 12 14  1  0
 13 15  1  0
 15 16  2  0
 15 17  1  0
 17 18  1  0
 18 19  1  0
 19 20  2  0
 19 21  1  0
 20 22  1  0
 21 23  2  0
 22 24  2  0
 23 24  1  0
M  END
>  <ref_url>  (510) 
https://fakepage.com

>  <submitter_name>  (510) 
Steph Wills

>  <submitter_email>  (510) 
stephanie.wills@dtc.ox.ac.uk

>  <submitter_institution>  (510) 
University of Oxford

>  <generation_date>  (510) 
2020-06-04

>  <method>  (510) 
Fragment network

>  <ref_mols>  (510) 
x0183_0B,x0212_0B

>  <ref_pdb>  (510) 
references/x0183-0B-x0212-0B-11860.holo_minimised_nolig.pdb

>  <original SMILES>  (510) 
CCC(C)(C)OCc1ccccc1NC(=O)NCc1ccccc1

>  <synthon>  (510) 
[Xe]c1ccccc1

>  <original_name>  (510) 
x0183-0B-x0212-0B-11860

>  <comRMSD_score>  (510) 
0.9317543389478524

>  <IF_score>  (510) 
0.55

>  <SuCOS_score>  (510) 
0.5180930518395815

>  <compound_ID>  (510) 
REAL:Z1672831456

$$$$

     RDKit          3D

 20 21  0  0  0  0  0  0  0  0999 V2000
  -12.6830    6.1240  -73.6760 C   0  0  0  0  0  0  0  0  0  0  0  0
  -13.3250    4.8250  -74.1700 C   0  0  0  0  0  0  0  0  0  0  0  0
  -13.0660    3.9780  -75.2570 C   0  0  0  0  0  0  0  0  0  0  0  0
  -12.1250    4.0840  -76.2740 C   0  0  0  0  0  0  0  0  0  0  0  0
  -12.6040    4.7490  -77.3830 C   0  0  0  0  0  0  0  0  0  0  0  0
  -10.7970    3.5860  -76.2860 C   0  0  0  0  0  0  0  0  0  0  0  0
  -11.8370    4.9430  -78.4930 C   0  0  0  0  0  0  0  0  0  0  0  0
  -10.0010    3.7830  -77.3940 C   0  0  0  0  0  0  0  0  0  0  0  0
  -10.1970    2.9080  -75.3010 O   0  0  0  0  0  0  0  0  0  0  0  0
  -10.4410    4.4300  -78.4980 C   0  0  0  0  0  0  0  0  0  0  0  0
   -8.9070    2.4850  -75.8200 C   0  0  0  0  0  0  0  0  0  0  0  0
   -8.8920    2.3840  -77.2140 C   0  0  0  0  0  0  0  0  0  0  0  0
   -7.5240    2.1150  -77.6640 N   0  0  0  0  0  0  0  0  0  0  0  0
   -7.2650    2.5450  -79.0360 C   0  0  0  0  0  0  0  0  0  0  0  0
   -7.9100    1.6340  -79.8610 C   0  0  0  0  0  0  0  0  0  0  0  0
   -8.2420    2.0220  -81.2870 C   0  0  0  0  0  0  0  0  0  0  0  0
   -8.2640    0.3570  -79.3970 C   0  0  0  0  0  0  0  0  0  0  0  0
   -8.8840    1.1070  -82.0920 C   0  0  0  0  0  0  0  0  0  0  0  0
   -8.9150   -0.5660  -80.2180 C   0  0  0  0  0  0  0  0  0  0  0  0
   -9.2500   -0.2780  -81.5390 C   0  0  0  0  0  0  0  0  0  0  0  0
  1  2  1  0
  2  3  2  3
  3  4  1  0
  4  5  2  0
  4  6  1  0
  5  7  1  0
  6  8  2  0
  6  9  1  0
  7 10  2  0
  8 10  1  0
  9 11  1  0
 11 12  1  0
 12 13  1  0
 13 14  1  0
 14 15  1  0
 15 16  2  0
 15 17  1  0
 16 18  1  0
 17 19  2  0
 18 20  2  0
 19 20  1  0
M  END
>  <ref_url>  (511) 
https://fakepage.com

>  <submitter_name>  (511) 
Steph Wills

>  <submitter_email>  (511) 
stephanie.wills@dtc.ox.ac.uk

>  <submitter_institution>  (511) 
University of Oxford

>  <generation_date>  (511) 
2020-06-04

>  <method>  (511) 
Fragment network

>  <ref_mols>  (511) 
x0183_0B,x0212_0B

>  <ref_pdb>  (511) 
references/x0183-0B-x0212-0B-13561.holo_minimised_nolig.pdb

>  <original SMILES>  (511) 
CC=Cc1ccccc1OCCNCc1ccccc1

>  <synthon>  (511) 
[Xe]c1ccccc1

>  <original_name>  (511) 
x0183-0B-x0212-0B-13561

>  <comRMSD_score>  (511) 
0.7748758323470641

>  <IF_score>  (511) 
0.55

>  <SuCOS_score>  (511) 
0.5824537300620125

>  <compound_ID>  (511) 
CHEMSPACE-BB:CSMB00011703133

$$$$

     RDKit          3D

 26 27  0  0  0  0  0  0  0  0999 V2000
  -11.4660    6.3650  -73.6220 C   0  0  0  0  0  0  0  0  0  0  0  0
  -11.5660    7.7600  -73.7100 O   0  0  0  0  0  0  0  0  0  0  0  0
  -12.7620    7.9700  -74.3740 C   0  0  0  0  0  0  0  0  0  0  0  0
  -13.7030    6.7730  -74.1820 C   0  0  2  0  0  0  0  0  0  0  0  0
  -13.2600    5.8080  -73.0860 C   0  0  0  0  0  0  0  0  0  0  0  0
  -13.8630    6.0880  -75.4820 N   0  0  0  0  0  0  0  0  0  0  0  0
  -13.8770    4.4330  -75.7650 S   0  0  0  0  0  0  0  0  0  0  0  0
  -14.7660    4.2080  -76.8810 O   0  0  0  0  0  0  0  0  0  0  0  0
  -14.0700    3.7040  -74.5460 O   0  0  0  0  0  0  0  0  0  0  0  0
  -12.2410    4.1360  -76.3540 C   0  0  0  0  0  0  0  0  0  0  0  0
  -11.3300    3.3870  -75.6090 C   0  0  0  0  0  0  0  0  0  0  0  0
  -11.8950    4.6730  -77.5910 C   0  0  0  0  0  0  0  0  0  0  0  0
  -10.0570    3.1760  -76.1250 C   0  0  0  0  0  0  0  0  0  0  0  0
  -10.6260    4.4540  -78.0930 C   0  0  0  0  0  0  0  0  0  0  0  0
   -9.7090    3.7090  -77.3680 C   0  0  0  0  0  0  0  0  0  0  0  0
   -8.4290    3.4590  -77.8190 N   0  0  0  0  0  0  0  0  0  0  0  0
   -7.3410    3.0300  -77.0930 C   0  0  0  0  0  0  0  0  0  0  0  0
   -6.9650    3.4220  -75.9940 O   0  0  0  0  0  0  0  0  0  0  0  0
   -6.6320    1.9610  -77.8830 C   0  0  0  0  0  0  0  0  0  0  0  0
   -6.6760    2.3030  -79.3620 C   0  0  0  0  0  0  0  0  0  0  0  0
   -7.6480    1.4260  -80.1140 C   0  0  0  0  0  0  0  0  0  0  0  0
   -8.1650    1.8650  -81.3280 C   0  0  0  0  0  0  0  0  0  0  0  0
   -8.0340    0.1750  -79.6100 C   0  0  0  0  0  0  0  0  0  0  0  0
   -9.0500    1.0630  -82.0300 C   0  0  0  0  0  0  0  0  0  0  0  0
   -8.9270   -0.6250  -80.3200 C   0  0  0  0  0  0  0  0  0  0  0  0
   -9.4300   -0.1780  -81.5290 C   0  0  0  0  0  0  0  0  0  0  0  0
  1  2  1  0
  2  3  1  0
  3  4  1  0
  4  5  1  1
  4  6  1  0
  7  6  1  0
  7  8  2  0
  7  9  2  0
  7 10  1  0
 10 11  2  0
 10 12  1  0
 11 13  1  0
 12 14  2  0
 13 15  2  0
 14 15  1  0
 15 16  1  0
 16 17  1  0
 17 18  2  0
 17 19  1  0
 19 20  1  0
 20 21  1  0
 21 22  2  0
 21 23  1  0
 22 24  1  0
 23 25  2  0
 24 26  2  0
 25 26  1  0
M  END
>  <ref_url>  (512) 
https://fakepage.com

>  <submitter_name>  (512) 
Steph Wills

>  <submitter_email>  (512) 
stephanie.wills@dtc.ox.ac.uk

>  <submitter_institution>  (512) 
University of Oxford

>  <generation_date>  (512) 
2020-06-04

>  <method>  (512) 
Fragment network

>  <ref_mols>  (512) 
x0183_0B,x0212_0B

>  <ref_pdb>  (512) 
references/x0183-0B-x0212-0B-14551.holo_minimised_nolig.pdb

>  <original SMILES>  (512) 
COCC(C)NS(=O)(=O)c1ccc(NC(=O)CCc2ccccc2)cc1

>  <synthon>  (512) 
[Xe]c1ccccc1

>  <original_name>  (512) 
x0183-0B-x0212-0B-14551

>  <comRMSD_score>  (512) 
0.8185360464019031

>  <IF_score>  (512) 
0.675

>  <SuCOS_score>  (512) 
0.535224784476066

>  <compound_ID>  (512) 
REAL:Z28457132

$$$$

     RDKit          3D

 22 23  0  0  0  0  0  0  0  0999 V2000
  -13.4080    4.3180  -75.3210 C   0  0  0  0  0  0  0  0  0  0  0  0
  -12.1210    4.1640  -76.1010 C   0  0  0  0  0  0  0  0  0  0  0  0
  -12.1440    4.6800  -77.5140 C   0  0  0  0  0  0  0  0  0  0  0  0
  -10.9570    3.5900  -75.5810 C   0  0  0  0  0  0  0  0  0  0  0  0
  -10.8890    4.5520  -78.3220 C   0  0  0  0  0  0  0  0  0  0  0  0
   -9.7800    3.4790  -76.3450 C   0  0  0  0  0  0  0  0  0  0  0  0
   -9.7060    3.9340  -77.6830 C   0  0  0  0  0  0  0  0  0  0  0  0
   -8.6750    2.9130  -75.7390 N   0  0  0  0  0  0  0  0  0  0  0  0
   -7.3790    3.5810  -75.9090 C   0  0  0  0  0  0  0  0  0  0  0  0
   -6.5520    3.9860  -75.1110 O   0  0  0  0  0  0  0  0  0  0  0  0
   -7.2000    3.7290  -77.2220 N   0  0  0  0  0  0  0  0  0  0  0  0
   -7.6330    2.7940  -78.1150 C   0  0  0  0  0  0  0  0  0  0  0  0
   -8.8390    1.6410  -77.9300 S   0  0  0  0  0  0  0  0  0  0  0  0
   -6.8720    2.9730  -79.1570 N   0  0  0  0  0  0  0  0  0  0  0  0
   -6.4950    1.9870  -79.9990 C   0  0  0  0  0  0  0  0  0  0  0  0
   -5.3870    1.6560  -80.4030 O   0  0  0  0  0  0  0  0  0  0  0  0
   -7.5030    1.2090  -80.5060 C   0  0  0  0  0  0  0  0  0  0  0  0
   -7.8130   -0.0360  -79.9420 C   0  0  0  0  0  0  0  0  0  0  0  0
   -8.2050    1.6900  -81.5860 C   0  0  0  0  0  0  0  0  0  0  0  0
   -8.8410   -0.8020  -80.4930 C   0  0  0  0  0  0  0  0  0  0  0  0
   -9.2120    0.9300  -82.1240 C   0  0  0  0  0  0  0  0  0  0  0  0
   -9.5390   -0.3160  -81.5910 C   0  0  0  0  0  0  0  0  0  0  0  0
  1  2  1  0
  2  3  2  0
  2  4  1  0
  3  5  1  0
  4  6  2  0
  5  7  2  0
  6  7  1  0
  6  8  1  0
  8  9  1  0
  9 10  2  0
  9 11  1  0
 11 12  1  0
 12 13  2  0
 12 14  1  0
 14 15  1  0
 15 16  2  0
 15 17  1  0
 17 18  2  0
 17 19  1  0
 18 20  1  0
 19 21  2  0
 20 22  2  0
 21 22  1  0
M  END
>  <ref_url>  (513) 
https://fakepage.com

>  <submitter_name>  (513) 
Steph Wills

>  <submitter_email>  (513) 
stephanie.wills@dtc.ox.ac.uk

>  <submitter_institution>  (513) 
University of Oxford

>  <generation_date>  (513) 
2020-06-04

>  <method>  (513) 
Fragment network

>  <ref_mols>  (513) 
x0183_0B,x0212_0B

>  <ref_pdb>  (513) 
references/x0183-0B-x0212-0B-14596.holo_minimised_nolig.pdb

>  <original SMILES>  (513) 
Cc1cccc(NC(=O)NC(=S)NC(=O)c2ccccc2)c1

>  <synthon>  (513) 
[Xe]c1ccccc1

>  <original_name>  (513) 
x0183-0B-x0212-0B-14596

>  <comRMSD_score>  (513) 
0.7862542182094616

>  <IF_score>  (513) 
0.65

>  <SuCOS_score>  (513) 
0.4366757993561577

>  <compound_ID>  (513) 
MOLPORT:002-831-653

$$$$

     RDKit          3D

 22 23  0  0  0  0  0  0  0  0999 V2000
  -11.7850    6.1470  -73.6470 C   0  0  0  0  0  0  0  0  0  0  0  0
  -13.2730    6.2150  -73.8190 C   0  0  0  0  0  0  0  0  0  0  0  0
  -13.6770    5.8450  -75.1480 O   0  0  0  0  0  0  0  0  0  0  0  0
  -13.4720    4.4810  -75.5910 C   0  0  0  0  0  0  0  0  0  0  0  0
  -12.1660    4.3260  -76.3480 C   0  0  0  0  0  0  0  0  0  0  0  0
  -12.1370    4.7310  -77.6830 C   0  0  0  0  0  0  0  0  0  0  0  0
  -10.9910    3.8030  -75.7930 C   0  0  0  0  0  0  0  0  0  0  0  0
  -10.9790    4.6120  -78.4310 C   0  0  0  0  0  0  0  0  0  0  0  0
   -9.8270    3.6990  -76.5680 C   0  0  0  0  0  0  0  0  0  0  0  0
   -9.8340    4.1020  -77.8830 C   0  0  0  0  0  0  0  0  0  0  0  0
   -8.6840    3.1860  -75.9950 N   0  0  0  0  0  0  0  0  0  0  0  0
   -7.4840    3.1890  -76.6400 C   0  0  0  0  0  0  0  0  0  0  0  0
   -6.4670    3.8180  -76.3520 O   0  0  0  0  0  0  0  0  0  0  0  0
   -7.5930    2.3270  -77.7100 N   0  0  0  0  0  0  0  0  0  0  0  0
   -8.8960    1.6760  -77.7130 C   0  0  0  0  0  0  0  0  0  0  0  0
   -7.0630    2.5320  -79.0520 C   0  0  0  0  0  0  0  0  0  0  0  0
   -7.7920    1.6050  -79.9890 C   0  0  0  0  0  0  0  0  0  0  0  0
   -8.2190    2.0140  -81.2520 C   0  0  0  0  0  0  0  0  0  0  0  0
   -8.0550    0.2880  -79.5730 C   0  0  0  0  0  0  0  0  0  0  0  0
   -8.8940    1.1260  -82.0730 C   0  0  0  0  0  0  0  0  0  0  0  0
   -8.7320   -0.5960  -80.3960 C   0  0  0  0  0  0  0  0  0  0  0  0
   -9.1520   -0.1770  -81.6430 C   0  0  0  0  0  0  0  0  0  0  0  0
  1  2  1  0
  2  3  1  0
  3  4  1  0
  4  5  1  0
  5  6  2  0
  5  7  1  0
  6  8  1  0
  7  9  2  0
  8 10  2  0
  9 10  1  0
  9 11  1  0
 11 12  1  0
 12 13  2  0
 12 14  1  0
 14 15  1  0
 14 16  1  0
 16 17  1  0
 17 18  2  0
 17 19  1  0
 18 20  1  0
 19 21  2  0
 20 22  2  0
 21 22  1  0
M  END
>  <ref_url>  (514) 
https://fakepage.com

>  <submitter_name>  (514) 
Steph Wills

>  <submitter_email>  (514) 
stephanie.wills@dtc.ox.ac.uk

>  <submitter_institution>  (514) 
University of Oxford

>  <generation_date>  (514) 
2020-06-04

>  <method>  (514) 
Fragment network

>  <ref_mols>  (514) 
x0183_0B,x0212_0B

>  <ref_pdb>  (514) 
references/x0183-0B-x0212-0B-16911.holo_minimised_nolig.pdb

>  <original SMILES>  (514) 
CCOCc1cccc(NC(=O)N(C)Cc2ccccc2)c1

>  <synthon>  (514) 
[Xe]c1ccccc1

>  <original_name>  (514) 
x0183-0B-x0212-0B-16911

>  <comRMSD_score>  (514) 
0.8509963441624028

>  <IF_score>  (514) 
0.55

>  <SuCOS_score>  (514) 
0.5260758039909791

>  <compound_ID>  (514) 
REAL:Z1027934068

$$$$

     RDKit          3D

 25 27  0  0  0  0  0  0  0  0999 V2000
   -9.8700    1.9760  -78.7770 O   0  0  0  0  0  0  0  0  0  0  0  0
   -9.6770    1.5010  -77.6750 C   0  0  0  0  0  0  0  0  0  0  0  0
  -10.7780    1.2120  -76.6910 C   0  0  0  0  0  0  0  0  0  0  0  0
   -8.4070    1.1850  -77.2340 N   0  0  0  0  0  0  0  0  0  0  0  0
  -11.9280    1.9640  -76.9510 N   0  0  0  0  0  0  0  0  0  0  0  0
   -7.2140    1.9530  -77.5760 C   0  0  0  0  0  0  0  0  0  0  0  0
  -13.2940    1.5670  -76.8980 C   0  0  0  0  0  0  0  0  0  0  0  0
   -7.2700    2.4950  -78.8790 C   0  0  0  0  0  0  0  0  0  0  0  0
  -13.6400    0.4280  -76.6110 O   0  0  0  0  0  0  0  0  0  0  0  0
  -14.2130    2.6050  -77.2080 N   0  0  0  0  0  0  0  0  0  0  0  0
   -7.7470    1.6080  -79.8500 C   0  0  0  0  0  0  0  0  0  0  0  0
  -14.4160    3.7520  -76.3040 C   0  0  1  0  0  0  0  0  0  0  0  0
   -8.0770    2.0540  -81.2270 C   0  0  0  0  0  0  0  0  0  0  0  0
   -7.9240    0.2510  -79.5410 C   0  0  0  0  0  0  0  0  0  0  0  0
  -13.7980    3.7090  -75.1580 C   0  0  0  0  0  0  0  0  0  0  0  0
  -13.1530    4.6700  -75.7730 C   0  0  1  0  0  0  0  0  0  0  0  0
   -8.5430    1.1310  -82.1540 C   0  0  0  0  0  0  0  0  0  0  0  0
   -8.3950   -0.6430  -80.4990 C   0  0  0  0  0  0  0  0  0  0  0  0
  -11.9250    4.4070  -76.3550 C   0  0  0  0  0  0  0  0  0  0  0  0
   -8.7020   -0.2180  -81.7860 C   0  0  0  0  0  0  0  0  0  0  0  0
  -10.9380    3.7430  -75.6370 C   0  0  0  0  0  0  0  0  0  0  0  0
  -11.6610    4.8050  -77.6950 C   0  0  0  0  0  0  0  0  0  0  0  0
   -9.5930    3.4500  -76.2730 C   0  0  0  0  0  0  0  0  0  0  0  0
  -10.4370    4.5620  -78.3470 C   0  0  0  0  0  0  0  0  0  0  0  0
   -9.3920    3.9090  -77.7050 C   0  0  0  0  0  0  0  0  0  0  0  0
  1  2  2  0
  2  3  1  0
  2  4  1  0
  3  5  1  0
  4  6  1  0
  5  7  1  0
  6  8  1  0
  7  9  2  0
  7 10  1  0
  8 11  1  0
 12 10  1  6
 11 13  2  0
 11 14  1  0
 12 15  1  0
 12 16  1  0
 15 16  1  0
 13 17  1  0
 14 18  2  0
 16 19  1  6
 17 20  2  0
 18 20  1  0
 19 21  2  0
 19 22  1  0
 21 23  1  0
 22 24  2  0
 23 25  2  0
 24 25  1  0
M  END
>  <ref_url>  (515) 
https://fakepage.com

>  <submitter_name>  (515) 
Steph Wills

>  <submitter_email>  (515) 
stephanie.wills@dtc.ox.ac.uk

>  <submitter_institution>  (515) 
University of Oxford

>  <generation_date>  (515) 
2020-06-04

>  <method>  (515) 
Fragment network

>  <ref_mols>  (515) 
x0183_0B,x0212_0B

>  <ref_pdb>  (515) 
references/x0183-0B-x0212-0B-17171.holo_minimised_nolig.pdb

>  <original SMILES>  (515) 
O=C(CNC(=O)NC1CC1c1ccccc1)NCCc1ccccc1

>  <synthon>  (515) 
[Xe]c1ccccc1

>  <original_name>  (515) 
x0183-0B-x0212-0B-17171

>  <comRMSD_score>  (515) 
0.7895290010368593

>  <IF_score>  (515) 
0.55

>  <SuCOS_score>  (515) 
0.4827862576859932

>  <compound_ID>  (515) 
MOLPORT:009-579-155

$$$$

     RDKit          3D

 21 22  0  0  0  0  0  0  0  0999 V2000
  -12.9290    6.2840  -73.8210 C   0  0  0  0  0  0  0  0  0  0  0  0
  -13.5470    5.8510  -75.0020 N   0  0  0  0  0  0  0  0  0  0  0  0
  -13.4480    6.6330  -76.1380 C   0  0  0  0  0  0  0  0  0  0  0  0
  -13.4130    4.3810  -75.2510 C   0  0  0  0  0  0  0  0  0  0  0  0
  -12.1040    4.1790  -75.9880 C   0  0  0  0  0  0  0  0  0  0  0  0
  -11.8470    4.7530  -77.3420 C   0  0  0  0  0  0  0  0  0  0  0  0
  -11.0750    3.4500  -75.4150 C   0  0  0  0  0  0  0  0  0  0  0  0
  -10.6450    4.5930  -78.0000 C   0  0  0  0  0  0  0  0  0  0  0  0
   -9.8660    3.2990  -76.0870 C   0  0  0  0  0  0  0  0  0  0  0  0
   -9.6470    3.8630  -77.3440 C   0  0  0  0  0  0  0  0  0  0  0  0
   -8.4340    3.7200  -77.9460 N   0  0  0  0  0  0  0  0  0  0  0  0
   -7.4250    3.0730  -77.2660 C   0  0  0  0  0  0  0  0  0  0  0  0
   -6.9790    3.3250  -76.1610 O   0  0  0  0  0  0  0  0  0  0  0  0
   -6.9760    2.0900  -78.0300 N   0  0  0  0  0  0  0  0  0  0  0  0
   -6.7950    2.1860  -79.3960 C   0  0  0  0  0  0  0  0  0  0  0  0
   -7.6810    1.3910  -80.0970 C   0  0  0  0  0  0  0  0  0  0  0  0
   -8.1990    1.8270  -81.3100 C   0  0  0  0  0  0  0  0  0  0  0  0
   -8.0660    0.1440  -79.5980 C   0  0  0  0  0  0  0  0  0  0  0  0
   -9.0810    1.0450  -82.0300 C   0  0  0  0  0  0  0  0  0  0  0  0
   -8.9550   -0.6500  -80.3140 C   0  0  0  0  0  0  0  0  0  0  0  0
   -9.4640   -0.2040  -81.5320 C   0  0  0  0  0  0  0  0  0  0  0  0
  1  2  1  0
  2  3  1  0
  2  4  1  0
  4  5  1  0
  5  6  2  0
  5  7  1  0
  6  8  1  0
  7  9  2  0
  8 10  2  0
  9 10  1  0
 10 11  1  0
 11 12  1  0
 12 13  2  0
 12 14  1  0
 14 15  1  0
 15 16  1  0
 16 17  2  0
 16 18  1  0
 17 19  1  0
 18 20  2  0
 19 21  2  0
 20 21  1  0
M  END
>  <ref_url>  (516) 
https://fakepage.com

>  <submitter_name>  (516) 
Steph Wills

>  <submitter_email>  (516) 
stephanie.wills@dtc.ox.ac.uk

>  <submitter_institution>  (516) 
University of Oxford

>  <generation_date>  (516) 
2020-06-04

>  <method>  (516) 
Fragment network

>  <ref_mols>  (516) 
x0183_0B,x0212_0B

>  <ref_pdb>  (516) 
references/x0183-0B-x0212-0B-19120.holo_minimised_nolig.pdb

>  <original SMILES>  (516) 
CN(C)Cc1ccc(NC(=O)NCc2ccccc2)cc1

>  <synthon>  (516) 
[Xe]c1ccccc1

>  <original_name>  (516) 
x0183-0B-x0212-0B-19120

>  <comRMSD_score>  (516) 
0.5481392767049863

>  <IF_score>  (516) 
0.55

>  <SuCOS_score>  (516) 
0.5042126197056856

>  <compound_ID>  (516) 
CHEMSPACE-BB:CSMB00017211628

$$$$

     RDKit          3D

 28 29  0  0  0  0  0  0  0  0999 V2000
  -12.8050    6.5480  -73.5950 C   0  0  0  0  0  0  0  0  0  0  0  0
  -13.5170    6.1910  -74.8720 C   0  0  0  0  0  0  0  0  0  0  0  0
  -14.1380    7.0450  -75.4970 O   0  0  0  0  0  0  0  0  0  0  0  0
  -13.3660    4.8690  -75.1960 N   0  0  0  0  0  0  0  0  0  0  0  0
  -12.4080    4.3580  -76.0500 C   0  0  0  0  0  0  0  0  0  0  0  0
  -12.1250    5.0550  -77.2400 C   0  0  0  0  0  0  0  0  0  0  0  0
  -11.7560    3.1960  -75.7570 C   0  0  0  0  0  0  0  0  0  0  0  0
  -11.1880    4.5500  -78.1370 C   0  0  0  0  0  0  0  0  0  0  0  0
  -10.8490    2.7120  -76.6420 C   0  0  0  0  0  0  0  0  0  0  0  0
  -10.5700    3.3720  -77.8260 C   0  0  0  0  0  0  0  0  0  0  0  0
   -9.6580    2.6700  -78.5490 N   0  0  0  0  0  0  0  0  0  0  0  0
   -9.4510    1.4150  -78.0640 C   0  0  0  0  0  0  0  0  0  0  0  0
   -9.2750    0.3930  -78.7020 O   0  0  0  0  0  0  0  0  0  0  0  0
   -9.4980    1.4320  -76.6720 N   0  0  0  0  0  0  0  0  0  0  0  0
   -9.4650    0.2330  -75.8440 C   0  0  0  0  0  0  0  0  0  0  0  0
   -8.7480    2.5570  -76.1750 C   0  0  0  0  0  0  0  0  0  0  0  0
   -8.1810    3.2700  -77.3850 C   0  0  0  0  0  0  0  0  0  0  0  0
   -8.7560    4.2310  -77.8800 O   0  0  0  0  0  0  0  0  0  0  0  0
   -7.0250    2.7220  -77.9050 N   0  0  0  0  0  0  0  0  0  0  0  0
   -6.0420    1.9970  -77.1020 C   0  0  0  0  0  0  0  0  0  0  0  0
   -6.8060    2.7260  -79.3610 C   0  0  2  0  0  0  0  0  0  0  0  0
   -6.9970    4.1020  -80.0020 C   0  0  0  0  0  0  0  0  0  0  0  0
   -7.5590    1.6490  -80.1330 C   0  0  0  0  0  0  0  0  0  0  0  0
   -8.1660    1.9650  -81.3470 C   0  0  0  0  0  0  0  0  0  0  0  0
   -7.6610    0.3290  -79.6610 C   0  0  0  0  0  0  0  0  0  0  0  0
   -8.8510    1.0070  -82.0710 C   0  0  0  0  0  0  0  0  0  0  0  0
   -8.3580   -0.6390  -80.3950 C   0  0  0  0  0  0  0  0  0  0  0  0
   -8.9500   -0.2960  -81.5970 C   0  0  0  0  0  0  0  0  0  0  0  0
  1  2  1  0
  2  3  2  0
  2  4  1  0
  4  5  1  0
  5  6  2  0
  5  7  1  0
  6  8  1  0
  7  9  2  0
  8 10  2  0
  9 10  1  0
 10 11  1  0
 11 12  1  0
 12 13  2  0
 12 14  1  0
 14 15  1  0
 14 16  1  0
 16 17  1  0
 17 18  2  0
 17 19  1  0
 19 20  1  0
 19 21  1  0
 21 22  1  6
 21 23  1  0
 23 24  2  0
 23 25  1  0
 24 26  1  0
 25 27  2  0
 26 28  2  0
 27 28  1  0
M  END
>  <ref_url>  (517) 
https://fakepage.com

>  <submitter_name>  (517) 
Steph Wills

>  <submitter_email>  (517) 
stephanie.wills@dtc.ox.ac.uk

>  <submitter_institution>  (517) 
University of Oxford

>  <generation_date>  (517) 
2020-06-04

>  <method>  (517) 
Fragment network

>  <ref_mols>  (517) 
x0183_0B,x0212_0B

>  <ref_pdb>  (517) 
references/x0183-0B-x0212-0B-19734.holo_minimised_nolig.pdb

>  <original SMILES>  (517) 
CC(=O)Nc1ccc(NC(=O)N(C)CC(=O)N(C)C(C)c2ccccc2)cc1

>  <synthon>  (517) 
[Xe]c1ccccc1

>  <original_name>  (517) 
x0183-0B-x0212-0B-19734

>  <comRMSD_score>  (517) 
0.921204706409554

>  <IF_score>  (517) 
0.525

>  <SuCOS_score>  (517) 
0.4604277715990715

>  <compound_ID>  (517) 
REAL:Z2003286463

$$$$

     RDKit          3D

 21 22  0  0  0  0  0  0  0  0999 V2000
  -12.9170    6.3030  -73.7020 C   0  0  0  0  0  0  0  0  0  0  0  0
  -13.6540    5.8420  -74.8710 N   0  0  0  0  0  0  0  0  0  0  0  0
  -13.4800    4.5820  -75.4290 C   0  0  0  0  0  0  0  0  0  0  0  0
  -14.3210    3.6870  -75.3960 O   0  0  0  0  0  0  0  0  0  0  0  0
  -12.1900    4.3510  -76.1060 C   0  0  0  0  0  0  0  0  0  0  0  0
  -11.2460    3.6040  -75.4170 C   0  0  0  0  0  0  0  0  0  0  0  0
  -11.9070    4.8540  -77.3850 C   0  0  0  0  0  0  0  0  0  0  0  0
  -10.0190    3.3590  -75.9950 C   0  0  0  0  0  0  0  0  0  0  0  0
  -10.6640    4.5980  -77.9600 C   0  0  0  0  0  0  0  0  0  0  0  0
   -9.7230    3.8490  -77.2530 C   0  0  0  0  0  0  0  0  0  0  0  0
   -8.4920    3.5960  -77.8050 N   0  0  0  0  0  0  0  0  0  0  0  0
   -7.7790    2.5270  -77.3570 C   0  0  0  0  0  0  0  0  0  0  0  0
   -8.0600    1.8000  -76.4150 O   0  0  0  0  0  0  0  0  0  0  0  0
   -6.6810    2.3420  -78.1290 N   0  0  0  0  0  0  0  0  0  0  0  0
   -6.7910    2.5920  -79.5380 C   0  0  0  0  0  0  0  0  0  0  0  0
   -7.7220    1.6100  -80.1990 C   0  0  0  0  0  0  0  0  0  0  0  0
   -8.2780    1.9490  -81.4250 C   0  0  0  0  0  0  0  0  0  0  0  0
   -8.0440    0.3670  -79.6220 C   0  0  0  0  0  0  0  0  0  0  0  0
   -9.1320    1.0760  -82.0730 C   0  0  0  0  0  0  0  0  0  0  0  0
   -8.9080   -0.5120  -80.2800 C   0  0  0  0  0  0  0  0  0  0  0  0
   -9.4500   -0.1540  -81.5090 C   0  0  0  0  0  0  0  0  0  0  0  0
  1  2  1  0
  2  3  1  0
  3  4  2  0
  3  5  1  0
  5  6  2  0
  5  7  1  0
  6  8  1  0
  7  9  2  0
  8 10  2  0
  9 10  1  0
 10 11  1  0
 11 12  1  0
 12 13  2  0
 12 14  1  0
 14 15  1  0
 15 16  1  0
 16 17  2  0
 16 18  1  0
 17 19  1  0
 18 20  2  0
 19 21  2  0
 20 21  1  0
M  END
>  <ref_url>  (518) 
https://fakepage.com

>  <submitter_name>  (518) 
Steph Wills

>  <submitter_email>  (518) 
stephanie.wills@dtc.ox.ac.uk

>  <submitter_institution>  (518) 
University of Oxford

>  <generation_date>  (518) 
2020-06-04

>  <method>  (518) 
Fragment network

>  <ref_mols>  (518) 
x0183_0B,x0212_0B

>  <ref_pdb>  (518) 
references/x0183-0B-x0212-0B-20304.holo_minimised_nolig.pdb

>  <original SMILES>  (518) 
CNC(=O)c1ccc(NC(=O)NCc2ccccc2)cc1

>  <synthon>  (518) 
[Xe]c1ccccc1

>  <original_name>  (518) 
x0183-0B-x0212-0B-20304

>  <comRMSD_score>  (518) 
0.5846393633558926

>  <IF_score>  (518) 
0.65

>  <SuCOS_score>  (518) 
0.5070675618099993

>  <compound_ID>  (518) 
REAL:Z125146428

$$$$

     RDKit          3D

 20 21  0  0  0  0  0  0  0  0999 V2000
  -14.4670    3.6730  -75.8720 C   0  0  0  0  0  0  0  0  0  0  0  0
  -13.6190    4.9210  -76.0870 C   0  0  0  0  0  0  0  0  0  0  0  0
  -13.4850    5.8440  -75.0420 C   0  0  0  0  0  0  0  0  0  0  0  0
  -12.2540    4.4610  -76.5290 C   0  0  0  0  0  0  0  0  0  0  0  0
  -11.4930    3.7740  -75.6160 C   0  0  0  0  0  0  0  0  0  0  0  0
  -11.7730    4.7160  -77.8310 C   0  0  0  0  0  0  0  0  0  0  0  0
  -10.2600    3.3210  -75.9500 C   0  0  0  0  0  0  0  0  0  0  0  0
  -10.5030    4.2660  -78.2260 C   0  0  0  0  0  0  0  0  0  0  0  0
   -9.7300    3.5630  -77.2980 C   0  0  0  0  0  0  0  0  0  0  0  0
   -8.3670    2.9750  -77.4670 C   0  0  0  0  0  0  0  0  0  0  0  0
   -7.9760    2.1380  -76.6750 O   0  0  0  0  0  0  0  0  0  0  0  0
   -7.4860    3.4110  -78.6020 C   0  0  0  0  0  0  0  0  0  0  0  0
   -6.9360    2.4110  -79.3820 C   0  0  0  0  0  0  0  0  0  0  0  0
   -5.7190    2.2310  -79.4840 O   0  0  0  0  0  0  0  0  0  0  0  0
   -7.7540    1.5490  -80.0980 C   0  0  0  0  0  0  0  0  0  0  0  0
   -8.2070    1.9450  -81.3530 C   0  0  0  0  0  0  0  0  0  0  0  0
   -8.1190    0.2950  -79.5580 C   0  0  0  0  0  0  0  0  0  0  0  0
   -9.0150    1.1140  -82.0850 C   0  0  0  0  0  0  0  0  0  0  0  0
   -8.9360   -0.5910  -80.2510 C   0  0  0  0  0  0  0  0  0  0  0  0
   -9.4060   -0.2380  -81.5050 C   0  0  0  0  0  0  0  0  0  0  0  0
  1  2  1  0
  2  3  1  0
  2  4  1  0
  4  5  2  0
  4  6  1  0
  5  7  1  0
  6  8  2  0
  7  9  2  0
  8  9  1  0
  9 10  1  0
 10 11  2  0
 10 12  1  0
 12 13  1  0
 13 14  2  0
 13 15  1  0
 15 16  2  0
 15 17  1  0
 16 18  1  0
 17 19  2  0
 18 20  2  0
 19 20  1  0
M  END
>  <ref_url>  (519) 
https://fakepage.com

>  <submitter_name>  (519) 
Steph Wills

>  <submitter_email>  (519) 
stephanie.wills@dtc.ox.ac.uk

>  <submitter_institution>  (519) 
University of Oxford

>  <generation_date>  (519) 
2020-06-04

>  <method>  (519) 
Fragment network

>  <ref_mols>  (519) 
x0183_0B,x0212_0B

>  <ref_pdb>  (519) 
references/x0183-0B-x0212-0B-22384.holo_minimised_nolig.pdb

>  <original SMILES>  (519) 
CC(C)c1ccc(C(=O)CC(=O)c2ccccc2)cc1

>  <synthon>  (519) 
[Xe]c1ccccc1

>  <original_name>  (519) 
x0183-0B-x0212-0B-22384

>  <comRMSD_score>  (519) 
0.956319988288438

>  <IF_score>  (519) 
0.55

>  <SuCOS_score>  (519) 
0.4743095029707683

>  <compound_ID>  (519) 
MOLPORT:006-132-852

$$$$

     RDKit          3D

 23 24  0  0  0  0  0  0  0  0999 V2000
  -12.8350    6.3040  -73.7850 C   0  0  0  0  0  0  0  0  0  0  0  0
  -13.6260    6.1210  -75.0970 C   0  0  1  0  0  0  0  0  0  0  0  0
  -13.6690    4.7060  -75.6880 C   0  0  0  0  0  0  0  0  0  0  0  0
  -15.0230    6.6830  -74.9000 C   0  0  0  0  0  0  0  0  0  0  0  0
  -12.2950    4.2790  -76.1660 C   0  0  0  0  0  0  0  0  0  0  0  0
  -15.9940    5.9960  -74.6240 O   0  0  0  0  0  0  0  0  0  0  0  0
  -15.1240    8.0240  -75.0460 O   0  0  0  0  0  0  0  0  0  0  0  0
  -11.4750    3.3680  -75.3190 C   0  0  0  0  0  0  0  0  0  0  0  0
  -11.7830    4.7280  -77.3980 C   0  0  0  0  0  0  0  0  0  0  0  0
  -10.2350    2.9960  -75.7750 C   0  0  0  0  0  0  0  0  0  0  0  0
  -10.5140    4.3150  -77.8120 C   0  0  0  0  0  0  0  0  0  0  0  0
   -9.7740    3.4620  -76.9880 C   0  0  0  0  0  0  0  0  0  0  0  0
   -8.4770    2.9220  -77.1910 N   0  0  0  0  0  0  0  0  0  0  0  0
   -7.9030    3.2460  -78.4550 C   0  0  0  0  0  0  0  0  0  0  0  0
   -8.4150    3.8540  -79.3790 O   0  0  0  0  0  0  0  0  0  0  0  0
   -6.6260    2.7390  -78.5020 C   0  0  0  0  0  0  0  0  0  0  0  0
   -6.4270    2.2610  -79.7720 C   0  0  0  0  0  0  0  0  0  0  0  0
   -7.4350    1.4480  -80.3130 C   0  0  0  0  0  0  0  0  0  0  0  0
   -8.1070    1.8500  -81.4620 C   0  0  0  0  0  0  0  0  0  0  0  0
   -7.8060    0.2100  -79.7450 C   0  0  0  0  0  0  0  0  0  0  0  0
   -9.0920    1.0580  -82.0340 C   0  0  0  0  0  0  0  0  0  0  0  0
   -8.8040   -0.5870  -80.3230 C   0  0  0  0  0  0  0  0  0  0  0  0
   -9.4430   -0.1620  -81.4720 C   0  0  0  0  0  0  0  0  0  0  0  0
  2  1  1  1
  2  3  1  0
  2  4  1  0
  3  5  1  0
  4  6  2  0
  4  7  1  0
  5  8  2  0
  5  9  1  0
  8 10  1  0
  9 11  2  0
 10 12  2  0
 11 12  1  0
 12 13  1  0
 13 14  1  0
 14 15  2  0
 14 16  1  0
 16 17  1  0
 17 18  1  0
 18 19  2  0
 18 20  1  0
 19 21  1  0
 20 22  2  0
 21 23  2  0
 22 23  1  0
M  END
>  <ref_url>  (520) 
https://fakepage.com

>  <submitter_name>  (520) 
Steph Wills

>  <submitter_email>  (520) 
stephanie.wills@dtc.ox.ac.uk

>  <submitter_institution>  (520) 
University of Oxford

>  <generation_date>  (520) 
2020-06-04

>  <method>  (520) 
Fragment network

>  <ref_mols>  (520) 
x0183_0B,x0212_0B

>  <ref_pdb>  (520) 
references/x0183-0B-x0212-0B-25890.holo_minimised_nolig.pdb

>  <original SMILES>  (520) 
CC(Cc1ccc(NC(=O)CCc2ccccc2)cc1)C(=O)O

>  <synthon>  (520) 
[Xe]c1ccccc1

>  <original_name>  (520) 
x0183-0B-x0212-0B-25890

>  <comRMSD_score>  (520) 
0.7297193778229877

>  <IF_score>  (520) 
0.55

>  <SuCOS_score>  (520) 
0.5191309933247472

>  <compound_ID>  (520) 
REAL:Z1870247486

$$$$

     RDKit          3D

 26 27  0  0  0  0  0  0  0  0999 V2000
   -7.4070    1.7310  -77.6480 C   0  0  0  0  0  0  0  0  0  0  0  0
   -6.6950    1.4020  -78.9180 C   0  0  2  0  0  0  0  0  0  0  0  0
   -5.6800    2.3570  -79.4100 C   0  0  0  0  0  0  0  0  0  0  0  0
   -7.7110    0.9730  -79.9410 C   0  0  0  0  0  0  0  0  0  0  0  0
   -5.6980    3.7540  -79.0160 N   0  0  0  0  0  0  0  0  0  0  0  0
   -8.0170    1.6930  -81.1150 C   0  0  0  0  0  0  0  0  0  0  0  0
   -8.3690   -0.2220  -79.6670 C   0  0  0  0  0  0  0  0  0  0  0  0
   -6.7360    4.0880  -78.2160 N   0  0  0  0  0  0  0  0  0  0  0  0
   -8.9750    1.1770  -81.9760 C   0  0  0  0  0  0  0  0  0  0  0  0
   -9.3180   -0.7210  -80.5220 C   0  0  0  0  0  0  0  0  0  0  0  0
   -6.8550    3.7980  -76.8410 C   0  0  0  0  0  0  0  0  0  0  0  0
   -9.6170   -0.0190  -81.6720 C   0  0  0  0  0  0  0  0  0  0  0  0
   -5.7430    4.2150  -75.6890 S   0  0  0  0  0  0  0  0  0  0  0  0
   -8.0330    3.1890  -76.4290 N   0  0  0  0  0  0  0  0  0  0  0  0
   -9.3000    3.6080  -76.8590 C   0  0  0  0  0  0  0  0  0  0  0  0
   -9.4620    4.0080  -78.1700 C   0  0  0  0  0  0  0  0  0  0  0  0
  -10.3750    3.6480  -75.9680 C   0  0  0  0  0  0  0  0  0  0  0  0
  -10.6730    4.4590  -78.6100 C   0  0  0  0  0  0  0  0  0  0  0  0
  -11.6350    4.1130  -76.3820 C   0  0  0  0  0  0  0  0  0  0  0  0
  -11.8710    4.5350  -77.6840 C   0  0  0  0  0  0  0  0  0  0  0  0
  -12.9560    4.1820  -75.2100 S   0  0  0  0  0  0  0  0  0  0  0  0
  -14.1240    3.5460  -75.7880 O   0  0  0  0  0  0  0  0  0  0  0  0
  -12.3680    3.7280  -73.9830 O   0  0  0  0  0  0  0  0  0  0  0  0
  -13.2100    5.8600  -75.0530 N   0  0  0  0  0  0  0  0  0  0  0  0
  -13.0510    6.6620  -76.2860 C   0  0  0  0  0  0  0  0  0  0  0  0
  -12.8350    6.4370  -73.7610 C   0  0  0  0  0  0  0  0  0  0  0  0
  2  1  1  1
  2  3  1  0
  2  4  1  0
  3  5  2  3
  4  6  2  0
  4  7  1  0
  5  8  1  0
  6  9  1  0
  7 10  2  0
  8 11  1  0
  9 12  2  0
 10 12  1  0
 11 13  2  0
 11 14  1  0
 14 15  1  0
 15 16  2  0
 15 17  1  0
 16 18  1  0
 17 19  2  0
 18 20  2  0
 19 20  1  0
 19 21  1  0
 21 22  2  0
 21 23  2  0
 21 24  1  0
 24 25  1  0
 24 26  1  0
M  END
>  <ref_url>  (521) 
https://fakepage.com

>  <submitter_name>  (521) 
Steph Wills

>  <submitter_email>  (521) 
stephanie.wills@dtc.ox.ac.uk

>  <submitter_institution>  (521) 
University of Oxford

>  <generation_date>  (521) 
2020-06-04

>  <method>  (521) 
Fragment network

>  <ref_mols>  (521) 
x0183_0B,x0212_0B

>  <ref_pdb>  (521) 
references/x0183-0B-x0212-0B-28584.holo_minimised_nolig.pdb

>  <original SMILES>  (521) 
CC(C=NNC(=S)Nc1cccc(S(=O)(=O)N(C)C)c1)c1ccccc1

>  <synthon>  (521) 
[Xe]c1ccccc1

>  <original_name>  (521) 
x0183-0B-x0212-0B-28584

>  <comRMSD_score>  (521) 
0.5906443750496386

>  <IF_score>  (521) 
0.55

>  <SuCOS_score>  (521) 
0.4790320741744313

>  <compound_ID>  (521) 
MOLPORT:044-248-437

$$$$

     RDKit          3D

 26 27  0  0  0  0  0  0  0  0999 V2000
  -11.7840    7.9340  -74.3030 C   0  0  0  0  0  0  0  0  0  0  0  0
  -12.9450    7.6600  -73.6770 N   0  0  0  0  0  0  0  0  0  0  0  0
  -14.0870    8.5680  -73.6980 C   0  0  0  0  0  0  0  0  0  0  0  0
  -13.2960    6.2260  -73.7020 C   0  0  0  0  0  0  0  0  0  0  0  0
  -13.3740    5.5550  -72.6820 O   0  0  0  0  0  0  0  0  0  0  0  0
  -13.5370    5.6950  -74.9760 C   0  0  0  0  0  0  0  0  0  0  0  0
  -13.2890    4.3350  -75.1960 C   0  0  0  0  0  0  0  0  0  0  0  0
  -12.0950    3.9540  -75.7860 C   0  0  0  0  0  0  0  0  0  0  0  0
  -11.2930    3.0300  -75.1120 C   0  0  0  0  0  0  0  0  0  0  0  0
  -11.6840    4.4730  -77.0310 C   0  0  0  0  0  0  0  0  0  0  0  0
   -9.9860    2.5960  -75.7350 C   0  0  0  0  0  0  0  0  0  0  0  0
  -10.4710    4.0470  -77.5740 C   0  0  0  0  0  0  0  0  0  0  0  0
   -9.6430    3.1340  -76.9420 C   0  0  0  0  0  0  0  0  0  0  0  0
  -10.0020    4.4800  -78.7510 N   0  0  0  0  0  0  0  0  0  0  0  0
   -8.8040    3.9180  -79.3030 C   0  0  0  0  0  0  0  0  0  0  0  0
   -8.7160    4.0920  -80.6250 O   0  0  0  0  0  0  0  0  0  0  0  0
   -7.8550    3.2340  -78.4500 N   0  0  0  0  0  0  0  0  0  0  0  0
   -6.9550    2.4650  -79.1170 C   0  0  2  0  0  0  0  0  0  0  0  0
   -6.0470    3.3130  -80.0150 C   0  0  0  0  0  0  0  0  0  0  0  0
   -7.7640    1.5330  -79.9790 C   0  0  0  0  0  0  0  0  0  0  0  0
   -5.3960    4.3820  -79.3120 O   0  0  0  0  0  0  0  0  0  0  0  0
   -8.1840    1.9000  -81.2760 C   0  0  0  0  0  0  0  0  0  0  0  0
   -8.1180    0.2670  -79.4770 C   0  0  0  0  0  0  0  0  0  0  0  0
   -8.9370    1.0250  -82.0540 C   0  0  0  0  0  0  0  0  0  0  0  0
   -8.8680   -0.5860  -80.2710 C   0  0  0  0  0  0  0  0  0  0  0  0
   -9.2710   -0.2170  -81.5360 C   0  0  0  0  0  0  0  0  0  0  0  0
  1  2  1  0
  2  3  1  0
  2  4  1  0
  4  5  2  0
  4  6  1  0
  6  7  1  0
  7  8  1  0
  8  9  2  0
  8 10  1  0
  9 11  1  0
 10 12  2  0
 11 13  2  0
 12 13  1  0
 12 14  1  0
 14 15  1  0
 15 16  2  0
 15 17  1  0
 17 18  1  0
 18 19  1  6
 18 20  1  0
 19 21  1  0
 20 22  2  0
 20 23  1  0
 22 24  1  0
 23 25  2  0
 24 26  2  0
 25 26  1  0
M  END
>  <ref_url>  (522) 
https://fakepage.com

>  <submitter_name>  (522) 
Steph Wills

>  <submitter_email>  (522) 
stephanie.wills@dtc.ox.ac.uk

>  <submitter_institution>  (522) 
University of Oxford

>  <generation_date>  (522) 
2020-06-04

>  <method>  (522) 
Fragment network

>  <ref_mols>  (522) 
x0183_0B,x0212_0B

>  <ref_pdb>  (522) 
references/x0183-0B-x0212-0B-31435.holo_minimised_nolig.pdb

>  <original SMILES>  (522) 
CN(C)C(=O)CCc1cccc(NC(=O)NC(CO)c2ccccc2)c1

>  <synthon>  (522) 
[Xe]c1ccccc1

>  <original_name>  (522) 
x0183-0B-x0212-0B-31435

>  <comRMSD_score>  (522) 
0.7918164851490821

>  <IF_score>  (522) 
0.55

>  <SuCOS_score>  (522) 
0.6324181934124969

>  <compound_ID>  (522) 
MOLPORT:029-900-744

$$$$

     RDKit          3D

 26 27  0  0  0  0  0  0  0  0999 V2000
   -7.0780    2.7120  -78.8870 C   0  0  0  0  0  0  0  0  0  0  0  0
   -8.0150    1.8640  -79.6600 C   0  0  0  0  0  0  0  0  0  0  0  0
   -8.0730    1.8840  -81.0340 C   0  0  0  0  0  0  0  0  0  0  0  0
   -8.8990    0.9960  -79.0030 C   0  0  0  0  0  0  0  0  0  0  0  0
   -8.9210    1.1040  -81.7660 C   0  0  0  0  0  0  0  0  0  0  0  0
   -9.7990    0.1870  -79.7100 C   0  0  0  0  0  0  0  0  0  0  0  0
   -9.7980    0.2340  -81.1080 C   0  0  0  0  0  0  0  0  0  0  0  0
  -10.6030   -0.5700  -78.8890 O   0  0  0  0  0  0  0  0  0  0  0  0
  -11.9170   -0.0820  -78.4950 C   0  0  0  0  0  0  0  0  0  0  0  0
  -11.9090    1.3540  -77.8880 C   0  0  0  0  0  0  0  0  0  0  0  0
  -13.1900    1.9450  -77.6270 C   0  0  0  0  0  0  0  0  0  0  0  0
  -13.2970    3.3330  -77.9260 C   0  0  0  0  0  0  0  0  0  0  0  0
  -12.4840    3.6670  -78.7560 O   0  0  0  0  0  0  0  0  0  0  0  0
  -14.2080    4.2080  -77.3530 N   0  0  0  0  0  0  0  0  0  0  0  0
  -13.9920    5.4260  -76.6330 C   0  0  0  0  0  0  0  0  0  0  0  0
  -13.7570    5.1120  -75.1580 C   0  0  2  0  0  0  0  0  0  0  0  0
  -15.0420    4.6910  -74.4380 C   0  0  0  0  0  0  0  0  0  0  0  0
  -13.1840    6.2290  -74.2870 C   0  0  0  0  0  0  0  0  0  0  0  0
  -12.7550    3.9290  -74.9970 C   0  0  0  0  0  0  0  0  0  0  0  0
  -13.7340    6.1300  -72.9740 O   0  0  0  0  0  0  0  0  0  0  0  0
  -11.6570    3.8790  -75.8790 C   0  0  0  0  0  0  0  0  0  0  0  0
  -11.6330    4.6670  -77.0450 C   0  0  0  0  0  0  0  0  0  0  0  0
  -10.5740    3.0190  -75.5830 C   0  0  0  0  0  0  0  0  0  0  0  0
  -10.5640    4.6130  -77.9250 C   0  0  0  0  0  0  0  0  0  0  0  0
   -9.4590    2.9130  -76.4140 C   0  0  0  0  0  0  0  0  0  0  0  0
   -9.4110    3.7080  -77.6250 C   0  0  0  0  0  0  0  0  0  0  0  0
  1  2  1  0
  2  3  2  0
  2  4  1  0
  3  5  1  0
  4  6  2  0
  5  7  2  0
  6  7  1  0
  6  8  1  0
  8  9  1  0
  9 10  1  0
 10 11  1  0
 11 12  1  0
 12 13  2  0
 12 14  1  0
 14 15  1  0
 16 15  1  0
 16 17  1  1
 16 18  1  0
 16 19  1  0
 18 20  1  0
 19 21  1  0
 21 22  2  0
 21 23  1  0
 22 24  1  0
 23 25  2  0
 24 26  2  0
 25 26  1  0
M  END
>  <ref_url>  (523) 
https://fakepage.com

>  <submitter_name>  (523) 
Steph Wills

>  <submitter_email>  (523) 
stephanie.wills@dtc.ox.ac.uk

>  <submitter_institution>  (523) 
University of Oxford

>  <generation_date>  (523) 
2020-06-04

>  <method>  (523) 
Fragment network

>  <ref_mols>  (523) 
x0183_0B,x0212_0B

>  <ref_pdb>  (523) 
references/x0183-0B-x0212-0B-32083.holo_minimised_nolig.pdb

>  <original SMILES>  (523) 
Cc1cccc(OCCCC(=O)NCC(C)(CO)Cc2ccccc2)c1

>  <synthon>  (523) 
[Xe]c1ccccc1

>  <original_name>  (523) 
x0183-0B-x0212-0B-32083

>  <comRMSD_score>  (523) 
0.7002115817802923

>  <IF_score>  (523) 
0.45

>  <SuCOS_score>  (523) 
0.546146094666573

>  <compound_ID>  (523) 
MOLPORT:035-754-218

$$$$

     RDKit          3D

 26 27  0  0  0  0  0  0  0  0999 V2000
  -11.6910    6.2840  -73.6100 C   0  0  0  0  0  0  0  0  0  0  0  0
  -13.1440    6.5240  -73.8750 C   0  0  0  0  0  0  0  0  0  0  0  0
  -13.9800    5.8500  -72.8170 C   0  0  0  0  0  0  0  0  0  0  0  0
  -13.4790    5.9310  -75.1740 N   0  0  0  0  0  0  0  0  0  0  0  0
  -13.4380    4.2520  -75.3490 S   0  0  0  0  0  0  0  0  0  0  0  0
  -13.4220    3.6990  -74.0090 O   0  0  0  0  0  0  0  0  0  0  0  0
  -14.4910    3.9080  -76.2670 O   0  0  0  0  0  0  0  0  0  0  0  0
  -11.8970    3.8410  -76.1300 C   0  0  0  0  0  0  0  0  0  0  0  0
  -10.9870    2.9630  -75.3450 C   0  0  0  0  0  0  0  0  0  0  0  0
  -11.4800    4.2590  -77.4190 C   0  0  0  0  0  0  0  0  0  0  0  0
   -9.7820    2.5660  -75.8550 C   0  0  0  0  0  0  0  0  0  0  0  0
  -10.2150    3.8040  -77.8920 C   0  0  0  0  0  0  0  0  0  0  0  0
   -9.4230    2.9890  -77.1140 C   0  0  0  0  0  0  0  0  0  0  0  0
   -9.6250    4.1290  -79.2470 C   0  0  0  0  0  0  0  0  0  0  0  0
   -8.2790    4.3800  -79.4170 N   0  0  0  0  0  0  0  0  0  0  0  0
   -7.1590    3.7360  -78.9560 C   0  0  0  0  0  0  0  0  0  0  0  0
   -6.0240    4.1290  -79.2030 O   0  0  0  0  0  0  0  0  0  0  0  0
   -7.3520    2.8010  -78.3380 N   0  0  0  0  0  0  0  0  0  0  0  0
   -7.3740    2.7720  -76.9290 C   0  0  0  0  0  0  0  0  0  0  0  0
   -6.8170    1.6280  -78.9780 C   0  0  0  0  0  0  0  0  0  0  0  0
   -7.7270    1.0760  -79.8820 C   0  0  0  0  0  0  0  0  0  0  0  0
   -8.3050   -0.1590  -79.5560 C   0  0  0  0  0  0  0  0  0  0  0  0
   -8.0840    1.7060  -81.1080 C   0  0  0  0  0  0  0  0  0  0  0  0
   -9.2080   -0.7910  -80.3900 C   0  0  0  0  0  0  0  0  0  0  0  0
   -8.9920    1.0700  -81.9580 C   0  0  0  0  0  0  0  0  0  0  0  0
   -9.5180   -0.1530  -81.5650 C   0  0  0  0  0  0  0  0  0  0  0  0
  1  2  1  0
  2  3  1  0
  2  4  1  0
  5  4  1  0
  5  6  2  0
  5  7  2  0
  5  8  1  0
  8  9  2  0
  8 10  1  0
  9 11  1  0
 10 12  2  0
 11 13  2  0
 12 13  1  0
 12 14  1  0
 14 15  1  0
 15 16  1  0
 16 17  2  0
 16 18  1  0
 18 19  1  0
 18 20  1  0
 20 21  1  0
 21 22  2  0
 21 23  1  0
 22 24  1  0
 23 25  2  0
 24 26  2  0
 25 26  1  0
M  END
>  <ref_url>  (524) 
https://fakepage.com

>  <submitter_name>  (524) 
Steph Wills

>  <submitter_email>  (524) 
stephanie.wills@dtc.ox.ac.uk

>  <submitter_institution>  (524) 
University of Oxford

>  <generation_date>  (524) 
2020-06-04

>  <method>  (524) 
Fragment network

>  <ref_mols>  (524) 
x0183_0B,x0212_0B

>  <ref_pdb>  (524) 
references/x0183-0B-x0212-0B-33702.holo_minimised_nolig.pdb

>  <original SMILES>  (524) 
CC(C)NS(=O)(=O)c1cccc(CNC(=O)N(C)Cc2ccccc2)c1

>  <synthon>  (524) 
[Xe]c1ccccc1

>  <original_name>  (524) 
x0183-0B-x0212-0B-33702

>  <comRMSD_score>  (524) 
0.7272563611373999

>  <IF_score>  (524) 
0.55

>  <SuCOS_score>  (524) 
0.5311647593525155

>  <compound_ID>  (524) 
MOLPORT:009-177-844, REAL:Z336683392

$$$$

     RDKit          3D

 23 26  0  0  0  0  0  0  0  0999 V2000
  -15.0350    5.8310  -73.3340 C   0  0  0  0  0  0  0  0  0  0  0  0
  -15.3380    4.4960  -74.0160 C   0  0  0  0  0  0  0  0  0  0  0  0
  -14.2800    3.9170  -74.9240 C   0  0  0  0  0  0  0  0  0  0  0  0
  -13.8350    6.5050  -73.5380 C   0  0  0  0  0  0  0  0  0  0  0  0
  -12.8740    5.9660  -74.3710 C   0  0  0  0  0  0  0  0  0  0  0  0
  -13.0120    4.7480  -75.0540 C   0  0  0  0  0  0  0  0  0  0  0  0
  -11.8560    4.3650  -75.8640 C   0  0  0  0  0  0  0  0  0  0  0  0
  -10.9750    3.4670  -75.2900 C   0  0  0  0  0  0  0  0  0  0  0  0
  -11.6490    4.8980  -77.1340 C   0  0  0  0  0  0  0  0  0  0  0  0
   -9.8510    3.0890  -75.9660 C   0  0  0  0  0  0  0  0  0  0  0  0
  -10.5220    4.5140  -77.8110 C   0  0  0  0  0  0  0  0  0  0  0  0
   -9.6370    3.6140  -77.2050 C   0  0  0  0  0  0  0  0  0  0  0  0
   -8.5500    3.2200  -77.8740 C   0  0  0  0  0  0  0  0  0  0  0  0
   -7.1670    3.5430  -77.8000 C   0  0  0  0  0  0  0  0  0  0  0  0
   -8.8300    2.4290  -78.7070 O   0  0  0  0  0  0  0  0  0  0  0  0
   -6.5840    2.7650  -78.8130 N   0  0  0  0  0  0  0  0  0  0  0  0
   -7.7050    2.1400  -79.2870 C   0  0  0  0  0  0  0  0  0  0  0  0
   -7.9830    1.2520  -80.2520 C   0  0  0  0  0  0  0  0  0  0  0  0
   -8.0900    1.6580  -81.5700 C   0  0  0  0  0  0  0  0  0  0  0  0
   -8.2030   -0.0600  -79.8330 C   0  0  0  0  0  0  0  0  0  0  0  0
   -8.4310    0.7300  -82.5170 C   0  0  0  0  0  0  0  0  0  0  0  0
   -8.5520   -1.0390  -80.7420 C   0  0  0  0  0  0  0  0  0  0  0  0
   -8.6770   -0.6900  -82.0770 C   0  0  0  0  0  0  0  0  0  0  0  0
  1  2  2  0
  2  3  1  0
  1  4  1  0
  4  5  2  0
  3  6  2  0
  5  6  1  0
  6  7  1  0
  7  8  2  0
  7  9  1  0
  8 10  1  0
  9 11  2  0
 10 12  2  0
 11 12  1  0
 12 13  1  0
 13 14  2  0
 13 15  1  0
 14 16  1  0
 15 17  1  0
 16 17  2  0
 17 18  1  0
 18 19  2  0
 18 20  1  0
 19 21  1  0
 20 22  2  0
 21 23  2  0
 22 23  1  0
M  END
>  <ref_url>  (525) 
https://fakepage.com

>  <submitter_name>  (525) 
Steph Wills

>  <submitter_email>  (525) 
stephanie.wills@dtc.ox.ac.uk

>  <submitter_institution>  (525) 
University of Oxford

>  <generation_date>  (525) 
2020-06-04

>  <method>  (525) 
Fragment network

>  <ref_mols>  (525) 
x0183_0B,x0212_0B

>  <ref_pdb>  (525) 
references/x0183-0B-x0212-0B-33966.holo_minimised_nolig.pdb

>  <original SMILES>  (525) 
c1ccc(-c2ccc(-c3cnc(-c4ccccc4)o3)cc2)cc1

>  <synthon>  (525) 
[Xe]c1ccccc1

>  <original_name>  (525) 
x0183-0B-x0212-0B-33966

>  <comRMSD_score>  (525) 
0.8497230770623481

>  <IF_score>  (525) 
0.225

>  <SuCOS_score>  (525) 
0.4853690076373655

>  <compound_ID>  (525) 
MOLPORT:002-139-377

$$$$

     RDKit          3D

 21 22  0  0  0  0  0  0  0  0999 V2000
  -12.9040    6.3260  -73.6850 C   0  0  0  0  0  0  0  0  0  0  0  0
  -13.6980    5.8790  -74.7870 O   0  0  0  0  0  0  0  0  0  0  0  0
  -13.4630    4.5210  -75.1930 C   0  0  0  0  0  0  0  0  0  0  0  0
  -14.2710    3.6140  -75.0520 O   0  0  0  0  0  0  0  0  0  0  0  0
  -12.1690    4.2590  -75.8440 C   0  0  0  0  0  0  0  0  0  0  0  0
  -11.3290    3.2440  -75.3930 C   0  0  0  0  0  0  0  0  0  0  0  0
  -11.7960    5.0410  -76.9300 C   0  0  0  0  0  0  0  0  0  0  0  0
  -10.1190    3.0120  -76.0300 C   0  0  0  0  0  0  0  0  0  0  0  0
  -10.5900    4.7990  -77.5620 C   0  0  0  0  0  0  0  0  0  0  0  0
   -9.7530    3.7880  -77.1090 C   0  0  0  0  0  0  0  0  0  0  0  0
   -8.5640    3.6030  -77.7700 N   0  0  0  0  0  0  0  0  0  0  0  0
   -7.4440    3.0830  -77.2090 C   0  0  0  0  0  0  0  0  0  0  0  0
   -6.9960    3.4350  -76.1270 O   0  0  0  0  0  0  0  0  0  0  0  0
   -6.8040    2.1140  -77.9380 N   0  0  0  0  0  0  0  0  0  0  0  0
   -6.7550    2.3300  -79.3800 C   0  0  0  0  0  0  0  0  0  0  0  0
   -7.7960    1.4860  -80.0940 C   0  0  0  0  0  0  0  0  0  0  0  0
   -8.3020    1.9380  -81.3080 C   0  0  0  0  0  0  0  0  0  0  0  0
   -8.2480    0.2730  -79.5570 C   0  0  0  0  0  0  0  0  0  0  0  0
   -9.2510    1.1810  -81.9800 C   0  0  0  0  0  0  0  0  0  0  0  0
   -9.2040   -0.4790  -80.2410 C   0  0  0  0  0  0  0  0  0  0  0  0
   -9.7030   -0.0230  -81.4510 C   0  0  0  0  0  0  0  0  0  0  0  0
  1  2  1  0
  2  3  1  0
  3  4  2  0
  3  5  1  0
  5  6  2  0
  5  7  1  0
  6  8  1  0
  7  9  2  0
  8 10  2  0
  9 10  1  0
 10 11  1  0
 11 12  1  0
 12 13  2  0
 12 14  1  0
 14 15  1  0
 15 16  1  0
 16 17  2  0
 16 18  1  0
 17 19  1  0
 18 20  2  0
 19 21  2  0
 20 21  1  0
M  END
>  <ref_url>  (526) 
https://fakepage.com

>  <submitter_name>  (526) 
Steph Wills

>  <submitter_email>  (526) 
stephanie.wills@dtc.ox.ac.uk

>  <submitter_institution>  (526) 
University of Oxford

>  <generation_date>  (526) 
2020-06-04

>  <method>  (526) 
Fragment network

>  <ref_mols>  (526) 
x0183_0B,x0212_0B

>  <ref_pdb>  (526) 
references/x0183-0B-x0212-0B-36236.holo_minimised_nolig.pdb

>  <original SMILES>  (526) 
COC(=O)c1ccc(NC(=O)NCc2ccccc2)cc1

>  <synthon>  (526) 
[Xe]c1ccccc1

>  <original_name>  (526) 
x0183-0B-x0212-0B-36236

>  <comRMSD_score>  (526) 
0.6330426525914333

>  <IF_score>  (526) 
0.5

>  <SuCOS_score>  (526) 
0.5005604610178485

>  <compound_ID>  (526) 
CHEMSPACE-BB:CSMB00000217882, REAL:Z123754970

$$$$

     RDKit          3D

 25 26  0  0  0  0  0  0  0  0999 V2000
  -12.8810    6.3750  -73.6810 C   0  0  0  0  0  0  0  0  0  0  0  0
  -13.5390    5.7780  -74.9270 C   0  0  0  0  0  0  0  0  0  0  0  0
  -14.2470    6.7700  -75.6720 O   0  0  0  0  0  0  0  0  0  0  0  0
  -13.3330    4.3400  -75.1400 N   0  0  0  0  0  0  0  0  0  0  0  0
  -12.0740    4.0800  -75.8410 C   0  0  0  0  0  0  0  0  0  0  0  0
  -11.9650    4.7430  -77.0560 C   0  0  0  0  0  0  0  0  0  0  0  0
  -11.0500    3.2590  -75.3820 C   0  0  0  0  0  0  0  0  0  0  0  0
  -10.8250    4.5850  -77.8150 C   0  0  0  0  0  0  0  0  0  0  0  0
   -9.9120    3.1120  -76.1540 C   0  0  0  0  0  0  0  0  0  0  0  0
   -9.7930    3.7700  -77.3650 C   0  0  0  0  0  0  0  0  0  0  0  0
   -8.6690    3.6210  -78.1260 N   0  0  0  0  0  0  0  0  0  0  0  0
   -8.7150    3.1540  -79.3910 C   0  0  0  0  0  0  0  0  0  0  0  0
   -9.2470    2.0680  -79.4980 O   0  0  0  0  0  0  0  0  0  0  0  0
   -8.1370    4.0520  -80.4400 C   0  0  0  0  0  0  0  0  0  0  0  0
   -7.0960    3.6650  -80.9460 O   0  0  0  0  0  0  0  0  0  0  0  0
   -6.0260    4.0990  -80.2740 C   0  0  0  0  0  0  0  0  0  0  0  0
   -5.0450    5.1060  -80.6290 O   0  0  0  0  0  0  0  0  0  0  0  0
   -6.0210    3.4060  -79.0940 C   0  0  0  0  0  0  0  0  0  0  0  0
   -6.7590    2.2050  -78.9390 C   0  0  0  0  0  0  0  0  0  0  0  0
   -7.5770    1.5000  -79.8840 C   0  0  0  0  0  0  0  0  0  0  0  0
   -7.9250    1.9270  -81.1730 C   0  0  0  0  0  0  0  0  0  0  0  0
   -8.0770    0.2520  -79.4340 C   0  0  0  0  0  0  0  0  0  0  0  0
   -8.8230    1.0420  -82.0240 C   0  0  0  0  0  0  0  0  0  0  0  0
   -8.9050   -0.5560  -80.2300 C   0  0  0  0  0  0  0  0  0  0  0  0
   -9.2740   -0.1650  -81.5080 C   0  0  0  0  0  0  0  0  0  0  0  0
  1  2  1  0
  2  3  2  0
  2  4  1  0
  4  5  1  0
  5  6  2  0
  5  7  1  0
  6  8  1  0
  7  9  2  0
  8 10  2  0
  9 10  1  0
 10 11  1  0
 11 12  1  0
 12 13  2  0
 12 14  1  0
 14 15  1  0
 15 16  1  0
 16 17  2  0
 16 18  1  0
 18 19  2  3
 19 20  1  0
 20 21  2  0
 20 22  1  0
 21 23  1  0
 22 24  2  0
 23 25  2  0
 24 25  1  0
M  END
>  <ref_url>  (527) 
https://fakepage.com

>  <submitter_name>  (527) 
Steph Wills

>  <submitter_email>  (527) 
stephanie.wills@dtc.ox.ac.uk

>  <submitter_institution>  (527) 
University of Oxford

>  <generation_date>  (527) 
2020-06-04

>  <method>  (527) 
Fragment network

>  <ref_mols>  (527) 
x0183_0B,x0212_0B

>  <ref_pdb>  (527) 
references/x0183-0B-x0212-0B-37966.holo_minimised_nolig.pdb

>  <original SMILES>  (527) 
CC(=O)Nc1ccc(NC(=O)COC(=O)C=Cc2ccccc2)cc1

>  <synthon>  (527) 
[Xe]c1ccccc1

>  <original_name>  (527) 
x0183-0B-x0212-0B-37966

>  <comRMSD_score>  (527) 
0.6242039374720039

>  <IF_score>  (527) 
0.55

>  <SuCOS_score>  (527) 
0.4530908835243703

>  <compound_ID>  (527) 
MOLPORT:023-300-363

$$$$

     RDKit          3D

 19 20  0  0  0  0  0  0  0  0999 V2000
  -10.6250   -2.1090  -81.6710 C   0  0  0  0  0  0  0  0  0  0  0  0
   -9.6670   -1.4210  -82.3750 N   0  0  0  0  0  0  0  0  0  0  0  0
   -8.9290   -2.3130  -83.2810 C   0  0  0  0  0  0  0  0  0  0  0  0
   -9.1060   -0.3650  -81.6330 C   0  0  0  0  0  0  0  0  0  0  0  0
   -8.7300   -0.4800  -80.2320 C   0  0  0  0  0  0  0  0  0  0  0  0
   -8.8480    0.8960  -82.1910 C   0  0  0  0  0  0  0  0  0  0  0  0
   -8.1540    0.5530  -79.4980 C   0  0  0  0  0  0  0  0  0  0  0  0
   -8.2670    1.9410  -81.4510 C   0  0  0  0  0  0  0  0  0  0  0  0
   -7.9130    1.7860  -80.1170 C   0  0  0  0  0  0  0  0  0  0  0  0
   -7.3160    2.8210  -79.3680 N   0  0  0  0  0  0  0  0  0  0  0  0
   -7.4610    3.1130  -78.0260 C   0  0  0  0  0  0  0  0  0  0  0  0
   -6.5800    3.8210  -77.2590 O   0  0  0  0  0  0  0  0  0  0  0  0
   -8.6850    2.5370  -77.5600 N   0  0  0  0  0  0  0  0  0  0  0  0
   -9.7800    3.2430  -77.2740 C   0  0  0  0  0  0  0  0  0  0  0  0
  -10.5420    4.0710  -78.3180 C   0  0  0  0  0  0  0  0  0  0  0  0
  -10.2490    3.2070  -75.9690 C   0  0  0  0  0  0  0  0  0  0  0  0
  -11.7920    4.8260  -77.9050 C   0  0  0  0  0  0  0  0  0  0  0  0
  -11.3830    3.8860  -75.5820 C   0  0  0  0  0  0  0  0  0  0  0  0
  -12.1390    4.6500  -76.4380 C   0  0  0  0  0  0  0  0  0  0  0  0
  1  2  1  0
  2  3  1  0
  2  4  1  0
  4  5  2  0
  4  6  1  0
  5  7  1  0
  6  8  2  0
  7  9  2  0
  8  9  1  0
  9 10  1  0
 10 11  1  0
 11 12  2  0
 11 13  1  0
 13 14  1  0
 14 15  2  0
 14 16  1  0
 15 17  1  0
 16 18  2  0
 17 19  2  0
 18 19  1  0
M  END
>  <ref_url>  (528) 
https://fakepage.com

>  <submitter_name>  (528) 
Steph Wills

>  <submitter_email>  (528) 
stephanie.wills@dtc.ox.ac.uk

>  <submitter_institution>  (528) 
University of Oxford

>  <generation_date>  (528) 
2020-06-04

>  <method>  (528) 
Fragment network

>  <ref_mols>  (528) 
x0183_0B,x0212_0B

>  <ref_pdb>  (528) 
references/x0183-0B-x0212-0B-38007.holo_minimised_nolig.pdb

>  <original SMILES>  (528) 
CN(C)c1ccc(NC(=O)Nc2ccccc2)cc1

>  <synthon>  (528) 
[Xe]c1ccccc1

>  <original_name>  (528) 
x0183-0B-x0212-0B-38007

>  <comRMSD_score>  (528) 
0.9185427382026174

>  <IF_score>  (528) 
0.55

>  <SuCOS_score>  (528) 
0.3609350073890717

>  <compound_ID>  (528) 
MOLPORT:001-805-012

$$$$

     RDKit          3D

 24 25  0  0  0  0  0  0  0  0999 V2000
  -11.2400   -6.1150  -82.8930 C   0  0  0  0  0  0  0  0  0  0  0  0
  -10.7770   -6.2040  -81.4340 C   0  0  0  0  0  0  0  0  0  0  0  0
   -9.9180   -5.0870  -81.0920 O   0  0  0  0  0  0  0  0  0  0  0  0
  -10.5390   -4.0270  -80.4810 C   0  0  0  0  0  0  0  0  0  0  0  0
  -11.3960   -4.1310  -79.6130 O   0  0  0  0  0  0  0  0  0  0  0  0
  -10.0340   -2.8320  -81.0120 C   0  0  0  0  0  0  0  0  0  0  0  0
   -9.5160   -1.9830  -79.9900 O   0  0  0  0  0  0  0  0  0  0  0  0
   -9.0970   -0.7420  -80.3930 C   0  0  0  0  0  0  0  0  0  0  0  0
   -9.3230   -0.1460  -81.7130 C   0  0  0  0  0  0  0  0  0  0  0  0
   -8.3980    0.0120  -79.4620 C   0  0  0  0  0  0  0  0  0  0  0  0
   -8.8530    1.1250  -82.0230 C   0  0  0  0  0  0  0  0  0  0  0  0
   -7.9330    1.2880  -79.7760 C   0  0  0  0  0  0  0  0  0  0  0  0
   -8.1600    1.8460  -81.0590 C   0  0  0  0  0  0  0  0  0  0  0  0
   -7.2390    2.0400  -78.8240 N   0  0  0  0  0  0  0  0  0  0  0  0
   -7.7640    2.4170  -77.6020 C   0  0  0  0  0  0  0  0  0  0  0  0
   -7.5310    1.8920  -76.5190 O   0  0  0  0  0  0  0  0  0  0  0  0
   -8.6190    3.5030  -77.7620 N   0  0  0  0  0  0  0  0  0  0  0  0
   -8.7240    3.9700  -79.1170 C   0  0  0  0  0  0  0  0  0  0  0  0
   -9.9140    3.7600  -77.2840 C   0  0  0  0  0  0  0  0  0  0  0  0
  -10.5390    3.3960  -75.9670 C   0  0  0  0  0  0  0  0  0  0  0  0
  -10.6950    4.4690  -78.2060 C   0  0  0  0  0  0  0  0  0  0  0  0
  -11.8570    3.7990  -75.7590 C   0  0  0  0  0  0  0  0  0  0  0  0
  -11.9860    4.8400  -77.9530 C   0  0  0  0  0  0  0  0  0  0  0  0
  -12.5640    4.5110  -76.7420 C   0  0  0  0  0  0  0  0  0  0  0  0
  1  2  1  0
  2  3  1  0
  3  4  1  0
  4  5  2  0
  4  6  1  0
  6  7  1  0
  7  8  1  0
  8  9  2  0
  8 10  1  0
  9 11  1  0
 10 12  2  0
 11 13  2  0
 12 13  1  0
 12 14  1  0
 14 15  1  0
 15 16  2  0
 15 17  1  0
 17 18  1  0
 17 19  1  0
 19 20  2  0
 19 21  1  0
 20 22  1  0
 21 23  2  0
 22 24  2  0
 23 24  1  0
M  END
>  <ref_url>  (529) 
https://fakepage.com

>  <submitter_name>  (529) 
Steph Wills

>  <submitter_email>  (529) 
stephanie.wills@dtc.ox.ac.uk

>  <submitter_institution>  (529) 
University of Oxford

>  <generation_date>  (529) 
2020-06-04

>  <method>  (529) 
Fragment network

>  <ref_mols>  (529) 
x0183_0B,x0212_0B

>  <ref_pdb>  (529) 
references/x0183-0B-x0212-0B-38511.holo_minimised_nolig.pdb

>  <original SMILES>  (529) 
CCOC(=O)COc1cccc(NC(=O)N(C)c2ccccc2)c1

>  <synthon>  (529) 
[Xe]c1ccccc1

>  <original_name>  (529) 
x0183-0B-x0212-0B-38511

>  <comRMSD_score>  (529) 
0.9140789014605032

>  <IF_score>  (529) 
0.55

>  <SuCOS_score>  (529) 
0.354785987485405

>  <compound_ID>  (529) 
REAL:PV-001940967818

$$$$

     RDKit          3D

 28 29  0  0  0  0  0  0  0  0999 V2000
   -7.1350    0.6000  -77.0530 C   0  0  0  0  0  0  0  0  0  0  0  0
   -7.3680    1.7610  -77.9060 N   0  0  0  0  0  0  0  0  0  0  0  0
   -8.7780    2.0920  -78.1570 C   0  0  0  0  0  0  0  0  0  0  0  0
   -6.7450    1.6910  -79.2190 C   0  0  0  0  0  0  0  0  0  0  0  0
   -8.7580    3.5160  -78.5150 C   0  0  0  0  0  0  0  0  0  0  0  0
   -7.6450    1.0970  -80.0670 C   0  0  0  0  0  0  0  0  0  0  0  0
   -7.8420    3.9870  -77.6430 N   0  0  0  0  0  0  0  0  0  0  0  0
   -8.0950   -0.1530  -79.6760 C   0  0  0  0  0  0  0  0  0  0  0  0
   -8.1120    1.6970  -81.2500 C   0  0  0  0  0  0  0  0  0  0  0  0
   -7.7080    3.4740  -76.3520 C   0  0  0  0  0  0  0  0  0  0  0  0
   -9.0130   -0.8380  -80.4340 C   0  0  0  0  0  0  0  0  0  0  0  0
   -9.0360    1.0440  -82.0510 C   0  0  0  0  0  0  0  0  0  0  0  0
   -6.6010    3.4770  -75.8130 O   0  0  0  0  0  0  0  0  0  0  0  0
   -8.9280    3.0580  -75.9050 N   0  0  0  0  0  0  0  0  0  0  0  0
   -9.5360   -0.2230  -81.7060 C   0  0  0  0  0  0  0  0  0  0  0  0
  -10.0940    3.6250  -76.3780 C   0  0  0  0  0  0  0  0  0  0  0  0
  -10.1000    4.0250  -77.7070 C   0  0  0  0  0  0  0  0  0  0  0  0
  -11.2210    3.8240  -75.5940 C   0  0  0  0  0  0  0  0  0  0  0  0
  -11.1840    4.6190  -78.2770 C   0  0  0  0  0  0  0  0  0  0  0  0
  -12.3550    4.4400  -76.1380 C   0  0  0  0  0  0  0  0  0  0  0  0
  -12.4190    4.8610  -77.4580 C   0  0  0  0  0  0  0  0  0  0  0  0
  -13.4660    4.6630  -75.3520 C   0  0  0  0  0  0  0  0  0  0  0  0
  -14.1610    3.4520  -75.0210 O   0  0  0  0  0  0  0  0  0  0  0  0
  -13.7830    5.8200  -75.0390 O   0  0  0  0  0  0  0  0  0  0  0  0
  -13.2270    6.3770  -73.8330 C   0  0  0  0  0  0  0  0  0  0  0  0
  -11.8520    6.2090  -73.7670 C   0  0  0  0  0  0  0  0  0  0  0  0
  -13.6610    7.8160  -73.6080 C   0  0  0  0  0  0  0  0  0  0  0  0
  -13.8310    5.5030  -72.7510 C   0  0  0  0  0  0  0  0  0  0  0  0
  1  2  1  0
  2  3  1  0
  2  4  1  0
  3  5  1  0
  4  6  1  0
  5  7  1  0
  6  8  2  0
  6  9  1  0
  7 10  1  0
  8 11  1  0
  9 12  2  0
 10 13  2  0
 10 14  1  0
 11 15  2  0
 12 15  1  0
 14 16  1  0
 16 17  2  0
 16 18  1  0
 17 19  1  0
 18 20  2  0
 19 21  2  0
 20 21  1  0
 20 22  1  0
 22 23  2  0
 22 24  1  0
 25 24  1  0
 25 26  1  0
 25 27  1  0
 25 28  1  0
M  END
>  <ref_url>  (530) 
https://fakepage.com

>  <submitter_name>  (530) 
Steph Wills

>  <submitter_email>  (530) 
stephanie.wills@dtc.ox.ac.uk

>  <submitter_institution>  (530) 
University of Oxford

>  <generation_date>  (530) 
2020-06-04

>  <method>  (530) 
Fragment network

>  <ref_mols>  (530) 
x0183_0B,x0212_0B

>  <ref_pdb>  (530) 
references/x0183-0B-x0212-0B-38516.holo_minimised_nolig.pdb

>  <original SMILES>  (530) 
CN(CCNC(=O)Nc1cccc(C(=O)OC(C)(C)C)c1)Cc1ccccc1

>  <synthon>  (530) 
[Xe]c1ccccc1

>  <original_name>  (530) 
x0183-0B-x0212-0B-38516

>  <comRMSD_score>  (530) 
0.8917969167589338

>  <IF_score>  (530) 
0.55

>  <SuCOS_score>  (530) 
0.5670990295376369

>  <compound_ID>  (530) 
REAL:PV-001949126725

$$$$

     RDKit          3D

 22 23  0  0  0  0  0  0  0  0999 V2000
  -12.7870    6.5260  -73.7220 C   0  0  0  0  0  0  0  0  0  0  0  0
  -13.2490    6.3480  -75.1910 C   0  0  0  0  0  0  0  0  0  0  0  0
  -13.2810    4.9130  -75.5540 C   0  0  0  0  0  0  0  0  0  0  0  0
  -14.4800    4.1970  -75.2340 O   0  0  0  0  0  0  0  0  0  0  0  0
  -12.3010    4.1760  -76.1810 C   0  0  0  0  0  0  0  0  0  0  0  0
  -11.8710    4.4440  -77.4880 C   0  0  0  0  0  0  0  0  0  0  0  0
  -11.7860    3.1330  -75.4160 C   0  0  0  0  0  0  0  0  0  0  0  0
  -10.9040    3.6190  -78.0530 C   0  0  0  0  0  0  0  0  0  0  0  0
  -10.8390    2.2920  -75.9170 C   0  0  0  0  0  0  0  0  0  0  0  0
  -10.3840    2.4580  -77.1830 C   0  0  0  0  0  0  0  0  0  0  0  0
   -9.4480    1.5900  -77.7140 O   0  0  0  0  0  0  0  0  0  0  0  0
   -8.3360    1.8820  -76.9410 C   0  0  0  0  0  0  0  0  0  0  0  0
   -7.9160    3.1210  -77.6750 C   0  0  0  0  0  0  0  0  0  0  0  0
   -8.6380    4.0980  -77.7680 O   0  0  0  0  0  0  0  0  0  0  0  0
   -6.7080    2.9740  -78.2450 N   0  0  0  0  0  0  0  0  0  0  0  0
   -6.6040    2.6270  -79.6590 C   0  0  0  0  0  0  0  0  0  0  0  0
   -7.5160    1.6790  -80.1890 C   0  0  0  0  0  0  0  0  0  0  0  0
   -8.1540    1.9690  -81.3920 C   0  0  0  0  0  0  0  0  0  0  0  0
   -7.8160    0.4530  -79.5810 C   0  0  0  0  0  0  0  0  0  0  0  0
   -9.0420    1.0660  -81.9650 C   0  0  0  0  0  0  0  0  0  0  0  0
   -8.7160   -0.4640  -80.1500 C   0  0  0  0  0  0  0  0  0  0  0  0
   -9.3290   -0.1480  -81.3600 C   0  0  0  0  0  0  0  0  0  0  0  0
  1  2  1  0
  2  3  1  0
  3  4  2  0
  3  5  1  0
  5  6  2  0
  5  7  1  0
  6  8  1  0
  7  9  2  0
  8 10  2  0
  9 10  1  0
 10 11  1  0
 11 12  1  0
 12 13  1  0
 13 14  2  0
 13 15  1  0
 15 16  1  0
 16 17  1  0
 17 18  2  0
 17 19  1  0
 18 20  1  0
 19 21  2  0
 20 22  2  0
 21 22  1  0
M  END
>  <ref_url>  (531) 
https://fakepage.com

>  <submitter_name>  (531) 
Steph Wills

>  <submitter_email>  (531) 
stephanie.wills@dtc.ox.ac.uk

>  <submitter_institution>  (531) 
University of Oxford

>  <generation_date>  (531) 
2020-06-04

>  <method>  (531) 
Fragment network

>  <ref_mols>  (531) 
x0183_0B,x0212_0B

>  <ref_pdb>  (531) 
references/x0183-0B-x0212-0B-40164.holo_minimised_nolig.pdb

>  <original SMILES>  (531) 
CCC(=O)c1ccc(OCC(=O)NCc2ccccc2)cc1

>  <synthon>  (531) 
[Xe]c1ccccc1

>  <original_name>  (531) 
x0183-0B-x0212-0B-40164

>  <comRMSD_score>  (531) 
0.8954666277877031

>  <IF_score>  (531) 
0.525

>  <SuCOS_score>  (531) 
0.4726937181545363

>  <compound_ID>  (531) 
MOLPORT:004-117-239

$$$$

     RDKit          3D

 22 23  0  0  0  0  0  0  0  0999 V2000
  -14.1620    3.2670  -75.6570 C   0  0  0  0  0  0  0  0  0  0  0  0
  -13.4230    4.5560  -75.6600 C   0  0  0  0  0  0  0  0  0  0  0  0
  -13.1430    5.3140  -74.5840 C   0  0  0  0  0  0  0  0  0  0  0  0
  -12.0530    4.2680  -76.2860 C   0  0  0  0  0  0  0  0  0  0  0  0
  -11.1230    3.5250  -75.5650 C   0  0  0  0  0  0  0  0  0  0  0  0
  -11.7230    4.7420  -77.5590 C   0  0  0  0  0  0  0  0  0  0  0  0
   -9.8720    3.2640  -76.0980 C   0  0  0  0  0  0  0  0  0  0  0  0
  -10.4660    4.4740  -78.0890 C   0  0  0  0  0  0  0  0  0  0  0  0
   -9.5290    3.7370  -77.3570 C   0  0  0  0  0  0  0  0  0  0  0  0
   -8.2690    3.4860  -77.8790 N   0  0  0  0  0  0  0  0  0  0  0  0
   -7.0430    3.8580  -77.3310 C   0  0  0  0  0  0  0  0  0  0  0  0
   -6.7000    3.9190  -76.1500 O   0  0  0  0  0  0  0  0  0  0  0  0
   -6.2320    4.1560  -78.3950 N   0  0  0  0  0  0  0  0  0  0  0  0
   -6.2070    3.2770  -79.4680 C   0  0  0  0  0  0  0  0  0  0  0  0
   -6.5500    1.8290  -79.1310 C   0  0  1  0  0  0  0  0  0  0  0  0
   -7.1530    1.6370  -77.7820 N   0  0  0  0  0  0  0  0  0  0  0  0
   -7.4650    1.1610  -80.1390 C   0  0  0  0  0  0  0  0  0  0  0  0
   -7.9320    1.7370  -81.3220 C   0  0  0  0  0  0  0  0  0  0  0  0
   -7.8740   -0.1520  -79.8550 C   0  0  0  0  0  0  0  0  0  0  0  0
   -8.7550    1.0370  -82.1860 C   0  0  0  0  0  0  0  0  0  0  0  0
   -8.7030   -0.8390  -80.7320 C   0  0  0  0  0  0  0  0  0  0  0  0
   -9.1540   -0.2650  -81.9060 C   0  0  0  0  0  0  0  0  0  0  0  0
  1  2  1  0
  2  3  1  0
  2  4  1  0
  4  5  2  0
  4  6  1  0
  5  7  1  0
  6  8  2  0
  7  9  2  0
  8  9  1  0
  9 10  1  0
 10 11  1  0
 11 12  2  0
 11 13  1  0
 13 14  1  0
 14 15  1  0
 15 16  1  1
 15 17  1  0
 17 18  2  0
 17 19  1  0
 18 20  1  0
 19 21  2  0
 20 22  2  0
 21 22  1  0
M  END
>  <ref_url>  (532) 
https://fakepage.com

>  <submitter_name>  (532) 
Steph Wills

>  <submitter_email>  (532) 
stephanie.wills@dtc.ox.ac.uk

>  <submitter_institution>  (532) 
University of Oxford

>  <generation_date>  (532) 
2020-06-04

>  <method>  (532) 
Fragment network

>  <ref_mols>  (532) 
x0183_0B,x0212_0B

>  <ref_pdb>  (532) 
references/x0183-0B-x0212-0B-41462.holo_minimised_nolig.pdb

>  <original SMILES>  (532) 
CC(C)c1ccc(NC(=O)NCC(N)c2ccccc2)cc1

>  <synthon>  (532) 
[Xe]c1ccccc1

>  <original_name>  (532) 
x0183-0B-x0212-0B-41462

>  <comRMSD_score>  (532) 
0.6902461215634121

>  <IF_score>  (532) 
0.45

>  <SuCOS_score>  (532) 
0.5201057258543645

>  <compound_ID>  (532) 
REAL:Z2353985985

$$$$

     RDKit          3D

 21 22  0  0  0  0  0  0  0  0999 V2000
  -13.0030    6.2560  -73.9270 C   0  0  0  0  0  0  0  0  0  0  0  0
  -13.9020    5.9750  -75.0700 N   0  0  0  0  0  0  0  0  0  0  0  0
  -13.7680    4.7370  -75.9010 C   0  0  0  0  0  0  0  0  0  0  0  0
  -12.3730    4.3280  -76.1350 C   0  0  0  0  0  0  0  0  0  0  0  0
  -11.5930    4.7820  -77.1950 C   0  0  0  0  0  0  0  0  0  0  0  0
  -11.8420    3.4410  -75.2270 C   0  0  0  0  0  0  0  0  0  0  0  0
  -10.2740    4.3560  -77.3290 C   0  0  0  0  0  0  0  0  0  0  0  0
  -10.5500    3.0230  -75.3570 C   0  0  0  0  0  0  0  0  0  0  0  0
   -9.7620    3.4690  -76.3740 C   0  0  0  0  0  0  0  0  0  0  0  0
   -8.1360    2.8240  -76.3280 S   0  0  0  0  0  0  0  0  0  0  0  0
   -8.6860    1.7740  -77.6330 C   0  0  0  0  0  0  0  0  0  0  0  0
   -8.5800    2.8590  -78.6720 C   0  0  0  0  0  0  0  0  0  0  0  0
   -9.5630    3.3550  -79.1880 O   0  0  0  0  0  0  0  0  0  0  0  0
   -7.2860    3.2620  -78.9660 N   0  0  0  0  0  0  0  0  0  0  0  0
   -6.5790    2.1550  -79.5860 C   0  0  0  0  0  0  0  0  0  0  0  0
   -7.5230    1.3490  -80.2180 C   0  0  0  0  0  0  0  0  0  0  0  0
   -8.1370    1.8010  -81.3800 C   0  0  0  0  0  0  0  0  0  0  0  0
   -7.8780    0.0910  -79.7090 C   0  0  0  0  0  0  0  0  0  0  0  0
   -9.0740    1.0200  -82.0240 C   0  0  0  0  0  0  0  0  0  0  0  0
   -8.8340   -0.6970  -80.3620 C   0  0  0  0  0  0  0  0  0  0  0  0
   -9.4290   -0.2240  -81.5270 C   0  0  0  0  0  0  0  0  0  0  0  0
  1  2  1  0
  2  3  1  0
  3  4  1  0
  4  5  2  0
  4  6  1  0
  5  7  1  0
  6  8  2  0
  7  9  2  0
  8  9  1  0
  9 10  1  0
 10 11  1  0
 11 12  1  0
 12 13  2  0
 12 14  1  0
 14 15  1  0
 15 16  1  0
 16 17  2  0
 16 18  1  0
 17 19  1  0
 18 20  2  0
 19 21  2  0
 20 21  1  0
M  END
>  <ref_url>  (533) 
https://fakepage.com

>  <submitter_name>  (533) 
Steph Wills

>  <submitter_email>  (533) 
stephanie.wills@dtc.ox.ac.uk

>  <submitter_institution>  (533) 
University of Oxford

>  <generation_date>  (533) 
2020-06-04

>  <method>  (533) 
Fragment network

>  <ref_mols>  (533) 
x0183_0B,x0212_0B

>  <ref_pdb>  (533) 
references/x0183-0B-x0212-0B-41554.holo_minimised_nolig.pdb

>  <original SMILES>  (533) 
CNCc1ccc(SCC(=O)NCc2ccccc2)cc1

>  <synthon>  (533) 
[Xe]c1ccccc1

>  <original_name>  (533) 
x0183-0B-x0212-0B-41554

>  <comRMSD_score>  (533) 
0.94841382200903

>  <IF_score>  (533) 
0.55

>  <SuCOS_score>  (533) 
0.4586180241718932

>  <compound_ID>  (533) 
CHEMSPACE-BB:CSMB00013310125

$$$$

     RDKit          3D

 22 23  0  0  0  0  0  0  0  0999 V2000
  -12.9420    5.6280  -72.7420 C   0  0  0  0  0  0  0  0  0  0  0  0
  -12.8960    6.3630  -74.0240 C   0  0  0  0  0  0  0  0  0  0  0  0
  -13.6710    5.5340  -75.0210 C   0  0  1  0  0  0  0  0  0  0  0  0
  -13.9530    6.0370  -76.1770 N   0  0  0  0  0  0  0  0  0  0  0  0
  -12.9430    4.1850  -75.2070 C   0  0  0  0  0  0  0  0  0  0  0  0
  -11.9950    4.1750  -76.3490 C   0  0  0  0  0  0  0  0  0  0  0  0
  -12.4700    4.7780  -77.4780 C   0  0  0  0  0  0  0  0  0  0  0  0
  -10.6950    3.6290  -76.3990 C   0  0  0  0  0  0  0  0  0  0  0  0
  -11.7230    4.8520  -78.5980 C   0  0  0  0  0  0  0  0  0  0  0  0
   -9.9570    3.7240  -77.5510 C   0  0  0  0  0  0  0  0  0  0  0  0
  -10.1770    3.0790  -75.4950 O   0  0  0  0  0  0  0  0  0  0  0  0
  -10.4550    4.3300  -78.6480 C   0  0  0  0  0  0  0  0  0  0  0  0
   -8.9330    2.6550  -75.9050 C   0  0  0  0  0  0  0  0  0  0  0  0
   -8.5610    2.9070  -77.2360 C   0  0  0  0  0  0  0  0  0  0  0  0
   -7.6240    2.0780  -77.6960 O   0  0  0  0  0  0  0  0  0  0  0  0
   -7.2870    2.4760  -79.0090 C   0  0  0  0  0  0  0  0  0  0  0  0
   -7.9430    1.5880  -79.8420 C   0  0  0  0  0  0  0  0  0  0  0  0
   -8.2680    1.9810  -81.2500 C   0  0  0  0  0  0  0  0  0  0  0  0
   -8.3240    0.3150  -79.3940 C   0  0  0  0  0  0  0  0  0  0  0  0
   -8.9310    1.0560  -82.0370 C   0  0  0  0  0  0  0  0  0  0  0  0
   -8.9920   -0.5640  -80.2460 C   0  0  0  0  0  0  0  0  0  0  0  0
   -9.2930   -0.2000  -81.5600 C   0  0  0  0  0  0  0  0  0  0  0  0
  1  2  1  0
  2  3  1  0
  3  4  1  6
  3  5  1  0
  5  6  1  0
  6  7  2  0
  6  8  1  0
  7  9  1  0
  8 10  2  0
  8 11  1  0
  9 12  2  0
 10 12  1  0
 11 13  1  0
 13 14  1  0
 14 15  1  0
 15 16  1  0
 16 17  1  0
 17 18  2  0
 17 19  1  0
 18 20  1  0
 19 21  2  0
 20 22  2  0
 21 22  1  0
M  END
>  <ref_url>  (534) 
https://fakepage.com

>  <submitter_name>  (534) 
Steph Wills

>  <submitter_email>  (534) 
stephanie.wills@dtc.ox.ac.uk

>  <submitter_institution>  (534) 
University of Oxford

>  <generation_date>  (534) 
2020-06-04

>  <method>  (534) 
Fragment network

>  <ref_mols>  (534) 
x0183_0B,x0212_0B

>  <ref_pdb>  (534) 
references/x0183-0B-x0212-0B-41639.holo_minimised_nolig.pdb

>  <original SMILES>  (534) 
CCC(N)Cc1ccccc1OCCOCc1ccccc1

>  <synthon>  (534) 
[Xe]c1ccccc1

>  <original_name>  (534) 
x0183-0B-x0212-0B-41639

>  <comRMSD_score>  (534) 
0.894703178589289

>  <IF_score>  (534) 
0.425

>  <SuCOS_score>  (534) 
0.5203333272310772

>  <compound_ID>  (534) 
CHEMSPACE-BB:CSMB00014807009

$$$$

     RDKit          3D

 19 20  0  0  0  0  0  0  0  0999 V2000
  -13.1760    4.6420  -74.9260 C   0  0  0  0  0  0  0  0  0  0  0  0
  -12.0460    4.2590  -75.7760 C   0  0  0  0  0  0  0  0  0  0  0  0
  -11.1270    3.4310  -75.3370 C   0  0  0  0  0  0  0  0  0  0  0  0
  -11.9210    4.7740  -77.0890 C   0  0  0  0  0  0  0  0  0  0  0  0
   -9.9960    3.0030  -76.0730 C   0  0  0  0  0  0  0  0  0  0  0  0
  -10.8220    4.3870  -77.8780 C   0  0  0  0  0  0  0  0  0  0  0  0
   -9.8820    3.5040  -77.3450 C   0  0  0  0  0  0  0  0  0  0  0  0
   -8.8070    3.1040  -78.0810 N   0  0  0  0  0  0  0  0  0  0  0  0
   -7.9920    2.1150  -77.6010 C   0  0  0  0  0  0  0  0  0  0  0  0
   -8.4140    0.7310  -76.5520 S   0  0  0  0  0  0  0  0  0  0  0  0
   -6.7430    2.3770  -78.1050 N   0  0  0  0  0  0  0  0  0  0  0  0
   -6.4710    2.3240  -79.4430 C   0  0  0  0  0  0  0  0  0  0  0  0
   -5.4380    2.9890  -80.0450 O   0  0  0  0  0  0  0  0  0  0  0  0
   -7.3610    1.5000  -80.1420 C   0  0  0  0  0  0  0  0  0  0  0  0
   -8.0180    1.9960  -81.4110 C   0  0  0  0  0  0  0  0  0  0  0  0
   -7.6620    0.2030  -79.6880 C   0  0  0  0  0  0  0  0  0  0  0  0
   -8.9610    1.1190  -82.1860 C   0  0  0  0  0  0  0  0  0  0  0  0
   -8.5420   -0.6450  -80.3850 C   0  0  0  0  0  0  0  0  0  0  0  0
   -9.1780   -0.2670  -81.5710 C   0  0  0  0  0  0  0  0  0  0  0  0
  1  2  1  0
  2  3  2  0
  2  4  1  0
  3  5  1  0
  4  6  2  0
  5  7  2  0
  6  7  1  0
  7  8  1  0
  8  9  1  0
  9 10  2  0
  9 11  1  0
 11 12  1  0
 12 13  2  0
 12 14  1  0
 14 15  2  0
 14 16  1  0
 15 17  1  0
 16 18  2  0
 17 19  2  0
 18 19  1  0
M  END
>  <ref_url>  (535) 
https://fakepage.com

>  <submitter_name>  (535) 
Steph Wills

>  <submitter_email>  (535) 
stephanie.wills@dtc.ox.ac.uk

>  <submitter_institution>  (535) 
University of Oxford

>  <generation_date>  (535) 
2020-06-04

>  <method>  (535) 
Fragment network

>  <ref_mols>  (535) 
x0183_0B,x0212_0B

>  <ref_pdb>  (535) 
references/x0183-0B-x0212-0B-44425.holo_minimised_nolig.pdb

>  <original SMILES>  (535) 
Cc1ccc(NC(=S)NC(=O)c2ccccc2)cc1

>  <synthon>  (535) 
[Xe]c1ccccc1

>  <original_name>  (535) 
x0183-0B-x0212-0B-44425

>  <comRMSD_score>  (535) 
0.7168173013245843

>  <IF_score>  (535) 
0.55

>  <SuCOS_score>  (535) 
0.4414694582774958

>  <compound_ID>  (535) 
MOLPORT:000-421-774

$$$$

     RDKit          3D

 20 21  0  0  0  0  0  0  0  0999 V2000
  -12.8010    6.5170  -73.6110 C   0  0  0  0  0  0  0  0  0  0  0  0
  -13.7650    6.1310  -75.0930 S   0  0  0  0  0  0  0  0  0  0  0  0
  -13.4000    4.3680  -75.2850 C   0  0  0  0  0  0  0  0  0  0  0  0
  -12.3710    4.1570  -76.0910 C   0  0  0  0  0  0  0  0  0  0  0  0
  -12.0460    4.9260  -77.2990 C   0  0  0  0  0  0  0  0  0  0  0  0
  -11.5550    3.1000  -75.7190 C   0  0  0  0  0  0  0  0  0  0  0  0
  -10.9240    4.5710  -78.0340 C   0  0  0  0  0  0  0  0  0  0  0  0
  -10.4630    2.7880  -76.4750 C   0  0  0  0  0  0  0  0  0  0  0  0
  -10.1460    3.5070  -77.6120 C   0  0  0  0  0  0  0  0  0  0  0  0
   -9.6590    1.7490  -76.1070 C   0  0  0  0  0  0  0  0  0  0  0  0
   -8.1950    2.1200  -76.0760 C   0  0  0  0  0  0  0  0  0  0  0  0
   -7.6180    3.0780  -77.1060 C   0  0  0  0  0  0  0  0  0  0  0  0
   -6.9450    2.2900  -78.0000 N   0  0  0  0  0  0  0  0  0  0  0  0
   -7.2030    2.6810  -79.3290 C   0  0  0  0  0  0  0  0  0  0  0  0
   -7.9210    1.7230  -80.0320 C   0  0  0  0  0  0  0  0  0  0  0  0
   -8.2740    0.4790  -79.4700 C   0  0  0  0  0  0  0  0  0  0  0  0
   -8.3040    1.9970  -81.3300 C   0  0  0  0  0  0  0  0  0  0  0  0
   -9.0010   -0.4660  -80.2130 C   0  0  0  0  0  0  0  0  0  0  0  0
   -9.0130    1.0700  -82.0510 C   0  0  0  0  0  0  0  0  0  0  0  0
   -9.3690   -0.1610  -81.5120 C   0  0  0  0  0  0  0  0  0  0  0  0
  1  2  1  0
  2  3  1  0
  3  4  1  0
  4  5  2  0
  4  6  1  0
  5  7  1  0
  6  8  2  0
  7  9  2  0
  8  9  1  0
  8 10  1  0
 10 11  3  0
 11 12  1  0
 12 13  1  0
 13 14  1  0
 14 15  1  0
 15 16  2  0
 15 17  1  0
 16 18  1  0
 17 19  2  0
 18 20  2  0
 19 20  1  0
M  END
>  <ref_url>  (536) 
https://fakepage.com

>  <submitter_name>  (536) 
Steph Wills

>  <submitter_email>  (536) 
stephanie.wills@dtc.ox.ac.uk

>  <submitter_institution>  (536) 
University of Oxford

>  <generation_date>  (536) 
2020-06-04

>  <method>  (536) 
Fragment network

>  <ref_mols>  (536) 
x0183_0B,x0212_0B

>  <ref_pdb>  (536) 
references/x0183-0B-x0212-0B-46025.holo_minimised_nolig.pdb

>  <original SMILES>  (536) 
CSCc1cccc(C#CCNCc2ccccc2)c1

>  <synthon>  (536) 
[Xe]c1ccccc1

>  <original_name>  (536) 
x0183-0B-x0212-0B-46025

>  <comRMSD_score>  (536) 
0.704451954043395

>  <IF_score>  (536) 
0.425

>  <SuCOS_score>  (536) 
0.5593356866169883

>  <compound_ID>  (536) 
CHEMSPACE-BB:CSMB00109399443

$$$$

     RDKit          3D

 26 27  0  0  0  0  0  0  0  0999 V2000
  -12.8680    6.5060  -73.5970 C   0  0  0  0  0  0  0  0  0  0  0  0
  -13.6650    6.0490  -75.1210 S   0  0  0  0  0  0  0  0  0  0  0  0
  -13.0290    6.7700  -76.2060 O   0  0  0  0  0  0  0  0  0  0  0  0
  -15.0930    6.1380  -74.9050 O   0  0  0  0  0  0  0  0  0  0  0  0
  -13.3240    4.4010  -75.2260 N   0  0  0  0  0  0  0  0  0  0  0  0
  -12.2030    4.0800  -75.9310 C   0  0  0  0  0  0  0  0  0  0  0  0
  -11.2600    3.1170  -75.2510 C   0  0  0  0  0  0  0  0  0  0  0  0
  -11.9290    4.6070  -77.2180 C   0  0  0  0  0  0  0  0  0  0  0  0
  -10.0440    2.7760  -76.0410 C   0  0  0  0  0  0  0  0  0  0  0  0
  -10.7660    4.2540  -77.9230 C   0  0  0  0  0  0  0  0  0  0  0  0
   -9.8260    3.3590  -77.3780 C   0  0  0  0  0  0  0  0  0  0  0  0
   -8.7300    3.0550  -78.1260 N   0  0  0  0  0  0  0  0  0  0  0  0
   -7.5240    3.7020  -78.2010 C   0  0  0  0  0  0  0  0  0  0  0  0
   -7.0080    4.1140  -79.2350 O   0  0  0  0  0  0  0  0  0  0  0  0
   -6.8620    3.8520  -76.9610 C   0  0  0  0  0  0  0  0  0  0  0  0
   -5.9000    2.9100  -76.8230 N   0  0  0  0  0  0  0  0  0  0  0  0
   -6.1060    1.5520  -76.9340 C   0  0  0  0  0  0  0  0  0  0  0  0
   -5.4400    0.5680  -76.1480 O   0  0  0  0  0  0  0  0  0  0  0  0
   -7.0280    1.3310  -77.9040 N   0  0  0  0  0  0  0  0  0  0  0  0
   -6.8060    1.8070  -79.2500 C   0  0  0  0  0  0  0  0  0  0  0  0
   -7.7060    1.1640  -80.0760 C   0  0  0  0  0  0  0  0  0  0  0  0
   -8.1920   -0.0850  -79.6890 C   0  0  0  0  0  0  0  0  0  0  0  0
   -8.1390    1.7250  -81.2870 C   0  0  0  0  0  0  0  0  0  0  0  0
   -9.0810   -0.7400  -80.5060 C   0  0  0  0  0  0  0  0  0  0  0  0
   -9.0410    1.0320  -82.0920 C   0  0  0  0  0  0  0  0  0  0  0  0
   -9.5250   -0.2230  -81.7020 C   0  0  0  0  0  0  0  0  0  0  0  0
  1  2  1  0
  2  3  2  0
  2  4  2  0
  2  5  1  0
  5  6  1  0
  6  7  2  0
  6  8  1  0
  7  9  1  0
  8 10  2  0
  9 11  2  0
 10 11  1  0
 11 12  1  0
 12 13  1  0
 13 14  2  0
 13 15  1  0
 15 16  1  0
 16 17  1  0
 17 18  2  0
 17 19  1  0
 19 20  1  0
 20 21  1  0
 21 22  2  0
 21 23  1  0
 22 24  1  0
 23 25  2  0
 24 26  2  0
 25 26  1  0
M  END
>  <ref_url>  (537) 
https://fakepage.com

>  <submitter_name>  (537) 
Steph Wills

>  <submitter_email>  (537) 
stephanie.wills@dtc.ox.ac.uk

>  <submitter_institution>  (537) 
University of Oxford

>  <generation_date>  (537) 
2020-06-04

>  <method>  (537) 
Fragment network

>  <ref_mols>  (537) 
x0183_0B,x0212_0B

>  <ref_pdb>  (537) 
references/x0183-0B-x0212-0B-46435.holo_minimised_nolig.pdb

>  <original SMILES>  (537) 
CS(=O)(=O)Nc1ccc(NC(=O)CNC(=O)NCc2ccccc2)cc1

>  <synthon>  (537) 
[Xe]c1ccccc1

>  <original_name>  (537) 
x0183-0B-x0212-0B-46435

>  <comRMSD_score>  (537) 
0.8030982828096773

>  <IF_score>  (537) 
0.55

>  <SuCOS_score>  (537) 
0.4563777311802404

>  <compound_ID>  (537) 
MOLPORT:009-159-880

$$$$

     RDKit          3D

 24 25  0  0  0  0  0  0  0  0999 V2000
  -12.4260    7.8450  -76.2150 C   0  0  0  0  0  0  0  0  0  0  0  0
  -13.5580    7.4990  -75.9050 O   0  0  0  0  0  0  0  0  0  0  0  0
  -13.5650    6.3300  -75.0430 N   0  0  0  0  0  0  0  0  0  0  0  0
  -12.8710    6.3560  -73.7490 C   0  0  0  0  0  0  0  0  0  0  0  0
  -13.8030    4.8850  -75.8810 S   0  0  0  0  0  0  0  0  0  0  0  0
  -14.4620    5.2720  -77.1050 O   0  0  0  0  0  0  0  0  0  0  0  0
  -14.4010    3.8880  -75.0240 O   0  0  0  0  0  0  0  0  0  0  0  0
  -12.2060    4.2790  -76.3130 C   0  0  0  0  0  0  0  0  0  0  0  0
  -11.5930    3.4100  -75.4620 C   0  0  0  0  0  0  0  0  0  0  0  0
  -11.5270    4.6320  -77.4960 C   0  0  0  0  0  0  0  0  0  0  0  0
  -10.3770    2.8880  -75.7330 C   0  0  0  0  0  0  0  0  0  0  0  0
  -10.2580    4.0850  -77.7740 C   0  0  0  0  0  0  0  0  0  0  0  0
   -9.6730    3.1830  -76.8600 C   0  0  0  0  0  0  0  0  0  0  0  0
   -8.4600    2.5400  -76.9690 N   0  0  0  0  0  0  0  0  0  0  0  0
   -7.1880    2.9310  -77.2930 C   0  0  0  0  0  0  0  0  0  0  0  0
   -6.4790    3.8750  -76.9690 O   0  0  0  0  0  0  0  0  0  0  0  0
   -6.6100    1.9200  -78.2400 C   0  0  0  0  0  0  0  0  0  0  0  0
   -6.6740    2.2170  -79.5840 C   0  0  0  0  0  0  0  0  0  0  0  0
   -7.6030    1.4170  -80.2230 C   0  0  0  0  0  0  0  0  0  0  0  0
   -8.1840    1.8750  -81.3730 C   0  0  0  0  0  0  0  0  0  0  0  0
   -7.9650    0.1330  -79.7190 C   0  0  0  0  0  0  0  0  0  0  0  0
   -9.1750    1.0430  -82.0930 C   0  0  0  0  0  0  0  0  0  0  0  0
   -8.9030   -0.7080  -80.3510 C   0  0  0  0  0  0  0  0  0  0  0  0
   -9.5190   -0.3050  -81.5130 C   0  0  0  0  0  0  0  0  0  0  0  0
  1  2  1  0
  2  3  1  0
  3  4  1  0
  5  3  1  0
  5  6  2  0
  5  7  2  0
  5  8  1  0
  8  9  2  0
  8 10  1  0
  9 11  1  0
 10 12  2  0
 11 13  2  0
 12 13  1  0
 13 14  1  0
 14 15  1  0
 15 16  2  0
 15 17  1  0
 17 18  1  0
 18 19  1  0
 19 20  2  0
 19 21  1  0
 20 22  1  0
 21 23  2  0
 22 24  2  0
 23 24  1  0
M  END
>  <ref_url>  (538) 
https://fakepage.com

>  <submitter_name>  (538) 
Steph Wills

>  <submitter_email>  (538) 
stephanie.wills@dtc.ox.ac.uk

>  <submitter_institution>  (538) 
University of Oxford

>  <generation_date>  (538) 
2020-06-04

>  <method>  (538) 
Fragment network

>  <ref_mols>  (538) 
x0183_0B,x0212_0B

>  <ref_pdb>  (538) 
references/x0183-0B-x0212-0B-47661.holo_minimised_nolig.pdb

>  <original SMILES>  (538) 
CON(C)S(=O)(=O)c1ccc(NC(=O)CCc2ccccc2)cc1

>  <synthon>  (538) 
[Xe]c1ccccc1

>  <original_name>  (538) 
x0183-0B-x0212-0B-47661

>  <comRMSD_score>  (538) 
0.8526725740391307

>  <IF_score>  (538) 
0.65

>  <SuCOS_score>  (538) 
0.4832032684375529

>  <compound_ID>  (538) 
MOLPORT:005-543-874

$$$$

     RDKit          3D

 22 23  0  0  0  0  0  0  0  0999 V2000
  -11.7910    6.2500  -73.6840 C   0  0  0  0  0  0  0  0  0  0  0  0
  -13.2850    6.4140  -73.7710 C   0  0  0  0  0  0  0  0  0  0  0  0
  -13.9540    5.7440  -72.6000 C   0  0  0  0  0  0  0  0  0  0  0  0
  -13.7430    5.8630  -75.0280 O   0  0  0  0  0  0  0  0  0  0  0  0
  -13.4710    4.4700  -75.2140 C   0  0  0  0  0  0  0  0  0  0  0  0
  -12.1520    3.9830  -75.7460 C   0  0  0  0  0  0  0  0  0  0  0  0
  -11.3850    3.0390  -75.0820 C   0  0  0  0  0  0  0  0  0  0  0  0
  -11.6640    4.5670  -77.0780 C   0  0  0  0  0  0  0  0  0  0  0  0
  -10.1790    2.6290  -75.6230 C   0  0  0  0  0  0  0  0  0  0  0  0
  -10.4370    4.0970  -77.5510 C   0  0  0  0  0  0  0  0  0  0  0  0
   -9.7290    3.1480  -76.8170 C   0  0  0  0  0  0  0  0  0  0  0  0
   -9.7840    4.4660  -78.7340 N   0  0  0  0  0  0  0  0  0  0  0  0
   -8.8860    3.3550  -78.9860 C   0  0  0  0  0  0  0  0  0  0  0  0
   -9.3960    2.4580  -79.6180 O   0  0  0  0  0  0  0  0  0  0  0  0
   -7.5350    3.4060  -78.4360 N   0  0  0  0  0  0  0  0  0  0  0  0
   -6.6780    2.5730  -79.2790 C   0  0  0  0  0  0  0  0  0  0  0  0
   -7.5240    1.5940  -80.0770 C   0  0  0  0  0  0  0  0  0  0  0  0
   -7.8270    0.3150  -79.5730 C   0  0  0  0  0  0  0  0  0  0  0  0
   -8.0230    1.9510  -81.3390 C   0  0  0  0  0  0  0  0  0  0  0  0
   -8.6080   -0.5840  -80.3230 C   0  0  0  0  0  0  0  0  0  0  0  0
   -8.7910    1.0590  -82.0760 C   0  0  0  0  0  0  0  0  0  0  0  0
   -9.0820   -0.2070  -81.5710 C   0  0  0  0  0  0  0  0  0  0  0  0
  1  2  1  0
  2  3  1  0
  2  4  1  0
  4  5  1  0
  5  6  1  0
  6  7  2  0
  6  8  1  0
  7  9  1  0
  8 10  2  0
  9 11  2  0
 10 11  1  0
 10 12  1  0
 12 13  1  0
 13 14  2  0
 13 15  1  0
 15 16  1  0
 16 17  1  0
 17 18  2  0
 17 19  1  0
 18 20  1  0
 19 21  2  0
 20 22  2  0
 21 22  1  0
M  END
>  <ref_url>  (539) 
https://fakepage.com

>  <submitter_name>  (539) 
Steph Wills

>  <submitter_email>  (539) 
stephanie.wills@dtc.ox.ac.uk

>  <submitter_institution>  (539) 
University of Oxford

>  <generation_date>  (539) 
2020-06-04

>  <method>  (539) 
Fragment network

>  <ref_mols>  (539) 
x0183_0B,x0212_0B

>  <ref_pdb>  (539) 
references/x0183-0B-x0212-0B-51961.holo_minimised_nolig.pdb

>  <original SMILES>  (539) 
CC(C)OCc1cccc(NC(=O)NCc2ccccc2)c1

>  <synthon>  (539) 
[Xe]c1ccccc1

>  <original_name>  (539) 
x0183-0B-x0212-0B-51961

>  <comRMSD_score>  (539) 
0.8185702757224312

>  <IF_score>  (539) 
0.45

>  <SuCOS_score>  (539) 
0.4919594962721006

>  <compound_ID>  (539) 
REAL:Z840572652

$$$$

     RDKit          3D

 22 23  0  0  0  0  0  0  0  0999 V2000
  -12.7270    6.3470  -73.7040 C   0  0  0  0  0  0  0  0  0  0  0  0
  -13.2850    5.8850  -75.0330 C   0  0  0  0  0  0  0  0  0  0  0  0
  -13.0470    4.4880  -75.5180 C   0  0  0  0  0  0  0  0  0  0  0  0
  -13.8070    3.5480  -75.2970 O   0  0  0  0  0  0  0  0  0  0  0  0
  -11.9730    4.0810  -76.3220 C   0  0  0  0  0  0  0  0  0  0  0  0
  -11.6890    4.7460  -77.5340 C   0  0  0  0  0  0  0  0  0  0  0  0
  -11.1640    2.9860  -75.9220 C   0  0  0  0  0  0  0  0  0  0  0  0
  -10.6270    4.3320  -78.3390 C   0  0  0  0  0  0  0  0  0  0  0  0
  -10.1000    2.5690  -76.7310 C   0  0  0  0  0  0  0  0  0  0  0  0
   -9.8690    3.2530  -77.9110 C   0  0  0  0  0  0  0  0  0  0  0  0
   -9.3070    1.4880  -76.3510 N   0  0  0  0  0  0  0  0  0  0  0  0
   -8.0140    1.1790  -76.9530 C   0  0  0  0  0  0  0  0  0  0  0  0
   -7.3690   -0.1020  -76.8780 O   0  0  0  0  0  0  0  0  0  0  0  0
   -7.4460    2.2630  -77.5850 N   0  0  0  0  0  0  0  0  0  0  0  0
   -7.7460    3.5800  -77.0220 C   0  0  0  0  0  0  0  0  0  0  0  0
   -7.1160    2.3140  -79.0250 C   0  0  0  0  0  0  0  0  0  0  0  0
   -7.8420    1.4720  -79.8700 C   0  0  0  0  0  0  0  0  0  0  0  0
   -8.2220    1.8820  -81.1400 C   0  0  0  0  0  0  0  0  0  0  0  0
   -8.2190    0.1750  -79.4840 C   0  0  0  0  0  0  0  0  0  0  0  0
   -8.9370    1.0980  -82.0300 C   0  0  0  0  0  0  0  0  0  0  0  0
   -8.9420   -0.6450  -80.3570 C   0  0  0  0  0  0  0  0  0  0  0  0
   -9.2990   -0.1850  -81.6230 C   0  0  0  0  0  0  0  0  0  0  0  0
  1  2  1  0
  2  3  1  0
  3  4  2  0
  3  5  1  0
  5  6  2  0
  5  7  1  0
  6  8  1  0
  7  9  2  0
  8 10  2  0
  9 10  1  0
  9 11  1  0
 11 12  1  0
 12 13  2  0
 12 14  1  0
 14 15  1  0
 14 16  1  0
 16 17  1  0
 17 18  2  0
 17 19  1  0
 18 20  1  0
 19 21  2  0
 20 22  2  0
 21 22  1  0
M  END
>  <ref_url>  (540) 
https://fakepage.com

>  <submitter_name>  (540) 
Steph Wills

>  <submitter_email>  (540) 
stephanie.wills@dtc.ox.ac.uk

>  <submitter_institution>  (540) 
University of Oxford

>  <generation_date>  (540) 
2020-06-04

>  <method>  (540) 
Fragment network

>  <ref_mols>  (540) 
x0183_0B,x0212_0B

>  <ref_pdb>  (540) 
references/x0183-0B-x0212-0B-52522.holo_minimised_nolig.pdb

>  <original SMILES>  (540) 
CCC(=O)c1cccc(NC(=O)N(C)Cc2ccccc2)c1

>  <synthon>  (540) 
[Xe]c1ccccc1

>  <original_name>  (540) 
x0183-0B-x0212-0B-52522

>  <comRMSD_score>  (540) 
0.5407236920194183

>  <IF_score>  (540) 
0.425

>  <SuCOS_score>  (540) 
0.5459941086767959

>  <compound_ID>  (540) 
REAL:Z1466367199

$$$$

     RDKit          3D

 25 26  0  0  0  0  0  0  0  0999 V2000
  -11.7860    6.1230  -73.6760 C   0  0  0  0  0  0  0  0  0  0  0  0
  -13.2870    6.1540  -73.9420 C   0  0  0  0  0  0  0  0  0  0  0  0
  -13.5640    5.7320  -75.3640 C   0  0  0  0  0  0  0  0  0  0  0  0
  -13.2070    4.4370  -75.8400 C   0  0  0  0  0  0  0  0  0  0  0  0
  -11.8880    4.1730  -76.2640 C   0  0  0  0  0  0  0  0  0  0  0  0
  -11.4190    4.5580  -77.4940 C   0  0  0  0  0  0  0  0  0  0  0  0
  -10.9470    3.5040  -75.4860 C   0  0  0  0  0  0  0  0  0  0  0  0
   -9.9940    4.3130  -78.0090 C   0  0  0  0  0  0  0  0  0  0  0  0
   -9.6130    3.2460  -75.8870 C   0  0  0  0  0  0  0  0  0  0  0  0
   -8.9540    3.5820  -77.0940 C   0  0  0  0  0  0  0  0  0  0  0  0
   -7.9070    3.1010  -76.7460 N   0  0  0  0  0  0  0  0  0  0  0  0
   -6.6660    3.7460  -76.4160 C   0  0  0  0  0  0  0  0  0  0  0  0
   -6.1400    4.6430  -75.1390 S   0  0  0  0  0  0  0  0  0  0  0  0
   -5.6250    3.6420  -77.3480 N   0  0  0  0  0  0  0  0  0  0  0  0
   -5.6810    4.3980  -78.4360 N   0  0  0  0  0  0  0  0  0  0  0  0
   -6.5060    3.8470  -79.3340 C   0  0  0  0  0  0  0  0  0  0  0  0
   -6.5790    4.2560  -80.6200 O   0  0  0  0  0  0  0  0  0  0  0  0
   -7.2170    2.8260  -78.7290 C   0  0  0  0  0  0  0  0  0  0  0  0
   -6.8330    1.6050  -79.1850 C   0  0  0  0  0  0  0  0  0  0  0  0
   -7.7350    1.0460  -80.0390 C   0  0  0  0  0  0  0  0  0  0  0  0
   -8.1480    1.6540  -81.2070 C   0  0  0  0  0  0  0  0  0  0  0  0
   -8.2240   -0.2030  -79.6570 C   0  0  0  0  0  0  0  0  0  0  0  0
   -9.1280    0.9460  -82.0640 C   0  0  0  0  0  0  0  0  0  0  0  0
   -9.1440   -0.8750  -80.4490 C   0  0  0  0  0  0  0  0  0  0  0  0
   -9.5890   -0.3060  -81.6390 C   0  0  0  0  0  0  0  0  0  0  0  0
  1  2  1  0
  2  3  1  0
  3  4  1  0
  4  5  1  0
  5  6  2  0
  5  7  1  0
  6  8  1  0
  7  9  2  0
  8 10  2  0
  9 10  1  0
 10 11  1  0
 11 12  1  0
 12 13  2  0
 12 14  1  0
 14 15  1  0
 15 16  1  0
 16 17  2  0
 16 18  1  0
 18 19  1  0
 19 20  1  0
 20 21  2  0
 20 22  1  0
 21 23  1  0
 22 24  2  0
 23 25  2  0
 24 25  1  0
M  END
>  <ref_url>  (541) 
https://fakepage.com

>  <submitter_name>  (541) 
Steph Wills

>  <submitter_email>  (541) 
stephanie.wills@dtc.ox.ac.uk

>  <submitter_institution>  (541) 
University of Oxford

>  <generation_date>  (541) 
2020-06-04

>  <method>  (541) 
Fragment network

>  <ref_mols>  (541) 
x0183_0B,x0212_0B

>  <ref_pdb>  (541) 
references/x0183-0B-x0212-0B-55560.holo_minimised_nolig.pdb

>  <original SMILES>  (541) 
CCCCc1ccc(NC(=S)NNC(=O)CCc2ccccc2)cc1

>  <synthon>  (541) 
[Xe]c1ccccc1

>  <original_name>  (541) 
x0183-0B-x0212-0B-55560

>  <comRMSD_score>  (541) 
0.7226105195490601

>  <IF_score>  (541) 
0.55

>  <SuCOS_score>  (541) 
0.5476775514351988

>  <compound_ID>  (541) 
MOLPORT:001-582-711

$$$$

     RDKit          3D

 22 23  0  0  0  0  0  0  0  0999 V2000
  -12.8030    6.3000  -73.7710 C   0  0  0  0  0  0  0  0  0  0  0  0
  -13.3650    5.7390  -75.0890 C   0  0  0  0  0  0  0  0  0  0  0  0
  -13.1110    4.2610  -75.3190 C   0  0  0  0  0  0  0  0  0  0  0  0
  -11.7460    3.7710  -75.7980 C   0  0  0  0  0  0  0  0  0  0  0  0
  -11.1630    2.5780  -75.0970 C   0  0  0  0  0  0  0  0  0  0  0  0
  -10.9670    4.3210  -76.8310 C   0  0  0  0  0  0  0  0  0  0  0  0
   -9.9070    2.0830  -75.4810 C   0  0  0  0  0  0  0  0  0  0  0  0
   -9.7510    3.7640  -77.1170 C   0  0  0  0  0  0  0  0  0  0  0  0
  -11.2360    5.2390  -77.5180 O   0  0  0  0  0  0  0  0  0  0  0  0
   -9.1880    2.6860  -76.4970 C   0  0  0  0  0  0  0  0  0  0  0  0
  -10.5770    4.6000  -78.5540 C   0  0  0  0  0  0  0  0  0  0  0  0
   -9.4540    3.7540  -78.3980 C   0  0  1  0  0  0  0  0  0  0  0  0
   -9.7270    2.2790  -78.1910 C   0  0  0  0  0  0  0  0  0  0  0  0
   -8.6520    3.8530  -79.7050 C   0  0  0  0  0  0  0  0  0  0  0  0
   -7.4500    3.7640  -79.5030 O   0  0  0  0  0  0  0  0  0  0  0  0
   -7.0720    2.4490  -79.1400 C   0  0  0  0  0  0  0  0  0  0  0  0
   -7.7670    1.5440  -79.9440 C   0  0  0  0  0  0  0  0  0  0  0  0
   -8.1270    1.8930  -81.2390 C   0  0  0  0  0  0  0  0  0  0  0  0
   -8.1420    0.2460  -79.4970 C   0  0  0  0  0  0  0  0  0  0  0  0
   -8.8660    0.9900  -82.1500 C   0  0  0  0  0  0  0  0  0  0  0  0
   -8.8470   -0.6710  -80.3010 C   0  0  0  0  0  0  0  0  0  0  0  0
   -9.2190   -0.3470  -81.6000 C   0  0  0  0  0  0  0  0  0  0  0  0
  1  2  1  0
  2  3  1  0
  3  4  1  0
  4  5  2  0
  4  6  1  0
  5  7  1  0
  6  8  2  0
  6  9  1  0
  7 10  2  0
  8 10  1  0
  9 11  1  0
 11 12  1  0
 12 13  1  6
 12 14  1  0
 14 15  1  0
 15 16  1  0
 16 17  1  0
 17 18  2  0
 17 19  1  0
 18 20  1  0
 19 21  2  0
 20 22  2  0
 21 22  1  0
M  END
>  <ref_url>  (542) 
https://fakepage.com

>  <submitter_name>  (542) 
Steph Wills

>  <submitter_email>  (542) 
stephanie.wills@dtc.ox.ac.uk

>  <submitter_institution>  (542) 
University of Oxford

>  <generation_date>  (542) 
2020-06-04

>  <method>  (542) 
Fragment network

>  <ref_mols>  (542) 
x0183_0B,x0212_0B

>  <ref_pdb>  (542) 
references/x0183-0B-x0212-0B-55571.holo_minimised_nolig.pdb

>  <original SMILES>  (542) 
CCCc1ccccc1OCC(C)COCc1ccccc1

>  <synthon>  (542) 
[Xe]c1ccccc1

>  <original_name>  (542) 
x0183-0B-x0212-0B-55571

>  <comRMSD_score>  (542) 
0.9386718158002704

>  <IF_score>  (542) 
0.65

>  <SuCOS_score>  (542) 
0.518716325456308

>  <compound_ID>  (542) 
CHEMSPACE-BB:CSMB00042839528

$$$$

     RDKit          3D

 24 25  0  0  0  0  0  0  0  0999 V2000
  -12.7730    5.2360  -72.8980 C   0  0  0  0  0  0  0  0  0  0  0  0
  -12.4670    6.1930  -73.9630 C   0  0  0  0  0  0  0  0  0  0  0  0
  -11.5130    6.9660  -73.8650 O   0  0  0  0  0  0  0  0  0  0  0  0
  -13.3720    6.0670  -75.0260 N   0  0  0  0  0  0  0  0  0  0  0  0
  -13.6700    4.6400  -75.8390 S   0  0  0  0  0  0  0  0  0  0  0  0
  -14.4980    5.0280  -76.9630 O   0  0  0  0  0  0  0  0  0  0  0  0
  -14.0830    3.5730  -74.9640 O   0  0  0  0  0  0  0  0  0  0  0  0
  -12.0720    4.3080  -76.4770 C   0  0  0  0  0  0  0  0  0  0  0  0
  -11.7820    4.7690  -77.7510 C   0  0  0  0  0  0  0  0  0  0  0  0
  -11.1310    3.6130  -75.7200 C   0  0  0  0  0  0  0  0  0  0  0  0
  -10.5270    4.5460  -78.2840 C   0  0  0  0  0  0  0  0  0  0  0  0
   -9.8730    3.3950  -76.2640 C   0  0  0  0  0  0  0  0  0  0  0  0
   -9.5730    3.8690  -77.5450 C   0  0  0  0  0  0  0  0  0  0  0  0
   -8.2960    3.6380  -78.0100 N   0  0  0  0  0  0  0  0  0  0  0  0
   -7.4910    2.6310  -77.5930 C   0  0  0  0  0  0  0  0  0  0  0  0
   -7.6730    1.8350  -76.6820 O   0  0  0  0  0  0  0  0  0  0  0  0
   -6.2790    2.5540  -78.4100 C   0  0  0  0  0  0  0  0  0  0  0  0
   -6.2680    1.9530  -79.5990 C   0  0  0  0  0  0  0  0  0  0  0  0
   -7.4090    1.2830  -80.2480 C   0  0  0  0  0  0  0  0  0  0  0  0
   -8.0350    1.7920  -81.3930 C   0  0  0  0  0  0  0  0  0  0  0  0
   -7.8840    0.0760  -79.7080 C   0  0  0  0  0  0  0  0  0  0  0  0
   -9.0850    1.1020  -81.9800 C   0  0  0  0  0  0  0  0  0  0  0  0
   -8.9450   -0.6070  -80.3020 C   0  0  0  0  0  0  0  0  0  0  0  0
   -9.5410   -0.0940  -81.4420 C   0  0  0  0  0  0  0  0  0  0  0  0
  1  2  1  0
  2  3  2  0
  2  4  1  0
  5  4  1  0
  5  6  2  0
  5  7  2  0
  5  8  1  0
  8  9  2  0
  8 10  1  0
  9 11  1  0
 10 12  2  0
 11 13  2  0
 12 13  1  0
 13 14  1  0
 14 15  1  0
 15 16  2  0
 15 17  1  0
 17 18  2  3
 18 19  1  0
 19 20  2  0
 19 21  1  0
 20 22  1  0
 21 23  2  0
 22 24  2  0
 23 24  1  0
M  END
>  <ref_url>  (543) 
https://fakepage.com

>  <submitter_name>  (543) 
Steph Wills

>  <submitter_email>  (543) 
stephanie.wills@dtc.ox.ac.uk

>  <submitter_institution>  (543) 
University of Oxford

>  <generation_date>  (543) 
2020-06-04

>  <method>  (543) 
Fragment network

>  <ref_mols>  (543) 
x0183_0B,x0212_0B

>  <ref_pdb>  (543) 
references/x0183-0B-x0212-0B-55896.holo_minimised_nolig.pdb

>  <original SMILES>  (543) 
CC(=O)NS(=O)(=O)c1ccc(NC(=O)C=Cc2ccccc2)cc1

>  <synthon>  (543) 
[Xe]c1ccccc1

>  <original_name>  (543) 
x0183-0B-x0212-0B-55896

>  <comRMSD_score>  (543) 
0.6170699374400832

>  <IF_score>  (543) 
0.8

>  <SuCOS_score>  (543) 
0.5167159856632701

>  <compound_ID>  (543) 
MOLPORT:001-500-245

$$$$

     RDKit          3D

 34 39  0  0  0  0  0  0  0  0999 V2000
  -13.6220    6.4310  -72.2920 O   0  0  0  0  0  0  0  0  0  0  0  0
  -13.6370    6.1060  -73.4530 C   0  0  0  0  0  0  0  0  0  0  0  0
  -12.5400    5.2770  -74.0990 C   0  0  0  0  0  0  0  0  0  0  0  0
  -14.6790    6.4190  -74.2760 N   0  0  0  0  0  0  0  0  0  0  0  0
  -12.9010    5.1070  -75.5650 C   0  0  1  0  0  0  0  0  0  0  0  0
  -15.1730    5.4500  -75.0410 C   0  0  0  0  0  0  0  0  0  0  0  0
  -11.8950    4.4580  -76.2520 C   0  0  0  0  0  0  0  0  0  0  0  0
  -14.2270    4.6990  -75.7330 C   0  0  0  0  0  0  0  0  0  0  0  0
  -16.5340    5.1340  -75.1830 N   0  0  0  0  0  0  0  0  0  0  0  0
  -11.1040    3.4640  -75.6750 C   0  0  0  0  0  0  0  0  0  0  0  0
  -11.6670    4.8580  -77.5760 C   0  0  0  0  0  0  0  0  0  0  0  0
  -16.9010    3.9510  -75.8090 C   0  0  0  0  0  0  0  0  0  0  0  0
  -17.7220    5.7690  -74.8290 C   0  0  0  0  0  0  0  0  0  0  0  0
  -14.6830    3.5580  -76.5890 C   0  0  0  0  0  0  0  0  0  0  0  0
  -10.0380    2.8630  -76.4930 C   0  0  0  0  0  0  0  0  0  0  0  0
  -10.6640    4.2910  -78.3440 C   0  0  0  0  0  0  0  0  0  0  0  0
  -18.1930    3.7780  -75.8760 N   0  0  0  0  0  0  0  0  0  0  0  0
  -18.7180    4.8940  -75.2760 C   0  0  0  0  0  0  0  0  0  0  0  0
  -18.0480    6.9740  -74.1850 C   0  0  0  0  0  0  0  0  0  0  0  0
  -15.9390    3.0930  -76.2910 N   0  0  0  0  0  0  0  0  0  0  0  0
  -14.0100    3.0650  -77.4890 O   0  0  0  0  0  0  0  0  0  0  0  0
   -9.8530    3.3030  -77.8010 C   0  0  0  0  0  0  0  0  0  0  0  0
  -20.0610    5.2220  -75.0830 C   0  0  0  0  0  0  0  0  0  0  0  0
  -19.4000    7.2830  -74.0040 C   0  0  0  0  0  0  0  0  0  0  0  0
   -8.9100    2.8280  -78.6290 O   0  0  0  0  0  0  0  0  0  0  0  0
  -20.3970    6.4160  -74.4480 C   0  0  0  0  0  0  0  0  0  0  0  0
   -7.5960    2.8140  -78.1100 C   0  0  0  0  0  0  0  0  0  0  0  0
   -6.8850    2.1790  -79.1010 C   0  0  0  0  0  0  0  0  0  0  0  0
   -7.7620    1.3190  -79.9960 C   0  0  0  0  0  0  0  0  0  0  0  0
   -8.1680    1.9270  -81.3020 C   0  0  0  0  0  0  0  0  0  0  0  0
   -8.1850    0.0350  -79.6320 C   0  0  0  0  0  0  0  0  0  0  0  0
   -9.0390    1.1190  -82.2190 C   0  0  0  0  0  0  0  0  0  0  0  0
   -8.9930   -0.7320  -80.4620 C   0  0  0  0  0  0  0  0  0  0  0  0
   -9.4250   -0.2610  -81.7000 C   0  0  0  0  0  0  0  0  0  0  0  0
  1  2  2  0
  2  3  1  0
  2  4  1  0
  3  5  1  0
  4  6  1  0
  5  7  1  1
  5  8  1  0
  6  8  2  0
  6  9  1  0
  7 10  2  0
  7 11  1  0
  9 12  1  0
  9 13  1  0
  8 14  1  0
 10 15  1  0
 11 16  2  0
 12 17  2  0
 13 18  2  0
 17 18  1  0
 13 19  1  0
 12 20  1  0
 14 20  1  0
 14 21  2  0
 15 22  2  0
 16 22  1  0
 18 23  1  0
 19 24  2  0
 22 25  1  0
 23 26  2  0
 24 26  1  0
 25 27  1  0
 27 28  1  0
 28 29  1  0
 29 30  2  0
 29 31  1  0
 30 32  1  0
 31 33  2  0
 32 34  2  0
 33 34  1  0
M  END
>  <ref_url>  (544) 
https://fakepage.com

>  <submitter_name>  (544) 
Steph Wills

>  <submitter_email>  (544) 
stephanie.wills@dtc.ox.ac.uk

>  <submitter_institution>  (544) 
University of Oxford

>  <generation_date>  (544) 
2020-06-04

>  <method>  (544) 
Fragment network

>  <ref_mols>  (544) 
x0183_0B,x0212_0B

>  <ref_pdb>  (544) 
references/x0183-0B-x0212-0B-57392.holo_minimised_nolig.pdb

>  <original SMILES>  (544) 
O=C1CC(c2ccc(OCCc3ccccc3)cc2)c2c(n3c(nc4ccccc43)[nH]c2=O)N1

>  <synthon>  (544) 
[Xe]c1ccccc1

>  <original_name>  (544) 
x0183-0B-x0212-0B-57392

>  <comRMSD_score>  (544) 
0.810778187441403

>  <IF_score>  (544) 
0.65

>  <SuCOS_score>  (544) 
0.5384206751304972

>  <compound_ID>  (544) 
MOLPORT:005-918-644

$$$$

     RDKit          3D

 24 25  0  0  0  0  0  0  0  0999 V2000
  -12.7510    6.3740  -73.6920 C   0  0  0  0  0  0  0  0  0  0  0  0
  -13.2610    5.9630  -75.0370 C   0  0  0  0  0  0  0  0  0  0  0  0
  -13.1350    4.6710  -75.5590 C   0  0  0  0  0  0  0  0  0  0  0  0
  -11.9170    4.2490  -76.0990 C   0  0  0  0  0  0  0  0  0  0  0  0
  -11.1970    3.1720  -75.5990 C   0  0  0  0  0  0  0  0  0  0  0  0
  -11.3590    4.8960  -77.2020 C   0  0  0  0  0  0  0  0  0  0  0  0
   -9.9960    2.6970  -76.1250 C   0  0  0  0  0  0  0  0  0  0  0  0
  -10.1040    4.3960  -77.7610 C   0  0  0  0  0  0  0  0  0  0  0  0
   -9.4280    3.2970  -77.2290 C   0  0  0  0  0  0  0  0  0  0  0  0
   -8.2720    2.7810  -77.7180 O   0  0  0  0  0  0  0  0  0  0  0  0
   -7.4460    3.6240  -78.4830 C   0  0  0  0  0  0  0  0  0  0  0  0
   -6.3500    3.9590  -77.6820 C   0  0  0  0  0  0  0  0  0  0  0  0
   -6.2900    3.6360  -76.4950 O   0  0  0  0  0  0  0  0  0  0  0  0
   -5.3880    4.6720  -78.3440 N   0  0  0  0  0  0  0  0  0  0  0  0
   -4.1450    4.2140  -78.7210 N   0  0  0  0  0  0  0  0  0  0  0  0
   -4.0250    3.0740  -79.6830 C   0  0  0  0  0  0  0  0  0  0  0  0
   -5.1970    2.4950  -80.1940 C   0  0  0  0  0  0  0  0  0  0  0  0
   -6.3850    1.8690  -79.4370 C   0  0  0  0  0  0  0  0  0  0  0  0
   -7.5970    1.2400  -80.1450 C   0  0  0  0  0  0  0  0  0  0  0  0
   -8.1210    1.8090  -81.3220 C   0  0  0  0  0  0  0  0  0  0  0  0
   -8.1820    0.0800  -79.6210 C   0  0  0  0  0  0  0  0  0  0  0  0
   -9.2070    1.2150  -81.9610 C   0  0  0  0  0  0  0  0  0  0  0  0
   -9.2670   -0.4950  -80.2710 C   0  0  0  0  0  0  0  0  0  0  0  0
   -9.7700    0.0660  -81.4280 C   0  0  0  0  0  0  0  0  0  0  0  0
  1  2  1  0
  2  3  1  0
  3  4  1  0
  4  5  2  0
  4  6  1  0
  5  7  1  0
  6  8  2  0
  7  9  2  0
  8  9  1  0
  9 10  1  0
 10 11  1  0
 11 12  1  0
 12 13  2  0
 12 14  1  0
 14 15  1  0
 15 16  2  3
 16 17  1  0
 17 18  2  3
 18 19  1  0
 19 20  2  0
 19 21  1  0
 20 22  1  0
 21 23  2  0
 22 24  2  0
 23 24  1  0
M  END
>  <ref_url>  (545) 
https://fakepage.com

>  <submitter_name>  (545) 
Steph Wills

>  <submitter_email>  (545) 
stephanie.wills@dtc.ox.ac.uk

>  <submitter_institution>  (545) 
University of Oxford

>  <generation_date>  (545) 
2020-06-04

>  <method>  (545) 
Fragment network

>  <ref_mols>  (545) 
x0183_0B,x0212_0B

>  <ref_pdb>  (545) 
references/x0183-0B-x0212-0B-59369.holo_minimised_nolig.pdb

>  <original SMILES>  (545) 
CCCc1ccc(OCC(=O)NN=CC=Cc2ccccc2)cc1

>  <synthon>  (545) 
[Xe]c1ccccc1

>  <original_name>  (545) 
x0183-0B-x0212-0B-59369

>  <comRMSD_score>  (545) 
0.8555341195005773

>  <IF_score>  (545) 
0.5

>  <SuCOS_score>  (545) 
0.5178924854583437

>  <compound_ID>  (545) 
MOLPORT:001-804-932

$$$$

     RDKit          3D

 25 26  0  0  0  0  0  0  0  0999 V2000
  -12.8320    6.3890  -73.5630 C   0  0  0  0  0  0  0  0  0  0  0  0
  -13.5770    5.7810  -74.7230 C   0  0  0  0  0  0  0  0  0  0  0  0
  -14.2980    6.4600  -75.4480 O   0  0  0  0  0  0  0  0  0  0  0  0
  -13.3210    4.3490  -74.8500 N   0  0  0  0  0  0  0  0  0  0  0  0
  -12.4740    4.0040  -75.8550 C   0  0  0  0  0  0  0  0  0  0  0  0
  -12.6020    4.7130  -77.0350 C   0  0  0  0  0  0  0  0  0  0  0  0
  -11.5400    2.9890  -75.6970 C   0  0  0  0  0  0  0  0  0  0  0  0
  -11.7900    4.4040  -78.0910 C   0  0  0  0  0  0  0  0  0  0  0  0
  -10.7240    2.6820  -76.7710 C   0  0  0  0  0  0  0  0  0  0  0  0
  -10.8540    3.3920  -77.9710 C   0  0  0  0  0  0  0  0  0  0  0  0
  -10.0520    3.1150  -79.0420 N   0  0  0  0  0  0  0  0  0  0  0  0
   -8.9990    3.8890  -79.0830 C   0  0  0  0  0  0  0  0  0  0  0  0
   -8.2400    4.1960  -79.9950 O   0  0  0  0  0  0  0  0  0  0  0  0
   -8.9930    4.2620  -77.7750 N   0  0  0  0  0  0  0  0  0  0  0  0
   -8.2190    3.4860  -76.8500 C   0  0  0  0  0  0  0  0  0  0  0  0
   -8.1550    2.0380  -77.2330 C   0  0  0  0  0  0  0  0  0  0  0  0
   -6.8540    1.7070  -77.8030 N   0  0  0  0  0  0  0  0  0  0  0  0
   -5.7630    1.9900  -76.8520 C   0  0  0  0  0  0  0  0  0  0  0  0
   -6.7770    2.0960  -79.1970 C   0  0  0  0  0  0  0  0  0  0  0  0
   -7.6630    1.3600  -79.9880 C   0  0  0  0  0  0  0  0  0  0  0  0
   -8.1150    1.8300  -81.2160 C   0  0  0  0  0  0  0  0  0  0  0  0
   -8.1180    0.1050  -79.5490 C   0  0  0  0  0  0  0  0  0  0  0  0
   -8.9900    1.0930  -82.0050 C   0  0  0  0  0  0  0  0  0  0  0  0
   -8.9990   -0.6460  -80.3280 C   0  0  0  0  0  0  0  0  0  0  0  0
   -9.4340   -0.1530  -81.5570 C   0  0  0  0  0  0  0  0  0  0  0  0
  1  2  1  0
  2  3  2  0
  2  4  1  0
  4  5  1  0
  5  6  2  0
  5  7  1  0
  6  8  1  0
  7  9  2  0
  8 10  2  0
  9 10  1  0
 10 11  1  0
 11 12  1  0
 12 13  2  0
 12 14  1  0
 14 15  1  0
 15 16  1  0
 16 17  1  0
 17 18  1  0
 17 19  1  0
 19 20  1  0
 20 21  2  0
 20 22  1  0
 21 23  1  0
 22 24  2  0
 23 25  2  0
 24 25  1  0
M  END
>  <ref_url>  (546) 
https://fakepage.com

>  <submitter_name>  (546) 
Steph Wills

>  <submitter_email>  (546) 
stephanie.wills@dtc.ox.ac.uk

>  <submitter_institution>  (546) 
University of Oxford

>  <generation_date>  (546) 
2020-06-04

>  <method>  (546) 
Fragment network

>  <ref_mols>  (546) 
x0183_0B,x0212_0B

>  <ref_pdb>  (546) 
references/x0183-0B-x0212-0B-60374.holo_minimised_nolig.pdb

>  <original SMILES>  (546) 
CC(=O)Nc1ccc(NC(=O)NCCN(C)Cc2ccccc2)cc1

>  <synthon>  (546) 
[Xe]c1ccccc1

>  <original_name>  (546) 
x0183-0B-x0212-0B-60374

>  <comRMSD_score>  (546) 
0.9662881251162836

>  <IF_score>  (546) 
0.425

>  <SuCOS_score>  (546) 
0.4635248549817456

>  <compound_ID>  (546) 
REAL:Z807167536

$$$$

     RDKit          3D

 23 24  0  0  0  0  0  0  0  0999 V2000
  -12.8020    6.3200  -73.7540 C   0  0  0  0  0  0  0  0  0  0  0  0
  -13.2450    6.1120  -75.0330 N   0  0  0  0  0  0  0  0  0  0  0  0
  -12.8780    7.0200  -76.1260 C   0  0  0  0  0  0  0  0  0  0  0  0
  -13.5420    4.5400  -75.5710 S   0  0  0  0  0  0  0  0  0  0  0  0
  -13.6130    3.6290  -74.4650 O   0  0  0  0  0  0  0  0  0  0  0  0
  -14.6230    4.6630  -76.5200 O   0  0  0  0  0  0  0  0  0  0  0  0
  -12.0740    4.1860  -76.4930 C   0  0  0  0  0  0  0  0  0  0  0  0
  -11.9410    4.7370  -77.7450 C   0  0  0  0  0  0  0  0  0  0  0  0
  -11.0190    3.3710  -76.0320 C   0  0  0  0  0  0  0  0  0  0  0  0
  -10.8420    4.5090  -78.5190 C   0  0  0  0  0  0  0  0  0  0  0  0
   -9.8870    3.1460  -76.8480 C   0  0  0  0  0  0  0  0  0  0  0  0
   -9.8140    3.7320  -78.1080 C   0  0  0  0  0  0  0  0  0  0  0  0
   -8.8550    2.3550  -76.4110 N   0  0  0  0  0  0  0  0  0  0  0  0
   -7.5280    2.6390  -76.9680 C   0  0  0  0  0  0  0  0  0  0  0  0
   -6.4180    2.5330  -76.4620 O   0  0  0  0  0  0  0  0  0  0  0  0
   -7.5100    3.1160  -78.2800 C   0  0  0  0  0  0  0  0  0  0  0  0
   -6.9030    2.2420  -79.1660 C   0  0  0  0  0  0  0  0  0  0  0  0
   -7.7080    1.4450  -79.9650 C   0  0  0  0  0  0  0  0  0  0  0  0
   -8.1660    1.9320  -81.3100 C   0  0  0  0  0  0  0  0  0  0  0  0
   -8.1160    0.1660  -79.5530 C   0  0  0  0  0  0  0  0  0  0  0  0
   -9.0260    1.0240  -82.1380 C   0  0  0  0  0  0  0  0  0  0  0  0
   -8.9320   -0.6460  -80.3780 C   0  0  0  0  0  0  0  0  0  0  0  0
   -9.3730   -0.2290  -81.6360 C   0  0  0  0  0  0  0  0  0  0  0  0
  1  2  1  0
  2  3  1  0
  4  2  1  0
  4  5  2  0
  4  6  2  0
  4  7  1  0
  7  8  2  0
  7  9  1  0
  8 10  1  0
  9 11  2  0
 10 12  2  0
 11 12  1  0
 11 13  1  0
 13 14  1  0
 14 15  2  0
 14 16  1  0
 16 17  1  0
 17 18  1  0
 18 19  2  0
 18 20  1  0
 19 21  1  0
 20 22  2  0
 21 23  2  0
 22 23  1  0
M  END
>  <ref_url>  (547) 
https://fakepage.com

>  <submitter_name>  (547) 
Steph Wills

>  <submitter_email>  (547) 
stephanie.wills@dtc.ox.ac.uk

>  <submitter_institution>  (547) 
University of Oxford

>  <generation_date>  (547) 
2020-06-04

>  <method>  (547) 
Fragment network

>  <ref_mols>  (547) 
x0183_0B,x0212_0B

>  <ref_pdb>  (547) 
references/x0183-0B-x0212-0B-60769.holo_minimised_nolig.pdb

>  <original SMILES>  (547) 
CN(C)S(=O)(=O)c1cccc(NC(=O)CCc2ccccc2)c1

>  <synthon>  (547) 
[Xe]c1ccccc1

>  <original_name>  (547) 
x0183-0B-x0212-0B-60769

>  <comRMSD_score>  (547) 
0.6118026188604

>  <IF_score>  (547) 
0.525

>  <SuCOS_score>  (547) 
0.4886419217265318

>  <compound_ID>  (547) 
MOLPORT:004-082-262, REAL:Z30564141

$$$$

     RDKit          3D

 22 23  0  0  0  0  0  0  0  0999 V2000
  -11.8110    6.2710  -73.7600 C   0  0  0  0  0  0  0  0  0  0  0  0
  -13.2930    6.1210  -73.7280 C   0  0  0  0  0  0  0  0  0  0  0  0
  -13.5870    4.7590  -74.1130 O   0  0  0  0  0  0  0  0  0  0  0  0
  -13.6200    4.3470  -75.4170 C   0  0  0  0  0  0  0  0  0  0  0  0
  -14.6390    4.0970  -76.0300 O   0  0  0  0  0  0  0  0  0  0  0  0
  -12.2790    4.1690  -76.0400 C   0  0  0  0  0  0  0  0  0  0  0  0
  -12.0670    4.7550  -77.2950 C   0  0  0  0  0  0  0  0  0  0  0  0
  -11.2450    3.4440  -75.4360 C   0  0  0  0  0  0  0  0  0  0  0  0
  -10.8410    4.6190  -77.9360 C   0  0  0  0  0  0  0  0  0  0  0  0
  -10.0210    3.3170  -76.0880 C   0  0  0  0  0  0  0  0  0  0  0  0
   -9.8200    3.9050  -77.3350 C   0  0  0  0  0  0  0  0  0  0  0  0
   -8.5630    3.7240  -77.8890 N   0  0  0  0  0  0  0  0  0  0  0  0
   -7.4150    3.2580  -77.3450 C   0  0  0  0  0  0  0  0  0  0  0  0
   -6.4560    3.8410  -76.1050 S   0  0  0  0  0  0  0  0  0  0  0  0
   -6.9830    2.1440  -77.9580 N   0  0  0  0  0  0  0  0  0  0  0  0
   -6.6620    2.1080  -79.3580 C   0  0  0  0  0  0  0  0  0  0  0  0
   -7.6620    1.3050  -80.1140 C   0  0  0  0  0  0  0  0  0  0  0  0
   -8.0870    0.0650  -79.6240 C   0  0  0  0  0  0  0  0  0  0  0  0
   -8.1780    1.7820  -81.3190 C   0  0  0  0  0  0  0  0  0  0  0  0
   -9.0110   -0.6900  -80.3310 C   0  0  0  0  0  0  0  0  0  0  0  0
   -9.0950    1.0250  -82.0180 C   0  0  0  0  0  0  0  0  0  0  0  0
   -9.5130   -0.2110  -81.5300 C   0  0  0  0  0  0  0  0  0  0  0  0
  1  2  1  0
  2  3  1  0
  3  4  1  0
  4  5  2  0
  4  6  1  0
  6  7  2  0
  6  8  1  0
  7  9  1  0
  8 10  2  0
  9 11  2  0
 10 11  1  0
 11 12  1  0
 12 13  1  0
 13 14  2  0
 13 15  1  0
 15 16  1  0
 16 17  1  0
 17 18  2  0
 17 19  1  0
 18 20  1  0
 19 21  2  0
 20 22  2  0
 21 22  1  0
M  END
>  <ref_url>  (548) 
https://fakepage.com

>  <submitter_name>  (548) 
Steph Wills

>  <submitter_email>  (548) 
stephanie.wills@dtc.ox.ac.uk

>  <submitter_institution>  (548) 
University of Oxford

>  <generation_date>  (548) 
2020-06-04

>  <method>  (548) 
Fragment network

>  <ref_mols>  (548) 
x0183_0B,x0212_0B

>  <ref_pdb>  (548) 
references/x0183-0B-x0212-0B-61567.holo_minimised_nolig.pdb

>  <original SMILES>  (548) 
CCOC(=O)c1ccc(NC(=S)NCc2ccccc2)cc1

>  <synthon>  (548) 
[Xe]c1ccccc1

>  <original_name>  (548) 
x0183-0B-x0212-0B-61567

>  <comRMSD_score>  (548) 
0.701910277056146

>  <IF_score>  (548) 
0.55

>  <SuCOS_score>  (548) 
0.5158901213950451

>  <compound_ID>  (548) 
MOLPORT:001-511-517

$$$$

     RDKit          3D

 23 24  0  0  0  0  0  0  0  0999 V2000
  -12.8670    6.4480  -73.6740 C   0  0  0  0  0  0  0  0  0  0  0  0
  -13.3150    6.2630  -75.0530 N   0  0  0  0  0  0  0  0  0  0  0  0
  -12.6790    7.1940  -76.0130 C   0  0  0  0  0  0  0  0  0  0  0  0
  -13.7340    4.7500  -75.6580 S   0  0  0  0  0  0  0  0  0  0  0  0
  -14.6630    4.9550  -76.7450 O   0  0  0  0  0  0  0  0  0  0  0  0
  -14.0260    3.8380  -74.5860 O   0  0  0  0  0  0  0  0  0  0  0  0
  -12.2200    4.2280  -76.3840 C   0  0  0  0  0  0  0  0  0  0  0  0
  -11.8960    4.6550  -77.6610 C   0  0  0  0  0  0  0  0  0  0  0  0
  -11.3490    3.3950  -75.6890 C   0  0  0  0  0  0  0  0  0  0  0  0
  -10.7230    4.2600  -78.2690 C   0  0  0  0  0  0  0  0  0  0  0  0
  -10.1720    2.9970  -76.2970 C   0  0  0  0  0  0  0  0  0  0  0  0
   -9.8530    3.4240  -77.5860 C   0  0  0  0  0  0  0  0  0  0  0  0
   -8.6880    3.0000  -78.1560 N   0  0  0  0  0  0  0  0  0  0  0  0
   -7.7000    2.3060  -77.5260 C   0  0  0  0  0  0  0  0  0  0  0  0
   -7.7770    1.5870  -76.5390 O   0  0  0  0  0  0  0  0  0  0  0  0
   -6.3970    2.5590  -78.2520 C   0  0  0  0  0  0  0  0  0  0  0  0
   -6.3810    2.0320  -79.6720 C   0  0  0  0  0  0  0  0  0  0  0  0
   -7.4410    1.3420  -80.2870 C   0  0  0  0  0  0  0  0  0  0  0  0
   -7.8860    0.1120  -79.7740 C   0  0  0  0  0  0  0  0  0  0  0  0
   -8.0720    1.8550  -81.4400 C   0  0  0  0  0  0  0  0  0  0  0  0
   -8.9090   -0.5770  -80.3980 C   0  0  0  0  0  0  0  0  0  0  0  0
   -9.1050    1.1430  -82.0590 C   0  0  0  0  0  0  0  0  0  0  0  0
   -9.5040   -0.0720  -81.5230 C   0  0  0  0  0  0  0  0  0  0  0  0
  1  2  1  0
  2  3  1  0
  4  2  1  0
  4  5  2  0
  4  6  2  0
  4  7  1  0
  7  8  2  0
  7  9  1  0
  8 10  1  0
  9 11  2  0
 10 12  2  0
 11 12  1  0
 12 13  1  0
 13 14  1  0
 14 15  2  0
 14 16  1  0
 16 17  2  3
 17 18  1  0
 18 19  2  0
 18 20  1  0
 19 21  1  0
 20 22  2  0
 21 23  2  0
 22 23  1  0
M  END
>  <ref_url>  (549) 
https://fakepage.com

>  <submitter_name>  (549) 
Steph Wills

>  <submitter_email>  (549) 
stephanie.wills@dtc.ox.ac.uk

>  <submitter_institution>  (549) 
University of Oxford

>  <generation_date>  (549) 
2020-06-04

>  <method>  (549) 
Fragment network

>  <ref_mols>  (549) 
x0183_0B,x0212_0B

>  <ref_pdb>  (549) 
references/x0183-0B-x0212-0B-62229.holo_minimised_nolig.pdb

>  <original SMILES>  (549) 
CN(C)S(=O)(=O)c1ccc(NC(=O)C=Cc2ccccc2)cc1

>  <synthon>  (549) 
[Xe]c1ccccc1

>  <original_name>  (549) 
x0183-0B-x0212-0B-62229

>  <comRMSD_score>  (549) 
0.6435537043404936

>  <IF_score>  (549) 
0.65

>  <SuCOS_score>  (549) 
0.4757916890523894

>  <compound_ID>  (549) 
MOLPORT:044-396-304

$$$$

     RDKit          3D

 27 30  0  0  0  0  0  0  0  0999 V2000
   -8.5450    3.9720  -77.5600 O   0  0  0  0  0  0  0  0  0  0  0  0
   -8.1600    2.8700  -77.2150 C   0  0  0  0  0  0  0  0  0  0  0  0
   -8.8650    2.0850  -76.1250 C   0  0  0  0  0  0  0  0  0  0  0  0
   -7.1010    2.2410  -77.7940 N   0  0  0  0  0  0  0  0  0  0  0  0
  -10.0460    1.5600  -76.6300 O   0  0  0  0  0  0  0  0  0  0  0  0
   -6.8690    2.4610  -79.1950 C   0  0  0  0  0  0  0  0  0  0  0  0
  -10.6810    2.6610  -77.0220 C   0  0  0  0  0  0  0  0  0  0  0  0
   -7.7080    1.5260  -80.0150 C   0  0  0  0  0  0  0  0  0  0  0  0
  -10.3050    3.4300  -78.1080 C   0  0  0  0  0  0  0  0  0  0  0  0
  -11.7660    3.0140  -76.2440 C   0  0  0  0  0  0  0  0  0  0  0  0
   -8.1600    1.9240  -81.2760 C   0  0  0  0  0  0  0  0  0  0  0  0
   -8.0480    0.2530  -79.5370 C   0  0  0  0  0  0  0  0  0  0  0  0
  -11.0110    4.5590  -78.4100 C   0  0  0  0  0  0  0  0  0  0  0  0
  -12.4960    4.1540  -76.5560 C   0  0  0  0  0  0  0  0  0  0  0  0
   -8.9280    1.0650  -82.0410 C   0  0  0  0  0  0  0  0  0  0  0  0
   -8.8220   -0.6050  -80.3090 C   0  0  0  0  0  0  0  0  0  0  0  0
  -12.1030    4.9310  -77.6500 C   0  0  0  0  0  0  0  0  0  0  0  0
  -13.6650    4.5540  -75.8030 C   0  0  0  0  0  0  0  0  0  0  0  0
   -9.2600   -0.2000  -81.5600 C   0  0  0  0  0  0  0  0  0  0  0  0
  -14.8580    4.0710  -76.1060 N   0  0  0  0  0  0  0  0  0  0  0  0
  -13.8390    5.4050  -74.7370 N   0  0  0  0  0  0  0  0  0  0  0  0
  -15.8010    4.5980  -75.2610 N   0  0  0  0  0  0  0  0  0  0  0  0
  -15.1770    5.4000  -74.4390 C   0  0  0  0  0  0  0  0  0  0  0  0
  -12.9760    6.2160  -73.9300 C   0  0  0  0  0  0  0  0  0  0  0  0
  -13.4160    5.7340  -72.5700 C   0  0  0  0  0  0  0  0  0  0  0  0
  -15.7480    6.2140  -73.3220 C   0  0  0  0  0  0  0  0  0  0  0  0
  -14.7140    6.4500  -72.2040 C   0  0  0  0  0  0  0  0  0  0  0  0
  1  2  2  0
  2  3  1  0
  2  4  1  0
  3  5  1  0
  4  6  1  0
  5  7  1  0
  6  8  1  0
  7  9  2  0
  7 10  1  0
  8 11  2  0
  8 12  1  0
  9 13  1  0
 10 14  2  0
 11 15  1  0
 12 16  2  0
 13 17  2  0
 14 17  1  0
 14 18  1  0
 15 19  2  0
 16 19  1  0
 18 20  2  0
 18 21  1  0
 20 22  1  0
 21 23  1  0
 22 23  2  0
 21 24  1  0
 24 25  1  0
 23 26  1  0
 25 27  1  0
 26 27  1  0
M  END
>  <ref_url>  (550) 
https://fakepage.com

>  <submitter_name>  (550) 
Steph Wills

>  <submitter_email>  (550) 
stephanie.wills@dtc.ox.ac.uk

>  <submitter_institution>  (550) 
University of Oxford

>  <generation_date>  (550) 
2020-06-04

>  <method>  (550) 
Fragment network

>  <ref_mols>  (550) 
x0183_0B,x0212_0B

>  <ref_pdb>  (550) 
references/x0183-0B-x0212-0B-64253.holo_minimised_nolig.pdb

>  <original SMILES>  (550) 
O=C(COc1cccc(-c2nnc3n2CCCC3)c1)NCc1ccccc1

>  <synthon>  (550) 
[Xe]c1ccccc1

>  <original_name>  (550) 
x0183-0B-x0212-0B-64253

>  <comRMSD_score>  (550) 
0.7971424427754883

>  <IF_score>  (550) 
0.425

>  <SuCOS_score>  (550) 
0.4985657256549193

>  <compound_ID>  (550) 
MOLPORT:039-021-835

$$$$

     RDKit          3D

 22 23  0  0  0  0  0  0  0  0999 V2000
  -12.8480    6.2320  -73.7540 C   0  0  0  0  0  0  0  0  0  0  0  0
  -13.4970    5.7140  -74.8480 N   0  0  0  0  0  0  0  0  0  0  0  0
  -13.2220    4.3930  -75.4430 C   0  0  0  0  0  0  0  0  0  0  0  0
  -13.9090    3.3700  -75.3650 O   0  0  0  0  0  0  0  0  0  0  0  0
  -12.0650    4.2760  -76.2180 C   0  0  0  0  0  0  0  0  0  0  0  0
  -12.0710    4.7110  -77.5400 C   0  0  0  0  0  0  0  0  0  0  0  0
  -10.8990    3.7260  -75.6660 C   0  0  0  0  0  0  0  0  0  0  0  0
  -10.9170    4.5980  -78.3000 C   0  0  0  0  0  0  0  0  0  0  0  0
   -9.7310    3.6170  -76.4210 C   0  0  0  0  0  0  0  0  0  0  0  0
   -9.7780    4.0660  -77.7400 C   0  0  0  0  0  0  0  0  0  0  0  0
   -8.5710    3.0890  -75.8650 N   0  0  0  0  0  0  0  0  0  0  0  0
   -7.4660    2.8780  -76.7930 C   0  0  0  0  0  0  0  0  0  0  0  0
   -6.3090    3.2310  -76.6080 O   0  0  0  0  0  0  0  0  0  0  0  0
   -7.8380    2.3370  -77.7350 N   0  0  0  0  0  0  0  0  0  0  0  0
   -9.0940    1.7860  -77.8640 C   0  0  0  0  0  0  0  0  0  0  0  0
   -7.0700    2.3500  -78.9580 C   0  0  0  0  0  0  0  0  0  0  0  0
   -7.7510    1.5350  -79.8490 C   0  0  0  0  0  0  0  0  0  0  0  0
   -8.1870    2.0220  -81.2080 C   0  0  0  0  0  0  0  0  0  0  0  0
   -8.0680    0.2120  -79.5000 C   0  0  0  0  0  0  0  0  0  0  0  0
   -8.9320    1.0770  -82.1090 C   0  0  0  0  0  0  0  0  0  0  0  0
   -8.7700   -0.6340  -80.3780 C   0  0  0  0  0  0  0  0  0  0  0  0
   -9.1890   -0.2150  -81.6400 C   0  0  0  0  0  0  0  0  0  0  0  0
  1  2  1  0
  2  3  1  0
  3  4  2  0
  3  5  1  0
  5  6  2  0
  5  7  1  0
  6  8  1  0
  7  9  2  0
  8 10  2  0
  9 10  1  0
  9 11  1  0
 11 12  1  0
 12 13  2  0
 12 14  1  0
 14 15  1  0
 14 16  1  0
 16 17  1  0
 17 18  2  0
 17 19  1  0
 18 20  1  0
 19 21  2  0
 20 22  2  0
 21 22  1  0
M  END
>  <ref_url>  (551) 
https://fakepage.com

>  <submitter_name>  (551) 
Steph Wills

>  <submitter_email>  (551) 
stephanie.wills@dtc.ox.ac.uk

>  <submitter_institution>  (551) 
University of Oxford

>  <generation_date>  (551) 
2020-06-04

>  <method>  (551) 
Fragment network

>  <ref_mols>  (551) 
x0183_0B,x0212_0B

>  <ref_pdb>  (551) 
references/x0183-0B-x0212-0B-64544.holo_minimised_nolig.pdb

>  <original SMILES>  (551) 
CNC(=O)c1cccc(NC(=O)N(C)Cc2ccccc2)c1

>  <synthon>  (551) 
[Xe]c1ccccc1

>  <original_name>  (551) 
x0183-0B-x0212-0B-64544

>  <comRMSD_score>  (551) 
0.5372505450422067

>  <IF_score>  (551) 
0.55

>  <SuCOS_score>  (551) 
0.523326556285996

>  <compound_ID>  (551) 
REAL:Z411846240

$$$$

     RDKit          3D

 25 26  0  0  0  0  0  0  0  0999 V2000
  -12.8280    6.2540  -73.9340 C   0  0  0  0  0  0  0  0  0  0  0  0
  -13.6300    5.7660  -75.0370 O   0  0  0  0  0  0  0  0  0  0  0  0
  -13.4670    4.4660  -75.4500 C   0  0  0  0  0  0  0  0  0  0  0  0
  -14.3660    3.3910  -75.2600 O   0  0  0  0  0  0  0  0  0  0  0  0
  -12.1420    4.3250  -76.1840 C   0  0  0  0  0  0  0  0  0  0  0  0
  -11.9990    4.7940  -77.4990 C   0  0  0  0  0  0  0  0  0  0  0  0
  -11.0470    3.7330  -75.5590 C   0  0  0  0  0  0  0  0  0  0  0  0
  -10.7840    4.6850  -78.1590 C   0  0  0  0  0  0  0  0  0  0  0  0
   -9.8210    3.6140  -76.1870 C   0  0  0  0  0  0  0  0  0  0  0  0
   -9.6370    4.0790  -77.4740 C   0  0  0  0  0  0  0  0  0  0  0  0
   -8.3600    3.9420  -77.9950 N   0  0  0  0  0  0  0  0  0  0  0  0
   -7.2970    3.3740  -77.3500 C   0  0  0  0  0  0  0  0  0  0  0  0
   -6.3780    3.9800  -76.4440 O   0  0  0  0  0  0  0  0  0  0  0  0
   -7.2980    2.0650  -77.7420 N   0  0  0  0  0  0  0  0  0  0  0  0
   -8.6210    1.4470  -77.5980 C   0  0  0  0  0  0  0  0  0  0  0  0
   -6.7880    1.9220  -79.0910 C   0  0  0  0  0  0  0  0  0  0  0  0
   -9.1480    1.5030  -76.3120 C   0  0  0  0  0  0  0  0  0  0  0  0
   -7.7470    1.1530  -79.9510 C   0  0  0  0  0  0  0  0  0  0  0  0
   -9.5050    0.1300  -75.7180 C   0  0  0  0  0  0  0  0  0  0  0  0
   -8.2060    1.7830  -81.2410 C   0  0  0  0  0  0  0  0  0  0  0  0
   -8.2310   -0.1010  -79.6020 C   0  0  0  0  0  0  0  0  0  0  0  0
   -8.3090   -0.7090  -75.6700 N   0  0  0  0  0  0  0  0  0  0  0  0
   -9.0930    1.0920  -82.0310 C   0  0  0  0  0  0  0  0  0  0  0  0
   -9.1290   -0.7580  -80.4290 C   0  0  0  0  0  0  0  0  0  0  0  0
   -9.5490   -0.1680  -81.6170 C   0  0  0  0  0  0  0  0  0  0  0  0
  1  2  1  0
  2  3  1  0
  3  4  2  0
  3  5  1  0
  5  6  2  0
  5  7  1  0
  6  8  1  0
  7  9  2  0
  8 10  2  0
  9 10  1  0
 10 11  1  0
 11 12  1  0
 12 13  2  0
 12 14  1  0
 14 15  1  0
 14 16  1  0
 15 17  1  0
 16 18  1  0
 17 19  1  0
 18 20  2  0
 18 21  1  0
 19 22  1  0
 20 23  1  0
 21 24  2  0
 23 25  2  0
 24 25  1  0
M  END
>  <ref_url>  (552) 
https://fakepage.com

>  <submitter_name>  (552) 
Steph Wills

>  <submitter_email>  (552) 
stephanie.wills@dtc.ox.ac.uk

>  <submitter_institution>  (552) 
University of Oxford

>  <generation_date>  (552) 
2020-06-04

>  <method>  (552) 
Fragment network

>  <ref_mols>  (552) 
x0183_0B,x0212_0B

>  <ref_pdb>  (552) 
references/x0183-0B-x0212-0B-65008.holo_minimised_nolig.pdb

>  <original SMILES>  (552) 
COC(=O)c1ccc(NC(=O)N(CCCN)Cc2ccccc2)cc1

>  <synthon>  (552) 
[Xe]c1ccccc1

>  <original_name>  (552) 
x0183-0B-x0212-0B-65008

>  <comRMSD_score>  (552) 
0.6413611393833509

>  <IF_score>  (552) 
0.55

>  <SuCOS_score>  (552) 
0.5214369482385092

>  <compound_ID>  (552) 
REAL:Z2354475457

$$$$

     RDKit          3D

 24 25  0  0  0  0  0  0  0  0999 V2000
   -6.7220    3.8060  -79.5580 C   0  0  0  0  0  0  0  0  0  0  0  0
   -7.4730    2.7880  -78.6990 C   0  0  0  0  0  0  0  0  0  0  0  0
   -8.3100    1.8510  -79.5390 C   0  0  0  0  0  0  0  0  0  0  0  0
   -7.9940    1.9270  -80.9950 C   0  0  0  0  0  0  0  0  0  0  0  0
   -9.3070    0.9590  -79.0940 C   0  0  0  0  0  0  0  0  0  0  0  0
   -8.6910    1.0680  -81.9240 C   0  0  0  0  0  0  0  0  0  0  0  0
   -9.9490    0.1390  -80.0440 C   0  0  0  0  0  0  0  0  0  0  0  0
   -9.6650    0.9000  -77.7150 N   0  0  0  0  0  0  0  0  0  0  0  0
   -9.6500    0.1850  -81.4150 C   0  0  0  0  0  0  0  0  0  0  0  0
  -10.9780    0.8080  -77.1800 C   0  0  0  0  0  0  0  0  0  0  0  0
  -11.4700   -0.2870  -76.9080 O   0  0  0  0  0  0  0  0  0  0  0  0
  -11.6770    2.0600  -76.9820 N   0  0  0  0  0  0  0  0  0  0  0  0
  -13.1540    2.0990  -76.7020 C   0  0  0  0  0  0  0  0  0  0  0  0
  -13.5740    3.0340  -75.6840 C   0  0  0  0  0  0  0  0  0  0  0  0
  -14.5980    2.8940  -75.0110 O   0  0  0  0  0  0  0  0  0  0  0  0
  -12.7430    4.1400  -75.4700 N   0  0  0  0  0  0  0  0  0  0  0  0
  -13.2720    5.4610  -75.1050 C   0  0  0  0  0  0  0  0  0  0  0  0
  -11.6740    4.0990  -76.1900 C   0  0  0  0  0  0  0  0  0  0  0  0
  -12.8220    6.1230  -73.9270 C   0  0  0  0  0  0  0  0  0  0  0  0
  -11.6360    4.7060  -77.5610 C   0  0  0  0  0  0  0  0  0  0  0  0
  -10.5380    3.4540  -75.7020 C   0  0  0  0  0  0  0  0  0  0  0  0
  -10.4670    4.5930  -78.2960 C   0  0  0  0  0  0  0  0  0  0  0  0
   -9.3990    3.3760  -76.4810 C   0  0  0  0  0  0  0  0  0  0  0  0
   -9.3660    3.9370  -77.7630 C   0  0  0  0  0  0  0  0  0  0  0  0
  1  2  1  0
  2  3  1  0
  3  4  2  0
  3  5  1  0
  4  6  1  0
  5  7  2  0
  5  8  1  0
  6  9  2  0
  7  9  1  0
  8 10  1  0
 10 11  2  0
 10 12  1  0
 12 13  1  0
 13 14  1  0
 14 15  2  0
 14 16  1  0
 16 17  1  0
 16 18  1  0
 17 19  1  0
 18 20  2  0
 18 21  1  0
 20 22  1  0
 21 23  2  0
 22 24  2  0
 23 24  1  0
M  END
>  <ref_url>  (553) 
https://fakepage.com

>  <submitter_name>  (553) 
Steph Wills

>  <submitter_email>  (553) 
stephanie.wills@dtc.ox.ac.uk

>  <submitter_institution>  (553) 
University of Oxford

>  <generation_date>  (553) 
2020-06-04

>  <method>  (553) 
Fragment network

>  <ref_mols>  (553) 
x0183_0B,x0212_0B

>  <ref_pdb>  (553) 
references/x0183-0B-x0212-0B-65779.holo_minimised_nolig.pdb

>  <original SMILES>  (553) 
CCc1ccccc1NC(=O)NCC(=O)N(CC)c1ccccc1

>  <synthon>  (553) 
[Xe]c1ccccc1

>  <original_name>  (553) 
x0183-0B-x0212-0B-65779

>  <comRMSD_score>  (553) 
0.7171472032373203

>  <IF_score>  (553) 
0.45

>  <SuCOS_score>  (553) 
0.4284385862016627

>  <compound_ID>  (553) 
REAL:Z2925335367

$$$$

     RDKit          3D

 26 27  0  0  0  0  0  0  0  0999 V2000
  -12.3950    4.2940  -71.8750 C   0  0  0  0  0  0  0  0  0  0  0  0
  -13.7200    4.5110  -71.9740 N   0  0  0  0  0  0  0  0  0  0  0  0
  -14.6770    3.4550  -71.6530 C   0  0  0  0  0  0  0  0  0  0  0  0
  -14.1190    5.3680  -73.1230 C   0  0  0  0  0  0  0  0  0  0  0  0
  -13.1780    6.1670  -73.7950 C   0  0  0  0  0  0  0  0  0  0  0  0
  -13.1410    5.7830  -75.1870 N   0  0  0  0  0  0  0  0  0  0  0  0
  -13.4160    4.1640  -75.4940 S   0  0  0  0  0  0  0  0  0  0  0  0
  -13.5290    3.4890  -74.2230 O   0  0  0  0  0  0  0  0  0  0  0  0
  -14.4030    3.9890  -76.5240 O   0  0  0  0  0  0  0  0  0  0  0  0
  -11.8740    3.6840  -76.1680 C   0  0  0  0  0  0  0  0  0  0  0  0
  -11.1730    2.6700  -75.5240 C   0  0  0  0  0  0  0  0  0  0  0  0
  -11.3210    4.2840  -77.3330 C   0  0  0  0  0  0  0  0  0  0  0  0
   -9.9610    2.1860  -75.9340 C   0  0  0  0  0  0  0  0  0  0  0  0
  -10.0790    3.8320  -77.8010 C   0  0  0  0  0  0  0  0  0  0  0  0
   -9.3910    2.8220  -77.1610 C   0  0  0  0  0  0  0  0  0  0  0  0
   -9.3980    4.2890  -78.8700 N   0  0  0  0  0  0  0  0  0  0  0  0
   -8.0170    3.9630  -78.6610 C   0  0  0  0  0  0  0  0  0  0  0  0
   -7.4280    3.9360  -77.5830 O   0  0  0  0  0  0  0  0  0  0  0  0
   -7.2240    3.5900  -79.6960 C   0  0  0  0  0  0  0  0  0  0  0  0
   -6.7690    2.1660  -79.5110 C   0  0  0  0  0  0  0  0  0  0  0  0
   -7.7230    1.2450  -80.2140 C   0  0  0  0  0  0  0  0  0  0  0  0
   -8.2540    1.6590  -81.4150 C   0  0  0  0  0  0  0  0  0  0  0  0
   -8.0830    0.0040  -79.6900 C   0  0  0  0  0  0  0  0  0  0  0  0
   -9.1280    0.8780  -82.1200 C   0  0  0  0  0  0  0  0  0  0  0  0
   -8.9750   -0.8040  -80.3970 C   0  0  0  0  0  0  0  0  0  0  0  0
   -9.4940   -0.3650  -81.6120 C   0  0  0  0  0  0  0  0  0  0  0  0
  1  2  1  0
  2  3  1  0
  2  4  1  0
  4  5  1  0
  5  6  1  0
  7  6  1  0
  7  8  2  0
  7  9  2  0
  7 10  1  0
 10 11  2  0
 10 12  1  0
 11 13  1  0
 12 14  2  0
 13 15  2  0
 14 15  1  0
 14 16  1  0
 16 17  1  0
 17 18  2  0
 17 19  1  0
 19 20  1  0
 20 21  1  0
 21 22  2  0
 21 23  1  0
 22 24  1  0
 23 25  2  0
 24 26  2  0
 25 26  1  0
M  END
>  <ref_url>  (554) 
https://fakepage.com

>  <submitter_name>  (554) 
Steph Wills

>  <submitter_email>  (554) 
stephanie.wills@dtc.ox.ac.uk

>  <submitter_institution>  (554) 
University of Oxford

>  <generation_date>  (554) 
2020-06-04

>  <method>  (554) 
Fragment network

>  <ref_mols>  (554) 
x0183_0B,x0212_0B

>  <ref_pdb>  (554) 
references/x0183-0B-x0212-0B-68626.holo_minimised_nolig.pdb

>  <original SMILES>  (554) 
CN(C)CCNS(=O)(=O)c1cccc(NC(=O)CCc2ccccc2)c1

>  <synthon>  (554) 
[Xe]c1ccccc1

>  <original_name>  (554) 
x0183-0B-x0212-0B-68626

>  <comRMSD_score>  (554) 
0.8433093760321319

>  <IF_score>  (554) 
0.55

>  <SuCOS_score>  (554) 
0.4832181676333968

>  <compound_ID>  (554) 
REAL:Z1694225134

$$$$

     RDKit          3D

 21 22  0  0  0  0  0  0  0  0999 V2000
  -13.8370    3.0500  -75.5820 C   0  0  0  0  0  0  0  0  0  0  0  0
  -12.6860    3.8410  -75.0600 C   0  0  0  0  0  0  0  0  0  0  0  0
  -12.7950    5.1330  -74.6770 C   0  0  0  0  0  0  0  0  0  0  0  0
  -11.6720    3.8580  -76.2170 C   0  0  0  0  0  0  0  0  0  0  0  0
  -12.1100    4.5820  -77.3120 C   0  0  0  0  0  0  0  0  0  0  0  0
  -10.3970    3.2670  -76.3470 C   0  0  0  0  0  0  0  0  0  0  0  0
  -11.3330    4.7030  -78.4390 C   0  0  0  0  0  0  0  0  0  0  0  0
   -9.6470    3.4130  -77.4770 C   0  0  0  0  0  0  0  0  0  0  0  0
   -9.6100    2.4480  -75.4520 N   0  0  0  0  0  0  0  0  0  0  0  0
  -10.0800    4.1210  -78.5350 C   0  0  0  0  0  0  0  0  0  0  0  0
   -8.2810    2.4720  -75.9020 C   0  0  0  0  0  0  0  0  0  0  0  0
   -7.4970    3.5490  -75.6590 O   0  0  0  0  0  0  0  0  0  0  0  0
   -7.8030    1.4040  -76.6170 N   0  0  0  0  0  0  0  0  0  0  0  0
   -6.8790    1.3620  -77.6960 C   0  0  0  0  0  0  0  0  0  0  0  0
   -7.0840    2.0440  -78.8980 C   0  0  0  0  0  0  0  0  0  0  0  0
   -7.8590    1.3280  -79.8200 C   0  0  0  0  0  0  0  0  0  0  0  0
   -8.3380    0.0730  -79.4390 C   0  0  0  0  0  0  0  0  0  0  0  0
   -8.1570    1.8370  -81.1020 C   0  0  0  0  0  0  0  0  0  0  0  0
   -9.1010   -0.6720  -80.3150 C   0  0  0  0  0  0  0  0  0  0  0  0
   -8.9270    1.0990  -82.0080 C   0  0  0  0  0  0  0  0  0  0  0  0
   -9.4120   -0.1550  -81.6470 C   0  0  0  0  0  0  0  0  0  0  0  0
  1  2  1  0
  2  3  1  0
  2  4  1  0
  4  5  2  0
  4  6  1  0
  5  7  1  0
  6  8  2  0
  6  9  1  0
  7 10  2  0
  8 10  1  0
  9 11  1  0
 11 12  2  0
 11 13  1  0
 13 14  1  0
 14 15  1  0
 15 16  1  0
 16 17  2  0
 16 18  1  0
 17 19  1  0
 18 20  2  0
 19 21  2  0
 20 21  1  0
M  END
>  <ref_url>  (555) 
https://fakepage.com

>  <submitter_name>  (555) 
Steph Wills

>  <submitter_email>  (555) 
stephanie.wills@dtc.ox.ac.uk

>  <submitter_institution>  (555) 
University of Oxford

>  <generation_date>  (555) 
2020-06-04

>  <method>  (555) 
Fragment network

>  <ref_mols>  (555) 
x0183_0B,x0212_0B

>  <ref_pdb>  (555) 
references/x0183-0B-x0212-0B-69191.holo_minimised_nolig.pdb

>  <original SMILES>  (555) 
CC(C)c1ccccc1NC(=O)NCCc1ccccc1

>  <synthon>  (555) 
[Xe]c1ccccc1

>  <original_name>  (555) 
x0183-0B-x0212-0B-69191

>  <comRMSD_score>  (555) 
0.8508180973525484

>  <IF_score>  (555) 
0.425

>  <SuCOS_score>  (555) 
0.4913696296136395

>  <compound_ID>  (555) 
REAL:Z409874230

$$$$

     RDKit          3D

 24 25  0  0  0  0  0  0  0  0999 V2000
  -14.1940    6.2890  -72.7610 C   0  0  0  0  0  0  0  0  0  0  0  0
  -13.2920    6.6650  -73.9330 C   0  0  0  0  0  0  0  0  0  0  0  0
  -11.8510    6.2620  -73.6100 C   0  0  0  0  0  0  0  0  0  0  0  0
  -13.7210    5.9480  -75.1470 N   0  0  0  0  0  0  0  0  0  0  0  0
  -13.6040    4.2860  -75.3090 S   0  0  0  0  0  0  0  0  0  0  0  0
  -13.4180    3.7280  -73.9980 O   0  0  0  0  0  0  0  0  0  0  0  0
  -14.6510    3.8180  -76.1820 O   0  0  0  0  0  0  0  0  0  0  0  0
  -12.0800    4.1150  -76.1690 C   0  0  0  0  0  0  0  0  0  0  0  0
  -11.0520    3.4210  -75.5430 C   0  0  0  0  0  0  0  0  0  0  0  0
  -11.9360    4.6760  -77.4520 C   0  0  0  0  0  0  0  0  0  0  0  0
   -9.7880    3.2840  -76.2570 C   0  0  0  0  0  0  0  0  0  0  0  0
  -10.7290    4.5350  -78.1270 C   0  0  0  0  0  0  0  0  0  0  0  0
   -9.6860    3.8460  -77.5150 C   0  0  0  0  0  0  0  0  0  0  0  0
   -8.4500    3.6630  -78.1090 N   0  0  0  0  0  0  0  0  0  0  0  0
   -7.7150    2.4980  -77.6840 C   0  0  0  0  0  0  0  0  0  0  0  0
   -8.0790    1.5990  -76.9510 O   0  0  0  0  0  0  0  0  0  0  0  0
   -6.4310    2.3420  -78.1490 C   0  0  0  0  0  0  0  0  0  0  0  0
   -6.3960    2.3690  -79.6600 C   0  0  0  0  0  0  0  0  0  0  0  0
   -7.4500    1.4780  -80.2680 C   0  0  0  0  0  0  0  0  0  0  0  0
   -8.1480    1.9630  -81.5000 C   0  0  0  0  0  0  0  0  0  0  0  0
   -7.7810    0.2220  -79.7200 C   0  0  0  0  0  0  0  0  0  0  0  0
   -9.1600    0.9940  -82.0350 C   0  0  0  0  0  0  0  0  0  0  0  0
   -8.7530   -0.6120  -80.2990 C   0  0  0  0  0  0  0  0  0  0  0  0
   -9.4320   -0.2300  -81.4470 C   0  0  0  0  0  0  0  0  0  0  0  0
  1  2  1  0
  2  3  1  0
  2  4  1  0
  5  4  1  0
  5  6  2  0
  5  7  2  0
  5  8  1  0
  8  9  2  0
  8 10  1  0
  9 11  1  0
 10 12  2  0
 11 13  2  0
 12 13  1  0
 13 14  1  0
 14 15  1  0
 15 16  2  0
 15 17  1  0
 17 18  1  0
 18 19  1  0
 19 20  2  0
 19 21  1  0
 20 22  1  0
 21 23  2  0
 22 24  2  0
 23 24  1  0
M  END
>  <ref_url>  (556) 
https://fakepage.com

>  <submitter_name>  (556) 
Steph Wills

>  <submitter_email>  (556) 
stephanie.wills@dtc.ox.ac.uk

>  <submitter_institution>  (556) 
University of Oxford

>  <generation_date>  (556) 
2020-06-04

>  <method>  (556) 
Fragment network

>  <ref_mols>  (556) 
x0183_0B,x0212_0B

>  <ref_pdb>  (556) 
references/x0183-0B-x0212-0B-69758.holo_minimised_nolig.pdb

>  <original SMILES>  (556) 
CC(C)NS(=O)(=O)c1ccc(NC(=O)CCc2ccccc2)cc1

>  <synthon>  (556) 
[Xe]c1ccccc1

>  <original_name>  (556) 
x0183-0B-x0212-0B-69758

>  <comRMSD_score>  (556) 
0.6391401631474485

>  <IF_score>  (556) 
0.55

>  <SuCOS_score>  (556) 
0.5198625729645959

>  <compound_ID>  (556) 
MOLPORT:000-629-672, REAL:Z28043481

$$$$

     RDKit          3D

 21 22  0  0  0  0  0  0  0  0999 V2000
   -6.9700    2.6800  -78.9700 C   0  0  0  0  0  0  0  0  0  0  0  0
   -8.0190    1.7560  -79.6070 C   0  0  0  0  0  0  0  0  0  0  0  0
   -8.1060    1.8560  -81.0610 C   0  0  0  0  0  0  0  0  0  0  0  0
   -8.8580    0.8780  -78.9320 C   0  0  0  0  0  0  0  0  0  0  0  0
   -9.0030    1.0700  -81.7460 C   0  0  0  0  0  0  0  0  0  0  0  0
   -9.7760    0.0970  -79.6450 C   0  0  0  0  0  0  0  0  0  0  0  0
   -9.8400    0.1840  -81.0510 C   0  0  0  0  0  0  0  0  0  0  0  0
  -10.6350   -0.7700  -78.8690 N   0  0  0  0  0  0  0  0  0  0  0  0
  -12.0160   -0.3910  -78.6710 C   0  0  0  0  0  0  0  0  0  0  0  0
  -13.2010   -1.3040  -79.4300 S   0  0  0  0  0  0  0  0  0  0  0  0
  -12.2610    0.7230  -77.8430 N   0  0  0  0  0  0  0  0  0  0  0  0
  -13.5410    1.3450  -77.8640 C   0  0  0  0  0  0  0  0  0  0  0  0
  -14.4590    1.1000  -78.6350 O   0  0  0  0  0  0  0  0  0  0  0  0
  -13.8950    2.4540  -76.8000 C   0  0  0  0  0  0  0  0  0  0  0  0
  -12.9500    3.5040  -76.2780 C   0  0  0  0  0  0  0  0  0  0  0  0
  -11.6490    3.6050  -76.7140 C   0  0  0  0  0  0  0  0  0  0  0  0
  -11.4240    4.2810  -77.9140 C   0  0  0  0  0  0  0  0  0  0  0  0
  -10.5690    3.0540  -76.0250 C   0  0  0  0  0  0  0  0  0  0  0  0
  -10.1430    4.3950  -78.4290 C   0  0  0  0  0  0  0  0  0  0  0  0
   -9.2980    3.1790  -76.5510 C   0  0  0  0  0  0  0  0  0  0  0  0
   -9.0740    3.8390  -77.7460 C   0  0  0  0  0  0  0  0  0  0  0  0
  1  2  1  0
  2  3  2  0
  2  4  1  0
  3  5  1  0
  4  6  2  0
  5  7  2  0
  6  7  1  0
  6  8  1  0
  8  9  1  0
  9 10  2  0
  9 11  1  0
 11 12  1  0
 12 13  2  0
 12 14  1  0
 14 15  2  3
 15 16  1  0
 16 17  2  0
 16 18  1  0
 17 19  1  0
 18 20  2  0
 19 21  2  0
 20 21  1  0
M  END
>  <ref_url>  (557) 
https://fakepage.com

>  <submitter_name>  (557) 
Steph Wills

>  <submitter_email>  (557) 
stephanie.wills@dtc.ox.ac.uk

>  <submitter_institution>  (557) 
University of Oxford

>  <generation_date>  (557) 
2020-06-04

>  <method>  (557) 
Fragment network

>  <ref_mols>  (557) 
x0183_0B,x0212_0B

>  <ref_pdb>  (557) 
references/x0183-0B-x0212-0B-70810.holo_minimised_nolig.pdb

>  <original SMILES>  (557) 
Cc1cccc(NC(=S)NC(=O)C=Cc2ccccc2)c1

>  <synthon>  (557) 
[Xe]c1ccccc1

>  <original_name>  (557) 
x0183-0B-x0212-0B-70810

>  <comRMSD_score>  (557) 
0.7685650738403836

>  <IF_score>  (557) 
0.45

>  <SuCOS_score>  (557) 
0.3950954281033345

>  <compound_ID>  (557) 
MOLPORT:002-186-480

$$$$

     RDKit          3D

 21 22  0  0  0  0  0  0  0  0999 V2000
  -12.7430    6.3440  -73.5960 C   0  0  0  0  0  0  0  0  0  0  0  0
  -13.4110    5.5720  -74.7370 C   0  0  0  0  0  0  0  0  0  0  0  0
  -12.9670    4.1680  -75.0080 C   0  0  1  0  0  0  0  0  0  0  0  0
  -13.9810    3.2650  -75.3630 C   0  0  0  0  0  0  0  0  0  0  0  0
  -12.0040    4.1760  -76.1610 C   0  0  0  0  0  0  0  0  0  0  0  0
  -12.4300    4.7710  -77.3230 C   0  0  0  0  0  0  0  0  0  0  0  0
  -10.6800    3.6200  -76.1760 C   0  0  0  0  0  0  0  0  0  0  0  0
  -11.6570    4.8380  -78.4400 C   0  0  0  0  0  0  0  0  0  0  0  0
   -9.9320    3.7120  -77.3200 C   0  0  0  0  0  0  0  0  0  0  0  0
  -10.1240    3.0540  -75.2720 O   0  0  0  0  0  0  0  0  0  0  0  0
  -10.3800    4.3080  -78.4620 C   0  0  0  0  0  0  0  0  0  0  0  0
   -9.2640    2.1880  -76.0160 C   0  0  0  0  0  0  0  0  0  0  0  0
   -8.2210    2.9760  -76.5740 C   0  0  0  0  0  0  0  0  0  0  0  0
   -7.3640    2.1390  -77.4300 N   0  0  0  0  0  0  0  0  0  0  0  0
   -7.3130    2.6060  -78.8230 C   0  0  0  0  0  0  0  0  0  0  0  0
   -8.0070    1.5810  -79.7200 C   0  0  0  0  0  0  0  0  0  0  0  0
   -8.2720    1.9690  -81.1310 C   0  0  0  0  0  0  0  0  0  0  0  0
   -8.4090    0.3080  -79.3090 C   0  0  0  0  0  0  0  0  0  0  0  0
   -8.8970    1.0980  -81.9970 C   0  0  0  0  0  0  0  0  0  0  0  0
   -9.0420   -0.5520  -80.2160 C   0  0  0  0  0  0  0  0  0  0  0  0
   -9.2860   -0.1670  -81.5440 C   0  0  0  0  0  0  0  0  0  0  0  0
  1  2  1  0
  2  3  1  0
  3  4  1  6
  3  5  1  0
  5  6  2  0
  5  7  1  0
  6  8  1  0
  7  9  2  0
  7 10  1  0
  8 11  2  0
  9 11  1  0
 10 12  1  0
 12 13  1  0
 13 14  1  0
 14 15  1  0
 15 16  1  0
 16 17  2  0
 16 18  1  0
 17 19  1  0
 18 20  2  0
 19 21  2  0
 20 21  1  0
M  END
>  <ref_url>  (558) 
https://fakepage.com

>  <submitter_name>  (558) 
Steph Wills

>  <submitter_email>  (558) 
stephanie.wills@dtc.ox.ac.uk

>  <submitter_institution>  (558) 
University of Oxford

>  <generation_date>  (558) 
2020-06-04

>  <method>  (558) 
Fragment network

>  <ref_mols>  (558) 
x0183_0B,x0212_0B

>  <ref_pdb>  (558) 
references/x0183-0B-x0212-0B-74847.holo_minimised_nolig.pdb

>  <original SMILES>  (558) 
CCC(C)c1ccccc1OCCNCc1ccccc1

>  <synthon>  (558) 
[Xe]c1ccccc1

>  <original_name>  (558) 
x0183-0B-x0212-0B-74847

>  <comRMSD_score>  (558) 
0.7490112989307481

>  <IF_score>  (558) 
0.425

>  <SuCOS_score>  (558) 
0.6095577305201703

>  <compound_ID>  (558) 
MOLPORT:002-090-110, CHEMSPACE-BB:CSMB00011191318

$$$$

     RDKit          3D

 23 24  0  0  0  0  0  0  0  0999 V2000
   -9.8340   -4.2140  -81.7210 C   0  0  0  0  0  0  0  0  0  0  0  0
   -9.2240   -3.7200  -82.8280 N   0  0  0  0  0  0  0  0  0  0  0  0
   -8.9560   -2.2920  -82.9790 C   0  0  0  0  0  0  0  0  0  0  0  0
   -8.0680   -1.8410  -83.7020 O   0  0  0  0  0  0  0  0  0  0  0  0
   -9.8560   -1.4600  -82.1720 N   0  0  0  0  0  0  0  0  0  0  0  0
  -11.1830   -1.8340  -81.8900 C   0  0  0  0  0  0  0  0  0  0  0  0
   -9.2480   -0.3980  -81.4840 C   0  0  0  0  0  0  0  0  0  0  0  0
   -8.9850    0.8210  -82.1030 C   0  0  0  0  0  0  0  0  0  0  0  0
   -8.8740   -0.5170  -80.1440 C   0  0  0  0  0  0  0  0  0  0  0  0
   -8.3780    1.8970  -81.4630 C   0  0  0  0  0  0  0  0  0  0  0  0
   -8.2640    0.5450  -79.4790 C   0  0  0  0  0  0  0  0  0  0  0  0
   -8.0110    1.7600  -80.1310 C   0  0  0  0  0  0  0  0  0  0  0  0
   -7.4010    2.8480  -79.5110 N   0  0  0  0  0  0  0  0  0  0  0  0
   -7.4230    3.2290  -78.1610 C   0  0  0  0  0  0  0  0  0  0  0  0
   -6.5540    3.9130  -77.6430 O   0  0  0  0  0  0  0  0  0  0  0  0
   -8.5130    2.7420  -77.4350 N   0  0  0  0  0  0  0  0  0  0  0  0
   -8.1950    2.3800  -76.0950 C   0  0  0  0  0  0  0  0  0  0  0  0
   -9.7970    3.2750  -77.2670 C   0  0  0  0  0  0  0  0  0  0  0  0
  -10.4430    2.7270  -76.1730 C   0  0  0  0  0  0  0  0  0  0  0  0
  -10.4370    4.2560  -78.0580 C   0  0  0  0  0  0  0  0  0  0  0  0
  -11.7990    3.1310  -75.7820 C   0  0  0  0  0  0  0  0  0  0  0  0
  -11.7420    4.6970  -77.7440 C   0  0  0  0  0  0  0  0  0  0  0  0
  -12.4260    4.1690  -76.6500 C   0  0  0  0  0  0  0  0  0  0  0  0
  1  2  1  0
  2  3  1  0
  3  4  2  0
  3  5  1  0
  5  6  1  0
  5  7  1  0
  7  8  2  0
  7  9  1  0
  8 10  1  0
  9 11  2  0
 10 12  2  0
 11 12  1  0
 12 13  1  0
 13 14  1  0
 14 15  2  0
 14 16  1  0
 16 17  1  0
 16 18  1  0
 18 19  2  0
 18 20  1  0
 19 21  1  0
 20 22  2  0
 21 23  2  0
 22 23  1  0
M  END
>  <ref_url>  (559) 
https://fakepage.com

>  <submitter_name>  (559) 
Steph Wills

>  <submitter_email>  (559) 
stephanie.wills@dtc.ox.ac.uk

>  <submitter_institution>  (559) 
University of Oxford

>  <generation_date>  (559) 
2020-06-04

>  <method>  (559) 
Fragment network

>  <ref_mols>  (559) 
x0183_0B,x0212_0B

>  <ref_pdb>  (559) 
references/x0183-0B-x0212-0B-78875.holo_minimised_nolig.pdb

>  <original SMILES>  (559) 
CNC(=O)N(C)c1ccc(NC(=O)N(C)c2ccccc2)cc1

>  <synthon>  (559) 
[Xe]c1ccccc1

>  <original_name>  (559) 
x0183-0B-x0212-0B-78875

>  <comRMSD_score>  (559) 
0.8875185578207306

>  <IF_score>  (559) 
0.425

>  <SuCOS_score>  (559) 
0.3481357356329371

>  <compound_ID>  (559) 
REAL:PV-001950829215

$$$$

     RDKit          3D

 22 23  0  0  0  0  0  0  0  0999 V2000
  -13.0240    5.5720  -72.8510 C   0  0  0  0  0  0  0  0  0  0  0  0
  -12.9090    6.4540  -74.0650 C   0  0  0  0  0  0  0  0  0  0  0  0
  -13.6320    5.8320  -75.2550 C   0  0  0  0  0  0  0  0  0  0  0  0
  -13.1950    4.3740  -75.4590 C   0  0  0  0  0  0  0  0  0  0  0  0
  -11.9340    4.1790  -76.2380 C   0  0  0  0  0  0  0  0  0  0  0  0
  -10.8760    3.4700  -75.6670 C   0  0  0  0  0  0  0  0  0  0  0  0
  -11.8090    4.7100  -77.5270 C   0  0  0  0  0  0  0  0  0  0  0  0
   -9.6950    3.2980  -76.3770 C   0  0  0  0  0  0  0  0  0  0  0  0
  -10.6250    4.5330  -78.2320 C   0  0  0  0  0  0  0  0  0  0  0  0
   -9.5660    3.8300  -77.6570 C   0  0  0  0  0  0  0  0  0  0  0  0
   -8.3930    3.6910  -78.4050 N   0  0  0  0  0  0  0  0  0  0  0  0
   -7.5030    2.6960  -78.1270 C   0  0  0  0  0  0  0  0  0  0  0  0
   -7.4000    2.2750  -76.9890 O   0  0  0  0  0  0  0  0  0  0  0  0
   -6.7750    2.1820  -79.2020 C   0  0  2  0  0  0  0  0  0  0  0  0
   -6.0860    3.0390  -80.1030 O   0  0  0  0  0  0  0  0  0  0  0  0
   -7.7040    1.3120  -80.0280 C   0  0  0  0  0  0  0  0  0  0  0  0
   -6.2230    4.4290  -79.8600 C   0  0  0  0  0  0  0  0  0  0  0  0
   -8.1210    1.8380  -81.2590 C   0  0  0  0  0  0  0  0  0  0  0  0
   -8.1150    0.0490  -79.5800 C   0  0  0  0  0  0  0  0  0  0  0  0
   -8.9540    1.0900  -82.0610 C   0  0  0  0  0  0  0  0  0  0  0  0
   -8.9590   -0.7450  -80.3530 C   0  0  0  0  0  0  0  0  0  0  0  0
   -9.3950   -0.2690  -81.5840 C   0  0  0  0  0  0  0  0  0  0  0  0
  1  2  1  0
  2  3  1  0
  3  4  1  0
  4  5  1  0
  5  6  2  0
  5  7  1  0
  6  8  1  0
  7  9  2  0
  8 10  2  0
  9 10  1  0
 10 11  1  0
 11 12  1  0
 12 13  2  0
 12 14  1  0
 14 15  1  6
 14 16  1  0
 15 17  1  0
 16 18  2  0
 16 19  1  0
 18 20  1  0
 19 21  2  0
 20 22  2  0
 21 22  1  0
M  END
>  <ref_url>  (560) 
https://fakepage.com

>  <submitter_name>  (560) 
Steph Wills

>  <submitter_email>  (560) 
stephanie.wills@dtc.ox.ac.uk

>  <submitter_institution>  (560) 
University of Oxford

>  <generation_date>  (560) 
2020-06-04

>  <method>  (560) 
Fragment network

>  <ref_mols>  (560) 
x0183_0B,x0212_0B

>  <ref_pdb>  (560) 
references/x0183-0B-x0212-0B-79081.holo_minimised_nolig.pdb

>  <original SMILES>  (560) 
CCCCc1ccc(NC(=O)C(OC)c2ccccc2)cc1

>  <synthon>  (560) 
[Xe]c1ccccc1

>  <original_name>  (560) 
x0183-0B-x0212-0B-79081

>  <comRMSD_score>  (560) 
0.5283895869106

>  <IF_score>  (560) 
0.55

>  <SuCOS_score>  (560) 
0.5621598479866798

>  <compound_ID>  (560) 
MOLPORT:002-269-860

$$$$

     RDKit          3D

 22 23  0  0  0  0  0  0  0  0999 V2000
  -12.8410    6.3500  -73.7070 C   0  0  0  0  0  0  0  0  0  0  0  0
  -13.3950    5.9690  -74.9770 O   0  0  0  0  0  0  0  0  0  0  0  0
  -13.4040    4.6350  -75.2860 C   0  0  0  0  0  0  0  0  0  0  0  0
  -14.2900    3.8390  -74.9930 O   0  0  0  0  0  0  0  0  0  0  0  0
  -12.1860    4.2290  -76.0770 C   0  0  0  0  0  0  0  0  0  0  0  0
  -11.9730    5.0060  -77.3630 C   0  0  0  0  0  0  0  0  0  0  0  0
  -11.3030    3.2270  -75.7050 C   0  0  0  0  0  0  0  0  0  0  0  0
  -10.7920    4.6250  -78.1770 C   0  0  0  0  0  0  0  0  0  0  0  0
  -10.2250    2.9290  -76.5220 C   0  0  0  0  0  0  0  0  0  0  0  0
   -9.9660    3.6060  -77.7280 C   0  0  0  0  0  0  0  0  0  0  0  0
   -9.2480    1.9070  -76.2650 N   0  0  0  0  0  0  0  0  0  0  0  0
   -8.7020    1.5590  -77.5520 C   0  0  0  0  0  0  0  0  0  0  0  0
   -9.2870    0.6100  -78.4410 O   0  0  0  0  0  0  0  0  0  0  0  0
   -7.5620    2.3280  -77.8370 N   0  0  0  0  0  0  0  0  0  0  0  0
   -7.3600    3.5460  -77.1900 C   0  0  0  0  0  0  0  0  0  0  0  0
   -6.9800    2.2210  -79.1800 C   0  0  0  0  0  0  0  0  0  0  0  0
   -7.7450    1.4240  -80.0300 C   0  0  0  0  0  0  0  0  0  0  0  0
   -8.2510    1.9100  -81.2440 C   0  0  0  0  0  0  0  0  0  0  0  0
   -8.0370    0.0850  -79.6820 C   0  0  0  0  0  0  0  0  0  0  0  0
   -9.0170    1.1220  -82.0850 C   0  0  0  0  0  0  0  0  0  0  0  0
   -8.8120   -0.7160  -80.5210 C   0  0  0  0  0  0  0  0  0  0  0  0
   -9.2710   -0.1700  -81.6850 C   0  0  0  0  0  0  0  0  0  0  0  0
  1  2  1  0
  2  3  1  0
  3  4  2  0
  3  5  1  0
  5  6  2  0
  5  7  1  0
  6  8  1  0
  7  9  2  0
  8 10  2  0
  9 10  1  0
  9 11  1  0
 11 12  1  0
 12 13  2  0
 12 14  1  0
 14 15  1  0
 14 16  1  0
 16 17  1  0
 17 18  2  0
 17 19  1  0
 18 20  1  0
 19 21  2  0
 20 22  2  0
 21 22  1  0
M  END
>  <ref_url>  (561) 
https://fakepage.com

>  <submitter_name>  (561) 
Steph Wills

>  <submitter_email>  (561) 
stephanie.wills@dtc.ox.ac.uk

>  <submitter_institution>  (561) 
University of Oxford

>  <generation_date>  (561) 
2020-06-04

>  <method>  (561) 
Fragment network

>  <ref_mols>  (561) 
x0183_0B,x0212_0B

>  <ref_pdb>  (561) 
references/x0183-0B-x0212-0B-79812.holo_minimised_nolig.pdb

>  <original SMILES>  (561) 
COC(=O)c1cccc(NC(=O)N(C)Cc2ccccc2)c1

>  <synthon>  (561) 
[Xe]c1ccccc1

>  <original_name>  (561) 
x0183-0B-x0212-0B-79812

>  <comRMSD_score>  (561) 
0.5838304548411295

>  <IF_score>  (561) 
0.425

>  <SuCOS_score>  (561) 
0.5264470538859429

>  <compound_ID>  (561) 
REAL:Z271170218

$$$$

     RDKit          3D

 23 24  0  0  0  0  0  0  0  0999 V2000
  -13.1560    6.3380  -73.9290 N   0  0  0  0  0  0  0  0  0  0  0  0
  -13.7050    6.0570  -75.1630 C   0  0  0  0  0  0  0  0  0  0  0  0
  -14.5120    7.0740  -75.6160 N   0  0  0  0  0  0  0  0  0  0  0  0
  -13.3800    4.8530  -75.7480 N   0  0  0  0  0  0  0  0  0  0  0  0
  -14.6830    8.2230  -74.8160 N   0  0  0  0  0  0  0  0  0  0  0  0
  -12.1730    4.3590  -76.2680 C   0  0  0  0  0  0  0  0  0  0  0  0
  -14.0230    9.2270  -75.1230 O   0  0  0  0  0  0  0  0  0  0  0  0
  -15.6870    8.2550  -73.8050 O   0  0  0  0  0  0  0  0  0  0  0  0
  -11.3710    3.6480  -75.5240 C   0  0  0  0  0  0  0  0  0  0  0  0
  -11.7930    4.6070  -77.6100 C   0  0  0  0  0  0  0  0  0  0  0  0
  -10.1460    3.0930  -75.9680 C   0  0  0  0  0  0  0  0  0  0  0  0
  -10.5750    4.0760  -78.1200 C   0  0  0  0  0  0  0  0  0  0  0  0
   -9.7690    3.3090  -77.2630 C   0  0  0  0  0  0  0  0  0  0  0  0
   -8.5740    2.7090  -77.6380 N   0  0  0  0  0  0  0  0  0  0  0  0
   -7.3780    3.2290  -78.0660 C   0  0  0  0  0  0  0  0  0  0  0  0
   -6.6660    3.9980  -77.4340 O   0  0  0  0  0  0  0  0  0  0  0  0
   -7.1020    2.7090  -79.3160 N   0  0  0  0  0  0  0  0  0  0  0  0
   -7.8340    1.7000  -79.9700 C   0  0  0  0  0  0  0  0  0  0  0  0
   -8.1770    0.4810  -79.3930 C   0  0  0  0  0  0  0  0  0  0  0  0
   -8.2400    1.9620  -81.2920 C   0  0  0  0  0  0  0  0  0  0  0  0
   -8.9750   -0.5340  -80.1930 C   0  0  0  0  0  0  0  0  0  0  0  0
   -8.9770    1.0560  -82.0710 C   0  0  0  0  0  0  0  0  0  0  0  0
   -9.3880   -0.2060  -81.6150 C   0  0  0  0  0  0  0  0  0  0  0  0
  1  2  1  0
  2  3  2  3
  2  4  1  0
  3  5  1  0
  4  6  1  0
  5  7  2  0
  5  8  1  0
  6  9  2  0
  6 10  1  0
  9 11  1  0
 10 12  2  0
 11 13  2  0
 12 13  1  0
 13 14  1  0
 14 15  1  0
 15 16  2  0
 15 17  1  0
 17 18  1  0
 18 19  2  0
 18 20  1  0
 19 21  1  0
 20 22  2  0
 21 23  2  0
 22 23  1  0
M  CHG  2   5   1   8  -1
M  END
>  <ref_url>  (562) 
https://fakepage.com

>  <submitter_name>  (562) 
Steph Wills

>  <submitter_email>  (562) 
stephanie.wills@dtc.ox.ac.uk

>  <submitter_institution>  (562) 
University of Oxford

>  <generation_date>  (562) 
2020-06-04

>  <method>  (562) 
Fragment network

>  <ref_mols>  (562) 
x0183_0B,x0212_0B

>  <ref_pdb>  (562) 
references/x0183-0B-x0212-0B-82001.holo_minimised_nolig.pdb

>  <original SMILES>  (562) 
NC(=N[N+](=O)[O-])Nc1ccc(NC(=O)Nc2ccccc2)cc1

>  <synthon>  (562) 
[Xe]c1ccccc1

>  <original_name>  (562) 
x0183-0B-x0212-0B-82001

>  <comRMSD_score>  (562) 
0.8335554524491403

>  <IF_score>  (562) 
0.55

>  <SuCOS_score>  (562) 
0.4193425542804357

>  <compound_ID>  (562) 
MOLPORT:002-164-782

$$$$

     RDKit          3D

 24 25  0  0  0  0  0  0  0  0999 V2000
  -12.6560    7.1810  -76.1220 C   0  0  0  0  0  0  0  0  0  0  0  0
  -13.2290    6.3060  -75.2080 N   0  0  0  0  0  0  0  0  0  0  0  0
  -12.7010    6.4780  -73.8410 C   0  0  0  0  0  0  0  0  0  0  0  0
  -13.7550    4.8030  -75.7660 S   0  0  0  0  0  0  0  0  0  0  0  0
  -14.6640    5.0950  -76.8470 O   0  0  0  0  0  0  0  0  0  0  0  0
  -14.1050    3.9100  -74.6930 O   0  0  0  0  0  0  0  0  0  0  0  0
  -12.2570    4.1750  -76.4590 C   0  0  0  0  0  0  0  0  0  0  0  0
  -11.4720    3.2030  -75.7320 C   0  0  0  0  0  0  0  0  0  0  0  0
  -11.8090    4.5980  -77.7120 C   0  0  0  0  0  0  0  0  0  0  0  0
  -10.3140    2.6820  -76.2450 C   0  0  0  0  0  0  0  0  0  0  0  0
  -10.6280    4.0610  -78.2240 C   0  0  0  0  0  0  0  0  0  0  0  0
   -9.8950    3.1090  -77.4960 C   0  0  0  0  0  0  0  0  0  0  0  0
   -8.9040    2.7060  -78.0270 O   0  0  0  0  0  0  0  0  0  0  0  0
   -7.9140    2.6590  -77.0320 C   0  0  0  0  0  0  0  0  0  0  0  0
   -6.9170    3.4050  -77.5780 C   0  0  0  0  0  0  0  0  0  0  0  0
   -5.7620    2.2210  -78.2960 S   0  0  0  0  0  0  0  0  0  0  0  0
   -4.2360    2.8660  -78.1970 O   0  0  0  0  0  0  0  0  0  0  0  0
   -6.4110    2.5150  -79.9550 C   0  0  0  0  0  0  0  0  0  0  0  0
   -7.4670    1.4700  -80.3150 C   0  0  0  0  0  0  0  0  0  0  0  0
   -8.2540    1.7990  -81.5360 C   0  0  0  0  0  0  0  0  0  0  0  0
   -7.7720    0.2700  -79.6570 C   0  0  0  0  0  0  0  0  0  0  0  0
   -9.2230    0.9840  -82.0200 C   0  0  0  0  0  0  0  0  0  0  0  0
   -8.7900   -0.5620  -80.1790 C   0  0  0  0  0  0  0  0  0  0  0  0
   -9.5000   -0.2090  -81.3460 C   0  0  0  0  0  0  0  0  0  0  0  0
  1  2  1  0
  2  3  1  0
  4  2  1  0
  4  5  2  0
  4  6  2  0
  4  7  1  0
  7  8  2  0
  7  9  1  0
  8 10  1  0
  9 11  2  0
 10 12  2  0
 11 12  1  0
 12 13  1  0
 13 14  1  0
 14 15  1  0
 15 16  1  0
 16 17  1  6
 16 18  1  0
 18 19  1  0
 19 20  2  0
 19 21  1  0
 20 22  1  0
 21 23  2  0
 22 24  2  0
 23 24  1  0
M  CHG  2  16   1  17  -1
M  END
>  <ref_url>  (563) 
https://fakepage.com

>  <submitter_name>  (563) 
Steph Wills

>  <submitter_email>  (563) 
stephanie.wills@dtc.ox.ac.uk

>  <submitter_institution>  (563) 
University of Oxford

>  <generation_date>  (563) 
2020-06-04

>  <method>  (563) 
Fragment network

>  <ref_mols>  (563) 
x0183_0B,x0212_0B

>  <ref_pdb>  (563) 
references/x0183-0B-x0212-0B-85107.holo_minimised_nolig.pdb

>  <original SMILES>  (563) 
CN(C)S(=O)(=O)c1ccc(OCC[S+]([O-])Cc2ccccc2)cc1

>  <synthon>  (563) 
[Xe]c1ccccc1

>  <original_name>  (563) 
x0183-0B-x0212-0B-85107

>  <comRMSD_score>  (563) 
0.8940338256920042

>  <IF_score>  (563) 
0.425

>  <SuCOS_score>  (563) 
0.4556392706219846

>  <compound_ID>  (563) 
MOLPORT:009-259-970

$$$$

     RDKit          3D

 20 22  0  0  0  0  0  0  0  0999 V2000
   -6.9630    3.7510  -77.1670 O   0  0  0  0  0  0  0  0  0  0  0  0
   -7.4670    3.1050  -78.0730 C   0  0  0  0  0  0  0  0  0  0  0  0
   -6.7180    2.5740  -79.2870 C   0  0  0  0  0  0  0  0  0  0  0  0
   -8.7800    2.7400  -78.1300 N   0  0  0  0  0  0  0  0  0  0  0  0
   -7.6450    1.6190  -80.0560 C   0  0  0  0  0  0  0  0  0  0  0  0
   -9.8330    3.3800  -77.5230 C   0  0  0  0  0  0  0  0  0  0  0  0
   -8.0070    0.3720  -79.5050 C   0  0  0  0  0  0  0  0  0  0  0  0
   -8.1510    1.9600  -81.3180 C   0  0  0  0  0  0  0  0  0  0  0  0
  -10.7120    4.4080  -78.2560 C   0  0  0  0  0  0  0  0  0  0  0  0
  -10.0450    3.0230  -76.2280 C   0  0  0  0  0  0  0  0  0  0  0  0
   -8.8470   -0.5070  -80.2020 C   0  0  0  0  0  0  0  0  0  0  0  0
   -8.9800    1.1300  -82.0490 C   0  0  0  0  0  0  0  0  0  0  0  0
  -11.8240    4.9770  -77.4040 C   0  0  0  0  0  0  0  0  0  0  0  0
  -11.0440    3.5390  -75.4840 C   0  0  0  0  0  0  0  0  0  0  0  0
   -9.3490   -0.1060  -81.5290 C   0  0  0  0  0  0  0  0  0  0  0  0
  -11.9160    4.4670  -75.9830 C   0  0  0  0  0  0  0  0  0  0  0  0
  -12.9810    4.9650  -75.0430 C   0  0  0  0  0  0  0  0  0  0  0  0
  -13.6530    6.1610  -75.2290 C   0  0  0  0  0  0  0  0  0  0  0  0
  -12.3260    5.7860  -73.7840 C   0  0  0  0  0  0  0  0  0  0  0  0
  -13.3790    6.6250  -73.9890 C   0  0  0  0  0  0  0  0  0  0  0  0
  1  2  2  0
  2  3  1  0
  2  4  1  0
  3  5  1  0
  4  6  1  0
  5  7  2  0
  5  8  1  0
  6  9  2  0
  6 10  1  0
  7 11  1  0
  8 12  2  0
  9 13  1  0
 10 14  2  0
 11 15  2  0
 12 15  1  0
 13 16  2  0
 14 16  1  0
 16 17  1  0
 17 18  1  0
 17 19  1  0
 18 20  1  0
 19 20  1  0
M  END
>  <ref_url>  (564) 
https://fakepage.com

>  <submitter_name>  (564) 
Steph Wills

>  <submitter_email>  (564) 
stephanie.wills@dtc.ox.ac.uk

>  <submitter_institution>  (564) 
University of Oxford

>  <generation_date>  (564) 
2020-06-04

>  <method>  (564) 
Fragment network

>  <ref_mols>  (564) 
x0183_0B,x0212_0B

>  <ref_pdb>  (564) 
references/x0183-0B-x0212-0B-85296.holo_minimised_nolig.pdb

>  <original SMILES>  (564) 
O=C(Cc1ccccc1)Nc1ccc(C2CCC2)cc1

>  <synthon>  (564) 
[Xe]c1ccccc1

>  <original_name>  (564) 
x0183-0B-x0212-0B-85296

>  <comRMSD_score>  (564) 
0.9475201356210884

>  <IF_score>  (564) 
0.55

>  <SuCOS_score>  (564) 
0.5094415306016966

>  <compound_ID>  (564) 
REAL:Z1901817709

$$$$

     RDKit          3D

 22 23  0  0  0  0  0  0  0  0999 V2000
  -12.7260    6.1600  -73.6340 C   0  0  0  0  0  0  0  0  0  0  0  0
  -13.3470    5.7170  -74.8020 N   0  0  0  0  0  0  0  0  0  0  0  0
  -13.5250    6.6820  -75.8770 C   0  0  0  0  0  0  0  0  0  0  0  0
  -13.1210    4.3090  -75.2770 C   0  0  0  0  0  0  0  0  0  0  0  0
  -12.2200    4.2700  -76.3350 C   0  0  0  0  0  0  0  0  0  0  0  0
  -12.6440    4.8990  -77.4430 C   0  0  0  0  0  0  0  0  0  0  0  0
  -10.9240    3.6680  -76.4270 C   0  0  0  0  0  0  0  0  0  0  0  0
  -11.9220    4.9810  -78.5510 C   0  0  0  0  0  0  0  0  0  0  0  0
  -10.1230    3.7410  -77.5910 C   0  0  0  0  0  0  0  0  0  0  0  0
  -10.2780    2.9530  -75.4550 N   0  0  0  0  0  0  0  0  0  0  0  0
  -10.5360    4.3870  -78.7120 C   0  0  0  0  0  0  0  0  0  0  0  0
   -9.1760    2.0890  -75.8690 C   0  0  0  0  0  0  0  0  0  0  0  0
   -9.1200    0.7390  -75.6330 O   0  0  0  0  0  0  0  0  0  0  0  0
   -8.1440    2.7470  -76.5820 C   0  0  0  0  0  0  0  0  0  0  0  0
   -7.4640    1.9490  -77.6200 N   0  0  0  0  0  0  0  0  0  0  0  0
   -7.4280    2.5520  -78.9600 C   0  0  0  0  0  0  0  0  0  0  0  0
   -8.0400    1.6810  -79.8730 C   0  0  0  0  0  0  0  0  0  0  0  0
   -8.2400    2.0220  -81.1990 C   0  0  0  0  0  0  0  0  0  0  0  0
   -8.4630    0.4180  -79.4130 C   0  0  0  0  0  0  0  0  0  0  0  0
   -8.9000    1.0530  -82.1290 C   0  0  0  0  0  0  0  0  0  0  0  0
   -9.0870   -0.5010  -80.2770 C   0  0  0  0  0  0  0  0  0  0  0  0
   -9.3030   -0.1840  -81.6240 C   0  0  0  0  0  0  0  0  0  0  0  0
  1  2  1  0
  2  3  1  0
  2  4  1  0
  4  5  1  0
  5  6  2  0
  5  7  1  0
  6  8  1  0
  7  9  2  0
  7 10  1  0
  8 11  2  0
  9 11  1  0
 10 12  1  0
 12 13  2  0
 12 14  1  0
 14 15  1  0
 15 16  1  0
 16 17  1  0
 17 18  2  0
 17 19  1  0
 18 20  1  0
 19 21  2  0
 20 22  2  0
 21 22  1  0
M  END
>  <ref_url>  (565) 
https://fakepage.com

>  <submitter_name>  (565) 
Steph Wills

>  <submitter_email>  (565) 
stephanie.wills@dtc.ox.ac.uk

>  <submitter_institution>  (565) 
University of Oxford

>  <generation_date>  (565) 
2020-06-04

>  <method>  (565) 
Fragment network

>  <ref_mols>  (565) 
x0183_0B,x0212_0B

>  <ref_pdb>  (565) 
references/x0183-0B-x0212-0B-86426.holo_minimised_nolig.pdb

>  <original SMILES>  (565) 
CN(C)Cc1ccccc1NC(=O)CNCc1ccccc1

>  <synthon>  (565) 
[Xe]c1ccccc1

>  <original_name>  (565) 
x0183-0B-x0212-0B-86426

>  <comRMSD_score>  (565) 
0.8954964276041821

>  <IF_score>  (565) 
0.55

>  <SuCOS_score>  (565) 
0.5352020084419911

>  <compound_ID>  (565) 
CHEMSPACE-BB:CSMB00022156906

$$$$

     RDKit          3D

 22 23  0  0  0  0  0  0  0  0999 V2000
  -14.1900    3.0070  -75.5250 C   0  0  0  0  0  0  0  0  0  0  0  0
  -12.9520    3.7730  -75.0390 C   0  0  0  0  0  0  0  0  0  0  0  0
  -13.3920    5.2400  -74.7950 C   0  0  0  0  0  0  0  0  0  0  0  0
  -12.3980    3.1780  -73.7430 C   0  0  0  0  0  0  0  0  0  0  0  0
  -11.9060    3.8370  -76.1430 C   0  0  0  0  0  0  0  0  0  0  0  0
  -12.2700    4.7330  -77.2330 C   0  0  0  0  0  0  0  0  0  0  0  0
  -10.6630    3.1450  -76.2450 C   0  0  0  0  0  0  0  0  0  0  0  0
  -11.4610    4.9110  -78.3050 C   0  0  0  0  0  0  0  0  0  0  0  0
   -9.9160    3.4140  -77.3740 C   0  0  0  0  0  0  0  0  0  0  0  0
  -10.1570    2.2340  -75.3290 N   0  0  0  0  0  0  0  0  0  0  0  0
  -10.2560    4.2590  -78.4000 C   0  0  0  0  0  0  0  0  0  0  0  0
   -9.4260    1.1280  -75.7470 C   0  0  0  0  0  0  0  0  0  0  0  0
   -9.2390    0.1110  -75.1040 O   0  0  0  0  0  0  0  0  0  0  0  0
   -8.9230    1.2670  -77.0950 N   0  0  0  0  0  0  0  0  0  0  0  0
   -7.7420    2.0390  -77.3530 C   0  0  0  0  0  0  0  0  0  0  0  0
   -7.5830    2.4740  -78.8080 C   0  0  0  0  0  0  0  0  0  0  0  0
   -8.0880    1.6200  -79.7930 C   0  0  0  0  0  0  0  0  0  0  0  0
   -8.4270    0.3100  -79.4720 C   0  0  0  0  0  0  0  0  0  0  0  0
   -8.2850    2.0170  -81.1250 C   0  0  0  0  0  0  0  0  0  0  0  0
   -8.9430   -0.6160  -80.3570 C   0  0  0  0  0  0  0  0  0  0  0  0
   -8.8080    1.0980  -82.0480 C   0  0  0  0  0  0  0  0  0  0  0  0
   -9.1350   -0.2080  -81.6640 C   0  0  0  0  0  0  0  0  0  0  0  0
  2  1  1  0
  2  3  1  0
  2  4  1  0
  2  5  1  0
  5  6  2  0
  5  7  1  0
  6  8  1  0
  7  9  2  0
  7 10  1  0
  8 11  2  0
  9 11  1  0
 10 12  1  0
 12 13  2  0
 12 14  1  0
 14 15  1  0
 15 16  1  0
 16 17  1  0
 17 18  2  0
 17 19  1  0
 18 20  1  0
 19 21  2  0
 20 22  2  0
 21 22  1  0
M  END
>  <ref_url>  (566) 
https://fakepage.com

>  <submitter_name>  (566) 
Steph Wills

>  <submitter_email>  (566) 
stephanie.wills@dtc.ox.ac.uk

>  <submitter_institution>  (566) 
University of Oxford

>  <generation_date>  (566) 
2020-06-04

>  <method>  (566) 
Fragment network

>  <ref_mols>  (566) 
x0183_0B,x0212_0B

>  <ref_pdb>  (566) 
references/x0183-0B-x0212-0B-87906.holo_minimised_nolig.pdb

>  <original SMILES>  (566) 
CC(C)(C)c1ccccc1NC(=O)NCCc1ccccc1

>  <synthon>  (566) 
[Xe]c1ccccc1

>  <original_name>  (566) 
x0183-0B-x0212-0B-87906

>  <comRMSD_score>  (566) 
0.9562443620748836

>  <IF_score>  (566) 
0.675

>  <SuCOS_score>  (566) 
0.4873501605517003

>  <compound_ID>  (566) 
REAL:Z409990526

$$$$

     RDKit          3D

 22 23  0  0  0  0  0  0  0  0999 V2000
  -12.8070    6.1390  -73.6890 C   0  0  0  0  0  0  0  0  0  0  0  0
  -12.9090    4.7550  -74.0680 O   0  0  0  0  0  0  0  0  0  0  0  0
  -13.3850    4.3630  -75.2900 C   0  0  0  0  0  0  0  0  0  0  0  0
  -14.5620    4.1580  -75.5600 O   0  0  0  0  0  0  0  0  0  0  0  0
  -12.3980    4.1870  -76.1760 C   0  0  0  0  0  0  0  0  0  0  0  0
  -12.3210    4.8340  -77.4930 C   0  0  0  0  0  0  0  0  0  0  0  0
  -11.3640    3.3050  -75.8030 C   0  0  0  0  0  0  0  0  0  0  0  0
  -11.2430    4.5530  -78.3190 C   0  0  0  0  0  0  0  0  0  0  0  0
  -10.3330    3.0940  -76.6980 C   0  0  0  0  0  0  0  0  0  0  0  0
  -10.2640    3.6940  -77.9280 C   0  0  0  0  0  0  0  0  0  0  0  0
   -9.4110    2.3970  -76.4680 O   0  0  0  0  0  0  0  0  0  0  0  0
   -8.5210    3.3870  -76.5500 C   0  0  0  0  0  0  0  0  0  0  0  0
   -7.1610    3.2520  -77.1890 C   0  0  0  0  0  0  0  0  0  0  0  0
   -7.1620    1.9970  -77.9240 N   0  0  0  0  0  0  0  0  0  0  0  0
   -6.5700    0.9120  -77.2930 C   0  0  0  0  0  0  0  0  0  0  0  0
   -6.8810    2.0340  -79.2980 C   0  0  0  0  0  0  0  0  0  0  0  0
   -7.7540    1.3010  -80.0690 C   0  0  0  0  0  0  0  0  0  0  0  0
   -8.1920    0.0600  -79.6080 C   0  0  0  0  0  0  0  0  0  0  0  0
   -8.1940    1.7940  -81.2950 C   0  0  0  0  0  0  0  0  0  0  0  0
   -9.0680   -0.6950  -80.3670 C   0  0  0  0  0  0  0  0  0  0  0  0
   -9.0670    1.0420  -82.0560 C   0  0  0  0  0  0  0  0  0  0  0  0
   -9.4970   -0.2000  -81.5810 C   0  0  0  0  0  0  0  0  0  0  0  0
  1  2  1  0
  2  3  1  0
  3  4  2  0
  3  5  1  0
  5  6  2  0
  5  7  1  0
  6  8  1  0
  7  9  2  0
  8 10  2  0
  9 10  1  0
  9 11  1  0
 11 12  1  0
 12 13  1  0
 13 14  1  0
 14 15  1  0
 14 16  1  0
 16 17  1  0
 17 18  2  0
 17 19  1  0
 18 20  1  0
 19 21  2  0
 20 22  2  0
 21 22  1  0
M  END
>  <ref_url>  (567) 
https://fakepage.com

>  <submitter_name>  (567) 
Steph Wills

>  <submitter_email>  (567) 
stephanie.wills@dtc.ox.ac.uk

>  <submitter_institution>  (567) 
University of Oxford

>  <generation_date>  (567) 
2020-06-04

>  <method>  (567) 
Fragment network

>  <ref_mols>  (567) 
x0183_0B,x0212_0B

>  <ref_pdb>  (567) 
references/x0183-0B-x0212-0B-90164.holo_minimised_nolig.pdb

>  <original SMILES>  (567) 
COC(=O)c1cccc(OCCN(C)Cc2ccccc2)c1

>  <synthon>  (567) 
[Xe]c1ccccc1

>  <original_name>  (567) 
x0183-0B-x0212-0B-90164

>  <comRMSD_score>  (567) 
0.8549604279341425

>  <IF_score>  (567) 
0.425

>  <SuCOS_score>  (567) 
0.5221152220586746

>  <compound_ID>  (567) 
REAL:Z839817402

$$$$

     RDKit          3D

 22 23  0  0  0  0  0  0  0  0999 V2000
  -12.8660    6.2850  -73.7420 C   0  0  0  0  0  0  0  0  0  0  0  0
  -13.3550    5.9310  -75.0470 O   0  0  0  0  0  0  0  0  0  0  0  0
  -13.4720    4.6090  -75.4130 C   0  0  0  0  0  0  0  0  0  0  0  0
  -13.7490    3.6570  -74.6920 O   0  0  0  0  0  0  0  0  0  0  0  0
  -12.1910    4.2670  -76.1890 C   0  0  0  0  0  0  0  0  0  0  0  0
  -13.8150    2.4290  -75.2970 C   0  0  0  0  0  0  0  0  0  0  0  0
  -12.0730    4.7790  -77.4790 C   0  0  0  0  0  0  0  0  0  0  0  0
  -11.1600    3.4700  -75.6530 C   0  0  0  0  0  0  0  0  0  0  0  0
  -10.9540    4.5040  -78.2370 C   0  0  0  0  0  0  0  0  0  0  0  0
  -10.0330    3.1960  -76.4230 C   0  0  0  0  0  0  0  0  0  0  0  0
   -9.9550    3.7190  -77.7070 C   0  0  0  0  0  0  0  0  0  0  0  0
   -8.6290    3.4820  -78.8350 S   0  0  0  0  0  0  0  0  0  0  0  0
   -7.1720    3.4690  -77.8460 C   0  0  0  0  0  0  0  0  0  0  0  0
   -5.8560    3.5100  -78.6360 C   0  0  0  0  0  0  0  0  0  0  0  0
   -5.8190    2.5760  -79.4120 O   0  0  0  0  0  0  0  0  0  0  0  0
   -6.6320    1.5940  -78.9440 C   0  0  0  0  0  0  0  0  0  0  0  0
   -7.6360    1.0590  -79.9560 C   0  0  0  0  0  0  0  0  0  0  0  0
   -8.1930   -0.1740  -79.6530 C   0  0  0  0  0  0  0  0  0  0  0  0
   -8.0320    1.7090  -81.1450 C   0  0  0  0  0  0  0  0  0  0  0  0
   -9.1120   -0.7740  -80.4880 C   0  0  0  0  0  0  0  0  0  0  0  0
   -8.9560    1.1030  -81.9910 C   0  0  0  0  0  0  0  0  0  0  0  0
   -9.4940   -0.1430  -81.6540 C   0  0  0  0  0  0  0  0  0  0  0  0
  1  2  1  0
  2  3  1  0
  3  4  1  0
  3  5  1  0
  4  6  1  0
  5  7  2  0
  5  8  1  0
  7  9  1  0
  8 10  2  0
  9 11  2  0
 10 11  1  0
 11 12  1  0
 12 13  1  0
 13 14  1  0
 14 15  1  0
 15 16  1  0
 16 17  1  0
 17 18  2  0
 17 19  1  0
 18 20  1  0
 19 21  2  0
 20 22  2  0
 21 22  1  0
M  END
>  <ref_url>  (568) 
https://fakepage.com

>  <submitter_name>  (568) 
Steph Wills

>  <submitter_email>  (568) 
stephanie.wills@dtc.ox.ac.uk

>  <submitter_institution>  (568) 
University of Oxford

>  <generation_date>  (568) 
2020-06-04

>  <method>  (568) 
Fragment network

>  <ref_mols>  (568) 
x0183_0B,x0212_0B

>  <ref_pdb>  (568) 
references/x0183-0B-x0212-0B-94048.holo_minimised_nolig.pdb

>  <original SMILES>  (568) 
COC(OC)c1ccc(SCCOCc2ccccc2)cc1

>  <synthon>  (568) 
[Xe]c1ccccc1

>  <original_name>  (568) 
x0183-0B-x0212-0B-94048

>  <comRMSD_score>  (568) 
0.6743030146421971

>  <IF_score>  (568) 
0.55

>  <SuCOS_score>  (568) 
0.4711813967254482

>  <compound_ID>  (568) 
CHEMSPACE-BB:CSMB00014808467

$$$$

     RDKit          3D

 18 19  0  0  0  0  0  0  0  0999 V2000
  -13.4740    5.5810  -74.7710 C   0  0  0  0  0  0  0  0  0  0  0  0
  -13.0290    4.1370  -75.1090 C   0  0  0  0  0  0  0  0  0  0  0  0
  -13.6510    2.9970  -74.5210 O   0  0  0  0  0  0  0  0  0  0  0  0
  -11.9710    4.0030  -76.1350 C   0  0  0  0  0  0  0  0  0  0  0  0
  -12.2510    4.6890  -77.3080 C   0  0  0  0  0  0  0  0  0  0  0  0
  -10.7690    3.2720  -76.0260 C   0  0  0  0  0  0  0  0  0  0  0  0
  -11.3760    4.6610  -78.3580 C   0  0  0  0  0  0  0  0  0  0  0  0
   -9.9050    3.2750  -77.1300 C   0  0  0  0  0  0  0  0  0  0  0  0
  -10.2000    3.9590  -78.2850 C   0  0  0  0  0  0  0  0  0  0  0  0
   -8.6770    2.5970  -77.1790 O   0  0  0  0  0  0  0  0  0  0  0  0
   -7.7780    3.3340  -78.0060 C   0  0  0  0  0  0  0  0  0  0  0  0
   -7.0190    2.3610  -78.9160 C   0  0  0  0  0  0  0  0  0  0  0  0
   -7.8490    1.5010  -79.8400 C   0  0  0  0  0  0  0  0  0  0  0  0
   -8.1990    1.9300  -81.1310 C   0  0  0  0  0  0  0  0  0  0  0  0
   -8.2780    0.2390  -79.4040 C   0  0  0  0  0  0  0  0  0  0  0  0
   -8.9560    1.1040  -81.9560 C   0  0  0  0  0  0  0  0  0  0  0  0
   -9.0370   -0.5800  -80.2350 C   0  0  0  0  0  0  0  0  0  0  0  0
   -9.3730   -0.1470  -81.5060 C   0  0  0  0  0  0  0  0  0  0  0  0
  1  2  1  0
  2  3  2  0
  2  4  1  0
  4  5  2  0
  4  6  1  0
  5  7  1  0
  6  8  2  0
  7  9  2  0
  8  9  1  0
  8 10  1  0
 10 11  1  0
 11 12  1  0
 12 13  1  0
 13 14  2  0
 13 15  1  0
 14 16  1  0
 15 17  2  0
 16 18  2  0
 17 18  1  0
M  END
>  <ref_url>  (569) 
https://fakepage.com

>  <submitter_name>  (569) 
Steph Wills

>  <submitter_email>  (569) 
stephanie.wills@dtc.ox.ac.uk

>  <submitter_institution>  (569) 
University of Oxford

>  <generation_date>  (569) 
2020-06-04

>  <method>  (569) 
Fragment network

>  <ref_mols>  (569) 
x0183_0B,x0212_0B

>  <ref_pdb>  (569) 
references/x0183-0B-x0212-0B-94088.holo_minimised_nolig.pdb

>  <original SMILES>  (569) 
CC(=O)c1cccc(OCCc2ccccc2)c1

>  <synthon>  (569) 
[Xe]c1ccccc1

>  <original_name>  (569) 
x0183-0B-x0212-0B-94088

>  <comRMSD_score>  (569) 
0.680443574687374

>  <IF_score>  (569) 
0.55

>  <SuCOS_score>  (569) 
0.4563332298944464

>  <compound_ID>  (569) 
REAL:Z1478405438

$$$$

     RDKit          3D

 19 20  0  0  0  0  0  0  0  0999 V2000
  -11.1300   -1.1670  -78.6300 C   0  0  0  0  0  0  0  0  0  0  0  0
  -10.0880   -1.4420  -79.6130 N   0  0  0  0  0  0  0  0  0  0  0  0
   -9.4440   -0.2290  -80.1390 C   0  0  0  0  0  0  0  0  0  0  0  0
   -9.7480    0.1640  -81.5100 C   0  0  0  0  0  0  0  0  0  0  0  0
   -8.5720    0.5670  -79.4050 C   0  0  0  0  0  0  0  0  0  0  0  0
   -9.1870    1.2970  -82.0680 C   0  0  0  0  0  0  0  0  0  0  0  0
   -8.0060    1.7250  -79.9830 C   0  0  0  0  0  0  0  0  0  0  0  0
   -8.3270    2.0670  -81.3060 C   0  0  0  0  0  0  0  0  0  0  0  0
   -7.1320    2.5370  -79.2470 N   0  0  0  0  0  0  0  0  0  0  0  0
   -7.3860    3.1540  -78.0370 C   0  0  0  0  0  0  0  0  0  0  0  0
   -6.6550    3.9910  -77.5080 O   0  0  0  0  0  0  0  0  0  0  0  0
   -8.5670    2.7180  -77.4250 N   0  0  0  0  0  0  0  0  0  0  0  0
   -8.3610    2.0100  -76.2040 C   0  0  0  0  0  0  0  0  0  0  0  0
   -9.7870    3.4060  -77.2400 C   0  0  0  0  0  0  0  0  0  0  0  0
  -10.4200    2.7610  -76.1880 C   0  0  0  0  0  0  0  0  0  0  0  0
  -10.3670    4.5050  -77.8900 C   0  0  0  0  0  0  0  0  0  0  0  0
  -11.7770    3.2550  -75.7240 C   0  0  0  0  0  0  0  0  0  0  0  0
  -11.6300    4.9750  -77.4590 C   0  0  0  0  0  0  0  0  0  0  0  0
  -12.2910    4.3340  -76.3970 C   0  0  0  0  0  0  0  0  0  0  0  0
  1  2  1  0
  2  3  1  0
  3  4  2  0
  3  5  1  0
  4  6  1  0
  5  7  2  0
  6  8  2  0
  7  8  1  0
  7  9  1  0
  9 10  1  0
 10 11  2  0
 10 12  1  0
 12 13  1  0
 12 14  1  0
 14 15  2  0
 14 16  1  0
 15 17  1  0
 16 18  2  0
 17 19  2  0
 18 19  1  0
M  END
>  <ref_url>  (570) 
https://fakepage.com

>  <submitter_name>  (570) 
Steph Wills

>  <submitter_email>  (570) 
stephanie.wills@dtc.ox.ac.uk

>  <submitter_institution>  (570) 
University of Oxford

>  <generation_date>  (570) 
2020-06-04

>  <method>  (570) 
Fragment network

>  <ref_mols>  (570) 
x0183_0B,x0212_0B

>  <ref_pdb>  (570) 
references/x0183-0B-x0212-0B-94508.holo_minimised_nolig.pdb

>  <original SMILES>  (570) 
CNc1cccc(NC(=O)N(C)c2ccccc2)c1

>  <synthon>  (570) 
[Xe]c1ccccc1

>  <original_name>  (570) 
x0183-0B-x0212-0B-94508

>  <comRMSD_score>  (570) 
0.8553972900410216

>  <IF_score>  (570) 
0.5833333333333333

>  <SuCOS_score>  (570) 
0.356651231434771

>  <compound_ID>  (570) 
CHEMSPACE-BB:CSMB00133964300

$$$$

     RDKit          3D

 25 26  0  0  0  0  0  0  0  0999 V2000
  -12.7810    6.2390  -73.7910 C   0  0  0  0  0  0  0  0  0  0  0  0
  -13.1690    6.0640  -75.2340 C   0  0  0  0  0  0  0  0  0  0  0  0
  -13.4210    4.8250  -75.8520 C   0  0  2  0  0  0  0  0  0  0  0  0
  -14.1110    3.8160  -75.1790 C   0  0  0  0  0  0  0  0  0  0  0  0
  -12.0650    4.2060  -76.2420 C   0  0  0  0  0  0  0  0  0  0  0  0
  -11.3990    4.5380  -77.4430 C   0  0  0  0  0  0  0  0  0  0  0  0
  -11.5050    3.2770  -75.3570 C   0  0  0  0  0  0  0  0  0  0  0  0
  -10.1710    3.9480  -77.7700 C   0  0  0  0  0  0  0  0  0  0  0  0
  -10.2470    2.6330  -75.6340 C   0  0  0  0  0  0  0  0  0  0  0  0
   -9.5830    2.9360  -76.7850 C   0  0  0  0  0  0  0  0  0  0  0  0
   -8.3960    2.2850  -76.9770 N   0  0  0  0  0  0  0  0  0  0  0  0
   -8.1840    0.9940  -76.3180 C   0  0  0  0  0  0  0  0  0  0  0  0
   -9.3930   -0.2970  -75.8400 S   0  0  0  0  0  0  0  0  0  0  0  0
   -6.7770    0.7200  -76.0050 N   0  0  0  0  0  0  0  0  0  0  0  0
   -5.7450    1.5980  -76.2920 N   0  0  0  0  0  0  0  0  0  0  0  0
   -6.0120    2.6910  -77.1930 C   0  0  0  0  0  0  0  0  0  0  0  0
   -5.3520    3.7100  -77.3700 O   0  0  0  0  0  0  0  0  0  0  0  0
   -7.1550    2.5500  -77.9600 C   0  0  0  0  0  0  0  0  0  0  0  0
   -6.9160    2.5890  -79.4490 C   0  0  0  0  0  0  0  0  0  0  0  0
   -7.7990    1.5980  -80.1850 C   0  0  0  0  0  0  0  0  0  0  0  0
   -8.1490    0.3560  -79.6150 C   0  0  0  0  0  0  0  0  0  0  0  0
   -8.2620    1.9370  -81.4360 C   0  0  0  0  0  0  0  0  0  0  0  0
   -8.9660   -0.5370  -80.3180 C   0  0  0  0  0  0  0  0  0  0  0  0
   -9.0590    1.0400  -82.1000 C   0  0  0  0  0  0  0  0  0  0  0  0
   -9.4260   -0.1880  -81.5790 C   0  0  0  0  0  0  0  0  0  0  0  0
  1  2  1  0
  2  3  1  0
  3  4  1  1
  3  5  1  0
  5  6  2  0
  5  7  1  0
  6  8  1  0
  7  9  2  0
  8 10  2  0
  9 10  1  0
 10 11  1  0
 11 12  1  0
 12 13  2  0
 12 14  1  0
 14 15  1  0
 15 16  1  0
 16 17  2  0
 16 18  1  0
 18 19  1  0
 19 20  1  0
 20 21  2  0
 20 22  1  0
 21 23  1  0
 22 24  2  0
 23 25  2  0
 24 25  1  0
M  END
>  <ref_url>  (571) 
https://fakepage.com

>  <submitter_name>  (571) 
Steph Wills

>  <submitter_email>  (571) 
stephanie.wills@dtc.ox.ac.uk

>  <submitter_institution>  (571) 
University of Oxford

>  <generation_date>  (571) 
2020-06-04

>  <method>  (571) 
Fragment network

>  <ref_mols>  (571) 
x0183_0B,x0212_0B

>  <ref_pdb>  (571) 
references/x0183-0B-x0212-0B-96092.holo_minimised_nolig.pdb

>  <original SMILES>  (571) 
CCC(C)c1ccc(NC(=S)NNC(=O)CCc2ccccc2)cc1

>  <synthon>  (571) 
[Xe]c1ccccc1

>  <original_name>  (571) 
x0183-0B-x0212-0B-96092

>  <comRMSD_score>  (571) 
0.7514747229676183

>  <IF_score>  (571) 
0.65

>  <SuCOS_score>  (571) 
0.5321999216578703

>  <compound_ID>  (571) 
MOLPORT:001-582-729

$$$$

     RDKit          3D

 20 21  0  0  0  0  0  0  0  0999 V2000
  -12.8130    6.2850  -73.6710 C   0  0  0  0  0  0  0  0  0  0  0  0
  -13.4670    5.5780  -74.8160 C   0  0  0  0  0  0  0  0  0  0  0  0
  -13.0610    4.3990  -75.3380 C   0  0  0  0  0  0  0  0  0  0  0  0
  -13.7530    3.4290  -75.0210 O   0  0  0  0  0  0  0  0  0  0  0  0
  -11.9770    4.1040  -76.2780 C   0  0  0  0  0  0  0  0  0  0  0  0
  -12.0040    4.7790  -77.4840 C   0  0  0  0  0  0  0  0  0  0  0  0
  -10.9400    3.1870  -76.0180 C   0  0  0  0  0  0  0  0  0  0  0  0
  -11.0240    4.5520  -78.4200 C   0  0  0  0  0  0  0  0  0  0  0  0
   -9.9570    2.9810  -76.9980 C   0  0  0  0  0  0  0  0  0  0  0  0
  -10.0150    3.6680  -78.1820 C   0  0  0  0  0  0  0  0  0  0  0  0
   -8.8460    2.1420  -76.9750 N   0  0  0  0  0  0  0  0  0  0  0  0
   -7.5840    2.4990  -77.4090 C   0  0  0  0  0  0  0  0  0  0  0  0
   -6.6130    2.7500  -76.7450 O   0  0  0  0  0  0  0  0  0  0  0  0
   -7.2830    2.6920  -78.9190 C   0  0  0  0  0  0  0  0  0  0  0  0
   -7.9940    1.6580  -79.8020 C   0  0  0  0  0  0  0  0  0  0  0  0
   -8.2740    1.9710  -81.1340 C   0  0  0  0  0  0  0  0  0  0  0  0
   -8.3790    0.3900  -79.3220 C   0  0  0  0  0  0  0  0  0  0  0  0
   -8.9150    1.0550  -81.9620 C   0  0  0  0  0  0  0  0  0  0  0  0
   -9.0230   -0.5300  -80.1530 C   0  0  0  0  0  0  0  0  0  0  0  0
   -9.2900   -0.1930  -81.4740 C   0  0  0  0  0  0  0  0  0  0  0  0
  1  2  1  0
  2  3  1  0
  3  4  2  0
  3  5  1  0
  5  6  2  0
  5  7  1  0
  6  8  1  0
  7  9  2  0
  8 10  2  0
  9 10  1  0
  9 11  1  0
 11 12  1  0
 12 13  2  0
 12 14  1  0
 14 15  1  0
 15 16  2  0
 15 17  1  0
 16 18  1  0
 17 19  2  0
 18 20  2  0
 19 20  1  0
M  END
>  <ref_url>  (572) 
https://fakepage.com

>  <submitter_name>  (572) 
Steph Wills

>  <submitter_email>  (572) 
stephanie.wills@dtc.ox.ac.uk

>  <submitter_institution>  (572) 
University of Oxford

>  <generation_date>  (572) 
2020-06-04

>  <method>  (572) 
Fragment network

>  <ref_mols>  (572) 
x0183_0B,x0212_0B

>  <ref_pdb>  (572) 
references/x0183-0B-x0212-0B-97866.holo_minimised_nolig.pdb

>  <original SMILES>  (572) 
CCC(=O)c1cccc(NC(=O)Cc2ccccc2)c1

>  <synthon>  (572) 
[Xe]c1ccccc1

>  <original_name>  (572) 
x0183-0B-x0212-0B-97866

>  <comRMSD_score>  (572) 
0.6549841954553526

>  <IF_score>  (572) 
0.425

>  <SuCOS_score>  (572) 
0.5074953748247462

>  <compound_ID>  (572) 
REAL:Z1465726170

$$$$

     RDKit          3D

 23 24  0  0  0  0  0  0  0  0999 V2000
  -12.7250    6.1080  -73.6910 C   0  0  0  0  0  0  0  0  0  0  0  0
  -13.1890    5.4540  -74.8910 O   0  0  0  0  0  0  0  0  0  0  0  0
  -12.8890    4.1270  -75.1230 C   0  0  0  0  0  0  0  0  0  0  0  0
  -13.4960    3.0090  -74.5140 O   0  0  0  0  0  0  0  0  0  0  0  0
  -11.8420    4.0350  -76.2400 C   0  0  0  0  0  0  0  0  0  0  0  0
  -12.2490    4.7080  -77.3720 C   0  0  0  0  0  0  0  0  0  0  0  0
  -10.5570    3.3830  -76.2980 C   0  0  0  0  0  0  0  0  0  0  0  0
  -11.4740    4.7590  -78.4930 C   0  0  0  0  0  0  0  0  0  0  0  0
   -9.7810    3.4510  -77.4240 C   0  0  0  0  0  0  0  0  0  0  0  0
   -9.8560    2.6110  -75.3520 N   0  0  0  0  0  0  0  0  0  0  0  0
  -10.1640    4.1060  -78.5290 C   0  0  0  0  0  0  0  0  0  0  0  0
   -8.5450    2.4660  -75.9250 C   0  0  0  0  0  0  0  0  0  0  0  0
   -7.4740    3.2650  -75.7670 O   0  0  0  0  0  0  0  0  0  0  0  0
   -8.2340    1.3090  -76.9040 C   0  0  0  0  0  0  0  0  0  0  0  0
   -7.1750    1.5510  -77.5290 O   0  0  0  0  0  0  0  0  0  0  0  0
   -7.2380    2.1790  -78.7460 C   0  0  0  0  0  0  0  0  0  0  0  0
   -6.7240    3.2680  -78.9620 O   0  0  0  0  0  0  0  0  0  0  0  0
   -7.9740    1.4390  -79.8370 C   0  0  0  0  0  0  0  0  0  0  0  0
   -8.4300    0.0540  -79.4360 C   0  0  0  0  0  0  0  0  0  0  0  0
   -8.2530    1.9100  -81.1300 C   0  0  0  0  0  0  0  0  0  0  0  0
   -9.1130   -0.7110  -80.3580 C   0  0  0  0  0  0  0  0  0  0  0  0
   -8.9440    1.0860  -82.0110 C   0  0  0  0  0  0  0  0  0  0  0  0
   -9.3650   -0.1970  -81.6280 C   0  0  0  0  0  0  0  0  0  0  0  0
  1  2  1  0
  2  3  1  0
  3  4  2  0
  3  5  1  0
  5  6  2  0
  5  7  1  0
  6  8  1  0
  7  9  2  0
  7 10  1  0
  8 11  2  0
  9 11  1  0
 10 12  1  0
 12 13  2  0
 12 14  1  0
 14 15  1  0
 15 16  1  0
 16 17  2  0
 16 18  1  0
 18 19  2  0
 18 20  1  0
 19 21  1  0
 20 22  2  0
 21 23  2  0
 22 23  1  0
M  END
>  <ref_url>  (573) 
https://fakepage.com

>  <submitter_name>  (573) 
Steph Wills

>  <submitter_email>  (573) 
stephanie.wills@dtc.ox.ac.uk

>  <submitter_institution>  (573) 
University of Oxford

>  <generation_date>  (573) 
2020-06-04

>  <method>  (573) 
Fragment network

>  <ref_mols>  (573) 
x0183_0B,x0212_0B

>  <ref_pdb>  (573) 
references/x0183-0B-x0212-0B-100923.holo_minimised_nolig.pdb

>  <original SMILES>  (573) 
COC(=O)c1ccccc1NC(=O)COC(=O)c1ccccc1

>  <synthon>  (573) 
[Xe]c1ccccc1

>  <original_name>  (573) 
x0183-0B-x0212-0B-100923

>  <comRMSD_score>  (573) 
0.84679054211902

>  <IF_score>  (573) 
0.425

>  <SuCOS_score>  (573) 
0.4786889333405576

>  <compound_ID>  (573) 
MOLPORT:003-301-738

$$$$

     RDKit          3D

 27 28  0  0  0  0  0  0  0  0999 V2000
  -13.3170    8.0800  -73.8910 C   0  0  0  0  0  0  0  0  0  0  0  0
  -13.1420    6.5500  -73.8500 C   0  0  0  0  0  0  0  0  0  0  0  0
  -11.7290    6.2400  -73.6160 C   0  0  0  0  0  0  0  0  0  0  0  0
  -13.9440    5.9820  -72.6730 C   0  0  0  0  0  0  0  0  0  0  0  0
  -13.5940    5.8950  -75.0670 N   0  0  0  0  0  0  0  0  0  0  0  0
  -13.6720    4.2320  -75.2930 S   0  0  0  0  0  0  0  0  0  0  0  0
  -14.6690    3.9180  -76.2820 O   0  0  0  0  0  0  0  0  0  0  0  0
  -13.7260    3.6760  -73.9590 O   0  0  0  0  0  0  0  0  0  0  0  0
  -12.1270    3.7830  -76.0040 C   0  0  0  0  0  0  0  0  0  0  0  0
  -11.3810    2.8150  -75.3490 C   0  0  0  0  0  0  0  0  0  0  0  0
  -11.6270    4.3630  -77.2090 C   0  0  0  0  0  0  0  0  0  0  0  0
  -10.0430    2.2980  -75.8200 C   0  0  0  0  0  0  0  0  0  0  0  0
  -10.3850    3.9330  -77.7130 C   0  0  0  0  0  0  0  0  0  0  0  0
   -9.5950    2.9540  -77.0960 C   0  0  0  0  0  0  0  0  0  0  0  0
   -9.7690    4.4040  -78.8560 N   0  0  0  0  0  0  0  0  0  0  0  0
   -8.3610    4.0670  -78.9410 C   0  0  0  0  0  0  0  0  0  0  0  0
   -7.6600    3.6360  -77.7820 O   0  0  0  0  0  0  0  0  0  0  0  0
   -7.5560    4.1350  -80.0660 C   0  0  0  0  0  0  0  0  0  0  0  0
   -6.4580    3.3100  -79.9240 C   0  0  0  0  0  0  0  0  0  0  0  0
   -6.8310    2.1090  -79.3510 C   0  0  0  0  0  0  0  0  0  0  0  0
   -6.4290    1.7660  -78.2430 O   0  0  0  0  0  0  0  0  0  0  0  0
   -7.6850    1.3110  -80.0820 C   0  0  0  0  0  0  0  0  0  0  0  0
   -8.1090   -0.0320  -79.5620 C   0  0  0  0  0  0  0  0  0  0  0  0
   -8.1730    1.7250  -81.3230 C   0  0  0  0  0  0  0  0  0  0  0  0
   -8.9650   -0.8130  -80.3350 C   0  0  0  0  0  0  0  0  0  0  0  0
   -9.0180    0.9100  -82.0490 C   0  0  0  0  0  0  0  0  0  0  0  0
   -9.4120   -0.3480  -81.5660 C   0  0  0  0  0  0  0  0  0  0  0  0
  1  2  1  0
  2  3  1  0
  2  4  1  0
  2  5  1  0
  6  5  1  0
  6  7  2  0
  6  8  2  0
  6  9  1  0
  9 10  2  0
  9 11  1  0
 10 12  1  0
 11 13  2  0
 12 14  2  0
 13 14  1  0
 13 15  1  0
 15 16  1  0
 16 17  2  0
 16 18  1  0
 18 19  1  0
 19 20  1  0
 20 21  2  0
 20 22  1  0
 22 23  2  0
 22 24  1  0
 23 25  1  0
 24 26  2  0
 25 27  2  0
 26 27  1  0
M  END
>  <ref_url>  (574) 
https://fakepage.com

>  <submitter_name>  (574) 
Steph Wills

>  <submitter_email>  (574) 
stephanie.wills@dtc.ox.ac.uk

>  <submitter_institution>  (574) 
University of Oxford

>  <generation_date>  (574) 
2020-06-04

>  <method>  (574) 
Fragment network

>  <ref_mols>  (574) 
x0183_0B,x0212_0B

>  <ref_pdb>  (574) 
references/x0183-0B-x0212-0B-101577.holo_minimised_nolig.pdb

>  <original SMILES>  (574) 
CC(C)(C)NS(=O)(=O)c1cccc(NC(=O)CCC(=O)c2ccccc2)c1

>  <synthon>  (574) 
[Xe]c1ccccc1

>  <original_name>  (574) 
x0183-0B-x0212-0B-101577

>  <comRMSD_score>  (574) 
0.7818474323085072

>  <IF_score>  (574) 
0.55

>  <SuCOS_score>  (574) 
0.5190053684026222

>  <compound_ID>  (574) 
MOLPORT:005-692-199

$$$$

     RDKit          3D

 25 26  0  0  0  0  0  0  0  0999 V2000
   -6.6980    2.5330  -79.2620 C   0  0  0  0  0  0  0  0  0  0  0  0
   -7.7660    1.6440  -79.9120 C   0  0  0  0  0  0  0  0  0  0  0  0
   -8.1630    0.5200  -79.0580 C   0  0  0  0  0  0  0  0  0  0  0  0
   -8.3610    1.7940  -81.1540 C   0  0  0  0  0  0  0  0  0  0  0  0
   -9.1300   -0.3810  -79.4570 C   0  0  0  0  0  0  0  0  0  0  0  0
   -9.3380    0.8530  -81.5160 C   0  0  0  0  0  0  0  0  0  0  0  0
   -9.7350   -0.2150  -80.6880 C   0  0  0  0  0  0  0  0  0  0  0  0
  -10.7690   -1.0710  -81.1690 O   0  0  0  0  0  0  0  0  0  0  0  0
  -11.8090   -1.3810  -80.2100 C   0  0  0  0  0  0  0  0  0  0  0  0
  -11.7190   -0.3680  -79.0170 C   0  0  0  0  0  0  0  0  0  0  0  0
  -13.1320   -0.1170  -78.3990 C   0  0  0  0  0  0  0  0  0  0  0  0
  -13.6960   -1.2520  -77.7280 O   0  0  0  0  0  0  0  0  0  0  0  0
  -13.5980    1.0250  -78.5610 O   0  0  0  0  0  0  0  0  0  0  0  0
  -13.7580    1.8800  -77.4010 C   0  0  0  0  0  0  0  0  0  0  0  0
  -14.2700    3.3080  -77.6110 C   0  0  0  0  0  0  0  0  0  0  0  0
  -14.3590    3.6440  -78.7860 O   0  0  0  0  0  0  0  0  0  0  0  0
  -14.6180    4.1520  -76.5160 N   0  0  0  0  0  0  0  0  0  0  0  0
  -13.7420    4.9150  -75.6870 C   0  0  0  0  0  0  0  0  0  0  0  0
  -12.7120    4.1180  -75.2360 C   0  0  0  0  0  0  0  0  0  0  0  0
  -11.6320    4.0000  -76.1100 C   0  0  0  0  0  0  0  0  0  0  0  0
  -11.5830    4.6070  -77.3540 C   0  0  0  0  0  0  0  0  0  0  0  0
  -10.5270    3.2280  -75.7220 C   0  0  0  0  0  0  0  0  0  0  0  0
  -10.4030    4.4520  -78.2590 C   0  0  0  0  0  0  0  0  0  0  0  0
   -9.4010    3.0650  -76.5480 C   0  0  0  0  0  0  0  0  0  0  0  0
   -9.3360    3.6750  -77.8150 C   0  0  0  0  0  0  0  0  0  0  0  0
  1  2  1  0
  2  3  2  0
  2  4  1  0
  3  5  1  0
  4  6  2  0
  5  7  2  0
  6  7  1  0
  7  8  1  0
  8  9  1  0
  9 10  1  0
 10 11  1  0
 11 12  2  0
 11 13  1  0
 13 14  1  0
 14 15  1  0
 15 16  2  0
 15 17  1  0
 17 18  1  0
 18 19  1  0
 19 20  1  0
 20 21  2  0
 20 22  1  0
 21 23  1  0
 22 24  2  0
 23 25  2  0
 24 25  1  0
M  END
>  <ref_url>  (575) 
https://fakepage.com

>  <submitter_name>  (575) 
Steph Wills

>  <submitter_email>  (575) 
stephanie.wills@dtc.ox.ac.uk

>  <submitter_institution>  (575) 
University of Oxford

>  <generation_date>  (575) 
2020-06-04

>  <method>  (575) 
Fragment network

>  <ref_mols>  (575) 
x0183_0B,x0212_0B

>  <ref_pdb>  (575) 
references/x0183-0B-x0212-0B-101822.holo_minimised_nolig.pdb

>  <original SMILES>  (575) 
Cc1ccc(OCCC(=O)OCC(=O)NCCc2ccccc2)cc1

>  <synthon>  (575) 
[Xe]c1ccccc1

>  <original_name>  (575) 
x0183-0B-x0212-0B-101822

>  <comRMSD_score>  (575) 
0.773046489546392

>  <IF_score>  (575) 
0.5

>  <SuCOS_score>  (575) 
0.4748442148316087

>  <compound_ID>  (575) 
MOLPORT:004-022-389

$$$$

     RDKit          3D

 24 25  0  0  0  0  0  0  0  0999 V2000
  -11.4400    2.7880  -78.3620 C   0  0  0  0  0  0  0  0  0  0  0  0
  -11.8820    1.6860  -77.5360 N   0  0  0  0  0  0  0  0  0  0  0  0
  -13.0730    2.0030  -76.7030 C   0  0  0  0  0  0  0  0  0  0  0  0
  -10.7610    1.1970  -76.9230 C   0  0  0  0  0  0  0  0  0  0  0  0
  -13.9960    3.0400  -77.3090 C   0  0  0  0  0  0  0  0  0  0  0  0
  -10.2650   -0.0410  -77.3340 C   0  0  0  0  0  0  0  0  0  0  0  0
  -14.4190    4.0500  -76.4500 N   0  0  0  0  0  0  0  0  0  0  0  0
   -9.1280   -0.0380  -77.8250 O   0  0  0  0  0  0  0  0  0  0  0  0
  -13.6200    4.8840  -75.6400 C   0  0  0  0  0  0  0  0  0  0  0  0
   -8.9660    0.3950  -79.1120 C   0  0  0  0  0  0  0  0  0  0  0  0
  -13.9420    6.0480  -75.3900 O   0  0  0  0  0  0  0  0  0  0  0  0
  -12.4610    4.3260  -75.1420 C   0  0  0  0  0  0  0  0  0  0  0  0
   -9.6550   -0.3550  -80.0610 C   0  0  0  0  0  0  0  0  0  0  0  0
   -8.1940    1.4940  -79.5420 C   0  0  0  0  0  0  0  0  0  0  0  0
  -11.4130    4.1700  -76.0480 C   0  0  0  0  0  0  0  0  0  0  0  0
   -9.5880   -0.0300  -81.4010 C   0  0  0  0  0  0  0  0  0  0  0  0
   -8.1390    1.8100  -80.8970 C   0  0  0  0  0  0  0  0  0  0  0  0
  -11.4720    4.7980  -77.3110 C   0  0  0  0  0  0  0  0  0  0  0  0
  -10.3130    3.3840  -75.6790 C   0  0  0  0  0  0  0  0  0  0  0  0
   -8.8290    1.0550  -81.8220 C   0  0  0  0  0  0  0  0  0  0  0  0
   -7.4160    2.8480  -81.3040 F   0  0  0  0  0  0  0  0  0  0  0  0
  -10.3100    4.6240  -78.3080 C   0  0  0  0  0  0  0  0  0  0  0  0
   -9.2300    3.1940  -76.5280 C   0  0  0  0  0  0  0  0  0  0  0  0
   -9.1800    3.7620  -77.7880 C   0  0  0  0  0  0  0  0  0  0  0  0
  1  2  1  0
  2  3  1  0
  2  4  1  0
  3  5  1  0
  4  6  1  0
  5  7  1  0
  6  8  1  0
  7  9  1  0
  8 10  1  0
  9 11  2  0
  9 12  1  0
 10 13  2  0
 10 14  1  0
 12 15  1  0
 13 16  1  0
 14 17  2  0
 15 18  2  0
 15 19  1  0
 16 20  2  0
 17 20  1  0
 17 21  1  0
 18 22  1  0
 19 23  2  0
 22 24  2  0
 23 24  1  0
M  END
>  <ref_url>  (576) 
https://fakepage.com

>  <submitter_name>  (576) 
Steph Wills

>  <submitter_email>  (576) 
stephanie.wills@dtc.ox.ac.uk

>  <submitter_institution>  (576) 
University of Oxford

>  <generation_date>  (576) 
2020-06-04

>  <method>  (576) 
Fragment network

>  <ref_mols>  (576) 
x0183_0B,x0212_0B

>  <ref_pdb>  (576) 
references/x0183-0B-x0212-0B-102603.holo_minimised_nolig.pdb

>  <original SMILES>  (576) 
CN(CCNC(=O)Cc1ccccc1)CCOc1cccc(F)c1

>  <synthon>  (576) 
[Xe]c1ccccc1

>  <original_name>  (576) 
x0183-0B-x0212-0B-102603

>  <comRMSD_score>  (576) 
0.9066775428269236

>  <IF_score>  (576) 
0.45

>  <SuCOS_score>  (576) 
0.4475415364426477

>  <compound_ID>  (576) 
REAL:PV-000796510883

$$$$

     RDKit          3D

 22 23  0  0  0  0  0  0  0  0999 V2000
  -12.8590    6.3610  -73.6760 C   0  0  0  0  0  0  0  0  0  0  0  0
  -13.4750    5.7390  -74.7220 N   0  0  0  0  0  0  0  0  0  0  0  0
  -13.2810    4.3180  -75.0090 C   0  0  0  0  0  0  0  0  0  0  0  0
  -12.3630    4.1510  -76.0240 C   0  0  0  0  0  0  0  0  0  0  0  0
  -12.0250    5.1920  -76.8590 C   0  0  0  0  0  0  0  0  0  0  0  0
  -11.7440    2.9330  -76.2610 C   0  0  0  0  0  0  0  0  0  0  0  0
  -11.1250    5.0550  -77.8720 C   0  0  0  0  0  0  0  0  0  0  0  0
  -10.8290    2.8060  -77.3090 C   0  0  0  0  0  0  0  0  0  0  0  0
  -10.4980    3.8770  -78.1330 C   0  0  0  0  0  0  0  0  0  0  0  0
  -10.3010    1.6080  -77.4790 O   0  0  0  0  0  0  0  0  0  0  0  0
   -9.0730    1.7690  -78.0970 C   0  0  0  0  0  0  0  0  0  0  0  0
   -8.2860    2.5820  -77.3100 C   0  0  0  0  0  0  0  0  0  0  0  0
   -8.6710    3.1540  -76.2940 O   0  0  0  0  0  0  0  0  0  0  0  0
   -6.9420    2.6590  -77.8030 N   0  0  0  0  0  0  0  0  0  0  0  0
   -5.9490    2.0680  -76.8750 C   0  0  0  0  0  0  0  0  0  0  0  0
   -6.6880    2.6780  -79.2380 C   0  0  0  0  0  0  0  0  0  0  0  0
   -7.5510    1.6550  -80.0040 C   0  0  0  0  0  0  0  0  0  0  0  0
   -8.1860    2.0240  -81.3260 C   0  0  0  0  0  0  0  0  0  0  0  0
   -7.8070    0.3520  -79.5520 C   0  0  0  0  0  0  0  0  0  0  0  0
   -8.9620    1.1090  -82.0210 C   0  0  0  0  0  0  0  0  0  0  0  0
   -8.5990   -0.5500  -80.2750 C   0  0  0  0  0  0  0  0  0  0  0  0
   -9.1690   -0.1730  -81.4980 C   0  0  0  0  0  0  0  0  0  0  0  0
  1  2  1  0
  2  3  1  0
  3  4  1  0
  4  5  2  0
  4  6  1  0
  5  7  1  0
  6  8  2  0
  7  9  2  0
  8  9  1  0
  8 10  1  0
 10 11  1  0
 11 12  1  0
 12 13  2  0
 12 14  1  0
 14 15  1  0
 14 16  1  0
 16 17  1  0
 17 18  2  0
 17 19  1  0
 18 20  1  0
 19 21  2  0
 20 22  2  0
 21 22  1  0
M  END
>  <ref_url>  (577) 
https://fakepage.com

>  <submitter_name>  (577) 
Steph Wills

>  <submitter_email>  (577) 
stephanie.wills@dtc.ox.ac.uk

>  <submitter_institution>  (577) 
University of Oxford

>  <generation_date>  (577) 
2020-06-04

>  <method>  (577) 
Fragment network

>  <ref_mols>  (577) 
x0183_0B,x0212_0B

>  <ref_pdb>  (577) 
references/x0183-0B-x0212-0B-103213.holo_minimised_nolig.pdb

>  <original SMILES>  (577) 
CNCc1cccc(OCC(=O)N(C)Cc2ccccc2)c1

>  <synthon>  (577) 
[Xe]c1ccccc1

>  <original_name>  (577) 
x0183-0B-x0212-0B-103213

>  <comRMSD_score>  (577) 
0.8267785542560823

>  <IF_score>  (577) 
0.425

>  <SuCOS_score>  (577) 
0.4732169887946661

>  <compound_ID>  (577) 
CHEMSPACE-BB:CSMB00014057896

$$$$

     RDKit          3D

 20 21  0  0  0  0  0  0  0  0999 V2000
  -12.8250    6.2140  -73.6330 C   0  0  0  0  0  0  0  0  0  0  0  0
  -13.0660    4.8660  -74.0410 O   0  0  0  0  0  0  0  0  0  0  0  0
  -13.4270    4.6770  -75.4170 C   0  0  0  0  0  0  0  0  0  0  0  0
  -12.2210    4.4460  -76.2940 C   0  0  0  0  0  0  0  0  0  0  0  0
  -12.0470    4.9310  -77.7260 C   0  0  0  0  0  0  0  0  0  0  0  0
  -11.0290    3.6350  -75.7060 C   0  0  0  0  0  0  0  0  0  0  0  0
  -10.7570    4.5810  -78.4150 C   0  0  0  0  0  0  0  0  0  0  0  0
   -9.8850    3.3920  -76.4770 C   0  0  0  0  0  0  0  0  0  0  0  0
   -9.7580    3.8510  -77.7900 C   0  0  0  0  0  0  0  0  0  0  0  0
   -8.7160    2.6710  -76.0800 N   0  0  0  0  0  0  0  0  0  0  0  0
   -8.1060    1.8510  -76.9730 C   0  0  0  0  0  0  0  0  0  0  0  0
   -8.3650    0.6550  -77.0580 O   0  0  0  0  0  0  0  0  0  0  0  0
   -7.1660    2.5460  -77.7580 N   0  0  0  0  0  0  0  0  0  0  0  0
   -7.0960    2.6410  -79.1190 C   0  0  0  0  0  0  0  0  0  0  0  0
   -7.8430    1.5890  -79.9510 C   0  0  0  0  0  0  0  0  0  0  0  0
   -8.2210    2.0030  -81.2130 C   0  0  0  0  0  0  0  0  0  0  0  0
   -8.1470    0.2770  -79.5100 C   0  0  0  0  0  0  0  0  0  0  0  0
   -8.9450    1.0570  -82.0860 C   0  0  0  0  0  0  0  0  0  0  0  0
   -8.8450   -0.6240  -80.3520 C   0  0  0  0  0  0  0  0  0  0  0  0
   -9.2310   -0.2170  -81.6250 C   0  0  0  0  0  0  0  0  0  0  0  0
  1  2  1  0
  2  3  1  0
  3  4  1  0
  4  5  2  0
  4  6  1  0
  5  7  1  0
  6  8  2  0
  7  9  2  0
  8  9  1  0
  8 10  1  0
 10 11  1  0
 11 12  2  0
 11 13  1  0
 13 14  1  0
 14 15  1  0
 15 16  2  0
 15 17  1  0
 16 18  1  0
 17 19  2  0
 18 20  2  0
 19 20  1  0
M  END
>  <ref_url>  (578) 
https://fakepage.com

>  <submitter_name>  (578) 
Steph Wills

>  <submitter_email>  (578) 
stephanie.wills@dtc.ox.ac.uk

>  <submitter_institution>  (578) 
University of Oxford

>  <generation_date>  (578) 
2020-06-04

>  <method>  (578) 
Fragment network

>  <ref_mols>  (578) 
x0183_0B,x0212_0B

>  <ref_pdb>  (578) 
references/x0183-0B-x0212-0B-104741.holo_minimised_nolig.pdb

>  <original SMILES>  (578) 
COCc1cccc(NC(=O)NCc2ccccc2)c1

>  <synthon>  (578) 
[Xe]c1ccccc1

>  <original_name>  (578) 
x0183-0B-x0212-0B-104741

>  <comRMSD_score>  (578) 
0.6313726668493368

>  <IF_score>  (578) 
0.55

>  <SuCOS_score>  (578) 
0.5097197277117986

>  <compound_ID>  (578) 
CHEMSPACE-BB:CSMB00011237497, REAL:Z339889688

$$$$

     RDKit          3D

 32 33  0  0  0  0  0  0  0  0999 V2000
  -11.6720    6.3850  -73.6220 N   0  0  0  0  0  0  0  0  0  0  0  0
  -12.7630    6.5430  -74.0340 C   0  0  0  0  0  0  0  0  0  0  0  0
  -13.4780    7.6510  -73.5950 N   0  0  0  0  0  0  0  0  0  0  0  0
  -13.4540    5.7410  -74.9380 N   0  0  0  0  0  0  0  0  0  0  0  0
  -13.3700    4.0880  -75.1620 S   0  0  0  0  0  0  0  0  0  0  0  0
  -14.5970    3.6300  -76.1740 O   0  0  0  0  0  0  0  0  0  0  0  0
  -13.1890    3.4590  -73.8770 O   0  0  0  0  0  0  0  0  0  0  0  0
  -11.8460    3.9450  -76.0390 C   0  0  0  0  0  0  0  0  0  0  0  0
  -11.5970    4.5680  -77.3680 C   0  0  0  0  0  0  0  0  0  0  0  0
  -10.8210    3.2240  -75.4590 C   0  0  0  0  0  0  0  0  0  0  0  0
  -10.3710    4.4520  -78.0140 C   0  0  0  0  0  0  0  0  0  0  0  0
   -9.6080    3.1280  -76.1230 C   0  0  0  0  0  0  0  0  0  0  0  0
   -9.3720    3.7290  -77.3620 C   0  0  0  0  0  0  0  0  0  0  0  0
   -8.0680    3.5300  -77.8110 N   0  0  0  0  0  0  0  0  0  0  0  0
   -7.0620    2.9280  -77.0730 C   0  0  0  0  0  0  0  0  0  0  0  0
   -5.5990    3.7380  -77.0090 S   0  0  0  0  0  0  0  0  0  0  0  0
   -7.3820    1.7340  -76.4260 N   0  0  0  0  0  0  0  0  0  0  0  0
   -7.2020    0.3920  -76.7840 C   0  0  0  0  0  0  0  0  0  0  0  0
   -8.0430   -0.4970  -76.6680 O   0  0  0  0  0  0  0  0  0  0  0  0
   -5.9260    0.0920  -77.2910 C   0  0  0  0  0  0  0  0  0  0  0  0
   -5.8280   -0.9540  -78.2160 C   0  0  0  0  0  0  0  0  0  0  0  0
   -5.0340   -0.7650  -79.3620 C   0  0  0  0  0  0  0  0  0  0  0  0
   -4.0650   -1.4770  -79.6120 O   0  0  0  0  0  0  0  0  0  0  0  0
   -5.4610    0.2620  -80.1590 O   0  0  0  0  0  0  0  0  0  0  0  0
   -5.4040    1.6140  -79.6600 C   0  0  0  0  0  0  0  0  0  0  0  0
   -6.7010    2.0880  -79.3800 C   0  0  0  0  0  0  0  0  0  0  0  0
   -7.6680    1.3780  -80.0770 C   0  0  0  0  0  0  0  0  0  0  0  0
   -8.1990    1.9150  -81.3890 C   0  0  0  0  0  0  0  0  0  0  0  0
   -8.1620    0.1590  -79.5910 C   0  0  0  0  0  0  0  0  0  0  0  0
   -9.2160    1.0390  -82.0370 C   0  0  0  0  0  0  0  0  0  0  0  0
   -9.1160   -0.5980  -80.2590 C   0  0  0  0  0  0  0  0  0  0  0  0
   -9.6390   -0.1690  -81.4680 C   0  0  0  0  0  0  0  0  0  0  0  0
  1  2  2  3
  2  3  1  0
  2  4  1  0
  5  4  1  0
  5  6  2  0
  5  7  2  0
  5  8  1  0
  8  9  2  0
  8 10  1  0
  9 11  1  0
 10 12  2  0
 11 13  2  0
 12 13  1  0
 13 14  1  0
 14 15  1  0
 15 16  2  0
 15 17  1  0
 17 18  1  0
 18 19  2  0
 18 20  1  0
 20 21  1  0
 21 22  1  0
 22 23  2  0
 22 24  1  0
 24 25  1  0
 25 26  1  0
 26 27  1  0
 27 28  2  0
 27 29  1  0
 28 30  1  0
 29 31  2  0
 30 32  2  0
 31 32  1  0
M  END
>  <ref_url>  (579) 
https://fakepage.com

>  <submitter_name>  (579) 
Steph Wills

>  <submitter_email>  (579) 
stephanie.wills@dtc.ox.ac.uk

>  <submitter_institution>  (579) 
University of Oxford

>  <generation_date>  (579) 
2020-06-04

>  <method>  (579) 
Fragment network

>  <ref_mols>  (579) 
x0183_0B,x0212_0B

>  <ref_pdb>  (579) 
references/x0183-0B-x0212-0B-107032.holo_minimised_nolig.pdb

>  <original SMILES>  (579) 
N=C(N)NS(=O)(=O)c1ccc(NC(=S)NC(=O)CCC(=O)OCCc2ccccc2)cc1

>  <synthon>  (579) 
[Xe]c1ccccc1

>  <original_name>  (579) 
x0183-0B-x0212-0B-107032

>  <comRMSD_score>  (579) 
0.5771572909195009

>  <IF_score>  (579) 
0.55

>  <SuCOS_score>  (579) 
0.5958453505578617

>  <compound_ID>  (579) 
MOLPORT:002-775-970

$$$$

     RDKit          3D

 22 23  0  0  0  0  0  0  0  0999 V2000
  -12.7690    6.4080  -73.6210 C   0  0  0  0  0  0  0  0  0  0  0  0
  -13.3940    6.2510  -74.9820 C   0  0  0  0  0  0  0  0  0  0  0  0
  -13.5900    4.9070  -75.5880 C   0  0  2  0  0  0  0  0  0  0  0  0
  -13.9690    3.9730  -74.8910 O   0  0  0  0  0  0  0  0  0  0  0  0
  -12.5470    4.3700  -76.3180 C   0  0  0  0  0  0  0  0  0  0  0  0
  -12.1960    4.8950  -77.5740 C   0  0  0  0  0  0  0  0  0  0  0  0
  -11.8570    3.2830  -75.7770 C   0  0  0  0  0  0  0  0  0  0  0  0
  -11.1670    4.3220  -78.2980 C   0  0  0  0  0  0  0  0  0  0  0  0
  -10.8420    2.7130  -76.4900 C   0  0  0  0  0  0  0  0  0  0  0  0
  -10.5340    3.2420  -77.7330 C   0  0  0  0  0  0  0  0  0  0  0  0
   -9.6620    2.6670  -78.2690 O   0  0  0  0  0  0  0  0  0  0  0  0
   -8.8990    2.1740  -77.2200 C   0  0  0  0  0  0  0  0  0  0  0  0
   -7.5450    2.7460  -77.2340 C   0  0  0  0  0  0  0  0  0  0  0  0
   -7.4130    3.8450  -76.3680 O   0  0  0  0  0  0  0  0  0  0  0  0
   -6.6510    2.1940  -78.0900 N   0  0  0  0  0  0  0  0  0  0  0  0
   -6.8210    2.5130  -79.4890 C   0  0  0  0  0  0  0  0  0  0  0  0
   -7.6470    1.5910  -80.1390 C   0  0  0  0  0  0  0  0  0  0  0  0
   -8.1730    1.9180  -81.3750 C   0  0  0  0  0  0  0  0  0  0  0  0
   -7.9630    0.3350  -79.5870 C   0  0  0  0  0  0  0  0  0  0  0  0
   -8.9840    1.0500  -82.0690 C   0  0  0  0  0  0  0  0  0  0  0  0
   -8.7910   -0.5590  -80.2870 C   0  0  0  0  0  0  0  0  0  0  0  0
   -9.2990   -0.1990  -81.5320 C   0  0  0  0  0  0  0  0  0  0  0  0
  1  2  1  0
  2  3  1  0
  3  4  1  1
  3  5  1  0
  5  6  2  0
  5  7  1  0
  6  8  1  0
  7  9  2  0
  8 10  2  0
  9 10  1  0
 10 11  1  0
 11 12  1  0
 12 13  1  0
 13 14  2  0
 13 15  1  0
 15 16  1  0
 16 17  1  0
 17 18  2  0
 17 19  1  0
 18 20  1  0
 19 21  2  0
 20 22  2  0
 21 22  1  0
M  END
>  <ref_url>  (580) 
https://fakepage.com

>  <submitter_name>  (580) 
Steph Wills

>  <submitter_email>  (580) 
stephanie.wills@dtc.ox.ac.uk

>  <submitter_institution>  (580) 
University of Oxford

>  <generation_date>  (580) 
2020-06-04

>  <method>  (580) 
Fragment network

>  <ref_mols>  (580) 
x0183_0B,x0212_0B

>  <ref_pdb>  (580) 
references/x0183-0B-x0212-0B-109712.holo_minimised_nolig.pdb

>  <original SMILES>  (580) 
CCC(O)c1ccc(OCC(=O)NCc2ccccc2)cc1

>  <synthon>  (580) 
[Xe]c1ccccc1

>  <original_name>  (580) 
x0183-0B-x0212-0B-109712

>  <comRMSD_score>  (580) 
0.9594430097139112

>  <IF_score>  (580) 
0.425

>  <SuCOS_score>  (580) 
0.4723186058884667

>  <compound_ID>  (580) 
CHEMSPACE-BB:CSMB00017275396, CHEMSPACE-BB:CSMB00019944436

$$$$

     RDKit          3D

 22 23  0  0  0  0  0  0  0  0999 V2000
  -12.8170    6.3110  -73.7540 C   0  0  0  0  0  0  0  0  0  0  0  0
  -13.4660    5.8470  -74.9410 O   0  0  0  0  0  0  0  0  0  0  0  0
  -13.2860    4.4940  -75.4140 C   0  0  0  0  0  0  0  0  0  0  0  0
  -14.2230    3.4650  -75.1440 O   0  0  0  0  0  0  0  0  0  0  0  0
  -12.0680    4.2290  -76.2270 C   0  0  0  0  0  0  0  0  0  0  0  0
  -12.0150    4.7570  -77.5220 C   0  0  0  0  0  0  0  0  0  0  0  0
  -11.0030    3.4750  -75.7310 C   0  0  0  0  0  0  0  0  0  0  0  0
  -10.9060    4.5300  -78.3120 C   0  0  0  0  0  0  0  0  0  0  0  0
   -9.8940    3.2560  -76.5330 C   0  0  0  0  0  0  0  0  0  0  0  0
   -9.8520    3.7890  -77.8280 C   0  0  0  0  0  0  0  0  0  0  0  0
   -8.7670    2.5370  -76.1720 N   0  0  0  0  0  0  0  0  0  0  0  0
   -7.5300    2.8360  -76.6600 C   0  0  0  0  0  0  0  0  0  0  0  0
   -6.7360    3.7000  -76.2800 O   0  0  0  0  0  0  0  0  0  0  0  0
   -7.1790    2.0250  -77.7070 N   0  0  0  0  0  0  0  0  0  0  0  0
   -7.1070    2.4930  -79.1060 C   0  0  0  0  0  0  0  0  0  0  0  0
   -6.5480    3.5190  -79.4780 O   0  0  0  0  0  0  0  0  0  0  0  0
   -7.7240    1.6320  -80.0040 C   0  0  0  0  0  0  0  0  0  0  0  0
   -7.9880    0.1800  -79.5040 C   0  0  0  0  0  0  0  0  0  0  0  0
   -8.1050    1.9980  -81.3000 C   0  0  0  0  0  0  0  0  0  0  0  0
   -8.5970   -0.6980  -80.3970 C   0  0  0  0  0  0  0  0  0  0  0  0
   -8.7050    1.0560  -82.1250 C   0  0  0  0  0  0  0  0  0  0  0  0
   -8.9370   -0.2510  -81.6740 C   0  0  0  0  0  0  0  0  0  0  0  0
  1  2  1  0
  2  3  1  0
  3  4  2  0
  3  5  1  0
  5  6  2  0
  5  7  1  0
  6  8  1  0
  7  9  2  0
  8 10  2  0
  9 10  1  0
  9 11  1  0
 11 12  1  0
 12 13  2  0
 12 14  1  0
 14 15  1  0
 15 16  2  0
 15 17  1  0
 17 18  2  0
 17 19  1  0
 18 20  1  0
 19 21  2  0
 20 22  2  0
 21 22  1  0
M  END
>  <ref_url>  (581) 
https://fakepage.com

>  <submitter_name>  (581) 
Steph Wills

>  <submitter_email>  (581) 
stephanie.wills@dtc.ox.ac.uk

>  <submitter_institution>  (581) 
University of Oxford

>  <generation_date>  (581) 
2020-06-04

>  <method>  (581) 
Fragment network

>  <ref_mols>  (581) 
x0183_0B,x0212_0B

>  <ref_pdb>  (581) 
references/x0183-0B-x0212-0B-110973.holo_minimised_nolig.pdb

>  <original SMILES>  (581) 
COC(=O)c1cccc(NC(=O)NC(=O)c2ccccc2)c1

>  <synthon>  (581) 
[Xe]c1ccccc1

>  <original_name>  (581) 
x0183-0B-x0212-0B-110973

>  <comRMSD_score>  (581) 
0.5485899433328371

>  <IF_score>  (581) 
0.55

>  <SuCOS_score>  (581) 
0.5128149359424072

>  <compound_ID>  (581) 
MOLPORT:002-897-474

$$$$

     RDKit          3D

 25 26  0  0  0  0  0  0  0  0999 V2000
  -11.7210    6.2000  -73.6480 C   0  0  0  0  0  0  0  0  0  0  0  0
  -13.1930    6.4610  -73.8570 C   0  0  0  0  0  0  0  0  0  0  0  0
  -13.4110    7.9800  -73.8190 C   0  0  0  0  0  0  0  0  0  0  0  0
  -13.9890    5.8320  -72.7160 C   0  0  0  0  0  0  0  0  0  0  0  0
  -13.6760    5.8690  -75.1250 N   0  0  0  0  0  0  0  0  0  0  0  0
  -13.5840    4.2290  -75.4750 S   0  0  0  0  0  0  0  0  0  0  0  0
  -13.6290    3.5180  -74.2140 O   0  0  0  0  0  0  0  0  0  0  0  0
  -14.5040    3.9130  -76.5350 O   0  0  0  0  0  0  0  0  0  0  0  0
  -11.9510    3.9930  -76.1290 C   0  0  0  0  0  0  0  0  0  0  0  0
  -11.0830    3.1150  -75.3680 C   0  0  0  0  0  0  0  0  0  0  0  0
  -11.4070    4.5630  -77.2960 C   0  0  0  0  0  0  0  0  0  0  0  0
   -9.8060    2.8410  -75.7160 C   0  0  0  0  0  0  0  0  0  0  0  0
  -10.0540    4.2630  -77.6460 C   0  0  0  0  0  0  0  0  0  0  0  0
   -9.2560    3.4000  -76.8270 C   0  0  0  0  0  0  0  0  0  0  0  0
   -7.9410    3.0210  -76.9950 N   0  0  0  0  0  0  0  0  0  0  0  0
   -6.8230    3.8280  -77.5090 C   0  0  0  0  0  0  0  0  0  0  0  0
   -5.9110    4.6640  -76.9790 O   0  0  0  0  0  0  0  0  0  0  0  0
   -6.8090    3.5000  -78.9590 C   0  0  0  0  0  0  0  0  0  0  0  0
   -7.5920    2.2580  -79.0180 C   0  0  0  0  0  0  0  0  0  0  0  0
   -8.0840    1.3150  -80.0180 C   0  0  0  0  0  0  0  0  0  0  0  0
   -8.2980    1.7910  -81.4140 C   0  0  0  0  0  0  0  0  0  0  0  0
   -8.3650    0.0050  -79.6540 C   0  0  0  0  0  0  0  0  0  0  0  0
   -8.7840    0.8850  -82.3090 C   0  0  0  0  0  0  0  0  0  0  0  0
   -8.8550   -0.8690  -80.5940 C   0  0  0  0  0  0  0  0  0  0  0  0
   -9.0610   -0.4330  -81.8950 C   0  0  0  0  0  0  0  0  0  0  0  0
  1  2  1  0
  2  3  1  0
  2  4  1  0
  2  5  1  0
  6  5  1  0
  6  7  2  0
  6  8  2  0
  6  9  1  0
  9 10  2  0
  9 11  1  0
 10 12  1  0
 11 13  2  0
 12 14  2  0
 13 14  1  0
 14 15  1  0
 15 16  1  0
 16 17  2  0
 16 18  1  0
 18 19  2  3
 19 20  1  0
 20 21  2  0
 20 22  1  0
 21 23  1  0
 22 24  2  0
 23 25  2  0
 24 25  1  0
M  END
>  <ref_url>  (582) 
https://fakepage.com

>  <submitter_name>  (582) 
Steph Wills

>  <submitter_email>  (582) 
stephanie.wills@dtc.ox.ac.uk

>  <submitter_institution>  (582) 
University of Oxford

>  <generation_date>  (582) 
2020-06-04

>  <method>  (582) 
Fragment network

>  <ref_mols>  (582) 
x0183_0B,x0212_0B

>  <ref_pdb>  (582) 
references/x0183-0B-x0212-0B-111110.holo_minimised_nolig.pdb

>  <original SMILES>  (582) 
CC(C)(C)NS(=O)(=O)c1ccc(NC(=O)C=Cc2ccccc2)cc1

>  <synthon>  (582) 
[Xe]c1ccccc1

>  <original_name>  (582) 
x0183-0B-x0212-0B-111110

>  <comRMSD_score>  (582) 
0.6733356435603927

>  <IF_score>  (582) 
0.65

>  <SuCOS_score>  (582) 
0.5357302820898908

>  <compound_ID>  (582) 
MOLPORT:001-551-140

$$$$

     RDKit          3D

 25 26  0  0  0  0  0  0  0  0999 V2000
  -14.6130    8.2360  -72.3450 C   0  0  0  0  0  0  0  0  0  0  0  0
  -14.7610    6.7390  -72.4260 C   0  0  0  0  0  0  0  0  0  0  0  0
  -13.6440    5.9270  -73.0180 C   0  0  0  0  0  0  0  0  0  0  0  0
  -12.9880    6.3960  -74.1380 C   0  0  0  0  0  0  0  0  0  0  0  0
  -13.2710    5.9530  -75.2600 O   0  0  0  0  0  0  0  0  0  0  0  0
  -13.0690    4.6260  -75.5750 C   0  0  0  0  0  0  0  0  0  0  0  0
  -14.0010    3.6160  -75.1720 O   0  0  0  0  0  0  0  0  0  0  0  0
  -11.9320    4.3490  -76.3370 C   0  0  0  0  0  0  0  0  0  0  0  0
  -11.8740    4.8250  -77.6550 C   0  0  0  0  0  0  0  0  0  0  0  0
  -10.8700    3.6040  -75.7900 C   0  0  0  0  0  0  0  0  0  0  0  0
  -10.6570    4.5540  -78.5440 C   0  0  0  0  0  0  0  0  0  0  0  0
   -9.7240    3.3220  -76.5480 C   0  0  0  0  0  0  0  0  0  0  0  0
   -9.6010    3.7570  -77.8450 C   0  0  0  0  0  0  0  0  0  0  0  0
   -8.6820    2.6180  -76.0570 N   0  0  0  0  0  0  0  0  0  0  0  0
   -7.3490    2.8180  -76.5890 C   0  0  0  0  0  0  0  0  0  0  0  0
   -6.3290    3.9640  -75.9150 S   0  0  0  0  0  0  0  0  0  0  0  0
   -7.0690    1.9060  -77.6960 N   0  0  0  0  0  0  0  0  0  0  0  0
   -7.1150    2.3200  -79.0980 C   0  0  0  0  0  0  0  0  0  0  0  0
   -6.5780    3.2470  -79.6780 O   0  0  0  0  0  0  0  0  0  0  0  0
   -7.8760    1.5180  -79.9280 C   0  0  0  0  0  0  0  0  0  0  0  0
   -8.2370    1.9440  -81.2070 C   0  0  0  0  0  0  0  0  0  0  0  0
   -8.2910    0.2560  -79.4730 C   0  0  0  0  0  0  0  0  0  0  0  0
   -8.9950    1.0970  -81.9860 C   0  0  0  0  0  0  0  0  0  0  0  0
   -9.0600   -0.5780  -80.2870 C   0  0  0  0  0  0  0  0  0  0  0  0
   -9.4170   -0.1510  -81.5610 C   0  0  0  0  0  0  0  0  0  0  0  0
  1  2  1  0
  2  3  1  0
  3  4  1  0
  4  5  1  0
  5  6  1  0
  6  7  2  0
  6  8  1  0
  8  9  2  0
  8 10  1  0
  9 11  1  0
 10 12  2  0
 11 13  2  0
 12 13  1  0
 12 14  1  0
 14 15  1  0
 15 16  2  0
 15 17  1  0
 17 18  1  0
 18 19  2  0
 18 20  1  0
 20 21  2  0
 20 22  1  0
 21 23  1  0
 22 24  2  0
 23 25  2  0
 24 25  1  0
M  END
>  <ref_url>  (583) 
https://fakepage.com

>  <submitter_name>  (583) 
Steph Wills

>  <submitter_email>  (583) 
stephanie.wills@dtc.ox.ac.uk

>  <submitter_institution>  (583) 
University of Oxford

>  <generation_date>  (583) 
2020-06-04

>  <method>  (583) 
Fragment network

>  <ref_mols>  (583) 
x0183_0B,x0212_0B

>  <ref_pdb>  (583) 
references/x0183-0B-x0212-0B-113565.holo_minimised_nolig.pdb

>  <original SMILES>  (583) 
CCCCOC(=O)c1cccc(NC(=S)NC(=O)c2ccccc2)c1

>  <synthon>  (583) 
[Xe]c1ccccc1

>  <original_name>  (583) 
x0183-0B-x0212-0B-113565

>  <comRMSD_score>  (583) 
0.5838984564180716

>  <IF_score>  (583) 
0.55

>  <SuCOS_score>  (583) 
0.5357394208140582

>  <compound_ID>  (583) 
MOLPORT:000-654-784

$$$$

     RDKit          3D

 20 21  0  0  0  0  0  0  0  0999 V2000
  -12.8180    6.3290  -73.7540 C   0  0  0  0  0  0  0  0  0  0  0  0
  -13.3730    5.7480  -74.8660 N   0  0  0  0  0  0  0  0  0  0  0  0
  -13.1660    4.3380  -75.2130 C   0  0  0  0  0  0  0  0  0  0  0  0
  -12.0750    4.1840  -76.0680 C   0  0  0  0  0  0  0  0  0  0  0  0
  -12.0580    4.7360  -77.3330 C   0  0  0  0  0  0  0  0  0  0  0  0
  -10.9460    3.4540  -75.6730 C   0  0  0  0  0  0  0  0  0  0  0  0
  -10.9840    4.5780  -78.1740 C   0  0  0  0  0  0  0  0  0  0  0  0
   -9.8400    3.2890  -76.5250 C   0  0  0  0  0  0  0  0  0  0  0  0
   -9.8660    3.8660  -77.8050 C   0  0  0  0  0  0  0  0  0  0  0  0
   -8.7460    2.5620  -76.0900 N   0  0  0  0  0  0  0  0  0  0  0  0
   -7.8050    2.0330  -77.0580 C   0  0  0  0  0  0  0  0  0  0  0  0
   -7.3190    0.9060  -77.0110 O   0  0  0  0  0  0  0  0  0  0  0  0
   -7.5290    2.7670  -77.9010 N   0  0  0  0  0  0  0  0  0  0  0  0
   -7.0520    2.5340  -79.1690 C   0  0  0  0  0  0  0  0  0  0  0  0
   -7.8070    1.6400  -79.9340 C   0  0  0  0  0  0  0  0  0  0  0  0
   -8.1870    2.0160  -81.2020 C   0  0  0  0  0  0  0  0  0  0  0  0
   -8.1940    0.3520  -79.4510 C   0  0  0  0  0  0  0  0  0  0  0  0
   -8.9860    1.1020  -82.0620 C   0  0  0  0  0  0  0  0  0  0  0  0
   -8.9530   -0.5620  -80.2140 C   0  0  0  0  0  0  0  0  0  0  0  0
   -9.3610   -0.2430  -81.4900 C   0  0  0  0  0  0  0  0  0  0  0  0
  1  2  1  0
  2  3  1  0
  3  4  1  0
  4  5  2  0
  4  6  1  0
  5  7  1  0
  6  8  2  0
  7  9  2  0
  8  9  1  0
  8 10  1  0
 10 11  1  0
 11 12  2  0
 11 13  1  0
 13 14  1  0
 14 15  1  0
 15 16  2  0
 15 17  1  0
 16 18  1  0
 17 19  2  0
 18 20  2  0
 19 20  1  0
M  END
>  <ref_url>  (584) 
https://fakepage.com

>  <submitter_name>  (584) 
Steph Wills

>  <submitter_email>  (584) 
stephanie.wills@dtc.ox.ac.uk

>  <submitter_institution>  (584) 
University of Oxford

>  <generation_date>  (584) 
2020-06-04

>  <method>  (584) 
Fragment network

>  <ref_mols>  (584) 
x0183_0B,x0212_0B

>  <ref_pdb>  (584) 
references/x0183-0B-x0212-0B-115000.holo_minimised_nolig.pdb

>  <original SMILES>  (584) 
CNCc1cccc(NC(=O)NCc2ccccc2)c1

>  <synthon>  (584) 
[Xe]c1ccccc1

>  <original_name>  (584) 
x0183-0B-x0212-0B-115000

>  <comRMSD_score>  (584) 
0.490587629503865

>  <IF_score>  (584) 
0.55

>  <SuCOS_score>  (584) 
0.5254046020580823

>  <compound_ID>  (584) 
CHEMSPACE-BB:CSMB00014267127

$$$$

     RDKit          3D

 22 23  0  0  0  0  0  0  0  0999 V2000
  -12.7500    6.2930  -73.7300 C   0  0  0  0  0  0  0  0  0  0  0  0
  -13.3280    6.1150  -75.1610 C   0  0  1  0  0  0  0  0  0  0  0  0
  -12.6410    6.9410  -76.0950 O   0  0  0  0  0  0  0  0  0  0  0  0
  -13.3220    4.6910  -75.6320 C   0  0  0  0  0  0  0  0  0  0  0  0
  -12.1810    4.1900  -76.2670 C   0  0  0  0  0  0  0  0  0  0  0  0
  -11.8780    4.6110  -77.5690 C   0  0  0  0  0  0  0  0  0  0  0  0
  -11.3540    3.2580  -75.5990 C   0  0  0  0  0  0  0  0  0  0  0  0
  -10.7690    4.1030  -78.2320 C   0  0  0  0  0  0  0  0  0  0  0  0
  -10.2310    2.7120  -76.2060 C   0  0  0  0  0  0  0  0  0  0  0  0
   -9.8980    3.0790  -77.5010 C   0  0  0  0  0  0  0  0  0  0  0  0
   -8.8110    2.5880  -78.2540 O   0  0  0  0  0  0  0  0  0  0  0  0
   -7.9490    1.8500  -77.4030 C   0  0  0  0  0  0  0  0  0  0  0  0
   -6.9470    2.8520  -76.8510 C   0  0  0  0  0  0  0  0  0  0  0  0
   -6.0750    3.5520  -77.8450 C   0  0  0  0  0  0  0  0  0  0  0  0
   -6.5440    3.3620  -79.1650 O   0  0  0  0  0  0  0  0  0  0  0  0
   -6.4370    2.0840  -79.6200 C   0  0  0  0  0  0  0  0  0  0  0  0
   -7.4470    1.3580  -80.2540 C   0  0  0  0  0  0  0  0  0  0  0  0
   -7.8390    0.1110  -79.7350 C   0  0  0  0  0  0  0  0  0  0  0  0
   -8.0820    1.8360  -81.4190 C   0  0  0  0  0  0  0  0  0  0  0  0
   -8.8200   -0.6340  -80.3600 C   0  0  0  0  0  0  0  0  0  0  0  0
   -9.0700    1.1120  -82.0790 C   0  0  0  0  0  0  0  0  0  0  0  0
   -9.4720   -0.1270  -81.5930 C   0  0  0  0  0  0  0  0  0  0  0  0
  2  1  1  1
  2  3  1  0
  2  4  1  0
  4  5  1  0
  5  6  2  0
  5  7  1  0
  6  8  1  0
  7  9  2  0
  8 10  2  0
  9 10  1  0
 10 11  1  0
 11 12  1  0
 12 13  1  0
 13 14  1  0
 14 15  1  0
 15 16  1  0
 16 17  1  0
 17 18  2  0
 17 19  1  0
 18 20  1  0
 19 21  2  0
 20 22  2  0
 21 22  1  0
M  END
>  <ref_url>  (585) 
https://fakepage.com

>  <submitter_name>  (585) 
Steph Wills

>  <submitter_email>  (585) 
stephanie.wills@dtc.ox.ac.uk

>  <submitter_institution>  (585) 
University of Oxford

>  <generation_date>  (585) 
2020-06-04

>  <method>  (585) 
Fragment network

>  <ref_mols>  (585) 
x0183_0B,x0212_0B

>  <ref_pdb>  (585) 
references/x0183-0B-x0212-0B-115378.holo_minimised_nolig.pdb

>  <original SMILES>  (585) 
CC(O)Cc1ccc(OCCCOCc2ccccc2)cc1

>  <synthon>  (585) 
[Xe]c1ccccc1

>  <original_name>  (585) 
x0183-0B-x0212-0B-115378

>  <comRMSD_score>  (585) 
0.7707341858158262

>  <IF_score>  (585) 
0.65

>  <SuCOS_score>  (585) 
0.4770412358294494

>  <compound_ID>  (585) 
CHEMSPACE-BB:CSMB00015069200

$$$$

     RDKit          3D

 28 29  0  0  0  0  0  0  0  0999 V2000
  -12.8410    6.1950  -73.6980 C   0  0  0  0  0  0  0  0  0  0  0  0
  -13.6150    5.6160  -74.8900 C   0  0  0  0  0  0  0  0  0  0  0  0
  -14.6280    6.4860  -75.4120 O   0  0  0  0  0  0  0  0  0  0  0  0
  -13.2840    4.2670  -75.3960 N   0  0  0  0  0  0  0  0  0  0  0  0
  -12.3010    4.0790  -76.3710 C   0  0  0  0  0  0  0  0  0  0  0  0
  -11.9190    5.2430  -77.2440 C   0  0  0  0  0  0  0  0  0  0  0  0
  -11.6630    2.8560  -76.5570 C   0  0  0  0  0  0  0  0  0  0  0  0
  -10.8530    4.9460  -78.2480 C   0  0  0  0  0  0  0  0  0  0  0  0
  -10.6690    2.7160  -77.5400 C   0  0  0  0  0  0  0  0  0  0  0  0
  -10.2750    3.7210  -78.3640 C   0  0  0  0  0  0  0  0  0  0  0  0
   -9.9520    1.4690  -77.7530 N   0  0  0  0  0  0  0  0  0  0  0  0
   -9.5540    0.9780  -76.4780 C   0  0  0  0  0  0  0  0  0  0  0  0
   -9.1070   -0.1650  -76.3700 O   0  0  0  0  0  0  0  0  0  0  0  0
   -9.7900    1.9640  -75.5660 N   0  0  0  0  0  0  0  0  0  0  0  0
  -11.0250    1.8840  -74.7440 C   0  0  0  0  0  0  0  0  0  0  0  0
   -9.0640    3.1710  -75.9600 C   0  0  0  0  0  0  0  0  0  0  0  0
   -8.4580    3.2430  -77.2200 C   0  0  0  0  0  0  0  0  0  0  0  0
   -8.9000    4.1470  -77.9060 O   0  0  0  0  0  0  0  0  0  0  0  0
   -7.4550    2.3810  -77.6050 N   0  0  0  0  0  0  0  0  0  0  0  0
   -6.7530    1.5170  -76.7380 C   0  0  0  0  0  0  0  0  0  0  0  0
   -6.9420    2.4630  -78.9930 C   0  0  1  0  0  0  0  0  0  0  0  0
   -5.5780    2.1260  -78.9980 C   0  0  0  0  0  0  0  0  0  0  0  0
   -7.7360    1.5240  -79.8710 C   0  0  0  0  0  0  0  0  0  0  0  0
   -8.0900    0.2570  -79.4340 C   0  0  0  0  0  0  0  0  0  0  0  0
   -8.1500    1.9050  -81.1780 C   0  0  0  0  0  0  0  0  0  0  0  0
   -8.8620   -0.6990  -80.2530 C   0  0  0  0  0  0  0  0  0  0  0  0
   -8.8850    1.0500  -82.0160 C   0  0  0  0  0  0  0  0  0  0  0  0
   -9.2540   -0.2330  -81.6020 C   0  0  0  0  0  0  0  0  0  0  0  0
  1  2  1  0
  2  3  2  0
  2  4  1  0
  4  5  1  0
  5  6  2  0
  5  7  1  0
  6  8  1  0
  7  9  2  0
  8 10  2  0
  9 10  1  0
  9 11  1  0
 11 12  1  0
 12 13  2  0
 12 14  1  0
 14 15  1  0
 14 16  1  0
 16 17  1  0
 17 18  2  0
 17 19  1  0
 19 20  1  0
 19 21  1  0
 21 22  1  1
 21 23  1  0
 23 24  2  0
 23 25  1  0
 24 26  1  0
 25 27  2  0
 26 28  2  0
 27 28  1  0
M  END
>  <ref_url>  (586) 
https://fakepage.com

>  <submitter_name>  (586) 
Steph Wills

>  <submitter_email>  (586) 
stephanie.wills@dtc.ox.ac.uk

>  <submitter_institution>  (586) 
University of Oxford

>  <generation_date>  (586) 
2020-06-04

>  <method>  (586) 
Fragment network

>  <ref_mols>  (586) 
x0183_0B,x0212_0B

>  <ref_pdb>  (586) 
references/x0183-0B-x0212-0B-116988.holo_minimised_nolig.pdb

>  <original SMILES>  (586) 
CC(=O)Nc1cccc(NC(=O)N(C)CC(=O)N(C)C(C)c2ccccc2)c1

>  <synthon>  (586) 
[Xe]c1ccccc1

>  <original_name>  (586) 
x0183-0B-x0212-0B-116988

>  <comRMSD_score>  (586) 
0.8146643253285143

>  <IF_score>  (586) 
0.525

>  <SuCOS_score>  (586) 
0.4885663348285938

>  <compound_ID>  (586) 
REAL:Z2000537244

$$$$

     RDKit          3D

 28 29  0  0  0  0  0  0  0  0999 V2000
  -13.9900    5.6690  -72.7390 C   0  0  0  0  0  0  0  0  0  0  0  0
  -13.2930    6.4690  -73.8170 C   0  0  0  0  0  0  0  0  0  0  0  0
  -13.5550    7.9620  -73.5750 C   0  0  0  0  0  0  0  0  0  0  0  0
  -11.7970    6.2350  -73.7320 C   0  0  0  0  0  0  0  0  0  0  0  0
  -13.7660    6.0730  -75.1520 N   0  0  0  0  0  0  0  0  0  0  0  0
  -13.9080    4.5000  -75.7220 S   0  0  0  0  0  0  0  0  0  0  0  0
  -14.1230    3.5560  -74.6610 O   0  0  0  0  0  0  0  0  0  0  0  0
  -14.7870    4.5680  -76.8650 O   0  0  0  0  0  0  0  0  0  0  0  0
  -12.3050    4.1960  -76.3900 C   0  0  0  0  0  0  0  0  0  0  0  0
  -12.0010    4.6180  -77.7630 C   0  0  0  0  0  0  0  0  0  0  0  0
  -11.2770    3.5660  -75.6740 C   0  0  0  0  0  0  0  0  0  0  0  0
  -10.7870    4.4230  -78.3590 C   0  0  0  0  0  0  0  0  0  0  0  0
  -10.0500    3.3880  -76.3110 C   0  0  0  0  0  0  0  0  0  0  0  0
   -9.8010    3.8040  -77.6360 C   0  0  0  0  0  0  0  0  0  0  0  0
   -9.0010    2.8060  -75.6830 N   0  0  0  0  0  0  0  0  0  0  0  0
   -7.8370    3.4210  -76.1260 C   0  0  0  0  0  0  0  0  0  0  0  0
   -6.8400    3.6990  -75.4660 O   0  0  0  0  0  0  0  0  0  0  0  0
   -7.9190    3.7400  -77.5610 C   0  0  0  0  0  0  0  0  0  0  0  0
   -8.1000    2.5520  -78.3810 C   0  0  0  0  0  0  0  0  0  0  0  0
   -6.7880    2.0190  -78.5050 N   0  0  0  0  0  0  0  0  0  0  0  0
   -6.4520    1.6880  -79.7410 C   0  0  0  0  0  0  0  0  0  0  0  0
   -5.3780    1.8890  -80.2990 O   0  0  0  0  0  0  0  0  0  0  0  0
   -7.5020    1.0650  -80.3590 C   0  0  0  0  0  0  0  0  0  0  0  0
   -8.1310    1.6210  -81.4480 C   0  0  0  0  0  0  0  0  0  0  0  0
   -7.9580   -0.1600  -79.8780 C   0  0  0  0  0  0  0  0  0  0  0  0
   -9.1840    1.0210  -82.0910 C   0  0  0  0  0  0  0  0  0  0  0  0
   -9.0320   -0.7920  -80.5110 C   0  0  0  0  0  0  0  0  0  0  0  0
   -9.6360   -0.2020  -81.6120 C   0  0  0  0  0  0  0  0  0  0  0  0
  1  2  1  0
  2  3  1  0
  2  4  1  0
  2  5  1  0
  6  5  1  0
  6  7  2  0
  6  8  2  0
  6  9  1  0
  9 10  2  0
  9 11  1  0
 10 12  1  0
 11 13  2  0
 12 14  2  0
 13 14  1  0
 13 15  1  0
 15 16  1  0
 16 17  2  0
 16 18  1  0
 18 19  1  0
 19 20  1  0
 20 21  1  0
 21 22  2  0
 21 23  1  0
 23 24  2  0
 23 25  1  0
 24 26  1  0
 25 27  2  0
 26 28  2  0
 27 28  1  0
M  END
>  <ref_url>  (587) 
https://fakepage.com

>  <submitter_name>  (587) 
Steph Wills

>  <submitter_email>  (587) 
stephanie.wills@dtc.ox.ac.uk

>  <submitter_institution>  (587) 
University of Oxford

>  <generation_date>  (587) 
2020-06-04

>  <method>  (587) 
Fragment network

>  <ref_mols>  (587) 
x0183_0B,x0212_0B

>  <ref_pdb>  (587) 
references/x0183-0B-x0212-0B-122136.holo_minimised_nolig.pdb

>  <original SMILES>  (587) 
CC(C)(C)NS(=O)(=O)c1cccc(NC(=O)CCNC(=O)c2ccccc2)c1

>  <synthon>  (587) 
[Xe]c1ccccc1

>  <original_name>  (587) 
x0183-0B-x0212-0B-122136

>  <comRMSD_score>  (587) 
0.7747456691404281

>  <IF_score>  (587) 
0.65

>  <SuCOS_score>  (587) 
0.5242165865873856

>  <compound_ID>  (587) 
MOLPORT:009-214-401

$$$$

     RDKit          3D

 24 25  0  0  0  0  0  0  0  0999 V2000
  -12.7400    5.3690  -72.9680 C   0  0  0  0  0  0  0  0  0  0  0  0
  -12.9200    6.3830  -74.0670 C   0  0  0  0  0  0  0  0  0  0  0  0
  -14.1460    5.8080  -75.2400 S   0  0  0  0  0  0  0  0  0  0  0  0
  -15.3780    5.6040  -74.5140 O   0  0  0  0  0  0  0  0  0  0  0  0
  -14.0930    6.6780  -76.3930 O   0  0  0  0  0  0  0  0  0  0  0  0
  -13.6160    4.1920  -75.8010 C   0  0  0  0  0  0  0  0  0  0  0  0
  -12.3150    4.1010  -76.2580 C   0  0  0  0  0  0  0  0  0  0  0  0
  -11.3070    3.4440  -75.5460 C   0  0  0  0  0  0  0  0  0  0  0  0
  -12.0640    4.7220  -77.4840 C   0  0  0  0  0  0  0  0  0  0  0  0
   -9.9570    3.4470  -76.1260 C   0  0  0  0  0  0  0  0  0  0  0  0
  -10.7930    4.7140  -78.0130 C   0  0  0  0  0  0  0  0  0  0  0  0
   -9.7560    4.0950  -77.3370 C   0  0  0  0  0  0  0  0  0  0  0  0
   -8.4500    4.1880  -77.9370 N   0  0  0  0  0  0  0  0  0  0  0  0
   -8.1830    3.2840  -78.9650 C   0  0  0  0  0  0  0  0  0  0  0  0
   -8.6320    3.2760  -80.1000 O   0  0  0  0  0  0  0  0  0  0  0  0
   -7.3080    2.4460  -78.3790 N   0  0  0  0  0  0  0  0  0  0  0  0
   -7.6430    2.0420  -77.0210 C   0  0  0  0  0  0  0  0  0  0  0  0
   -6.6780    1.5480  -79.1940 C   0  0  0  0  0  0  0  0  0  0  0  0
   -7.6890    0.9240  -80.0740 C   0  0  0  0  0  0  0  0  0  0  0  0
   -8.1270    1.6220  -81.3390 C   0  0  0  0  0  0  0  0  0  0  0  0
   -8.2250   -0.3050  -79.6960 C   0  0  0  0  0  0  0  0  0  0  0  0
   -9.1650    0.8430  -82.0830 C   0  0  0  0  0  0  0  0  0  0  0  0
   -9.1860   -0.9450  -80.4630 C   0  0  0  0  0  0  0  0  0  0  0  0
   -9.6480   -0.3800  -81.6370 C   0  0  0  0  0  0  0  0  0  0  0  0
  1  2  1  0
  3  2  1  0
  3  4  2  0
  3  5  2  0
  3  6  1  0
  6  7  1  0
  7  8  2  0
  7  9  1  0
  8 10  1  0
  9 11  2  0
 10 12  2  0
 11 12  1  0
 12 13  1  0
 13 14  1  0
 14 15  2  0
 14 16  1  0
 16 17  1  0
 16 18  1  0
 18 19  1  0
 19 20  2  0
 19 21  1  0
 20 22  1  0
 21 23  2  0
 22 24  2  0
 23 24  1  0
M  END
>  <ref_url>  (588) 
https://fakepage.com

>  <submitter_name>  (588) 
Steph Wills

>  <submitter_email>  (588) 
stephanie.wills@dtc.ox.ac.uk

>  <submitter_institution>  (588) 
University of Oxford

>  <generation_date>  (588) 
2020-06-04

>  <method>  (588) 
Fragment network

>  <ref_mols>  (588) 
x0183_0B,x0212_0B

>  <ref_pdb>  (588) 
references/x0183-0B-x0212-0B-124017.holo_minimised_nolig.pdb

>  <original SMILES>  (588) 
CCS(=O)(=O)Cc1ccc(NC(=O)N(C)Cc2ccccc2)cc1

>  <synthon>  (588) 
[Xe]c1ccccc1

>  <original_name>  (588) 
x0183-0B-x0212-0B-124017

>  <comRMSD_score>  (588) 
0.7230129602854566

>  <IF_score>  (588) 
0.55

>  <SuCOS_score>  (588) 
0.5295484306109282

>  <compound_ID>  (588) 
REAL:Z2296185880

$$$$

     RDKit          3D

 20 21  0  0  0  0  0  0  0  0999 V2000
  -12.7190    6.8940  -76.1290 C   0  0  0  0  0  0  0  0  0  0  0  0
  -13.4000    6.0410  -75.0250 C   0  0  0  0  0  0  0  0  0  0  0  0
  -12.8440    6.4600  -73.7020 C   0  0  0  0  0  0  0  0  0  0  0  0
  -13.1460    4.5350  -75.2660 C   0  0  0  0  0  0  0  0  0  0  0  0
  -12.1130    4.1400  -76.0970 C   0  0  0  0  0  0  0  0  0  0  0  0
  -11.9210    4.6650  -77.3450 C   0  0  0  0  0  0  0  0  0  0  0  0
  -11.2120    3.1800  -75.7000 C   0  0  0  0  0  0  0  0  0  0  0  0
  -10.8030    4.2500  -78.2800 C   0  0  0  0  0  0  0  0  0  0  0  0
  -10.1560    2.7300  -76.4890 C   0  0  0  0  0  0  0  0  0  0  0  0
   -9.8140    3.1570  -77.8050 C   0  0  0  0  0  0  0  0  0  0  0  0
   -8.9300    2.4430  -77.8600 N   0  0  0  0  0  0  0  0  0  0  0  0
   -7.6240    2.7900  -77.8870 C   0  0  0  0  0  0  0  0  0  0  0  0
   -7.0270    3.2980  -76.9690 O   0  0  0  0  0  0  0  0  0  0  0  0
   -7.0040    2.4660  -79.2130 C   0  0  0  0  0  0  0  0  0  0  0  0
   -7.7780    1.6000  -79.9970 C   0  0  0  0  0  0  0  0  0  0  0  0
   -8.1910    1.9850  -81.2820 C   0  0  0  0  0  0  0  0  0  0  0  0
   -8.1490    0.3380  -79.4940 C   0  0  0  0  0  0  0  0  0  0  0  0
   -8.9600    1.1210  -82.0440 C   0  0  0  0  0  0  0  0  0  0  0  0
   -8.9220   -0.5280  -80.2650 C   0  0  0  0  0  0  0  0  0  0  0  0
   -9.3040   -0.1070  -81.5180 C   0  0  0  0  0  0  0  0  0  0  0  0
  1  2  1  0
  2  3  1  0
  2  4  1  0
  4  5  1  0
  5  6  2  0
  5  7  1  0
  6  8  1  0
  7  9  2  0
  8 10  2  0
  9 10  1  0
 10 11  1  0
 11 12  1  0
 12 13  2  0
 12 14  1  0
 14 15  1  0
 15 16  2  0
 15 17  1  0
 16 18  1  0
 17 19  2  0
 18 20  2  0
 19 20  1  0
M  END
>  <ref_url>  (589) 
https://fakepage.com

>  <submitter_name>  (589) 
Steph Wills

>  <submitter_email>  (589) 
stephanie.wills@dtc.ox.ac.uk

>  <submitter_institution>  (589) 
University of Oxford

>  <generation_date>  (589) 
2020-06-04

>  <method>  (589) 
Fragment network

>  <ref_mols>  (589) 
x0183_0B,x0212_0B

>  <ref_pdb>  (589) 
references/x0183-0B-x0212-0B-124398.holo_minimised_nolig.pdb

>  <original SMILES>  (589) 
CC(C)Cc1ccc(NC(=O)Cc2ccccc2)cc1

>  <synthon>  (589) 
[Xe]c1ccccc1

>  <original_name>  (589) 
x0183-0B-x0212-0B-124398

>  <comRMSD_score>  (589) 
0.6036002785753959

>  <IF_score>  (589) 
0.55

>  <SuCOS_score>  (589) 
0.5343960781960682

>  <compound_ID>  (589) 
REAL:PV-001800655555

$$$$

     RDKit          3D

 25 26  0  0  0  0  0  0  0  0999 V2000
  -11.7800    6.1910  -73.6190 C   0  0  0  0  0  0  0  0  0  0  0  0
  -13.2750    6.3060  -73.8240 C   0  0  0  0  0  0  0  0  0  0  0  0
  -13.6580    5.7690  -75.1260 O   0  0  0  0  0  0  0  0  0  0  0  0
  -13.4550    4.4260  -75.3870 C   0  0  0  0  0  0  0  0  0  0  0  0
  -14.1850    3.5180  -75.0200 O   0  0  0  0  0  0  0  0  0  0  0  0
  -12.3000    4.2710  -76.1620 C   0  0  0  0  0  0  0  0  0  0  0  0
  -12.2350    4.8390  -77.4330 C   0  0  0  0  0  0  0  0  0  0  0  0
  -11.1980    3.5440  -75.6800 C   0  0  0  0  0  0  0  0  0  0  0  0
  -11.0150    4.6640  -78.2330 C   0  0  0  0  0  0  0  0  0  0  0  0
  -10.0420    3.3890  -76.4540 C   0  0  0  0  0  0  0  0  0  0  0  0
   -9.9540    3.9550  -77.7310 C   0  0  0  0  0  0  0  0  0  0  0  0
   -8.7310    3.7930  -78.5140 N   0  0  0  0  0  0  0  0  0  0  0  0
   -7.6200    3.7440  -77.5800 C   0  0  0  0  0  0  0  0  0  0  0  0
   -6.4530    4.1140  -77.6380 O   0  0  0  0  0  0  0  0  0  0  0  0
   -7.9370    3.1130  -76.4130 C   0  0  0  0  0  0  0  0  0  0  0  0
   -8.0700    1.6580  -76.7560 C   0  0  0  0  0  0  0  0  0  0  0  0
   -7.0000    1.3360  -77.6160 N   0  0  0  0  0  0  0  0  0  0  0  0
   -6.9260    1.9210  -78.9600 C   0  0  0  0  0  0  0  0  0  0  0  0
   -6.1730    2.8400  -79.2930 O   0  0  0  0  0  0  0  0  0  0  0  0
   -7.8340    1.2920  -79.9810 C   0  0  0  0  0  0  0  0  0  0  0  0
   -8.3700   -0.0490  -79.5470 C   0  0  0  0  0  0  0  0  0  0  0  0
   -8.2000    1.8120  -81.2270 C   0  0  0  0  0  0  0  0  0  0  0  0
   -9.2080   -0.7180  -80.4080 C   0  0  0  0  0  0  0  0  0  0  0  0
   -9.0540    1.0710  -82.0480 C   0  0  0  0  0  0  0  0  0  0  0  0
   -9.5520   -0.1770  -81.6410 C   0  0  0  0  0  0  0  0  0  0  0  0
  1  2  1  0
  2  3  1  0
  3  4  1  0
  4  5  2  0
  4  6  1  0
  6  7  2  0
  6  8  1  0
  7  9  1  0
  8 10  2  0
  9 11  2  0
 10 11  1  0
 11 12  1  0
 12 13  1  0
 13 14  2  0
 13 15  1  0
 15 16  1  0
 16 17  1  0
 17 18  1  0
 18 19  2  0
 18 20  1  0
 20 21  2  0
 20 22  1  0
 21 23  1  0
 22 24  2  0
 23 25  2  0
 24 25  1  0
M  END
>  <ref_url>  (590) 
https://fakepage.com

>  <submitter_name>  (590) 
Steph Wills

>  <submitter_email>  (590) 
stephanie.wills@dtc.ox.ac.uk

>  <submitter_institution>  (590) 
University of Oxford

>  <generation_date>  (590) 
2020-06-04

>  <method>  (590) 
Fragment network

>  <ref_mols>  (590) 
x0183_0B,x0212_0B

>  <ref_pdb>  (590) 
references/x0183-0B-x0212-0B-125503.holo_minimised_nolig.pdb

>  <original SMILES>  (590) 
CCOC(=O)c1ccc(NC(=O)CCNC(=O)c2ccccc2)cc1

>  <synthon>  (590) 
[Xe]c1ccccc1

>  <original_name>  (590) 
x0183-0B-x0212-0B-125503

>  <comRMSD_score>  (590) 
0.7084038657694045

>  <IF_score>  (590) 
0.55

>  <SuCOS_score>  (590) 
0.5150798458918832

>  <compound_ID>  (590) 
MOLPORT:009-029-367

$$$$

     RDKit          3D

 25 26  0  0  0  0  0  0  0  0999 V2000
  -11.7690    6.1640  -73.6120 C   0  0  0  0  0  0  0  0  0  0  0  0
  -13.2510    6.2360  -73.9300 C   0  0  0  0  0  0  0  0  0  0  0  0
  -13.7030    5.8230  -75.2430 O   0  0  0  0  0  0  0  0  0  0  0  0
  -13.6060    4.4910  -75.6230 C   0  0  0  0  0  0  0  0  0  0  0  0
  -14.5730    3.7630  -75.7860 O   0  0  0  0  0  0  0  0  0  0  0  0
  -12.3060    4.0280  -75.8070 C   0  0  0  0  0  0  0  0  0  0  0  0
  -11.4970    4.5460  -76.8070 C   0  0  0  0  0  0  0  0  0  0  0  0
  -11.8210    3.0300  -74.9710 C   0  0  0  0  0  0  0  0  0  0  0  0
  -10.1910    4.0540  -76.9310 C   0  0  0  0  0  0  0  0  0  0  0  0
  -10.5420    2.5550  -75.1060 C   0  0  0  0  0  0  0  0  0  0  0  0
   -9.6980    3.0600  -76.0710 C   0  0  0  0  0  0  0  0  0  0  0  0
   -8.3650    2.6040  -76.2160 N   0  0  0  0  0  0  0  0  0  0  0  0
   -7.3820    3.1620  -76.9720 C   0  0  0  0  0  0  0  0  0  0  0  0
   -5.9180    4.0540  -76.3570 S   0  0  0  0  0  0  0  0  0  0  0  0
   -7.6730    2.9440  -78.2860 N   0  0  0  0  0  0  0  0  0  0  0  0
   -6.8250    2.1700  -79.1890 C   0  0  0  0  0  0  0  0  0  0  0  0
   -9.1240    2.8700  -78.5240 C   0  0  0  0  0  0  0  0  0  0  0  0
   -7.6420    1.3490  -79.9560 C   0  0  0  0  0  0  0  0  0  0  0  0
   -9.6590    4.1020  -78.8690 C   0  0  0  0  0  0  0  0  0  0  0  0
   -9.9860    2.2550  -77.4130 C   0  0  0  0  0  0  0  0  0  0  0  0
   -8.1340    1.9130  -81.3300 C   0  0  0  0  0  0  0  0  0  0  0  0
   -8.0310    0.0750  -79.5450 C   0  0  0  0  0  0  0  0  0  0  0  0
   -8.9540    1.0590  -82.0780 C   0  0  0  0  0  0  0  0  0  0  0  0
   -8.8460   -0.6560  -80.3830 C   0  0  0  0  0  0  0  0  0  0  0  0
   -9.3090   -0.2150  -81.6100 C   0  0  0  0  0  0  0  0  0  0  0  0
  1  2  1  0
  2  3  1  0
  3  4  1  0
  4  5  2  0
  4  6  1  0
  6  7  2  0
  6  8  1  0
  7  9  1  0
  8 10  2  0
  9 11  2  0
 10 11  1  0
 11 12  1  0
 12 13  1  0
 13 14  2  0
 13 15  1  0
 15 16  1  0
 15 17  1  0
 16 18  1  0
 17 19  1  0
 17 20  1  0
 18 21  2  0
 18 22  1  0
 21 23  1  0
 22 24  2  0
 23 25  2  0
 24 25  1  0
M  END
>  <ref_url>  (591) 
https://fakepage.com

>  <submitter_name>  (591) 
Steph Wills

>  <submitter_email>  (591) 
stephanie.wills@dtc.ox.ac.uk

>  <submitter_institution>  (591) 
University of Oxford

>  <generation_date>  (591) 
2020-06-04

>  <method>  (591) 
Fragment network

>  <ref_mols>  (591) 
x0183_0B,x0212_0B

>  <ref_pdb>  (591) 
references/x0183-0B-x0212-0B-125883.holo_minimised_nolig.pdb

>  <original SMILES>  (591) 
CCOC(=O)c1ccc(NC(=S)N(Cc2ccccc2)C(C)C)cc1

>  <synthon>  (591) 
[Xe]c1ccccc1

>  <original_name>  (591) 
x0183-0B-x0212-0B-125883

>  <comRMSD_score>  (591) 
0.7603599293901688

>  <IF_score>  (591) 
0.55

>  <SuCOS_score>  (591) 
0.5095140096908395

>  <compound_ID>  (591) 
MOLPORT:002-917-819

$$$$

     RDKit          3D

 21 22  0  0  0  0  0  0  0  0999 V2000
  -12.8060    6.4090  -73.8470 C   0  0  0  0  0  0  0  0  0  0  0  0
  -13.3340    6.0150  -75.0420 N   0  0  0  0  0  0  0  0  0  0  0  0
  -13.5790    4.6180  -75.4280 C   0  0  0  0  0  0  0  0  0  0  0  0
  -12.5400    4.1440  -76.2000 C   0  0  0  0  0  0  0  0  0  0  0  0
  -12.2940    4.7460  -77.4100 C   0  0  0  0  0  0  0  0  0  0  0  0
  -11.7210    3.0740  -75.8140 C   0  0  0  0  0  0  0  0  0  0  0  0
  -11.3010    4.3300  -78.2300 C   0  0  0  0  0  0  0  0  0  0  0  0
  -10.6970    2.6480  -76.6650 C   0  0  0  0  0  0  0  0  0  0  0  0
  -10.4880    3.2820  -77.8970 C   0  0  0  0  0  0  0  0  0  0  0  0
   -9.4980    2.8340  -78.6380 O   0  0  0  0  0  0  0  0  0  0  0  0
   -8.5240    3.7820  -78.3800 C   0  0  0  0  0  0  0  0  0  0  0  0
   -7.6480    3.2580  -77.2670 C   0  0  0  0  0  0  0  0  0  0  0  0
   -7.0900    2.0420  -77.8370 N   0  0  0  0  0  0  0  0  0  0  0  0
   -6.1150    1.3950  -76.9450 C   0  0  0  0  0  0  0  0  0  0  0  0
   -6.6590    2.3040  -79.2420 C   0  0  0  0  0  0  0  0  0  0  0  0
   -7.4690    1.4670  -80.0040 C   0  0  0  0  0  0  0  0  0  0  0  0
   -7.8210    0.0780  -79.5200 C   0  0  0  0  0  0  0  0  0  0  0  0
   -7.9910    1.8680  -81.2580 C   0  0  0  0  0  0  0  0  0  0  0  0
   -8.6830   -0.7890  -80.3860 C   0  0  0  0  0  0  0  0  0  0  0  0
   -8.7980    0.9970  -82.0330 C   0  0  0  0  0  0  0  0  0  0  0  0
   -9.1260   -0.2980  -81.5940 C   0  0  0  0  0  0  0  0  0  0  0  0
  1  2  1  0
  2  3  1  0
  3  4  1  0
  4  5  2  0
  4  6  1  0
  5  7  1  0
  6  8  2  0
  7  9  2  0
  8  9  1  0
  9 10  1  0
 10 11  1  0
 11 12  1  0
 12 13  1  0
 13 14  1  0
 13 15  1  0
 15 16  1  0
 16 17  2  0
 16 18  1  0
 17 19  1  0
 18 20  2  0
 19 21  2  0
 20 21  1  0
M  END
>  <ref_url>  (592) 
https://fakepage.com

>  <submitter_name>  (592) 
Steph Wills

>  <submitter_email>  (592) 
stephanie.wills@dtc.ox.ac.uk

>  <submitter_institution>  (592) 
University of Oxford

>  <generation_date>  (592) 
2020-06-04

>  <method>  (592) 
Fragment network

>  <ref_mols>  (592) 
x0183_0B,x0212_0B

>  <ref_pdb>  (592) 
references/x0183-0B-x0212-0B-125898.holo_minimised_nolig.pdb

>  <original SMILES>  (592) 
CNCc1ccc(OCCN(C)Cc2ccccc2)cc1

>  <synthon>  (592) 
[Xe]c1ccccc1

>  <original_name>  (592) 
x0183-0B-x0212-0B-125898

>  <comRMSD_score>  (592) 
0.8479983839956651

>  <IF_score>  (592) 
0.425

>  <SuCOS_score>  (592) 
0.4822036149349674

>  <compound_ID>  (592) 
CHEMSPACE-BB:CSMB00011673703

$$$$

     RDKit          3D

 27 28  0  0  0  0  0  0  0  0999 V2000
  -12.3330    7.9660  -76.1430 C   0  0  0  0  0  0  0  0  0  0  0  0
  -13.8510    8.1810  -75.9560 C   0  0  0  0  0  0  0  0  0  0  0  0
  -14.4790    6.8950  -75.5370 C   0  0  0  0  0  0  0  0  0  0  0  0
  -13.4760    5.8930  -75.0940 N   0  0  0  0  0  0  0  0  0  0  0  0
  -12.9400    6.1600  -73.7660 C   0  0  0  0  0  0  0  0  0  0  0  0
  -13.7500    4.2630  -75.4380 S   0  0  0  0  0  0  0  0  0  0  0  0
  -13.2930    5.0640  -72.9710 C   0  0  0  0  0  0  0  0  0  0  0  0
  -14.7580    4.1110  -76.4480 O   0  0  0  0  0  0  0  0  0  0  0  0
  -13.8040    3.5220  -74.2010 O   0  0  0  0  0  0  0  0  0  0  0  0
  -12.1960    3.9040  -76.2330 C   0  0  0  0  0  0  0  0  0  0  0  0
  -12.4900    4.5040  -71.9870 C   0  0  0  0  0  0  0  0  0  0  0  0
  -11.2160    2.9570  -75.5650 C   0  0  0  0  0  0  0  0  0  0  0  0
  -11.8720    4.4960  -77.4820 C   0  0  0  0  0  0  0  0  0  0  0  0
   -9.9340    2.6830  -76.2790 C   0  0  0  0  0  0  0  0  0  0  0  0
  -10.6650    4.2290  -78.1390 C   0  0  0  0  0  0  0  0  0  0  0  0
   -9.7160    3.3560  -77.5840 C   0  0  0  0  0  0  0  0  0  0  0  0
   -8.4910    3.0570  -78.2290 N   0  0  0  0  0  0  0  0  0  0  0  0
   -7.4210    2.5110  -77.5530 C   0  0  0  0  0  0  0  0  0  0  0  0
   -7.4690    2.0210  -76.2770 O   0  0  0  0  0  0  0  0  0  0  0  0
   -6.3140    2.5310  -78.3570 C   0  0  0  0  0  0  0  0  0  0  0  0
   -6.2910    1.9580  -79.6090 C   0  0  0  0  0  0  0  0  0  0  0  0
   -7.3210    1.2700  -80.2440 C   0  0  0  0  0  0  0  0  0  0  0  0
   -8.0040    1.8430  -81.4470 C   0  0  0  0  0  0  0  0  0  0  0  0
   -7.7460    0.0150  -79.7850 C   0  0  0  0  0  0  0  0  0  0  0  0
   -9.0050    1.1050  -82.0600 C   0  0  0  0  0  0  0  0  0  0  0  0
   -8.7610   -0.6790  -80.4370 C   0  0  0  0  0  0  0  0  0  0  0  0
   -9.3800   -0.1440  -81.5640 C   0  0  0  0  0  0  0  0  0  0  0  0
  1  2  1  0
  2  3  1  0
  3  4  1  0
  4  5  1  0
  6  4  1  0
  5  7  1  0
  6  8  2  0
  6  9  2  0
  6 10  1  0
  7 11  1  0
 10 12  2  0
 10 13  1  0
 12 14  1  0
 13 15  2  0
 14 16  2  0
 15 16  1  0
 16 17  1  0
 17 18  1  0
 18 19  2  0
 18 20  1  0
 20 21  2  3
 21 22  1  0
 22 23  2  0
 22 24  1  0
 23 25  1  0
 24 26  2  0
 25 27  2  0
 26 27  1  0
M  END
>  <ref_url>  (593) 
https://fakepage.com

>  <submitter_name>  (593) 
Steph Wills

>  <submitter_email>  (593) 
stephanie.wills@dtc.ox.ac.uk

>  <submitter_institution>  (593) 
University of Oxford

>  <generation_date>  (593) 
2020-06-04

>  <method>  (593) 
Fragment network

>  <ref_mols>  (593) 
x0183_0B,x0212_0B

>  <ref_pdb>  (593) 
references/x0183-0B-x0212-0B-126244.holo_minimised_nolig.pdb

>  <original SMILES>  (593) 
CCCN(CCC)S(=O)(=O)c1ccc(NC(=O)C=Cc2ccccc2)cc1

>  <synthon>  (593) 
[Xe]c1ccccc1

>  <original_name>  (593) 
x0183-0B-x0212-0B-126244

>  <comRMSD_score>  (593) 
0.6350710954659295

>  <IF_score>  (593) 
0.55

>  <SuCOS_score>  (593) 
0.4874951619441143

>  <compound_ID>  (593) 
MOLPORT:001-577-651

$$$$

     RDKit          3D

 22 23  0  0  0  0  0  0  0  0999 V2000
  -12.8830    6.2140  -73.6750 C   0  0  0  0  0  0  0  0  0  0  0  0
  -13.5590    5.0750  -74.2430 O   0  0  0  0  0  0  0  0  0  0  0  0
  -13.7390    4.9950  -75.5890 C   0  0  0  0  0  0  0  0  0  0  0  0
  -12.4570    4.5950  -76.2940 C   0  0  0  0  0  0  0  0  0  0  0  0
  -12.1150    5.0650  -77.5700 C   0  0  0  0  0  0  0  0  0  0  0  0
  -11.6020    3.7270  -75.6530 C   0  0  0  0  0  0  0  0  0  0  0  0
  -10.9470    4.6850  -78.2130 C   0  0  0  0  0  0  0  0  0  0  0  0
  -10.4400    3.3170  -76.2360 C   0  0  0  0  0  0  0  0  0  0  0  0
  -10.0630    3.7600  -77.5050 C   0  0  0  0  0  0  0  0  0  0  0  0
   -9.6810    2.4080  -75.4310 N   0  0  0  0  0  0  0  0  0  0  0  0
   -9.4800    1.2000  -76.1710 C   0  0  0  0  0  0  0  0  0  0  0  0
   -9.9170   -0.1440  -75.9330 O   0  0  0  0  0  0  0  0  0  0  0  0
   -8.7510    1.3950  -77.3080 C   0  0  0  0  0  0  0  0  0  0  0  0
   -7.9970    2.7250  -77.2570 C   0  0  0  0  0  0  0  0  0  0  0  0
   -6.7740    2.5970  -77.9140 N   0  0  0  0  0  0  0  0  0  0  0  0
   -6.8230    2.6050  -79.3680 C   0  0  0  0  0  0  0  0  0  0  0  0
   -7.6950    1.5550  -80.0360 C   0  0  0  0  0  0  0  0  0  0  0  0
   -8.2530    1.9570  -81.3620 C   0  0  0  0  0  0  0  0  0  0  0  0
   -8.0150    0.2840  -79.5410 C   0  0  0  0  0  0  0  0  0  0  0  0
   -9.0550    1.0880  -82.0620 C   0  0  0  0  0  0  0  0  0  0  0  0
   -8.8400   -0.5710  -80.2870 C   0  0  0  0  0  0  0  0  0  0  0  0
   -9.3500   -0.1760  -81.5250 C   0  0  0  0  0  0  0  0  0  0  0  0
  1  2  1  0
  2  3  1  0
  3  4  1  0
  4  5  2  0
  4  6  1  0
  5  7  1  0
  6  8  2  0
  7  9  2  0
  8  9  1  0
  8 10  1  0
 10 11  1  0
 11 12  2  0
 11 13  1  0
 13 14  1  0
 14 15  1  0
 15 16  1  0
 16 17  1  0
 17 18  2  0
 17 19  1  0
 18 20  1  0
 19 21  2  0
 20 22  2  0
 21 22  1  0
M  END
>  <ref_url>  (594) 
https://fakepage.com

>  <submitter_name>  (594) 
Steph Wills

>  <submitter_email>  (594) 
stephanie.wills@dtc.ox.ac.uk

>  <submitter_institution>  (594) 
University of Oxford

>  <generation_date>  (594) 
2020-06-04

>  <method>  (594) 
Fragment network

>  <ref_mols>  (594) 
x0183_0B,x0212_0B

>  <ref_pdb>  (594) 
references/x0183-0B-x0212-0B-126359.holo_minimised_nolig.pdb

>  <original SMILES>  (594) 
COCc1cccc(NC(=O)CCNCc2ccccc2)c1

>  <synthon>  (594) 
[Xe]c1ccccc1

>  <original_name>  (594) 
x0183-0B-x0212-0B-126359

>  <comRMSD_score>  (594) 
0.7737845905628981

>  <IF_score>  (594) 
0.425

>  <SuCOS_score>  (594) 
0.5098123906126695

>  <compound_ID>  (594) 
CHEMSPACE-BB:CSMB00022152227

$$$$

     RDKit          3D

 21 22  0  0  0  0  0  0  0  0999 V2000
  -12.7550    6.6140  -73.6830 C   0  0  0  0  0  0  0  0  0  0  0  0
  -13.2260    6.1530  -74.8980 N   0  0  0  0  0  0  0  0  0  0  0  0
  -13.4260    4.7310  -75.0320 C   0  0  0  0  0  0  0  0  0  0  0  0
  -12.4270    4.0610  -75.9410 C   0  0  0  0  0  0  0  0  0  0  0  0
  -12.0850    4.5410  -77.2160 C   0  0  0  0  0  0  0  0  0  0  0  0
  -11.8580    2.8990  -75.4430 C   0  0  0  0  0  0  0  0  0  0  0  0
  -11.1950    3.8680  -78.0310 C   0  0  0  0  0  0  0  0  0  0  0  0
  -10.9750    2.1840  -76.1990 C   0  0  0  0  0  0  0  0  0  0  0  0
  -10.6460    2.6160  -77.4610 C   0  0  0  0  0  0  0  0  0  0  0  0
   -9.8150    1.7250  -77.9720 O   0  0  0  0  0  0  0  0  0  0  0  0
   -8.6150    1.8110  -77.2690 C   0  0  0  0  0  0  0  0  0  0  0  0
   -7.9840    2.9400  -77.6640 C   0  0  0  0  0  0  0  0  0  0  0  0
   -8.8140    4.0930  -77.6680 O   0  0  0  0  0  0  0  0  0  0  0  0
   -6.7000    2.8740  -78.0720 N   0  0  0  0  0  0  0  0  0  0  0  0
   -6.4670    2.6180  -79.4840 C   0  0  0  0  0  0  0  0  0  0  0  0
   -7.4380    1.5800  -80.0880 C   0  0  0  0  0  0  0  0  0  0  0  0
   -8.0830    2.0110  -81.3610 C   0  0  0  0  0  0  0  0  0  0  0  0
   -7.7540    0.2950  -79.5650 C   0  0  0  0  0  0  0  0  0  0  0  0
   -9.0270    1.1110  -82.0720 C   0  0  0  0  0  0  0  0  0  0  0  0
   -8.6540   -0.5730  -80.2280 C   0  0  0  0  0  0  0  0  0  0  0  0
   -9.2850   -0.2310  -81.4300 C   0  0  0  0  0  0  0  0  0  0  0  0
  1  2  1  0
  2  3  1  0
  3  4  1  0
  4  5  2  0
  4  6  1  0
  5  7  1  0
  6  8  2  0
  7  9  2  0
  8  9  1  0
  9 10  1  0
 10 11  1  0
 11 12  1  0
 12 13  2  0
 12 14  1  0
 14 15  1  0
 15 16  1  0
 16 17  2  0
 16 18  1  0
 17 19  1  0
 18 20  2  0
 19 21  2  0
 20 21  1  0
M  END
>  <ref_url>  (595) 
https://fakepage.com

>  <submitter_name>  (595) 
Steph Wills

>  <submitter_email>  (595) 
stephanie.wills@dtc.ox.ac.uk

>  <submitter_institution>  (595) 
University of Oxford

>  <generation_date>  (595) 
2020-06-04

>  <method>  (595) 
Fragment network

>  <ref_mols>  (595) 
x0183_0B,x0212_0B

>  <ref_pdb>  (595) 
references/x0183-0B-x0212-0B-126681.holo_minimised_nolig.pdb

>  <original SMILES>  (595) 
CNCc1ccc(OCC(=O)NCc2ccccc2)cc1

>  <synthon>  (595) 
[Xe]c1ccccc1

>  <original_name>  (595) 
x0183-0B-x0212-0B-126681

>  <comRMSD_score>  (595) 
0.9054625582786094

>  <IF_score>  (595) 
0.525

>  <SuCOS_score>  (595) 
0.4471783040863621

>  <compound_ID>  (595) 
CHEMSPACE-BB:CSMB00011285671

$$$$

     RDKit          3D

 26 29  0  0  0  0  0  0  0  0999 V2000
   -6.8850    2.6380  -79.0020 C   0  0  0  0  0  0  0  0  0  0  0  0
   -7.7690    1.7570  -79.7950 C   0  0  0  0  0  0  0  0  0  0  0  0
   -8.1170    2.0100  -81.1060 C   0  0  0  0  0  0  0  0  0  0  0  0
   -8.3030    0.6060  -79.2230 C   0  0  0  0  0  0  0  0  0  0  0  0
   -8.9370    1.1920  -81.8340 C   0  0  0  0  0  0  0  0  0  0  0  0
   -9.1560   -0.2670  -79.9200 C   0  0  0  0  0  0  0  0  0  0  0  0
   -9.4700    0.0380  -81.2480 C   0  0  0  0  0  0  0  0  0  0  0  0
   -9.6990   -1.4100  -79.3210 N   0  0  0  0  0  0  0  0  0  0  0  0
   -9.2490   -1.8850  -78.0970 C   0  0  0  0  0  0  0  0  0  0  0  0
  -11.1410   -1.2350  -79.2330 C   0  0  0  0  0  0  0  0  0  0  0  0
   -9.3340   -0.8580  -77.1440 N   0  0  0  0  0  0  0  0  0  0  0  0
  -11.3240   -0.1180  -78.3570 N   0  0  0  0  0  0  0  0  0  0  0  0
  -10.4450    0.0940  -77.3010 C   0  0  0  0  0  0  0  0  0  0  0  0
  -12.6110    0.5710  -78.1530 C   0  0  0  0  0  0  0  0  0  0  0  0
  -10.9010    1.5420  -76.3140 S   0  0  0  0  0  0  0  0  0  0  0  0
  -12.5310    1.5260  -77.0920 C   0  0  0  0  0  0  0  0  0  0  0  0
  -13.6390    0.3610  -78.7880 O   0  0  0  0  0  0  0  0  0  0  0  0
  -13.6750    2.3030  -76.7890 C   0  0  0  0  0  0  0  0  0  0  0  0
  -13.8230    3.2650  -75.8000 C   0  0  0  0  0  0  0  0  0  0  0  0
  -12.7370    4.2660  -75.5520 C   0  0  0  0  0  0  0  0  0  0  0  0
  -11.4820    4.1420  -76.3940 C   0  0  0  0  0  0  0  0  0  0  0  0
  -11.4530    4.6300  -77.7040 C   0  0  0  0  0  0  0  0  0  0  0  0
  -10.3570    3.5270  -75.8600 C   0  0  0  0  0  0  0  0  0  0  0  0
  -10.2930    4.4930  -78.4720 C   0  0  0  0  0  0  0  0  0  0  0  0
   -9.2140    3.3970  -76.6360 C   0  0  0  0  0  0  0  0  0  0  0  0
   -9.1780    3.8750  -77.9350 C   0  0  0  0  0  0  0  0  0  0  0  0
  1  2  1  0
  2  3  2  0
  2  4  1  0
  3  5  1  0
  4  6  2  0
  5  7  2  0
  6  7  1  0
  6  8  1  0
  8  9  1  0
  8 10  1  0
  9 11  1  0
 10 12  1  0
 11 13  2  0
 12 13  1  0
 12 14  1  0
 13 15  1  0
 14 16  1  0
 15 16  1  0
 14 17  2  0
 16 18  2  3
 18 19  1  0
 19 20  2  3
 20 21  1  0
 21 22  2  0
 21 23  1  0
 22 24  1  0
 23 25  2  0
 24 26  2  0
 25 26  1  0
M  END
>  <ref_url>  (596) 
https://fakepage.com

>  <submitter_name>  (596) 
Steph Wills

>  <submitter_email>  (596) 
stephanie.wills@dtc.ox.ac.uk

>  <submitter_institution>  (596) 
University of Oxford

>  <generation_date>  (596) 
2020-06-04

>  <method>  (596) 
Fragment network

>  <ref_mols>  (596) 
x0183_0B,x0212_0B

>  <ref_pdb>  (596) 
references/x0183-0B-x0212-0B-127270.holo_minimised_nolig.pdb

>  <original SMILES>  (596) 
Cc1cccc(N2CN=c3sc(=CC=Cc4ccccc4)c(=O)n3C2)c1

>  <synthon>  (596) 
[Xe]c1ccccc1

>  <original_name>  (596) 
x0183-0B-x0212-0B-127270

>  <comRMSD_score>  (596) 
0.8826163428668495

>  <IF_score>  (596) 
0.55

>  <SuCOS_score>  (596) 
0.4722151688142797

>  <compound_ID>  (596) 
MOLPORT:002-593-044

$$$$

     RDKit          3D

 23 24  0  0  0  0  0  0  0  0999 V2000
  -13.4550    0.5450  -83.6800 C   0  0  0  0  0  0  0  0  0  0  0  0
  -13.4280   -0.9710  -83.8550 C   0  0  0  0  0  0  0  0  0  0  0  0
  -13.1580   -1.2400  -85.3400 C   0  0  0  0  0  0  0  0  0  0  0  0
  -12.3310   -1.6150  -82.9860 C   0  0  0  0  0  0  0  0  0  0  0  0
  -11.6410   -0.7540  -82.1190 C   0  0  0  0  0  0  0  0  0  0  0  0
  -10.8060   -1.3060  -81.3940 O   0  0  0  0  0  0  0  0  0  0  0  0
   -9.8440   -0.3920  -80.8340 C   0  0  0  0  0  0  0  0  0  0  0  0
   -9.0740   -0.8080  -79.7690 C   0  0  0  0  0  0  0  0  0  0  0  0
   -9.6930    0.8690  -81.3490 C   0  0  0  0  0  0  0  0  0  0  0  0
   -8.1400    0.0610  -79.2060 C   0  0  0  0  0  0  0  0  0  0  0  0
   -8.7490    1.7560  -80.8030 C   0  0  0  0  0  0  0  0  0  0  0  0
   -7.9820    1.3580  -79.7300 C   0  0  0  0  0  0  0  0  0  0  0  0
   -7.0480    2.2000  -79.1210 N   0  0  0  0  0  0  0  0  0  0  0  0
   -7.3480    2.9600  -78.0110 C   0  0  0  0  0  0  0  0  0  0  0  0
   -6.4820    3.7720  -77.6930 O   0  0  0  0  0  0  0  0  0  0  0  0
   -8.5840    2.6730  -77.4030 N   0  0  0  0  0  0  0  0  0  0  0  0
   -8.6110    1.6220  -76.4310 C   0  0  0  0  0  0  0  0  0  0  0  0
   -9.6990    3.4680  -77.1040 C   0  0  0  0  0  0  0  0  0  0  0  0
  -10.4000    3.0690  -75.8250 C   0  0  0  0  0  0  0  0  0  0  0  0
  -10.2350    4.5390  -77.8220 C   0  0  0  0  0  0  0  0  0  0  0  0
  -11.5000    3.6890  -75.3490 C   0  0  0  0  0  0  0  0  0  0  0  0
  -11.3870    5.1820  -77.3190 C   0  0  0  0  0  0  0  0  0  0  0  0
  -11.9530    4.7310  -76.1200 C   0  0  0  0  0  0  0  0  0  0  0  0
  1  2  1  0
  2  3  1  0
  2  4  1  0
  4  5  1  0
  5  6  1  0
  6  7  1  0
  7  8  2  0
  7  9  1  0
  8 10  1  0
  9 11  2  0
 10 12  2  0
 11 12  1  0
 12 13  1  0
 13 14  1  0
 14 15  2  0
 14 16  1  0
 16 17  1  0
 16 18  1  0
 18 19  2  0
 18 20  1  0
 19 21  1  0
 20 22  2  0
 21 23  2  0
 22 23  1  0
M  END
>  <ref_url>  (597) 
https://fakepage.com

>  <submitter_name>  (597) 
Steph Wills

>  <submitter_email>  (597) 
stephanie.wills@dtc.ox.ac.uk

>  <submitter_institution>  (597) 
University of Oxford

>  <generation_date>  (597) 
2020-06-04

>  <method>  (597) 
Fragment network

>  <ref_mols>  (597) 
x0183_0B,x0212_0B

>  <ref_pdb>  (597) 
references/x0183-0B-x0212-0B-127405.holo_minimised_nolig.pdb

>  <original SMILES>  (597) 
CC(C)CCOc1ccc(NC(=O)N(C)c2ccccc2)cc1

>  <synthon>  (597) 
[Xe]c1ccccc1

>  <original_name>  (597) 
x0183-0B-x0212-0B-127405

>  <comRMSD_score>  (597) 
0.9643866296400884

>  <IF_score>  (597) 
0.5

>  <SuCOS_score>  (597) 
0.3356381066968787

>  <compound_ID>  (597) 
REAL:PV-001943836726

$$$$

     RDKit          3D

 20 21  0  0  0  0  0  0  0  0999 V2000
  -12.7160    6.1740  -73.6350 C   0  0  0  0  0  0  0  0  0  0  0  0
  -13.4750    5.4220  -74.7090 C   0  0  0  0  0  0  0  0  0  0  0  0
  -12.9890    4.0990  -75.2370 C   0  0  0  0  0  0  0  0  0  0  0  0
  -12.1040    4.1300  -76.3070 C   0  0  0  0  0  0  0  0  0  0  0  0
  -12.5760    4.8130  -77.3900 C   0  0  0  0  0  0  0  0  0  0  0  0
  -10.8180    3.5500  -76.3970 C   0  0  0  0  0  0  0  0  0  0  0  0
  -11.8350    4.9320  -78.5140 C   0  0  0  0  0  0  0  0  0  0  0  0
  -10.0680    3.6850  -77.5510 C   0  0  0  0  0  0  0  0  0  0  0  0
  -10.2720    2.8550  -75.4140 O   0  0  0  0  0  0  0  0  0  0  0  0
  -10.5710    4.3770  -78.6130 C   0  0  0  0  0  0  0  0  0  0  0  0
   -9.2370    2.0350  -75.9660 C   0  0  0  0  0  0  0  0  0  0  0  0
   -8.2160    2.8400  -76.5250 C   0  0  0  0  0  0  0  0  0  0  0  0
   -7.4610    2.1430  -77.5870 N   0  0  0  0  0  0  0  0  0  0  0  0
   -7.4140    2.4950  -78.9100 C   0  0  0  0  0  0  0  0  0  0  0  0
   -8.0330    1.6150  -79.7970 C   0  0  0  0  0  0  0  0  0  0  0  0
   -8.2770    1.9860  -81.1290 C   0  0  0  0  0  0  0  0  0  0  0  0
   -8.4190    0.3450  -79.3570 C   0  0  0  0  0  0  0  0  0  0  0  0
   -8.8970    1.0890  -81.9910 C   0  0  0  0  0  0  0  0  0  0  0  0
   -9.0400   -0.5470  -80.2230 C   0  0  0  0  0  0  0  0  0  0  0  0
   -9.2800   -0.1720  -81.5410 C   0  0  0  0  0  0  0  0  0  0  0  0
  1  2  1  0
  2  3  1  0
  3  4  1  0
  4  5  2  0
  4  6  1  0
  5  7  1  0
  6  8  2  0
  6  9  1  0
  7 10  2  0
  8 10  1  0
  9 11  1  0
 11 12  1  0
 12 13  1  0
 13 14  1  0
 14 15  1  0
 15 16  2  0
 15 17  1  0
 16 18  1  0
 17 19  2  0
 18 20  2  0
 19 20  1  0
M  END
>  <ref_url>  (598) 
https://fakepage.com

>  <submitter_name>  (598) 
Steph Wills

>  <submitter_email>  (598) 
stephanie.wills@dtc.ox.ac.uk

>  <submitter_institution>  (598) 
University of Oxford

>  <generation_date>  (598) 
2020-06-04

>  <method>  (598) 
Fragment network

>  <ref_mols>  (598) 
x0183_0B,x0212_0B

>  <ref_pdb>  (598) 
references/x0183-0B-x0212-0B-127810.holo_minimised_nolig.pdb

>  <original SMILES>  (598) 
CCCc1ccccc1OCCNCc1ccccc1

>  <synthon>  (598) 
[Xe]c1ccccc1

>  <original_name>  (598) 
x0183-0B-x0212-0B-127810

>  <comRMSD_score>  (598) 
0.8842061515950438

>  <IF_score>  (598) 
0.425

>  <SuCOS_score>  (598) 
0.5954255870493179

>  <compound_ID>  (598) 
CHEMSPACE-BB:CSMB00022688819

$$$$

     RDKit          3D

 22 23  0  0  0  0  0  0  0  0999 V2000
  -12.9070    6.1580  -73.7810 C   0  0  0  0  0  0  0  0  0  0  0  0
  -13.7440    5.6150  -74.8340 O   0  0  0  0  0  0  0  0  0  0  0  0
  -13.5480    4.3250  -75.2590 C   0  0  0  0  0  0  0  0  0  0  0  0
  -14.4080    3.2210  -75.0650 O   0  0  0  0  0  0  0  0  0  0  0  0
  -12.2440    4.2350  -76.0290 C   0  0  0  0  0  0  0  0  0  0  0  0
  -12.1820    4.8420  -77.2790 C   0  0  0  0  0  0  0  0  0  0  0  0
  -11.1400    3.5670  -75.4870 C   0  0  0  0  0  0  0  0  0  0  0  0
  -11.0130    4.8030  -77.9900 C   0  0  0  0  0  0  0  0  0  0  0  0
   -9.9390    3.5130  -76.1810 C   0  0  0  0  0  0  0  0  0  0  0  0
   -9.8460    4.1320  -77.4270 C   0  0  0  0  0  0  0  0  0  0  0  0
   -8.6710    4.1430  -78.1290 N   0  0  0  0  0  0  0  0  0  0  0  0
   -8.2130    3.3020  -79.0370 C   0  0  0  0  0  0  0  0  0  0  0  0
   -8.6050    3.2630  -80.3950 O   0  0  0  0  0  0  0  0  0  0  0  0
   -7.2920    2.5120  -78.3940 N   0  0  0  0  0  0  0  0  0  0  0  0
   -7.6070    2.1630  -77.0100 C   0  0  0  0  0  0  0  0  0  0  0  0
   -6.4710    1.6990  -79.2250 C   0  0  0  0  0  0  0  0  0  0  0  0
   -7.4730    1.0220  -80.1330 C   0  0  0  0  0  0  0  0  0  0  0  0
   -7.9460   -0.2900  -79.5950 C   0  0  0  0  0  0  0  0  0  0  0  0
   -7.9440    1.5320  -81.3570 C   0  0  0  0  0  0  0  0  0  0  0  0
   -8.9420   -1.0940  -80.3750 C   0  0  0  0  0  0  0  0  0  0  0  0
   -8.8590    0.8000  -82.0860 C   0  0  0  0  0  0  0  0  0  0  0  0
   -9.3590   -0.4400  -81.6710 C   0  0  0  0  0  0  0  0  0  0  0  0
  1  2  1  0
  2  3  1  0
  3  4  2  0
  3  5  1  0
  5  6  2  0
  5  7  1  0
  6  8  1  0
  7  9  2  0
  8 10  2  0
  9 10  1  0
 10 11  1  0
 11 12  1  0
 12 13  2  0
 12 14  1  0
 14 15  1  0
 14 16  1  0
 16 17  1  0
 17 18  2  0
 17 19  1  0
 18 20  1  0
 19 21  2  0
 20 22  2  0
 21 22  1  0
M  END
>  <ref_url>  (599) 
https://fakepage.com

>  <submitter_name>  (599) 
Steph Wills

>  <submitter_email>  (599) 
stephanie.wills@dtc.ox.ac.uk

>  <submitter_institution>  (599) 
University of Oxford

>  <generation_date>  (599) 
2020-06-04

>  <method>  (599) 
Fragment network

>  <ref_mols>  (599) 
x0183_0B,x0212_0B

>  <ref_pdb>  (599) 
references/x0183-0B-x0212-0B-127936.holo_minimised_nolig.pdb

>  <original SMILES>  (599) 
COC(=O)c1ccc(NC(=O)N(C)Cc2ccccc2)cc1

>  <synthon>  (599) 
[Xe]c1ccccc1

>  <original_name>  (599) 
x0183-0B-x0212-0B-127936

>  <comRMSD_score>  (599) 
0.7056079333139292

>  <IF_score>  (599) 
0.45

>  <SuCOS_score>  (599) 
0.4933446654572067

>  <compound_ID>  (599) 
REAL:Z433922236

$$$$

     RDKit          3D

 24 25  0  0  0  0  0  0  0  0999 V2000
  -12.6830    6.2240  -73.6230 C   0  0  0  0  0  0  0  0  0  0  0  0
  -13.1760    5.5630  -74.7970 O   0  0  0  0  0  0  0  0  0  0  0  0
  -12.7860    4.2710  -75.0370 C   0  0  0  0  0  0  0  0  0  0  0  0
  -13.2600    3.1140  -74.3820 O   0  0  0  0  0  0  0  0  0  0  0  0
  -11.8110    4.2460  -76.2160 C   0  0  0  0  0  0  0  0  0  0  0  0
  -12.4250    4.7510  -77.3520 C   0  0  0  0  0  0  0  0  0  0  0  0
  -10.4420    3.8120  -76.3280 C   0  0  0  0  0  0  0  0  0  0  0  0
  -11.7790    4.8420  -78.5460 C   0  0  0  0  0  0  0  0  0  0  0  0
   -9.7950    3.9010  -77.5510 C   0  0  0  0  0  0  0  0  0  0  0  0
   -9.6620    3.3510  -75.5270 O   0  0  0  0  0  0  0  0  0  0  0  0
  -10.3940    4.3940  -78.6660 C   0  0  0  0  0  0  0  0  0  0  0  0
   -8.5630    3.1110  -76.4390 C   0  0  0  0  0  0  0  0  0  0  0  0
   -7.0850    3.3560  -76.0390 C   0  0  0  0  0  0  0  0  0  0  0  0
   -6.4950    4.1830  -75.0740 N   0  0  0  0  0  0  0  0  0  0  0  0
   -6.1730    2.6580  -76.8210 N   0  0  0  0  0  0  0  0  0  0  0  0
   -6.6290    1.8620  -77.8130 N   0  0  0  0  0  0  0  0  0  0  0  0
   -6.9360    2.2850  -79.1140 C   0  0  0  0  0  0  0  0  0  0  0  0
   -6.5440    3.3400  -79.6140 O   0  0  0  0  0  0  0  0  0  0  0  0
   -7.7700    1.3750  -79.9630 C   0  0  0  0  0  0  0  0  0  0  0  0
   -8.1940    1.9060  -81.3070 C   0  0  0  0  0  0  0  0  0  0  0  0
   -8.1450    0.0980  -79.5630 C   0  0  0  0  0  0  0  0  0  0  0  0
   -8.9490    1.0740  -82.1010 C   0  0  0  0  0  0  0  0  0  0  0  0
   -8.9080   -0.6940  -80.4070 C   0  0  0  0  0  0  0  0  0  0  0  0
   -9.3000   -0.2120  -81.6540 C   0  0  0  0  0  0  0  0  0  0  0  0
  1  2  1  0
  2  3  1  0
  3  4  2  0
  3  5  1  0
  5  6  2  0
  5  7  1  0
  6  8  1  0
  7  9  2  0
  7 10  1  0
  8 11  2  0
  9 11  1  0
 10 12  1  0
 12 13  1  0
 13 14  1  0
 13 15  2  3
 15 16  1  0
 16 17  1  0
 17 18  2  0
 17 19  1  0
 19 20  2  0
 19 21  1  0
 20 22  1  0
 21 23  2  0
 22 24  2  0
 23 24  1  0
M  END
>  <ref_url>  (600) 
https://fakepage.com

>  <submitter_name>  (600) 
Steph Wills

>  <submitter_email>  (600) 
stephanie.wills@dtc.ox.ac.uk

>  <submitter_institution>  (600) 
University of Oxford

>  <generation_date>  (600) 
2020-06-04

>  <method>  (600) 
Fragment network

>  <ref_mols>  (600) 
x0183_0B,x0212_0B

>  <ref_pdb>  (600) 
references/x0183-0B-x0212-0B-128200.holo_minimised_nolig.pdb

>  <original SMILES>  (600) 
COC(=O)c1ccccc1OCC(N)=NNC(=O)c1ccccc1

>  <synthon>  (600) 
[Xe]c1ccccc1

>  <original_name>  (600) 
x0183-0B-x0212-0B-128200

>  <comRMSD_score>  (600) 
0.8777653444970359

>  <IF_score>  (600) 
0.425

>  <SuCOS_score>  (600) 
0.4676465177516077

>  <compound_ID>  (600) 
MOLPORT:002-870-759

$$$$

     RDKit          3D

 27 28  0  0  0  0  0  0  0  0999 V2000
  -13.1140    5.3940  -73.2410 N   0  0  0  0  0  0  0  0  0  0  0  0
  -13.5000    6.2590  -73.9070 C   0  0  0  0  0  0  0  0  0  0  0  0
  -13.7890    7.5200  -73.4740 N   0  0  0  0  0  0  0  0  0  0  0  0
  -13.6860    5.9290  -75.2270 N   0  0  0  0  0  0  0  0  0  0  0  0
  -13.7670    4.4020  -75.9150 S   0  0  0  0  0  0  0  0  0  0  0  0
  -14.6390    4.5740  -77.0550 O   0  0  0  0  0  0  0  0  0  0  0  0
  -14.0880    3.4520  -74.8850 O   0  0  0  0  0  0  0  0  0  0  0  0
  -12.0730    4.1120  -76.5000 C   0  0  0  0  0  0  0  0  0  0  0  0
  -11.1290    3.2370  -75.7270 C   0  0  0  0  0  0  0  0  0  0  0  0
  -11.6150    4.6930  -77.6720 C   0  0  0  0  0  0  0  0  0  0  0  0
   -9.7090    2.9730  -76.1780 C   0  0  0  0  0  0  0  0  0  0  0  0
  -10.3250    4.4790  -78.1200 C   0  0  0  0  0  0  0  0  0  0  0  0
   -9.3740    3.6830  -77.4650 C   0  0  0  0  0  0  0  0  0  0  0  0
   -8.1020    3.5580  -78.0210 N   0  0  0  0  0  0  0  0  0  0  0  0
   -7.6500    4.0110  -79.2350 C   0  0  0  0  0  0  0  0  0  0  0  0
   -8.9480    4.2020  -80.4080 S   0  0  0  0  0  0  0  0  0  0  0  0
   -6.3310    4.3170  -79.4470 N   0  0  0  0  0  0  0  0  0  0  0  0
   -5.2980    3.5370  -79.0950 C   0  0  0  0  0  0  0  0  0  0  0  0
   -4.1150    3.6260  -79.4360 O   0  0  0  0  0  0  0  0  0  0  0  0
   -5.6730    2.5390  -78.2490 C   0  0  0  0  0  0  0  0  0  0  0  0
   -6.7280    1.4720  -78.4950 C   0  0  0  0  0  0  0  0  0  0  0  0
   -7.6740    1.0730  -79.6650 C   0  0  0  0  0  0  0  0  0  0  0  0
   -7.8150    1.8260  -80.8510 C   0  0  0  0  0  0  0  0  0  0  0  0
   -8.3950   -0.1080  -79.4810 C   0  0  0  0  0  0  0  0  0  0  0  0
   -8.7630    1.2890  -81.8890 C   0  0  0  0  0  0  0  0  0  0  0  0
   -9.2700   -0.5870  -80.4450 C   0  0  0  0  0  0  0  0  0  0  0  0
   -9.4510    0.1000  -81.6330 C   0  0  0  0  0  0  0  0  0  0  0  0
  1  2  2  3
  2  3  1  0
  2  4  1  0
  5  4  1  0
  5  6  2  0
  5  7  2  0
  5  8  1  0
  8  9  2  0
  8 10  1  0
  9 11  1  0
 10 12  2  0
 11 13  2  0
 12 13  1  0
 13 14  1  0
 14 15  1  0
 15 16  2  0
 15 17  1  0
 17 18  1  0
 18 19  2  0
 18 20  1  0
 20 21  2  3
 21 22  1  0
 22 23  2  0
 22 24  1  0
 23 25  1  0
 24 26  2  0
 25 27  2  0
 26 27  1  0
M  END
>  <ref_url>  (601) 
https://fakepage.com

>  <submitter_name>  (601) 
Steph Wills

>  <submitter_email>  (601) 
stephanie.wills@dtc.ox.ac.uk

>  <submitter_institution>  (601) 
University of Oxford

>  <generation_date>  (601) 
2020-06-04

>  <method>  (601) 
Fragment network

>  <ref_mols>  (601) 
x0183_0B,x0212_0B

>  <ref_pdb>  (601) 
references/x0183-0B-x0212-0B-131151.holo_minimised_nolig.pdb

>  <original SMILES>  (601) 
N=C(N)NS(=O)(=O)c1ccc(NC(=S)NC(=O)C=Cc2ccccc2)cc1

>  <synthon>  (601) 
[Xe]c1ccccc1

>  <original_name>  (601) 
x0183-0B-x0212-0B-131151

>  <comRMSD_score>  (601) 
0.7597683857597648

>  <IF_score>  (601) 
0.45

>  <SuCOS_score>  (601) 
0.5473065309802276

>  <compound_ID>  (601) 
MOLPORT:001-924-992

$$$$

     RDKit          3D

 21 22  0  0  0  0  0  0  0  0999 V2000
  -13.5600    5.9570  -75.3080 C   0  0  0  0  0  0  0  0  0  0  0  0
  -13.3080    4.4540  -75.5060 C   0  0  0  0  0  0  0  0  0  0  0  0
  -14.2850    3.4710  -75.1820 O   0  0  0  0  0  0  0  0  0  0  0  0
  -11.9890    4.0110  -75.9920 C   0  0  0  0  0  0  0  0  0  0  0  0
  -11.4320    3.0220  -75.1910 C   0  0  0  0  0  0  0  0  0  0  0  0
  -11.2980    4.4790  -77.1320 C   0  0  0  0  0  0  0  0  0  0  0  0
  -10.2130    2.4830  -75.4760 C   0  0  0  0  0  0  0  0  0  0  0  0
  -10.0480    3.8960  -77.3830 C   0  0  0  0  0  0  0  0  0  0  0  0
   -9.5350    2.9260  -76.5600 C   0  0  0  0  0  0  0  0  0  0  0  0
   -9.2070    4.1660  -78.4190 N   0  0  0  0  0  0  0  0  0  0  0  0
   -8.4450    3.1060  -78.6960 C   0  0  0  0  0  0  0  0  0  0  0  0
   -9.2720    1.6610  -78.7190 S   0  0  0  0  0  0  0  0  0  0  0  0
   -7.1250    3.2340  -78.8810 N   0  0  0  0  0  0  0  0  0  0  0  0
   -6.3840    2.2580  -79.6220 C   0  0  0  0  0  0  0  0  0  0  0  0
   -5.1660    2.1260  -79.7250 O   0  0  0  0  0  0  0  0  0  0  0  0
   -7.3890    1.3680  -80.2970 C   0  0  0  0  0  0  0  0  0  0  0  0
   -7.6780    0.0820  -79.8220 C   0  0  0  0  0  0  0  0  0  0  0  0
   -8.0720    1.8200  -81.4310 C   0  0  0  0  0  0  0  0  0  0  0  0
   -8.6070   -0.7500  -80.4310 C   0  0  0  0  0  0  0  0  0  0  0  0
   -8.9960    0.9900  -82.0430 C   0  0  0  0  0  0  0  0  0  0  0  0
   -9.2700   -0.2890  -81.5550 C   0  0  0  0  0  0  0  0  0  0  0  0
  1  2  1  0
  2  3  2  0
  2  4  1  0
  4  5  2  0
  4  6  1  0
  5  7  1  0
  6  8  2  0
  7  9  2  0
  8  9  1  0
  8 10  1  0
 10 11  1  0
 11 12  2  0
 11 13  1  0
 13 14  1  0
 14 15  2  0
 14 16  1  0
 16 17  2  0
 16 18  1  0
 17 19  1  0
 18 20  2  0
 19 21  2  0
 20 21  1  0
M  END
>  <ref_url>  (602) 
https://fakepage.com

>  <submitter_name>  (602) 
Steph Wills

>  <submitter_email>  (602) 
stephanie.wills@dtc.ox.ac.uk

>  <submitter_institution>  (602) 
University of Oxford

>  <generation_date>  (602) 
2020-06-04

>  <method>  (602) 
Fragment network

>  <ref_mols>  (602) 
x0183_0B,x0212_0B

>  <ref_pdb>  (602) 
references/x0183-0B-x0212-0B-135818.holo_minimised_nolig.pdb

>  <original SMILES>  (602) 
CC(=O)c1cccc(NC(=S)NC(=O)c2ccccc2)c1

>  <synthon>  (602) 
[Xe]c1ccccc1

>  <original_name>  (602) 
x0183-0B-x0212-0B-135818

>  <comRMSD_score>  (602) 
0.987827835876946

>  <IF_score>  (602) 
0.45

>  <SuCOS_score>  (602) 
0.4400953798896493

>  <compound_ID>  (602) 
MOLPORT:001-557-251

$$$$

     RDKit          3D

 29 30  0  0  0  0  0  0  0  0999 V2000
  -12.4690    7.8170  -76.4640 C   0  0  0  0  0  0  0  0  0  0  0  0
  -13.7110    6.9680  -76.2560 C   0  0  0  0  0  0  0  0  0  0  0  0
  -13.5600    6.1420  -75.0610 N   0  0  0  0  0  0  0  0  0  0  0  0
  -13.0490    6.6630  -73.8810 C   0  0  0  0  0  0  0  0  0  0  0  0
  -13.6900    4.4650  -75.1660 S   0  0  0  0  0  0  0  0  0  0  0  0
  -13.5210    5.9140  -72.6630 C   0  0  0  0  0  0  0  0  0  0  0  0
  -14.8630    4.0780  -75.9100 O   0  0  0  0  0  0  0  0  0  0  0  0
  -13.4210    3.9640  -73.8400 O   0  0  0  0  0  0  0  0  0  0  0  0
  -12.3160    4.0140  -76.1490 C   0  0  0  0  0  0  0  0  0  0  0  0
  -11.9660    4.6980  -77.3070 C   0  0  0  0  0  0  0  0  0  0  0  0
  -11.5720    2.9270  -75.7310 C   0  0  0  0  0  0  0  0  0  0  0  0
  -10.8850    4.3180  -78.0620 C   0  0  0  0  0  0  0  0  0  0  0  0
  -10.4860    2.5320  -76.4800 C   0  0  0  0  0  0  0  0  0  0  0  0
  -10.1390    3.2250  -77.6450 C   0  0  0  0  0  0  0  0  0  0  0  0
   -9.6500    1.3330  -76.0430 C   0  0  0  0  0  0  0  0  0  0  0  0
  -10.2050    0.2490  -75.9370 O   0  0  0  0  0  0  0  0  0  0  0  0
   -8.3130    1.7010  -75.8270 O   0  0  0  0  0  0  0  0  0  0  0  0
   -8.0850    3.0150  -76.0680 C   0  0  0  0  0  0  0  0  0  0  0  0
   -7.9900    3.3030  -77.5210 C   0  0  0  0  0  0  0  0  0  0  0  0
   -8.7000    4.1090  -78.1030 O   0  0  0  0  0  0  0  0  0  0  0  0
   -7.0140    2.5490  -78.1090 N   0  0  0  0  0  0  0  0  0  0  0  0
   -6.8010    2.5770  -79.5290 C   0  0  2  0  0  0  0  0  0  0  0  0
   -7.0480    3.8530  -80.0720 C   0  0  0  0  0  0  0  0  0  0  0  0
   -7.7200    1.5610  -80.1600 C   0  0  0  0  0  0  0  0  0  0  0  0
   -8.0960    0.3660  -79.5560 C   0  0  0  0  0  0  0  0  0  0  0  0
   -8.2310    1.8290  -81.4430 C   0  0  0  0  0  0  0  0  0  0  0  0
   -9.0030   -0.6220  -80.2100 C   0  0  0  0  0  0  0  0  0  0  0  0
   -9.0850    0.9480  -82.1220 C   0  0  0  0  0  0  0  0  0  0  0  0
   -9.4910   -0.2610  -81.5630 C   0  0  0  0  0  0  0  0  0  0  0  0
  1  2  1  0
  2  3  1  0
  3  4  1  0
  5  3  1  0
  4  6  1  0
  5  7  2  0
  5  8  2  0
  5  9  1  0
  9 10  2  0
  9 11  1  0
 10 12  1  0
 11 13  2  0
 12 14  2  0
 13 14  1  0
 13 15  1  0
 15 16  2  0
 15 17  1  0
 17 18  1  0
 18 19  1  0
 19 20  2  0
 19 21  1  0
 21 22  1  0
 22 23  1  6
 22 24  1  0
 24 25  2  0
 24 26  1  0
 25 27  1  0
 26 28  2  0
 27 29  2  0
 28 29  1  0
M  END
>  <ref_url>  (603) 
https://fakepage.com

>  <submitter_name>  (603) 
Steph Wills

>  <submitter_email>  (603) 
stephanie.wills@dtc.ox.ac.uk

>  <submitter_institution>  (603) 
University of Oxford

>  <generation_date>  (603) 
2020-06-04

>  <method>  (603) 
Fragment network

>  <ref_mols>  (603) 
x0183_0B,x0212_0B

>  <ref_pdb>  (603) 
references/x0183-0B-x0212-0B-136290.holo_minimised_nolig.pdb

>  <original SMILES>  (603) 
CCN(CC)S(=O)(=O)c1cccc(C(=O)OCC(=O)NC(C)c2ccccc2)c1

>  <synthon>  (603) 
[Xe]c1ccccc1

>  <original_name>  (603) 
x0183-0B-x0212-0B-136290

>  <comRMSD_score>  (603) 
0.7052345814087787

>  <IF_score>  (603) 
0.55

>  <SuCOS_score>  (603) 
0.5337907857515575

>  <compound_ID>  (603) 
MOLPORT:004-019-466

$$$$

     RDKit          3D

 26 27  0  0  0  0  0  0  0  0999 V2000
  -12.7800    6.4270  -73.7320 C   0  0  0  0  0  0  0  0  0  0  0  0
  -13.0820    6.1780  -75.1100 O   0  0  0  0  0  0  0  0  0  0  0  0
  -13.4350    4.9100  -75.4320 C   0  0  0  0  0  0  0  0  0  0  0  0
  -14.4850    4.3440  -75.1590 O   0  0  0  0  0  0  0  0  0  0  0  0
  -12.3900    4.2050  -76.1910 C   0  0  0  0  0  0  0  0  0  0  0  0
  -11.9750    4.6380  -77.4680 C   0  0  0  0  0  0  0  0  0  0  0  0
  -11.8300    3.0870  -75.6210 C   0  0  0  0  0  0  0  0  0  0  0  0
  -10.9970    3.9060  -78.1620 C   0  0  0  0  0  0  0  0  0  0  0  0
  -10.8870    2.3800  -76.2990 C   0  0  0  0  0  0  0  0  0  0  0  0
  -10.4620    2.7560  -77.5560 C   0  0  0  0  0  0  0  0  0  0  0  0
   -9.5030    1.9130  -78.1120 N   0  0  0  0  0  0  0  0  0  0  0  0
   -8.9670    1.0670  -77.1950 C   0  0  0  0  0  0  0  0  0  0  0  0
   -8.6700   -0.1210  -77.2780 O   0  0  0  0  0  0  0  0  0  0  0  0
   -8.8130    1.7750  -76.0510 N   0  0  0  0  0  0  0  0  0  0  0  0
   -8.5860    3.1890  -76.1110 C   0  0  0  0  0  0  0  0  0  0  0  0
   -8.1960    3.4540  -77.5580 C   0  0  0  0  0  0  0  0  0  0  0  0
   -8.8790    4.1590  -78.2990 O   0  0  0  0  0  0  0  0  0  0  0  0
   -7.0520    2.8050  -77.9730 N   0  0  0  0  0  0  0  0  0  0  0  0
   -6.0060    2.3600  -77.0640 C   0  0  0  0  0  0  0  0  0  0  0  0
   -6.7950    2.6860  -79.4040 C   0  0  0  0  0  0  0  0  0  0  0  0
   -7.6750    1.6700  -80.1060 C   0  0  0  0  0  0  0  0  0  0  0  0
   -7.9340    0.4020  -79.5590 C   0  0  0  0  0  0  0  0  0  0  0  0
   -8.2450    1.9970  -81.3290 C   0  0  0  0  0  0  0  0  0  0  0  0
   -8.7520   -0.5100  -80.2290 C   0  0  0  0  0  0  0  0  0  0  0  0
   -9.0530    1.0880  -81.9940 C   0  0  0  0  0  0  0  0  0  0  0  0
   -9.3110   -0.1650  -81.4500 C   0  0  0  0  0  0  0  0  0  0  0  0
  1  2  1  0
  2  3  1  0
  3  4  2  0
  3  5  1  0
  5  6  2  0
  5  7  1  0
  6  8  1  0
  7  9  2  0
  8 10  2  0
  9 10  1  0
 10 11  1  0
 11 12  1  0
 12 13  2  0
 12 14  1  0
 14 15  1  0
 15 16  1  0
 16 17  2  0
 16 18  1  0
 18 19  1  0
 18 20  1  0
 20 21  1  0
 21 22  2  0
 21 23  1  0
 22 24  1  0
 23 25  2  0
 24 26  2  0
 25 26  1  0
M  END
>  <ref_url>  (604) 
https://fakepage.com

>  <submitter_name>  (604) 
Steph Wills

>  <submitter_email>  (604) 
stephanie.wills@dtc.ox.ac.uk

>  <submitter_institution>  (604) 
University of Oxford

>  <generation_date>  (604) 
2020-06-04

>  <method>  (604) 
Fragment network

>  <ref_mols>  (604) 
x0183_0B,x0212_0B

>  <ref_pdb>  (604) 
references/x0183-0B-x0212-0B-137352.holo_minimised_nolig.pdb

>  <original SMILES>  (604) 
COC(=O)c1ccc(NC(=O)NCC(=O)N(C)Cc2ccccc2)cc1

>  <synthon>  (604) 
[Xe]c1ccccc1

>  <original_name>  (604) 
x0183-0B-x0212-0B-137352

>  <comRMSD_score>  (604) 
0.8694807731139401

>  <IF_score>  (604) 
0.525

>  <SuCOS_score>  (604) 
0.4968550842672954

>  <compound_ID>  (604) 
REAL:Z603500142

$$$$

     RDKit          3D

 25 28  0  0  0  0  0  0  0  0999 V2000
  -11.4950    6.9040  -73.5380 O   0  0  0  0  0  0  0  0  0  0  0  0
  -12.4930    6.3510  -73.9980 C   0  0  0  0  0  0  0  0  0  0  0  0
  -12.7660    4.8540  -73.9960 C   0  0  0  0  0  0  0  0  0  0  0  0
  -13.6220    6.9860  -74.6620 N   0  0  0  0  0  0  0  0  0  0  0  0
  -13.0600    4.2560  -75.3120 C   0  0  2  0  0  0  0  0  0  0  0  0
  -14.2930    6.2970  -75.6870 C   0  0  0  0  0  0  0  0  0  0  0  0
  -11.9360    4.0540  -76.1140 C   0  0  0  0  0  0  0  0  0  0  0  0
  -14.0160    4.9620  -75.9970 C   0  0  0  0  0  0  0  0  0  0  0  0
  -15.2830    6.7640  -76.5320 C   0  0  0  0  0  0  0  0  0  0  0  0
  -11.8410    4.6360  -77.3690 C   0  0  0  0  0  0  0  0  0  0  0  0
  -10.9030    3.2480  -75.6240 C   0  0  0  0  0  0  0  0  0  0  0  0
  -14.9620    4.3510  -77.2870 S   0  0  0  0  0  0  0  0  0  0  0  0
  -15.7630    5.8530  -77.4620 C   0  0  0  0  0  0  0  0  0  0  0  0
  -10.7120    4.4140  -78.1370 C   0  0  0  0  0  0  0  0  0  0  0  0
   -9.7670    3.0310  -76.4090 C   0  0  0  0  0  0  0  0  0  0  0  0
   -9.6770    3.6200  -77.6710 C   0  0  0  0  0  0  0  0  0  0  0  0
   -8.6350    3.4980  -78.5330 O   0  0  0  0  0  0  0  0  0  0  0  0
   -7.5410    2.7980  -78.1450 C   0  0  0  0  0  0  0  0  0  0  0  0
   -6.8120    2.2270  -79.1640 C   0  0  0  0  0  0  0  0  0  0  0  0
   -7.6340    1.4840  -80.0100 C   0  0  0  0  0  0  0  0  0  0  0  0
   -8.0420    0.0600  -79.4910 C   0  0  0  0  0  0  0  0  0  0  0  0
   -8.0900    1.9400  -81.2570 C   0  0  0  0  0  0  0  0  0  0  0  0
   -8.8650   -0.6990  -80.3390 C   0  0  0  0  0  0  0  0  0  0  0  0
   -8.8930    1.0870  -81.9890 C   0  0  0  0  0  0  0  0  0  0  0  0
   -9.2760   -0.1810  -81.5680 C   0  0  0  0  0  0  0  0  0  0  0  0
  1  2  2  0
  2  3  1  0
  2  4  1  0
  3  5  1  0
  4  6  1  0
  5  7  1  6
  5  8  1  0
  6  8  2  0
  6  9  1  0
  7 10  2  0
  7 11  1  0
  8 12  1  0
  9 13  2  0
 12 13  1  0
 10 14  1  0
 11 15  2  0
 14 16  2  0
 15 16  1  0
 16 17  1  0
 17 18  1  0
 18 19  1  0
 19 20  1  0
 20 21  2  0
 20 22  1  0
 21 23  1  0
 22 24  2  0
 23 25  2  0
 24 25  1  0
M  END
>  <ref_url>  (605) 
https://fakepage.com

>  <submitter_name>  (605) 
Steph Wills

>  <submitter_email>  (605) 
stephanie.wills@dtc.ox.ac.uk

>  <submitter_institution>  (605) 
University of Oxford

>  <generation_date>  (605) 
2020-06-04

>  <method>  (605) 
Fragment network

>  <ref_mols>  (605) 
x0183_0B,x0212_0B

>  <ref_pdb>  (605) 
references/x0183-0B-x0212-0B-137578.holo_minimised_nolig.pdb

>  <original SMILES>  (605) 
O=C1CC(c2ccc(OCCc3ccccc3)cc2)c2sccc2N1

>  <synthon>  (605) 
[Xe]c1ccccc1

>  <original_name>  (605) 
x0183-0B-x0212-0B-137578

>  <comRMSD_score>  (605) 
0.7123645620261918

>  <IF_score>  (605) 
0.8

>  <SuCOS_score>  (605) 
0.577203568811355

>  <compound_ID>  (605) 
MOLPORT:002-748-074

$$$$

     RDKit          3D

 25 26  0  0  0  0  0  0  0  0999 V2000
  -16.7820    7.0760  -76.0950 C   0  0  0  0  0  0  0  0  0  0  0  0
  -15.8300    7.1230  -75.0390 O   0  0  0  0  0  0  0  0  0  0  0  0
  -15.1470    5.8740  -74.8900 C   0  0  0  0  0  0  0  0  0  0  0  0
  -15.7320    4.8220  -74.6780 O   0  0  0  0  0  0  0  0  0  0  0  0
  -13.6590    5.9090  -74.9980 C   0  0  1  0  0  0  0  0  0  0  0  0
  -12.9530    6.2770  -73.8280 C   0  0  0  0  0  0  0  0  0  0  0  0
  -13.3190    4.3860  -75.2080 C   0  0  0  0  0  0  0  0  0  0  0  0
  -12.1590    4.2220  -75.9420 C   0  0  0  0  0  0  0  0  0  0  0  0
  -11.1380    3.4600  -75.3930 C   0  0  0  0  0  0  0  0  0  0  0  0
  -12.0230    4.8230  -77.2110 C   0  0  0  0  0  0  0  0  0  0  0  0
   -9.8380    3.2560  -76.1350 C   0  0  0  0  0  0  0  0  0  0  0  0
  -10.8700    4.6850  -77.9640 C   0  0  0  0  0  0  0  0  0  0  0  0
   -9.8040    3.9480  -77.4780 C   0  0  0  0  0  0  0  0  0  0  0  0
   -8.6230    3.7600  -78.0940 N   0  0  0  0  0  0  0  0  0  0  0  0
   -7.6190    3.1200  -77.2980 C   0  0  0  0  0  0  0  0  0  0  0  0
   -7.3210    3.6490  -76.2350 O   0  0  0  0  0  0  0  0  0  0  0  0
   -7.0880    1.9120  -77.8630 N   0  0  0  0  0  0  0  0  0  0  0  0
   -6.1250    1.2640  -76.9670 C   0  0  0  0  0  0  0  0  0  0  0  0
   -6.8470    2.0940  -79.2900 C   0  0  0  0  0  0  0  0  0  0  0  0
   -7.7310    1.3570  -80.0620 C   0  0  0  0  0  0  0  0  0  0  0  0
   -8.1880    1.8470  -81.2860 C   0  0  0  0  0  0  0  0  0  0  0  0
   -8.1700    0.1070  -79.6080 C   0  0  0  0  0  0  0  0  0  0  0  0
   -9.0640    1.0880  -82.0380 C   0  0  0  0  0  0  0  0  0  0  0  0
   -9.0510   -0.6480  -80.3680 C   0  0  0  0  0  0  0  0  0  0  0  0
   -9.4960   -0.1550  -81.5830 C   0  0  0  0  0  0  0  0  0  0  0  0
  1  2  1  0
  2  3  1  0
  3  4  2  0
  3  5  1  0
  5  6  1  1
  5  7  1  0
  7  8  1  0
  8  9  2  0
  8 10  1  0
  9 11  1  0
 10 12  2  0
 11 13  2  0
 12 13  1  0
 13 14  1  0
 14 15  1  0
 15 16  2  0
 15 17  1  0
 17 18  1  0
 17 19  1  0
 19 20  1  0
 20 21  2  0
 20 22  1  0
 21 23  1  0
 22 24  2  0
 23 25  2  0
 24 25  1  0
M  END
>  <ref_url>  (606) 
https://fakepage.com

>  <submitter_name>  (606) 
Steph Wills

>  <submitter_email>  (606) 
stephanie.wills@dtc.ox.ac.uk

>  <submitter_institution>  (606) 
University of Oxford

>  <generation_date>  (606) 
2020-06-04

>  <method>  (606) 
Fragment network

>  <ref_mols>  (606) 
x0183_0B,x0212_0B

>  <ref_pdb>  (606) 
references/x0183-0B-x0212-0B-140061.holo_minimised_nolig.pdb

>  <original SMILES>  (606) 
COC(=O)C(C)Cc1ccc(NC(=O)N(C)Cc2ccccc2)cc1

>  <synthon>  (606) 
[Xe]c1ccccc1

>  <original_name>  (606) 
x0183-0B-x0212-0B-140061

>  <comRMSD_score>  (606) 
0.5412701112506884

>  <IF_score>  (606) 
0.55

>  <SuCOS_score>  (606) 
0.5642460009570971

>  <compound_ID>  (606) 
REAL:Z1678052704

$$$$

     RDKit          3D

 26 27  0  0  0  0  0  0  0  0999 V2000
  -13.4580    5.1170  -71.8700 C   0  0  0  0  0  0  0  0  0  0  0  0
  -14.1360    6.1420  -72.7520 C   0  0  0  0  0  0  0  0  0  0  0  0
  -13.1710    6.5600  -73.8620 C   0  0  1  0  0  0  0  0  0  0  0  0
  -11.8130    6.3150  -73.6650 C   0  0  0  0  0  0  0  0  0  0  0  0
  -13.6640    5.9080  -75.0720 N   0  0  0  0  0  0  0  0  0  0  0  0
  -13.6430    4.2370  -75.1490 S   0  0  0  0  0  0  0  0  0  0  0  0
  -14.6840    3.7660  -76.0290 O   0  0  0  0  0  0  0  0  0  0  0  0
  -13.5210    3.7480  -73.7960 O   0  0  0  0  0  0  0  0  0  0  0  0
  -12.1080    3.8510  -75.9360 C   0  0  0  0  0  0  0  0  0  0  0  0
  -11.1990    2.8850  -75.3090 C   0  0  0  0  0  0  0  0  0  0  0  0
  -11.7120    4.4210  -77.1430 C   0  0  0  0  0  0  0  0  0  0  0  0
   -9.9970    2.5250  -75.8570 C   0  0  0  0  0  0  0  0  0  0  0  0
  -10.4770    4.0230  -77.6660 C   0  0  0  0  0  0  0  0  0  0  0  0
   -9.6280    3.0950  -77.0470 C   0  0  0  0  0  0  0  0  0  0  0  0
   -9.9880    4.5030  -78.8270 N   0  0  0  0  0  0  0  0  0  0  0  0
   -8.8580    3.8120  -79.2660 C   0  0  0  0  0  0  0  0  0  0  0  0
   -8.6120    3.6520  -80.4570 O   0  0  0  0  0  0  0  0  0  0  0  0
   -8.0690    3.3350  -78.1280 N   0  0  0  0  0  0  0  0  0  0  0  0
   -6.8820    2.6090  -78.1960 C   0  0  0  0  0  0  0  0  0  0  0  0
   -6.4450    2.0670  -79.5250 C   0  0  0  0  0  0  0  0  0  0  0  0
   -7.5520    1.2710  -80.2020 C   0  0  0  0  0  0  0  0  0  0  0  0
   -8.1110    1.7350  -81.3880 C   0  0  0  0  0  0  0  0  0  0  0  0
   -8.0200    0.0590  -79.6490 C   0  0  0  0  0  0  0  0  0  0  0  0
   -9.1020    0.9760  -81.9770 C   0  0  0  0  0  0  0  0  0  0  0  0
   -9.0300   -0.6830  -80.2780 C   0  0  0  0  0  0  0  0  0  0  0  0
   -9.5810   -0.2170  -81.4680 C   0  0  0  0  0  0  0  0  0  0  0  0
  1  2  1  0
  2  3  1  0
  3  4  1  1
  3  5  1  0
  6  5  1  0
  6  7  2  0
  6  8  2  0
  6  9  1  0
  9 10  2  0
  9 11  1  0
 10 12  1  0
 11 13  2  0
 12 14  2  0
 13 14  1  0
 13 15  1  0
 15 16  1  0
 16 17  2  0
 16 18  1  0
 18 19  1  0
 19 20  1  0
 20 21  1  0
 21 22  2  0
 21 23  1  0
 22 24  1  0
 23 25  2  0
 24 26  2  0
 25 26  1  0
M  END
>  <ref_url>  (607) 
https://fakepage.com

>  <submitter_name>  (607) 
Steph Wills

>  <submitter_email>  (607) 
stephanie.wills@dtc.ox.ac.uk

>  <submitter_institution>  (607) 
University of Oxford

>  <generation_date>  (607) 
2020-06-04

>  <method>  (607) 
Fragment network

>  <ref_mols>  (607) 
x0183_0B,x0212_0B

>  <ref_pdb>  (607) 
references/x0183-0B-x0212-0B-141511.holo_minimised_nolig.pdb

>  <original SMILES>  (607) 
CCC(C)NS(=O)(=O)c1cccc(NC(=O)NCCc2ccccc2)c1

>  <synthon>  (607) 
[Xe]c1ccccc1

>  <original_name>  (607) 
x0183-0B-x0212-0B-141511

>  <comRMSD_score>  (607) 
0.8015830171188347

>  <IF_score>  (607) 
0.55

>  <SuCOS_score>  (607) 
0.5359276751783304

>  <compound_ID>  (607) 
REAL:Z1434164427

$$$$

     RDKit          3D

 26 27  0  0  0  0  0  0  0  0999 V2000
  -14.8580    6.4110  -71.8700 C   0  0  0  0  0  0  0  0  0  0  0  0
  -14.0880    5.7160  -72.9370 C   0  0  0  0  0  0  0  0  0  0  0  0
  -13.2690    6.3620  -73.7740 C   0  0  1  0  0  0  0  0  0  0  0  0
  -11.8240    6.2220  -73.7070 C   0  0  0  0  0  0  0  0  0  0  0  0
  -13.5420    5.9610  -75.1740 N   0  0  0  0  0  0  0  0  0  0  0  0
  -13.5910    4.3690  -75.7680 S   0  0  0  0  0  0  0  0  0  0  0  0
  -14.4710    4.4360  -76.9110 O   0  0  0  0  0  0  0  0  0  0  0  0
  -13.8230    3.4310  -74.7080 O   0  0  0  0  0  0  0  0  0  0  0  0
  -11.9640    4.1400  -76.4190 C   0  0  0  0  0  0  0  0  0  0  0  0
  -11.5180    4.6610  -77.6330 C   0  0  0  0  0  0  0  0  0  0  0  0
  -11.0390    3.3830  -75.6810 C   0  0  0  0  0  0  0  0  0  0  0  0
  -10.2280    4.4670  -78.1090 C   0  0  0  0  0  0  0  0  0  0  0  0
   -9.7350    3.1810  -76.1500 C   0  0  0  0  0  0  0  0  0  0  0  0
   -9.3160    3.7270  -77.3590 C   0  0  0  0  0  0  0  0  0  0  0  0
   -8.0200    3.5580  -77.8170 N   0  0  0  0  0  0  0  0  0  0  0  0
   -6.8510    3.5820  -77.0060 C   0  0  0  0  0  0  0  0  0  0  0  0
   -6.8200    3.8980  -75.8160 O   0  0  0  0  0  0  0  0  0  0  0  0
   -5.4260    3.2200  -77.4690 C   0  0  0  0  0  0  0  0  0  0  0  0
   -5.5140    2.0400  -78.8580 S   0  0  0  0  0  0  0  0  0  0  0  0
   -7.2310    2.4690  -79.2610 C   0  0  0  0  0  0  0  0  0  0  0  0
   -7.9200    1.5470  -80.0090 C   0  0  0  0  0  0  0  0  0  0  0  0
   -8.2920    1.8700  -81.3010 C   0  0  0  0  0  0  0  0  0  0  0  0
   -8.2660    0.2870  -79.4890 C   0  0  0  0  0  0  0  0  0  0  0  0
   -8.9900    1.0100  -82.1080 C   0  0  0  0  0  0  0  0  0  0  0  0
   -8.9790   -0.6180  -80.2830 C   0  0  0  0  0  0  0  0  0  0  0  0
   -9.3200   -0.2240  -81.5740 C   0  0  0  0  0  0  0  0  0  0  0  0
  1  2  1  0
  2  3  1  0
  3  4  1  1
  3  5  1  0
  6  5  1  0
  6  7  2  0
  6  8  2  0
  6  9  1  0
  9 10  2  0
  9 11  1  0
 10 12  1  0
 11 13  2  0
 12 14  2  0
 13 14  1  0
 14 15  1  0
 15 16  1  0
 16 17  2  0
 16 18  1  0
 18 19  1  0
 19 20  1  0
 20 21  1  0
 21 22  2  0
 21 23  1  0
 22 24  1  0
 23 25  2  0
 24 26  2  0
 25 26  1  0
M  END
>  <ref_url>  (608) 
https://fakepage.com

>  <submitter_name>  (608) 
Steph Wills

>  <submitter_email>  (608) 
stephanie.wills@dtc.ox.ac.uk

>  <submitter_institution>  (608) 
University of Oxford

>  <generation_date>  (608) 
2020-06-04

>  <method>  (608) 
Fragment network

>  <ref_mols>  (608) 
x0183_0B,x0212_0B

>  <ref_pdb>  (608) 
references/x0183-0B-x0212-0B-142351.holo_minimised_nolig.pdb

>  <original SMILES>  (608) 
CCC(C)NS(=O)(=O)c1ccc(NC(=O)CSCc2ccccc2)cc1

>  <synthon>  (608) 
[Xe]c1ccccc1

>  <original_name>  (608) 
x0183-0B-x0212-0B-142351

>  <comRMSD_score>  (608) 
0.6323383997922714

>  <IF_score>  (608) 
0.55

>  <SuCOS_score>  (608) 
0.5313362717195317

>  <compound_ID>  (608) 
MOLPORT:001-581-615

$$$$

     RDKit          3D

 25 26  0  0  0  0  0  0  0  0999 V2000
  -13.6100    5.3220  -72.9330 C   0  0  0  0  0  0  0  0  0  0  0  0
  -13.3410    6.4390  -73.8900 C   0  0  0  0  0  0  0  0  0  0  0  0
  -11.9270    6.7780  -74.1130 C   0  0  0  0  0  0  0  0  0  0  0  0
  -13.9900    6.1920  -75.1930 N   0  0  0  0  0  0  0  0  0  0  0  0
  -14.0560    4.6760  -75.9500 S   0  0  0  0  0  0  0  0  0  0  0  0
  -14.5500    4.8430  -77.3030 O   0  0  0  0  0  0  0  0  0  0  0  0
  -14.6800    3.7340  -75.0610 O   0  0  0  0  0  0  0  0  0  0  0  0
  -12.3860    4.1740  -76.0780 C   0  0  0  0  0  0  0  0  0  0  0  0
  -11.9360    3.1920  -75.2290 C   0  0  0  0  0  0  0  0  0  0  0  0
  -11.5080    4.7210  -77.0130 C   0  0  0  0  0  0  0  0  0  0  0  0
  -10.6600    2.7340  -75.2630 C   0  0  0  0  0  0  0  0  0  0  0  0
  -10.2050    4.2510  -77.0550 C   0  0  0  0  0  0  0  0  0  0  0  0
   -9.7870    3.2560  -76.1600 C   0  0  0  0  0  0  0  0  0  0  0  0
   -8.7080    2.7770  -76.0760 O   0  0  0  0  0  0  0  0  0  0  0  0
   -8.4040    2.1190  -77.1770 C   0  0  0  0  0  0  0  0  0  0  0  0
   -8.1500    3.0140  -78.3410 C   0  0  0  0  0  0  0  0  0  0  0  0
   -9.0080    3.6650  -78.9300 O   0  0  0  0  0  0  0  0  0  0  0  0
   -6.8280    2.9940  -78.6140 N   0  0  0  0  0  0  0  0  0  0  0  0
   -6.4790    2.0940  -79.7190 C   0  0  0  0  0  0  0  0  0  0  0  0
   -7.5620    1.3850  -80.2490 C   0  0  0  0  0  0  0  0  0  0  0  0
   -8.2210    1.8380  -81.3790 C   0  0  0  0  0  0  0  0  0  0  0  0
   -8.0240    0.1890  -79.6700 C   0  0  0  0  0  0  0  0  0  0  0  0
   -9.2830    1.1850  -81.9600 C   0  0  0  0  0  0  0  0  0  0  0  0
   -9.1110   -0.4980  -80.2410 C   0  0  0  0  0  0  0  0  0  0  0  0
   -9.7390   -0.0000  -81.3860 C   0  0  0  0  0  0  0  0  0  0  0  0
  1  2  1  0
  2  3  1  0
  2  4  1  0
  5  4  1  0
  5  6  2  0
  5  7  2  0
  5  8  1  0
  8  9  2  0
  8 10  1  0
  9 11  1  0
 10 12  2  0
 11 13  2  0
 12 13  1  0
 13 14  1  0
 14 15  1  0
 15 16  1  0
 16 17  2  0
 16 18  1  0
 18 19  1  0
 19 20  1  0
 20 21  2  0
 20 22  1  0
 21 23  1  0
 22 24  2  0
 23 25  2  0
 24 25  1  0
M  END
>  <ref_url>  (609) 
https://fakepage.com

>  <submitter_name>  (609) 
Steph Wills

>  <submitter_email>  (609) 
stephanie.wills@dtc.ox.ac.uk

>  <submitter_institution>  (609) 
University of Oxford

>  <generation_date>  (609) 
2020-06-04

>  <method>  (609) 
Fragment network

>  <ref_mols>  (609) 
x0183_0B,x0212_0B

>  <ref_pdb>  (609) 
references/x0183-0B-x0212-0B-143191.holo_minimised_nolig.pdb

>  <original SMILES>  (609) 
CC(C)NS(=O)(=O)c1ccc(OCC(=O)NCc2ccccc2)cc1

>  <synthon>  (609) 
[Xe]c1ccccc1

>  <original_name>  (609) 
x0183-0B-x0212-0B-143191

>  <comRMSD_score>  (609) 
0.971511918304354

>  <IF_score>  (609) 
0.5

>  <SuCOS_score>  (609) 
0.4946327669032527

>  <compound_ID>  (609) 
MOLPORT:003-250-146

$$$$

     RDKit          3D

 20 21  0  0  0  0  0  0  0  0999 V2000
  -11.2190   -1.5060  -81.7720 O   0  0  0  0  0  0  0  0  0  0  0  0
   -9.9870   -1.4970  -81.6420 N   0  0  0  0  0  0  0  0  0  0  0  0
   -9.2860   -2.5210  -81.5730 O   0  0  0  0  0  0  0  0  0  0  0  0
   -9.4480   -0.4660  -81.5660 C   0  0  0  0  0  0  0  0  0  0  0  0
   -8.9920    0.9470  -81.9990 C   0  0  0  0  0  0  0  0  0  0  0  0
   -8.8880   -0.7670  -80.2110 C   0  0  0  0  0  0  0  0  0  0  0  0
   -8.1080    1.8230  -81.1330 C   0  0  0  0  0  0  0  0  0  0  0  0
   -8.0780    0.0830  -79.4640 C   0  0  0  0  0  0  0  0  0  0  0  0
   -7.6950    1.3350  -79.9080 C   0  0  0  0  0  0  0  0  0  0  0  0
   -6.8720    2.2150  -79.1750 O   0  0  0  0  0  0  0  0  0  0  0  0
   -7.3320    2.8740  -77.8060 P   0  0  0  0  0  0  0  0  0  0  0  0
   -7.3690    1.9500  -76.6310 O   0  0  0  0  0  0  0  0  0  0  0  0
   -6.3030    4.0830  -77.5310 O   0  0  0  0  0  0  0  0  0  0  0  0
   -8.6900    3.5830  -78.2120 O   0  0  0  0  0  0  0  0  0  0  0  0
   -9.8060    3.7470  -77.4960 C   0  0  0  0  0  0  0  0  0  0  0  0
  -10.9340    4.5680  -77.9980 C   0  0  0  0  0  0  0  0  0  0  0  0
   -9.8710    3.1100  -76.2340 C   0  0  0  0  0  0  0  0  0  0  0  0
  -12.0610    4.7110  -77.2210 C   0  0  0  0  0  0  0  0  0  0  0  0
  -11.0380    3.2930  -75.4990 C   0  0  0  0  0  0  0  0  0  0  0  0
  -12.0850    4.0710  -75.9920 C   0  0  0  0  0  0  0  0  0  0  0  0
  1  2  2  0
  2  3  1  0
  2  4  1  0
  4  5  2  0
  4  6  1  0
  5  7  1  0
  6  8  2  0
  7  9  2  0
  8  9  1  0
  9 10  1  0
 10 11  1  0
 11 12  2  0
 11 13  1  0
 11 14  1  0
 14 15  1  0
 15 16  2  0
 15 17  1  0
 16 18  1  0
 17 19  2  0
 18 20  2  0
 19 20  1  0
M  CHG  2   2   1   3  -1
M  END
>  <ref_url>  (610) 
https://fakepage.com

>  <submitter_name>  (610) 
Steph Wills

>  <submitter_email>  (610) 
stephanie.wills@dtc.ox.ac.uk

>  <submitter_institution>  (610) 
University of Oxford

>  <generation_date>  (610) 
2020-06-04

>  <method>  (610) 
Fragment network

>  <ref_mols>  (610) 
x0183_0B,x0212_0B

>  <ref_pdb>  (610) 
references/x0183-0B-x0212-0B-144921.holo_minimised_nolig.pdb

>  <original SMILES>  (610) 
O=[N+]([O-])c1ccc(OP(=O)(O)Oc2ccccc2)cc1

>  <synthon>  (610) 
[Xe]c1ccccc1

>  <original_name>  (610) 
x0183-0B-x0212-0B-144921

>  <comRMSD_score>  (610) 
0.5029392654803417

>  <IF_score>  (610) 
0.45

>  <SuCOS_score>  (610) 
0.3539861019527395

>  <compound_ID>  (610) 
MOLPORT:039-008-665, MOLPORT:039-338-032

$$$$

     RDKit          3D

 20 21  0  0  0  0  0  0  0  0999 V2000
  -12.9510    5.4110  -72.9540 C   0  0  0  0  0  0  0  0  0  0  0  0
  -12.8540    6.3800  -74.0900 C   0  0  0  0  0  0  0  0  0  0  0  0
  -13.6410    5.9240  -75.3320 C   0  0  0  0  0  0  0  0  0  0  0  0
  -13.4610    4.4570  -75.7770 C   0  0  0  0  0  0  0  0  0  0  0  0
  -12.0870    4.2090  -76.3350 C   0  0  0  0  0  0  0  0  0  0  0  0
  -11.1150    3.4860  -75.6270 C   0  0  0  0  0  0  0  0  0  0  0  0
  -11.7750    4.7180  -77.5990 C   0  0  0  0  0  0  0  0  0  0  0  0
   -9.8490    3.2830  -76.1800 C   0  0  0  0  0  0  0  0  0  0  0  0
  -10.5130    4.5090  -78.1400 C   0  0  0  0  0  0  0  0  0  0  0  0
   -9.5450    3.7980  -77.4390 C   0  0  0  0  0  0  0  0  0  0  0  0
   -8.3030    3.6590  -78.0590 N   0  0  0  0  0  0  0  0  0  0  0  0
   -7.4360    2.6130  -77.8960 C   0  0  0  0  0  0  0  0  0  0  0  0
   -7.1620    2.0270  -76.8510 O   0  0  0  0  0  0  0  0  0  0  0  0
   -6.8120    2.2290  -79.2150 C   0  0  0  0  0  0  0  0  0  0  0  0
   -7.7410    1.3930  -80.0400 C   0  0  0  0  0  0  0  0  0  0  0  0
   -8.1740    1.8560  -81.2860 C   0  0  0  0  0  0  0  0  0  0  0  0
   -8.1800    0.1450  -79.5730 C   0  0  0  0  0  0  0  0  0  0  0  0
   -9.0280    1.0780  -82.0520 C   0  0  0  0  0  0  0  0  0  0  0  0
   -9.0380   -0.6280  -80.3460 C   0  0  0  0  0  0  0  0  0  0  0  0
   -9.4590   -0.1630  -81.5810 C   0  0  0  0  0  0  0  0  0  0  0  0
  1  2  1  0
  2  3  1  0
  3  4  1  0
  4  5  1  0
  5  6  2  0
  5  7  1  0
  6  8  1  0
  7  9  2  0
  8 10  2  0
  9 10  1  0
 10 11  1  0
 11 12  1  0
 12 13  2  0
 12 14  1  0
 14 15  1  0
 15 16  2  0
 15 17  1  0
 16 18  1  0
 17 19  2  0
 18 20  2  0
 19 20  1  0
M  END
>  <ref_url>  (611) 
https://fakepage.com

>  <submitter_name>  (611) 
Steph Wills

>  <submitter_email>  (611) 
stephanie.wills@dtc.ox.ac.uk

>  <submitter_institution>  (611) 
University of Oxford

>  <generation_date>  (611) 
2020-06-04

>  <method>  (611) 
Fragment network

>  <ref_mols>  (611) 
x0183_0B,x0212_0B

>  <ref_pdb>  (611) 
references/x0183-0B-x0212-0B-146263.holo_minimised_nolig.pdb

>  <original SMILES>  (611) 
CCCCc1ccc(NC(=O)Cc2ccccc2)cc1

>  <synthon>  (611) 
[Xe]c1ccccc1

>  <original_name>  (611) 
x0183-0B-x0212-0B-146263

>  <comRMSD_score>  (611) 
0.5406259746298204

>  <IF_score>  (611) 
0.55

>  <SuCOS_score>  (611) 
0.5529412001929644

>  <compound_ID>  (611) 
REAL:Z30481660

$$$$

     RDKit          3D

 27 28  0  0  0  0  0  0  0  0999 V2000
  -12.2510    8.5290  -75.5160 C   0  0  0  0  0  0  0  0  0  0  0  0
  -12.7540    7.6520  -74.3770 C   0  0  0  0  0  0  0  0  0  0  0  0
  -12.2300    6.3210  -74.5100 O   0  0  0  0  0  0  0  0  0  0  0  0
  -13.1650    5.3540  -74.7110 C   0  0  0  0  0  0  0  0  0  0  0  0
  -14.0270    5.2260  -73.8710 O   0  0  0  0  0  0  0  0  0  0  0  0
  -13.1030    4.4860  -75.9820 C   0  0  2  0  0  0  0  0  0  0  0  0
  -13.9990    5.1300  -77.0220 C   0  0  0  0  0  0  0  0  0  0  0  0
  -13.6920    3.0810  -75.7750 C   0  0  0  0  0  0  0  0  0  0  0  0
  -11.8380    4.2000  -76.5060 C   0  0  0  0  0  0  0  0  0  0  0  0
  -13.3620    2.1160  -76.7780 N   0  0  0  0  0  0  0  0  0  0  0  0
  -10.7940    3.3760  -75.7970 C   0  0  0  0  0  0  0  0  0  0  0  0
  -11.5290    4.7080  -77.7760 C   0  0  0  0  0  0  0  0  0  0  0  0
  -12.8280    0.8260  -76.6440 C   0  0  0  0  0  0  0  0  0  0  0  0
   -9.4980    3.1560  -76.5050 C   0  0  0  0  0  0  0  0  0  0  0  0
  -10.2880    4.4560  -78.3740 C   0  0  0  0  0  0  0  0  0  0  0  0
  -13.0510    0.3170  -75.5410 O   0  0  0  0  0  0  0  0  0  0  0  0
  -12.1020    0.2680  -77.8160 N   0  0  0  0  0  0  0  0  0  0  0  0
   -9.2860    3.6980  -77.7640 C   0  0  0  0  0  0  0  0  0  0  0  0
  -11.1330   -0.8080  -77.5590 C   0  0  0  0  0  0  0  0  0  0  0  0
  -10.4750   -1.2950  -78.8580 C   0  0  0  0  0  0  0  0  0  0  0  0
   -9.6490   -0.2330  -79.6050 C   0  0  0  0  0  0  0  0  0  0  0  0
   -9.9210   -0.0930  -80.9560 C   0  0  0  0  0  0  0  0  0  0  0  0
   -8.6790    0.5710  -78.9880 C   0  0  0  0  0  0  0  0  0  0  0  0
   -9.1370    0.9570  -81.6690 C   0  0  0  0  0  0  0  0  0  0  0  0
   -7.9550    1.5480  -79.6820 C   0  0  0  0  0  0  0  0  0  0  0  0
   -8.1940    1.7410  -81.0300 C   0  0  0  0  0  0  0  0  0  0  0  0
   -7.5310    2.6660  -81.7010 F   0  0  0  0  0  0  0  0  0  0  0  0
  1  2  1  0
  2  3  1  0
  3  4  1  0
  4  5  2  0
  6  4  1  0
  6  7  1  6
  6  8  1  0
  6  9  1  0
  8 10  1  0
  9 11  2  0
  9 12  1  0
 10 13  1  0
 11 14  1  0
 12 15  2  0
 13 16  2  0
 13 17  1  0
 14 18  2  0
 15 18  1  0
 17 19  1  0
 19 20  1  0
 20 21  1  0
 21 22  2  0
 21 23  1  0
 22 24  1  0
 23 25  2  0
 24 26  2  0
 25 26  1  0
 26 27  1  0
M  END
>  <ref_url>  (612) 
https://fakepage.com

>  <submitter_name>  (612) 
Steph Wills

>  <submitter_email>  (612) 
stephanie.wills@dtc.ox.ac.uk

>  <submitter_institution>  (612) 
University of Oxford

>  <generation_date>  (612) 
2020-06-04

>  <method>  (612) 
Fragment network

>  <ref_mols>  (612) 
x0183_0B,x0212_0B

>  <ref_pdb>  (612) 
references/x0183-0B-x0212-0B-147952.holo_minimised_nolig.pdb

>  <original SMILES>  (612) 
CCOC(=O)C(C)(CNC(=O)NCCc1ccc(F)cc1)c1ccccc1

>  <synthon>  (612) 
[Xe]c1ccccc1

>  <original_name>  (612) 
x0183-0B-x0212-0B-147952

>  <comRMSD_score>  (612) 
0.9535324809924888

>  <IF_score>  (612) 
0.45

>  <SuCOS_score>  (612) 
0.488900676125474

>  <compound_ID>  (612) 
REAL:Z1816260598

$$$$

     RDKit          3D

 22 23  0  0  0  0  0  0  0  0999 V2000
   -5.7500    2.9870  -79.8830 O   0  0  0  0  0  0  0  0  0  0  0  0
   -6.8200    2.6900  -79.3770 C   0  0  0  0  0  0  0  0  0  0  0  0
   -7.2950    3.2440  -78.2390 N   0  0  0  0  0  0  0  0  0  0  0  0
   -7.6610    1.6470  -80.0290 C   0  0  0  0  0  0  0  0  0  0  0  0
   -7.2480    2.5180  -76.9880 C   0  0  0  0  0  0  0  0  0  0  0  0
   -7.9470    0.4280  -79.4200 C   0  0  0  0  0  0  0  0  0  0  0  0
   -8.1540    1.9550  -81.3090 C   0  0  0  0  0  0  0  0  0  0  0  0
   -5.5920    1.9960  -76.4220 S   0  0  0  0  0  0  0  0  0  0  0  0
   -8.5470    2.3280  -76.4030 N   0  0  0  0  0  0  0  0  0  0  0  0
   -8.8010   -0.5720  -80.1690 C   0  0  0  0  0  0  0  0  0  0  0  0
   -8.9400    1.0730  -82.0420 C   0  0  0  0  0  0  0  0  0  0  0  0
   -9.6750    3.0850  -76.6770 C   0  0  0  0  0  0  0  0  0  0  0  0
   -9.2860   -0.1680  -81.5420 C   0  0  0  0  0  0  0  0  0  0  0  0
   -9.8710    3.7990  -77.8610 C   0  0  0  0  0  0  0  0  0  0  0  0
  -10.8330    3.1940  -75.6470 C   0  0  0  0  0  0  0  0  0  0  0  0
  -11.0350    4.5410  -78.0560 C   0  0  0  0  0  0  0  0  0  0  0  0
  -11.9550    3.9480  -75.9100 C   0  0  0  0  0  0  0  0  0  0  0  0
  -12.0650    4.6330  -77.1260 C   0  0  0  0  0  0  0  0  0  0  0  0
  -13.0390    4.0000  -74.8470 C   0  0  0  0  0  0  0  0  0  0  0  0
  -13.3860    5.2700  -74.5490 F   0  0  0  0  0  0  0  0  0  0  0  0
  -12.5700    3.4470  -73.7020 F   0  0  0  0  0  0  0  0  0  0  0  0
  -14.1670    3.3000  -75.1460 F   0  0  0  0  0  0  0  0  0  0  0  0
  1  2  2  0
  2  3  1  0
  2  4  1  0
  3  5  1  0
  4  6  2  0
  4  7  1  0
  5  8  2  0
  5  9  1  0
  6 10  1  0
  7 11  2  0
  9 12  1  0
 10 13  2  0
 11 13  1  0
 12 14  2  0
 12 15  1  0
 14 16  1  0
 15 17  2  0
 16 18  2  0
 17 18  1  0
 17 19  1  0
 19 20  1  0
 19 21  1  0
 19 22  1  0
M  END
>  <ref_url>  (613) 
https://fakepage.com

>  <submitter_name>  (613) 
Steph Wills

>  <submitter_email>  (613) 
stephanie.wills@dtc.ox.ac.uk

>  <submitter_institution>  (613) 
University of Oxford

>  <generation_date>  (613) 
2020-06-04

>  <method>  (613) 
Fragment network

>  <ref_mols>  (613) 
x0183_0B,x0212_0B

>  <ref_pdb>  (613) 
references/x0183-0B-x0212-0B-148646.holo_minimised_nolig.pdb

>  <original SMILES>  (613) 
O=C(NC(=S)Nc1cccc(C(F)(F)F)c1)c1ccccc1

>  <synthon>  (613) 
[Xe]c1ccccc1

>  <original_name>  (613) 
x0183-0B-x0212-0B-148646

>  <comRMSD_score>  (613) 
0.5972014080183742

>  <IF_score>  (613) 
0.55

>  <SuCOS_score>  (613) 
0.4810930615427908

>  <compound_ID>  (613) 
MOLPORT:000-421-776

$$$$

     RDKit          3D

 26 27  0  0  0  0  0  0  0  0999 V2000
  -12.8500    6.3020  -73.5930 C   0  0  0  0  0  0  0  0  0  0  0  0
  -12.9260    4.9060  -73.8890 O   0  0  0  0  0  0  0  0  0  0  0  0
  -13.4120    4.5050  -75.0890 C   0  0  0  0  0  0  0  0  0  0  0  0
  -14.5860    4.3570  -75.3830 O   0  0  0  0  0  0  0  0  0  0  0  0
  -12.3400    4.2010  -76.0490 C   0  0  0  0  0  0  0  0  0  0  0  0
  -12.3380    4.8560  -77.2790 C   0  0  0  0  0  0  0  0  0  0  0  0
  -11.3530    3.2560  -75.7280 C   0  0  0  0  0  0  0  0  0  0  0  0
  -11.3670    4.5610  -78.2030 C   0  0  0  0  0  0  0  0  0  0  0  0
  -10.3830    2.9650  -76.6610 C   0  0  0  0  0  0  0  0  0  0  0  0
  -10.4140    3.6180  -77.8900 C   0  0  0  0  0  0  0  0  0  0  0  0
   -9.4420    3.2720  -78.8220 N   0  0  0  0  0  0  0  0  0  0  0  0
   -8.8400    2.0640  -78.4960 C   0  0  0  0  0  0  0  0  0  0  0  0
   -9.3440    0.9460  -78.3990 O   0  0  0  0  0  0  0  0  0  0  0  0
   -7.5550    2.3900  -78.2700 N   0  0  0  0  0  0  0  0  0  0  0  0
   -6.7240    2.1260  -79.3260 C   0  0  0  0  0  0  0  0  0  0  0  0
   -7.3580    3.5950  -77.6870 C   0  0  0  0  0  0  0  0  0  0  0  0
   -7.6330    1.2940  -80.2170 C   0  0  0  0  0  0  0  0  0  0  0  0
   -7.1690    3.4720  -76.3440 C   0  0  0  0  0  0  0  0  0  0  0  0
   -7.9730   -0.1010  -79.7970 C   0  0  0  0  0  0  0  0  0  0  0  0
   -8.1690    1.7950  -81.3960 C   0  0  0  0  0  0  0  0  0  0  0  0
   -6.0060    2.8490  -75.9070 C   0  0  0  0  0  0  0  0  0  0  0  0
   -6.1250    4.3270  -75.6420 C   0  0  0  0  0  0  0  0  0  0  0  0
   -8.2120    3.2270  -75.5120 O   0  0  0  0  0  0  0  0  0  0  0  0
   -8.8150   -0.8530  -80.5930 C   0  0  0  0  0  0  0  0  0  0  0  0
   -9.0020    0.9990  -82.1560 C   0  0  0  0  0  0  0  0  0  0  0  0
   -9.3240   -0.3070  -81.7620 C   0  0  0  0  0  0  0  0  0  0  0  0
  1  2  1  0
  2  3  1  0
  3  4  2  0
  3  5  1  0
  5  6  2  0
  5  7  1  0
  6  8  1  0
  7  9  2  0
  8 10  2  0
  9 10  1  0
 10 11  1  0
 11 12  1  0
 12 13  2  0
 12 14  1  0
 14 15  1  0
 14 16  1  0
 15 17  1  0
 16 18  1  0
 17 19  2  0
 17 20  1  0
 18 21  1  0
 18 22  1  0
 18 23  1  0
 19 24  1  0
 20 25  2  0
 24 26  2  0
 25 26  1  0
M  END
>  <ref_url>  (614) 
https://fakepage.com

>  <submitter_name>  (614) 
Steph Wills

>  <submitter_email>  (614) 
stephanie.wills@dtc.ox.ac.uk

>  <submitter_institution>  (614) 
University of Oxford

>  <generation_date>  (614) 
2020-06-04

>  <method>  (614) 
Fragment network

>  <ref_mols>  (614) 
x0183_0B,x0212_0B

>  <ref_pdb>  (614) 
references/x0183-0B-x0212-0B-153620.holo_minimised_nolig.pdb

>  <original SMILES>  (614) 
COC(=O)c1ccc(NC(=O)N(Cc2ccccc2)CC(C)(C)O)cc1

>  <synthon>  (614) 
[Xe]c1ccccc1

>  <original_name>  (614) 
x0183-0B-x0212-0B-153620

>  <comRMSD_score>  (614) 
0.914866211631616

>  <IF_score>  (614) 
0.525

>  <SuCOS_score>  (614) 
0.4949552587579198

>  <compound_ID>  (614) 
REAL:Z1595182084

$$$$

     RDKit          3D

 22 23  0  0  0  0  0  0  0  0999 V2000
  -12.7090    6.2780  -73.8660 C   0  0  0  0  0  0  0  0  0  0  0  0
  -13.2680    5.4800  -75.0090 C   0  0  0  0  0  0  0  0  0  0  0  0
  -12.8560    4.2300  -75.3320 C   0  0  1  0  0  0  0  0  0  0  0  0
  -13.8340    3.6460  -75.8080 O   0  0  0  0  0  0  0  0  0  0  0  0
  -11.7170    4.0260  -76.2430 C   0  0  0  0  0  0  0  0  0  0  0  0
  -11.6460    4.8350  -77.3850 C   0  0  0  0  0  0  0  0  0  0  0  0
  -10.6940    3.0770  -76.0460 C   0  0  0  0  0  0  0  0  0  0  0  0
  -10.5830    4.6990  -78.2810 C   0  0  0  0  0  0  0  0  0  0  0  0
   -9.6700    2.9990  -76.9540 C   0  0  0  0  0  0  0  0  0  0  0  0
  -10.6510    2.3050  -75.1150 O   0  0  0  0  0  0  0  0  0  0  0  0
   -9.5880    3.7840  -78.0640 C   0  0  0  0  0  0  0  0  0  0  0  0
  -10.1790    0.9830  -75.5040 C   0  0  0  0  0  0  0  0  0  0  0  0
   -9.4010    0.7410  -76.8330 C   0  0  0  0  0  0  0  0  0  0  0  0
   -8.0560    1.1540  -77.0100 C   0  0  0  0  0  0  0  0  0  0  0  0
   -7.8160    2.1630  -77.6990 O   0  0  0  0  0  0  0  0  0  0  0  0
   -7.1680    2.0670  -78.9000 C   0  0  0  0  0  0  0  0  0  0  0  0
   -7.9260    1.3580  -79.8150 C   0  0  0  0  0  0  0  0  0  0  0  0
   -8.2380    1.8500  -81.0710 C   0  0  0  0  0  0  0  0  0  0  0  0
   -8.4050    0.0910  -79.4660 C   0  0  0  0  0  0  0  0  0  0  0  0
   -9.0360    1.0940  -82.0230 C   0  0  0  0  0  0  0  0  0  0  0  0
   -9.1750   -0.6540  -80.3570 C   0  0  0  0  0  0  0  0  0  0  0  0
   -9.4910   -0.1570  -81.6250 C   0  0  0  0  0  0  0  0  0  0  0  0
  1  2  1  0
  2  3  1  0
  3  4  1  6
  3  5  1  0
  5  6  2  0
  5  7  1  0
  6  8  1  0
  7  9  2  0
  7 10  1  0
  8 11  2  0
  9 11  1  0
 10 12  1  0
 12 13  1  0
 13 14  1  0
 14 15  1  0
 15 16  1  0
 16 17  1  0
 17 18  2  0
 17 19  1  0
 18 20  1  0
 19 21  2  0
 20 22  2  0
 21 22  1  0
M  END
>  <ref_url>  (615) 
https://fakepage.com

>  <submitter_name>  (615) 
Steph Wills

>  <submitter_email>  (615) 
stephanie.wills@dtc.ox.ac.uk

>  <submitter_institution>  (615) 
University of Oxford

>  <generation_date>  (615) 
2020-06-04

>  <method>  (615) 
Fragment network

>  <ref_mols>  (615) 
x0183_0B,x0212_0B

>  <ref_pdb>  (615) 
references/x0183-0B-x0212-0B-154980.holo_minimised_nolig.pdb

>  <original SMILES>  (615) 
CCC(O)c1ccccc1OCCCOCc1ccccc1

>  <synthon>  (615) 
[Xe]c1ccccc1

>  <original_name>  (615) 
x0183-0B-x0212-0B-154980

>  <comRMSD_score>  (615) 
0.5023260340102277

>  <IF_score>  (615) 
0.425

>  <SuCOS_score>  (615) 
0.5188306337171903

>  <compound_ID>  (615) 
CHEMSPACE-BB:CSMB00015069162, CHEMSPACE-BB:CSMB00015069175, CHEMSPACE-BB:CSMB00015069176

$$$$

     RDKit          3D

 21 22  0  0  0  0  0  0  0  0999 V2000
  -12.8620    6.3090  -73.7930 C   0  0  0  0  0  0  0  0  0  0  0  0
  -13.6600    6.0970  -75.0920 C   0  0  0  0  0  0  0  0  0  0  0  0
  -13.5720    4.7220  -75.8140 C   0  0  2  0  0  0  0  0  0  0  0  0
  -14.2020    3.5680  -75.0270 C   0  0  0  0  0  0  0  0  0  0  0  0
  -12.2060    4.3460  -76.3170 C   0  0  0  0  0  0  0  0  0  0  0  0
  -11.3330    3.5680  -75.5530 C   0  0  0  0  0  0  0  0  0  0  0  0
  -11.8030    4.7860  -77.5820 C   0  0  0  0  0  0  0  0  0  0  0  0
  -10.0870    3.2370  -76.0450 C   0  0  0  0  0  0  0  0  0  0  0  0
  -10.5480    4.4490  -78.0710 C   0  0  0  0  0  0  0  0  0  0  0  0
   -9.6930    3.6730  -77.2950 C   0  0  0  0  0  0  0  0  0  0  0  0
   -8.4530    3.3470  -77.7870 N   0  0  0  0  0  0  0  0  0  0  0  0
   -7.7060    2.3080  -77.3100 C   0  0  0  0  0  0  0  0  0  0  0  0
   -7.9990    1.5400  -76.4040 O   0  0  0  0  0  0  0  0  0  0  0  0
   -6.4270    2.2100  -78.0700 C   0  0  0  0  0  0  0  0  0  0  0  0
   -6.6770    2.5690  -79.5220 C   0  0  0  0  0  0  0  0  0  0  0  0
   -7.6240    1.5970  -80.1800 C   0  0  0  0  0  0  0  0  0  0  0  0
   -7.9510    0.3520  -79.6060 C   0  0  0  0  0  0  0  0  0  0  0  0
   -8.1890    1.9470  -81.3980 C   0  0  0  0  0  0  0  0  0  0  0  0
   -8.8290   -0.5180  -80.2580 C   0  0  0  0  0  0  0  0  0  0  0  0
   -9.0550    1.0790  -82.0390 C   0  0  0  0  0  0  0  0  0  0  0  0
   -9.3780   -0.1510  -81.4780 C   0  0  0  0  0  0  0  0  0  0  0  0
  1  2  1  0
  2  3  1  0
  3  4  1  1
  3  5  1  0
  5  6  2  0
  5  7  1  0
  6  8  1  0
  7  9  2  0
  8 10  2  0
  9 10  1  0
 10 11  1  0
 11 12  1  0
 12 13  2  0
 12 14  1  0
 14 15  1  0
 15 16  1  0
 16 17  2  0
 16 18  1  0
 17 19  1  0
 18 20  2  0
 19 21  2  0
 20 21  1  0
M  END
>  <ref_url>  (616) 
https://fakepage.com

>  <submitter_name>  (616) 
Steph Wills

>  <submitter_email>  (616) 
stephanie.wills@dtc.ox.ac.uk

>  <submitter_institution>  (616) 
University of Oxford

>  <generation_date>  (616) 
2020-06-04

>  <method>  (616) 
Fragment network

>  <ref_mols>  (616) 
x0183_0B,x0212_0B

>  <ref_pdb>  (616) 
references/x0183-0B-x0212-0B-156823.holo_minimised_nolig.pdb

>  <original SMILES>  (616) 
CCC(C)c1ccc(NC(=O)CCc2ccccc2)cc1

>  <synthon>  (616) 
[Xe]c1ccccc1

>  <original_name>  (616) 
x0183-0B-x0212-0B-156823

>  <comRMSD_score>  (616) 
0.6545398157258036

>  <IF_score>  (616) 
0.55

>  <SuCOS_score>  (616) 
0.5378945920948498

>  <compound_ID>  (616) 
MOLPORT:001-521-342

$$$$

     RDKit          3D

 19 20  0  0  0  0  0  0  0  0999 V2000
  -13.2490    4.2360  -75.3590 C   0  0  0  0  0  0  0  0  0  0  0  0
  -12.0400    4.0430  -76.2200 C   0  0  0  0  0  0  0  0  0  0  0  0
  -11.9720    4.7540  -77.5630 C   0  0  0  0  0  0  0  0  0  0  0  0
  -10.9680    3.2340  -75.8480 C   0  0  0  0  0  0  0  0  0  0  0  0
  -10.8440    4.5550  -78.3500 C   0  0  0  0  0  0  0  0  0  0  0  0
   -9.8590    3.0790  -76.6940 C   0  0  0  0  0  0  0  0  0  0  0  0
   -9.8160    3.7390  -77.9260 C   0  0  0  0  0  0  0  0  0  0  0  0
   -8.8410    2.2490  -76.2400 N   0  0  0  0  0  0  0  0  0  0  0  0
   -7.6120    2.0290  -76.7820 C   0  0  0  0  0  0  0  0  0  0  0  0
   -6.4090    0.9540  -76.3530 S   0  0  0  0  0  0  0  0  0  0  0  0
   -7.3160    2.8210  -77.8780 N   0  0  0  0  0  0  0  0  0  0  0  0
   -6.8420    2.4440  -79.1220 C   0  0  0  0  0  0  0  0  0  0  0  0
   -5.7450    2.7830  -79.5630 O   0  0  0  0  0  0  0  0  0  0  0  0
   -7.7610    1.5520  -79.9600 C   0  0  0  0  0  0  0  0  0  0  0  0
   -8.2130    1.9680  -81.3100 C   0  0  0  0  0  0  0  0  0  0  0  0
   -8.1800    0.3220  -79.4410 C   0  0  0  0  0  0  0  0  0  0  0  0
   -9.0360    1.1200  -82.0250 C   0  0  0  0  0  0  0  0  0  0  0  0
   -9.0200   -0.5390  -80.1710 C   0  0  0  0  0  0  0  0  0  0  0  0
   -9.4850   -0.2210  -81.4470 C   0  0  0  0  0  0  0  0  0  0  0  0
  1  2  1  0
  2  3  2  0
  2  4  1  0
  3  5  1  0
  4  6  2  0
  5  7  2  0
  6  7  1  0
  6  8  1  0
  8  9  1  0
  9 10  2  0
  9 11  1  0
 11 12  1  0
 12 13  2  0
 12 14  1  0
 14 15  2  0
 14 16  1  0
 15 17  1  0
 16 18  2  0
 17 19  2  0
 18 19  1  0
M  END
>  <ref_url>  (617) 
https://fakepage.com

>  <submitter_name>  (617) 
Steph Wills

>  <submitter_email>  (617) 
stephanie.wills@dtc.ox.ac.uk

>  <submitter_institution>  (617) 
University of Oxford

>  <generation_date>  (617) 
2020-06-04

>  <method>  (617) 
Fragment network

>  <ref_mols>  (617) 
x0183_0B,x0212_0B

>  <ref_pdb>  (617) 
references/x0183-0B-x0212-0B-156868.holo_minimised_nolig.pdb

>  <original SMILES>  (617) 
Cc1cccc(NC(=S)NC(=O)c2ccccc2)c1

>  <synthon>  (617) 
[Xe]c1ccccc1

>  <original_name>  (617) 
x0183-0B-x0212-0B-156868

>  <comRMSD_score>  (617) 
0.5405099041846865

>  <IF_score>  (617) 
0.55

>  <SuCOS_score>  (617) 
0.4823593617453118

>  <compound_ID>  (617) 
MOLPORT:000-248-715

$$$$

     RDKit          3D

 26 27  0  0  0  0  0  0  0  0999 V2000
  -13.9550    6.2580  -72.7910 C   0  0  0  0  0  0  0  0  0  0  0  0
  -13.1100    6.6490  -73.9830 C   0  0  0  0  0  0  0  0  0  0  0  0
  -11.6960    6.2520  -73.6360 C   0  0  0  0  0  0  0  0  0  0  0  0
  -13.2280    8.1540  -74.1790 C   0  0  0  0  0  0  0  0  0  0  0  0
  -13.5920    5.7870  -75.0740 N   0  0  0  0  0  0  0  0  0  0  0  0
  -13.3190    4.1460  -75.1800 S   0  0  0  0  0  0  0  0  0  0  0  0
  -12.9570    3.6420  -73.8720 O   0  0  0  0  0  0  0  0  0  0  0  0
  -14.4280    3.5750  -75.9130 O   0  0  0  0  0  0  0  0  0  0  0  0
  -11.9150    4.0700  -76.2340 C   0  0  0  0  0  0  0  0  0  0  0  0
  -12.0310    4.5980  -77.5150 C   0  0  0  0  0  0  0  0  0  0  0  0
  -10.7220    3.4990  -75.7940 C   0  0  0  0  0  0  0  0  0  0  0  0
  -10.9380    4.5470  -78.3560 C   0  0  0  0  0  0  0  0  0  0  0  0
   -9.6300    3.4620  -76.6560 C   0  0  0  0  0  0  0  0  0  0  0  0
   -9.7500    3.9850  -77.9320 C   0  0  0  0  0  0  0  0  0  0  0  0
   -8.4480    2.8990  -76.2030 N   0  0  0  0  0  0  0  0  0  0  0  0
   -7.8040    1.8970  -76.8490 C   0  0  0  0  0  0  0  0  0  0  0  0
   -8.2510    0.7950  -77.1330 O   0  0  0  0  0  0  0  0  0  0  0  0
   -6.5220    2.3060  -77.1400 N   0  0  0  0  0  0  0  0  0  0  0  0
   -5.9920    2.2180  -78.4720 C   0  0  0  0  0  0  0  0  0  0  0  0
   -6.9810    2.7720  -79.4820 C   0  0  0  0  0  0  0  0  0  0  0  0
   -7.7290    1.6850  -80.1950 C   0  0  0  0  0  0  0  0  0  0  0  0
   -8.2400    1.9660  -81.4440 C   0  0  0  0  0  0  0  0  0  0  0  0
   -7.9220    0.4090  -79.6410 C   0  0  0  0  0  0  0  0  0  0  0  0
   -8.9270    1.0020  -82.1400 C   0  0  0  0  0  0  0  0  0  0  0  0
   -8.6220   -0.5670  -80.3460 C   0  0  0  0  0  0  0  0  0  0  0  0
   -9.1250   -0.2700  -81.6020 C   0  0  0  0  0  0  0  0  0  0  0  0
  1  2  1  0
  2  3  1  0
  2  4  1  0
  2  5  1  0
  6  5  1  0
  6  7  2  0
  6  8  2  0
  6  9  1  0
  9 10  2  0
  9 11  1  0
 10 12  1  0
 11 13  2  0
 12 14  2  0
 13 14  1  0
 13 15  1  0
 15 16  1  0
 16 17  2  0
 16 18  1  0
 18 19  1  0
 19 20  1  0
 20 21  1  0
 21 22  2  0
 21 23  1  0
 22 24  1  0
 23 25  2  0
 24 26  2  0
 25 26  1  0
M  END
>  <ref_url>  (618) 
https://fakepage.com

>  <submitter_name>  (618) 
Steph Wills

>  <submitter_email>  (618) 
stephanie.wills@dtc.ox.ac.uk

>  <submitter_institution>  (618) 
University of Oxford

>  <generation_date>  (618) 
2020-06-04

>  <method>  (618) 
Fragment network

>  <ref_mols>  (618) 
x0183_0B,x0212_0B

>  <ref_pdb>  (618) 
references/x0183-0B-x0212-0B-158932.holo_minimised_nolig.pdb

>  <original SMILES>  (618) 
CC(C)(C)NS(=O)(=O)c1cccc(NC(=O)NCCc2ccccc2)c1

>  <synthon>  (618) 
[Xe]c1ccccc1

>  <original_name>  (618) 
x0183-0B-x0212-0B-158932

>  <comRMSD_score>  (618) 
0.6121019946478292

>  <IF_score>  (618) 
0.55

>  <SuCOS_score>  (618) 
0.5406686681632982

>  <compound_ID>  (618) 
REAL:Z411867896

$$$$

     RDKit          3D

 21 22  0  0  0  0  0  0  0  0999 V2000
  -12.7480    6.3850  -73.6360 C   0  0  0  0  0  0  0  0  0  0  0  0
  -13.2820    5.7550  -74.9010 C   0  0  0  0  0  0  0  0  0  0  0  0
  -13.0460    4.2480  -75.1060 C   0  0  0  0  0  0  0  0  0  0  0  0
  -14.1070    3.5180  -75.6760 C   0  0  0  0  0  0  0  0  0  0  0  0
  -12.6100    3.6030  -73.7720 C   0  0  0  0  0  0  0  0  0  0  0  0
  -11.8710    4.0320  -76.0730 C   0  0  0  0  0  0  0  0  0  0  0  0
  -11.9210    4.6560  -77.3160 C   0  0  0  0  0  0  0  0  0  0  0  0
  -10.7650    3.2290  -75.7470 C   0  0  0  0  0  0  0  0  0  0  0  0
  -10.8490    4.4970  -78.3090 C   0  0  0  0  0  0  0  0  0  0  0  0
   -9.7150    3.0230  -76.6120 C   0  0  0  0  0  0  0  0  0  0  0  0
   -9.7010    3.6080  -77.8690 C   0  0  0  0  0  0  0  0  0  0  0  0
   -8.7390    3.3610  -78.5650 O   0  0  0  0  0  0  0  0  0  0  0  0
   -7.5760    2.7710  -78.0200 C   0  0  0  0  0  0  0  0  0  0  0  0
   -6.9490    2.1190  -79.0690 C   0  0  0  0  0  0  0  0  0  0  0  0
   -5.6230    2.1840  -79.3310 O   0  0  0  0  0  0  0  0  0  0  0  0
   -7.8480    1.2780  -79.9570 C   0  0  0  0  0  0  0  0  0  0  0  0
   -8.2360    1.8590  -81.2820 C   0  0  0  0  0  0  0  0  0  0  0  0
   -8.3120    0.0220  -79.5840 C   0  0  0  0  0  0  0  0  0  0  0  0
   -9.0620    1.0950  -82.0990 C   0  0  0  0  0  0  0  0  0  0  0  0
   -9.1380   -0.6920  -80.4390 C   0  0  0  0  0  0  0  0  0  0  0  0
   -9.5060   -0.1650  -81.6770 C   0  0  0  0  0  0  0  0  0  0  0  0
  1  2  1  0
  3  2  1  0
  3  4  1  0
  3  5  1  0
  3  6  1  0
  6  7  2  0
  6  8  1  0
  7  9  1  0
  8 10  2  0
  9 11  2  0
 10 11  1  0
 11 12  1  0
 12 13  1  0
 13 14  1  0
 14 15  2  0
 14 16  1  0
 16 17  2  0
 16 18  1  0
 17 19  1  0
 18 20  2  0
 19 21  2  0
 20 21  1  0
M  END
>  <ref_url>  (619) 
https://fakepage.com

>  <submitter_name>  (619) 
Steph Wills

>  <submitter_email>  (619) 
stephanie.wills@dtc.ox.ac.uk

>  <submitter_institution>  (619) 
University of Oxford

>  <generation_date>  (619) 
2020-06-04

>  <method>  (619) 
Fragment network

>  <ref_mols>  (619) 
x0183_0B,x0212_0B

>  <ref_pdb>  (619) 
references/x0183-0B-x0212-0B-161269.holo_minimised_nolig.pdb

>  <original SMILES>  (619) 
CCC(C)(C)c1ccc(OCC(=O)c2ccccc2)cc1

>  <synthon>  (619) 
[Xe]c1ccccc1

>  <original_name>  (619) 
x0183-0B-x0212-0B-161269

>  <comRMSD_score>  (619) 
0.4905070317010224

>  <IF_score>  (619) 
0.65

>  <SuCOS_score>  (619) 
0.5651282042313306

>  <compound_ID>  (619) 
MOLPORT:001-538-319

$$$$

     RDKit          3D

 20 21  0  0  0  0  0  0  0  0999 V2000
  -12.8040    6.3510  -73.7880 C   0  0  0  0  0  0  0  0  0  0  0  0
  -13.4290    5.1440  -74.5070 C   0  0  0  0  0  0  0  0  0  0  0  0
  -13.9960    4.1260  -73.6870 O   0  0  0  0  0  0  0  0  0  0  0  0
  -13.3590    5.1380  -75.9650 N   0  0  0  0  0  0  0  0  0  0  0  0
  -12.1050    4.5200  -76.4200 C   0  0  0  0  0  0  0  0  0  0  0  0
  -11.7110    4.7500  -77.7550 C   0  0  0  0  0  0  0  0  0  0  0  0
  -11.3310    3.7400  -75.6030 C   0  0  0  0  0  0  0  0  0  0  0  0
  -10.5330    4.1680  -78.2510 C   0  0  0  0  0  0  0  0  0  0  0  0
  -10.2030    3.1940  -76.1110 C   0  0  0  0  0  0  0  0  0  0  0  0
   -9.7770    3.3680  -77.3930 C   0  0  0  0  0  0  0  0  0  0  0  0
   -8.5980    2.6500  -77.6000 N   0  0  0  0  0  0  0  0  0  0  0  0
   -7.3400    3.0680  -77.9510 C   0  0  0  0  0  0  0  0  0  0  0  0
   -6.2930    3.8300  -76.8870 S   0  0  0  0  0  0  0  0  0  0  0  0
   -7.0380    2.7550  -79.2900 N   0  0  0  0  0  0  0  0  0  0  0  0
   -7.8170    1.7280  -79.9870 C   0  0  0  0  0  0  0  0  0  0  0  0
   -8.1840    2.0770  -81.2760 C   0  0  0  0  0  0  0  0  0  0  0  0
   -8.1660    0.4870  -79.4110 C   0  0  0  0  0  0  0  0  0  0  0  0
   -8.9140    1.1800  -82.0320 C   0  0  0  0  0  0  0  0  0  0  0  0
   -8.9080   -0.4590  -80.1320 C   0  0  0  0  0  0  0  0  0  0  0  0
   -9.3200   -0.2050  -81.4350 C   0  0  0  0  0  0  0  0  0  0  0  0
  1  2  1  0
  2  3  2  0
  2  4  1  0
  4  5  1  0
  5  6  2  0
  5  7  1  0
  6  8  1  0
  7  9  2  0
  8 10  2  0
  9 10  1  0
 10 11  1  0
 11 12  1  0
 12 13  2  0
 12 14  1  0
 14 15  1  0
 15 16  2  0
 15 17  1  0
 16 18  1  0
 17 19  2  0
 18 20  2  0
 19 20  1  0
M  END
>  <ref_url>  (620) 
https://fakepage.com

>  <submitter_name>  (620) 
Steph Wills

>  <submitter_email>  (620) 
stephanie.wills@dtc.ox.ac.uk

>  <submitter_institution>  (620) 
University of Oxford

>  <generation_date>  (620) 
2020-06-04

>  <method>  (620) 
Fragment network

>  <ref_mols>  (620) 
x0183_0B,x0212_0B

>  <ref_pdb>  (620) 
references/x0183-0B-x0212-0B-162066.holo_minimised_nolig.pdb

>  <original SMILES>  (620) 
CC(=O)Nc1ccc(NC(=S)Nc2ccccc2)cc1

>  <synthon>  (620) 
[Xe]c1ccccc1

>  <original_name>  (620) 
x0183-0B-x0212-0B-162066

>  <comRMSD_score>  (620) 
0.8395322110159508

>  <IF_score>  (620) 
0.55

>  <SuCOS_score>  (620) 
0.4229537883743157

>  <compound_ID>  (620) 
MOLPORT:000-421-826

$$$$

     RDKit          3D

 24 25  0  0  0  0  0  0  0  0999 V2000
  -11.6650    6.1990  -73.6460 C   0  0  0  0  0  0  0  0  0  0  0  0
  -13.1110    6.4450  -73.9870 C   0  0  0  0  0  0  0  0  0  0  0  0
  -13.3910    7.9470  -73.9280 C   0  0  0  0  0  0  0  0  0  0  0  0
  -13.8980    5.7040  -72.9410 C   0  0  0  0  0  0  0  0  0  0  0  0
  -13.4740    5.8200  -75.2460 O   0  0  0  0  0  0  0  0  0  0  0  0
  -13.2910    4.4860  -75.4830 C   0  0  0  0  0  0  0  0  0  0  0  0
  -14.0790    3.4550  -75.0610 O   0  0  0  0  0  0  0  0  0  0  0  0
  -12.1590    4.2830  -76.2720 C   0  0  0  0  0  0  0  0  0  0  0  0
  -12.1740    4.8040  -77.5640 C   0  0  0  0  0  0  0  0  0  0  0  0
  -11.0310    3.5680  -75.7790 C   0  0  0  0  0  0  0  0  0  0  0  0
  -11.0620    4.6000  -78.3460 C   0  0  0  0  0  0  0  0  0  0  0  0
   -9.8860    3.3620  -76.5850 C   0  0  0  0  0  0  0  0  0  0  0  0
   -9.8920    3.8690  -77.8620 C   0  0  0  0  0  0  0  0  0  0  0  0
   -8.7850    2.6690  -76.1040 N   0  0  0  0  0  0  0  0  0  0  0  0
   -7.5280    2.8900  -76.6050 C   0  0  0  0  0  0  0  0  0  0  0  0
   -6.7130    3.7090  -76.2030 O   0  0  0  0  0  0  0  0  0  0  0  0
   -7.2660    2.0410  -77.6570 N   0  0  0  0  0  0  0  0  0  0  0  0
   -7.2260    2.4930  -78.9680 C   0  0  0  0  0  0  0  0  0  0  0  0
   -7.9360    1.5580  -79.9160 C   0  0  0  0  0  0  0  0  0  0  0  0
   -8.2830    0.2710  -79.4880 C   0  0  0  0  0  0  0  0  0  0  0  0
   -8.2530    1.9580  -81.2180 C   0  0  0  0  0  0  0  0  0  0  0  0
   -8.9380   -0.6050  -80.3480 C   0  0  0  0  0  0  0  0  0  0  0  0
   -8.9060    1.0780  -82.0730 C   0  0  0  0  0  0  0  0  0  0  0  0
   -9.2470   -0.2000  -81.6360 C   0  0  0  0  0  0  0  0  0  0  0  0
  1  2  1  0
  2  3  1  0
  2  4  1  0
  2  5  1  0
  5  6  1  0
  6  7  2  0
  6  8  1  0
  8  9  2  0
  8 10  1  0
  9 11  1  0
 10 12  2  0
 11 13  2  0
 12 13  1  0
 12 14  1  0
 14 15  1  0
 15 16  2  0
 15 17  1  0
 17 18  1  0
 18 19  1  0
 19 20  2  0
 19 21  1  0
 20 22  1  0
 21 23  2  0
 22 24  2  0
 23 24  1  0
M  END
>  <ref_url>  (621) 
https://fakepage.com

>  <submitter_name>  (621) 
Steph Wills

>  <submitter_email>  (621) 
stephanie.wills@dtc.ox.ac.uk

>  <submitter_institution>  (621) 
University of Oxford

>  <generation_date>  (621) 
2020-06-04

>  <method>  (621) 
Fragment network

>  <ref_mols>  (621) 
x0183_0B,x0212_0B

>  <ref_pdb>  (621) 
references/x0183-0B-x0212-0B-162247.holo_minimised_nolig.pdb

>  <original SMILES>  (621) 
CC(C)(C)OC(=O)c1cccc(NC(=O)NCc2ccccc2)c1

>  <synthon>  (621) 
[Xe]c1ccccc1

>  <original_name>  (621) 
x0183-0B-x0212-0B-162247

>  <comRMSD_score>  (621) 
0.555868489642808

>  <IF_score>  (621) 
0.55

>  <SuCOS_score>  (621) 
0.5587522981487518

>  <compound_ID>  (621) 
REAL:PV-001949127646

$$$$

     RDKit          3D

 27 28  0  0  0  0  0  0  0  0999 V2000
  -14.7730    7.3860  -77.4520 C   0  0  0  0  0  0  0  0  0  0  0  0
  -15.8720    6.9680  -76.5220 C   0  0  0  0  0  0  0  0  0  0  0  0
  -15.4340    6.4530  -75.1570 C   0  0  0  0  0  0  0  0  0  0  0  0
  -14.0170    5.9960  -75.2030 N   0  0  0  0  0  0  0  0  0  0  0  0
  -13.2360    6.6000  -74.0870 C   0  0  0  0  0  0  0  0  0  0  0  0
  -13.8730    4.3120  -75.5460 S   0  0  0  0  0  0  0  0  0  0  0  0
  -13.8950    6.3260  -72.9150 C   0  0  0  0  0  0  0  0  0  0  0  0
  -13.8600    3.5390  -74.3360 O   0  0  0  0  0  0  0  0  0  0  0  0
  -14.8340    3.9840  -76.5760 O   0  0  0  0  0  0  0  0  0  0  0  0
  -12.2910    4.1410  -76.3040 C   0  0  0  0  0  0  0  0  0  0  0  0
  -13.4250    5.2930  -72.1750 C   0  0  0  0  0  0  0  0  0  0  0  0
  -11.1690    3.4710  -75.5910 C   0  0  0  0  0  0  0  0  0  0  0  0
  -12.1610    4.6570  -77.5880 C   0  0  0  0  0  0  0  0  0  0  0  0
   -9.8810    3.3990  -76.3880 C   0  0  0  0  0  0  0  0  0  0  0  0
  -10.9850    4.5820  -78.2940 C   0  0  0  0  0  0  0  0  0  0  0  0
   -9.8590    3.9890  -77.7630 C   0  0  0  0  0  0  0  0  0  0  0  0
   -8.7080    3.9140  -78.4390 N   0  0  0  0  0  0  0  0  0  0  0  0
   -7.6280    3.0970  -78.0200 C   0  0  0  0  0  0  0  0  0  0  0  0
   -7.6310    2.3730  -77.0380 O   0  0  0  0  0  0  0  0  0  0  0  0
   -6.4550    3.2170  -78.9570 C   0  0  0  0  0  0  0  0  0  0  0  0
   -6.2940    1.9120  -79.6590 C   0  0  0  0  0  0  0  0  0  0  0  0
   -7.3560    1.2410  -80.2910 C   0  0  0  0  0  0  0  0  0  0  0  0
   -7.9850    1.7740  -81.4120 C   0  0  0  0  0  0  0  0  0  0  0  0
   -7.7860   -0.0000  -79.7970 C   0  0  0  0  0  0  0  0  0  0  0  0
   -9.0000    1.0950  -82.0440 C   0  0  0  0  0  0  0  0  0  0  0  0
   -8.8120   -0.6880  -80.4260 C   0  0  0  0  0  0  0  0  0  0  0  0
   -9.4160   -0.1490  -81.5490 C   0  0  0  0  0  0  0  0  0  0  0  0
  1  2  1  0
  2  3  1  0
  3  4  1  0
  4  5  1  0
  6  4  1  0
  5  7  1  0
  6  8  2  0
  6  9  2  0
  6 10  1  0
  7 11  1  0
 10 12  2  0
 10 13  1  0
 12 14  1  0
 13 15  2  0
 14 16  2  0
 15 16  1  0
 16 17  1  0
 17 18  1  0
 18 19  2  0
 18 20  1  0
 20 21  1  0
 21 22  1  0
 22 23  2  0
 22 24  1  0
 23 25  1  0
 24 26  2  0
 25 27  2  0
 26 27  1  0
M  END
>  <ref_url>  (622) 
https://fakepage.com

>  <submitter_name>  (622) 
Steph Wills

>  <submitter_email>  (622) 
stephanie.wills@dtc.ox.ac.uk

>  <submitter_institution>  (622) 
University of Oxford

>  <generation_date>  (622) 
2020-06-04

>  <method>  (622) 
Fragment network

>  <ref_mols>  (622) 
x0183_0B,x0212_0B

>  <ref_pdb>  (622) 
references/x0183-0B-x0212-0B-164070.holo_minimised_nolig.pdb

>  <original SMILES>  (622) 
CCCN(CCC)S(=O)(=O)c1ccc(NC(=O)CCc2ccccc2)cc1

>  <synthon>  (622) 
[Xe]c1ccccc1

>  <original_name>  (622) 
x0183-0B-x0212-0B-164070

>  <comRMSD_score>  (622) 
0.7541334246817484

>  <IF_score>  (622) 
0.55

>  <SuCOS_score>  (622) 
0.4855060519374066

>  <compound_ID>  (622) 
MOLPORT:001-595-033

$$$$

     RDKit          3D

 22 23  0  0  0  0  0  0  0  0999 V2000
  -12.8300    6.3910  -73.7570 C   0  0  0  0  0  0  0  0  0  0  0  0
  -13.5390    6.2510  -75.0650 C   0  0  0  0  0  0  0  0  0  0  0  0
  -13.8490    4.5480  -75.6590 S   0  0  0  0  0  0  0  0  0  0  0  0
  -14.7130    4.6390  -76.8120 O   0  0  0  0  0  0  0  0  0  0  0  0
  -14.1300    3.6500  -74.5770 O   0  0  0  0  0  0  0  0  0  0  0  0
  -12.2310    4.1720  -76.2320 C   0  0  0  0  0  0  0  0  0  0  0  0
  -11.8000    4.7000  -77.5200 C   0  0  0  0  0  0  0  0  0  0  0  0
  -11.3770    3.3780  -75.4690 C   0  0  0  0  0  0  0  0  0  0  0  0
  -10.5270    4.3920  -77.9550 C   0  0  0  0  0  0  0  0  0  0  0  0
  -10.1160    3.0950  -75.9400 C   0  0  0  0  0  0  0  0  0  0  0  0
   -9.7000    3.5980  -77.1620 C   0  0  0  0  0  0  0  0  0  0  0  0
   -8.4390    3.2440  -77.5030 N   0  0  0  0  0  0  0  0  0  0  0  0
   -7.9680    3.6570  -78.7980 C   0  0  0  0  0  0  0  0  0  0  0  0
   -8.5490    4.1970  -79.7350 O   0  0  0  0  0  0  0  0  0  0  0  0
   -6.6460    3.3540  -78.9700 C   0  0  0  0  0  0  0  0  0  0  0  0
   -6.4710    1.8940  -79.3500 C   0  0  0  0  0  0  0  0  0  0  0  0
   -7.5690    1.2550  -80.1990 C   0  0  0  0  0  0  0  0  0  0  0  0
   -8.0960   -0.0800  -79.7180 C   0  0  0  0  0  0  0  0  0  0  0  0
   -8.1130    1.8010  -81.3660 C   0  0  0  0  0  0  0  0  0  0  0  0
   -9.0730   -0.7280  -80.4210 C   0  0  0  0  0  0  0  0  0  0  0  0
   -9.1110    1.0840  -82.0450 C   0  0  0  0  0  0  0  0  0  0  0  0
   -9.5870   -0.1630  -81.5790 C   0  0  0  0  0  0  0  0  0  0  0  0
  1  2  1  0
  3  2  1  0
  3  4  2  0
  3  5  2  0
  3  6  1  0
  6  7  2  0
  6  8  1  0
  7  9  1  0
  8 10  2  0
  9 11  2  0
 10 11  1  0
 11 12  1  0
 12 13  1  0
 13 14  2  0
 13 15  1  0
 15 16  1  0
 16 17  1  0
 17 18  2  0
 17 19  1  0
 18 20  1  0
 19 21  2  0
 20 22  2  0
 21 22  1  0
M  END
>  <ref_url>  (623) 
https://fakepage.com

>  <submitter_name>  (623) 
Steph Wills

>  <submitter_email>  (623) 
stephanie.wills@dtc.ox.ac.uk

>  <submitter_institution>  (623) 
University of Oxford

>  <generation_date>  (623) 
2020-06-04

>  <method>  (623) 
Fragment network

>  <ref_mols>  (623) 
x0183_0B,x0212_0B

>  <ref_pdb>  (623) 
references/x0183-0B-x0212-0B-164119.holo_minimised_nolig.pdb

>  <original SMILES>  (623) 
CCS(=O)(=O)c1ccc(NC(=O)CCc2ccccc2)cc1

>  <synthon>  (623) 
[Xe]c1ccccc1

>  <original_name>  (623) 
x0183-0B-x0212-0B-164119

>  <comRMSD_score>  (623) 
0.7226324817662865

>  <IF_score>  (623) 
0.55

>  <SuCOS_score>  (623) 
0.5109544186485999

>  <compound_ID>  (623) 
REAL:Z227236338

$$$$

     RDKit          3D

 20 21  0  0  0  0  0  0  0  0999 V2000
  -12.7780    6.4440  -73.6330 C   0  0  0  0  0  0  0  0  0  0  0  0
  -13.6610    5.9370  -75.1290 S   0  0  0  0  0  0  0  0  0  0  0  0
  -13.1610    4.1970  -75.2730 C   0  0  0  0  0  0  0  0  0  0  0  0
  -12.0620    4.0490  -76.1050 C   0  0  0  0  0  0  0  0  0  0  0  0
  -12.0500    4.6180  -77.3670 C   0  0  0  0  0  0  0  0  0  0  0  0
  -10.9350    3.3290  -75.7060 C   0  0  0  0  0  0  0  0  0  0  0  0
  -11.0040    4.5220  -78.2580 C   0  0  0  0  0  0  0  0  0  0  0  0
   -9.8700    3.2270  -76.5970 C   0  0  0  0  0  0  0  0  0  0  0  0
   -9.8880    3.8110  -77.8660 C   0  0  0  0  0  0  0  0  0  0  0  0
   -8.7340    2.5230  -76.2310 N   0  0  0  0  0  0  0  0  0  0  0  0
   -7.4850    2.8490  -76.6850 C   0  0  0  0  0  0  0  0  0  0  0  0
   -6.7560    3.7470  -76.2740 O   0  0  0  0  0  0  0  0  0  0  0  0
   -7.0830    1.9530  -77.7700 N   0  0  0  0  0  0  0  0  0  0  0  0
   -7.1660    2.5660  -79.1040 C   0  0  0  0  0  0  0  0  0  0  0  0
   -7.8380    1.6580  -79.9190 C   0  0  0  0  0  0  0  0  0  0  0  0
   -8.1960    2.0240  -81.1980 C   0  0  0  0  0  0  0  0  0  0  0  0
   -8.1640    0.3520  -79.4620 C   0  0  0  0  0  0  0  0  0  0  0  0
   -8.9120    1.0680  -82.0910 C   0  0  0  0  0  0  0  0  0  0  0  0
   -8.8390   -0.6020  -80.2520 C   0  0  0  0  0  0  0  0  0  0  0  0
   -9.2300   -0.3100  -81.5460 C   0  0  0  0  0  0  0  0  0  0  0  0
  1  2  1  0
  2  3  1  0
  3  4  1  0
  4  5  2  0
  4  6  1  0
  5  7  1  0
  6  8  2  0
  7  9  2  0
  8  9  1  0
  8 10  1  0
 10 11  1  0
 11 12  2  0
 11 13  1  0
 13 14  1  0
 14 15  1  0
 15 16  2  0
 15 17  1  0
 16 18  1  0
 17 19  2  0
 18 20  2  0
 19 20  1  0
M  END
>  <ref_url>  (624) 
https://fakepage.com

>  <submitter_name>  (624) 
Steph Wills

>  <submitter_email>  (624) 
stephanie.wills@dtc.ox.ac.uk

>  <submitter_institution>  (624) 
University of Oxford

>  <generation_date>  (624) 
2020-06-04

>  <method>  (624) 
Fragment network

>  <ref_mols>  (624) 
x0183_0B,x0212_0B

>  <ref_pdb>  (624) 
references/x0183-0B-x0212-0B-165090.holo_minimised_nolig.pdb

>  <original SMILES>  (624) 
CSCc1cccc(NC(=O)NCc2ccccc2)c1

>  <synthon>  (624) 
[Xe]c1ccccc1

>  <original_name>  (624) 
x0183-0B-x0212-0B-165090

>  <comRMSD_score>  (624) 
0.5057419192521888

>  <IF_score>  (624) 
0.55

>  <SuCOS_score>  (624) 
0.5521963834475999

>  <compound_ID>  (624) 
REAL:Z1168479098

$$$$

     RDKit          3D

 21 22  0  0  0  0  0  0  0  0999 V2000
  -13.6070    5.7280  -73.0040 N   0  0  0  0  0  0  0  0  0  0  0  0
  -12.9510    6.4090  -73.9860 C   0  0  0  0  0  0  0  0  0  0  0  0
  -13.3490    6.1290  -75.4080 C   0  0  0  0  0  0  0  0  0  0  0  0
  -13.3720    4.8360  -75.9810 C   0  0  0  0  0  0  0  0  0  0  0  0
  -12.1970    4.1620  -76.2860 C   0  0  0  0  0  0  0  0  0  0  0  0
  -11.7970    3.0780  -75.5210 C   0  0  0  0  0  0  0  0  0  0  0  0
  -11.3550    4.5250  -77.3670 C   0  0  0  0  0  0  0  0  0  0  0  0
  -10.6670    2.3330  -75.7240 C   0  0  0  0  0  0  0  0  0  0  0  0
  -10.1950    3.7590  -77.5650 C   0  0  0  0  0  0  0  0  0  0  0  0
   -9.8650    2.6850  -76.7640 C   0  0  0  0  0  0  0  0  0  0  0  0
   -9.0950    3.7900  -78.4910 N   0  0  0  0  0  0  0  0  0  0  0  0
   -8.0550    3.2990  -77.5630 C   0  0  0  0  0  0  0  0  0  0  0  0
   -8.0770    3.4800  -76.3510 O   0  0  0  0  0  0  0  0  0  0  0  0
   -7.0460    2.5780  -78.1300 N   0  0  0  0  0  0  0  0  0  0  0  0
   -6.8800    2.6000  -79.5450 C   0  0  0  0  0  0  0  0  0  0  0  0
   -7.6960    1.6600  -80.1400 C   0  0  0  0  0  0  0  0  0  0  0  0
   -8.0250    0.3280  -79.4890 C   0  0  0  0  0  0  0  0  0  0  0  0
   -8.2460    1.9240  -81.3860 C   0  0  0  0  0  0  0  0  0  0  0  0
   -8.9260   -0.6260  -80.2350 C   0  0  0  0  0  0  0  0  0  0  0  0
   -9.0750    0.9950  -82.0270 C   0  0  0  0  0  0  0  0  0  0  0  0
   -9.4140   -0.2520  -81.4790 C   0  0  0  0  0  0  0  0  0  0  0  0
  1  2  1  0
  2  3  1  0
  3  4  1  0
  4  5  1  0
  5  6  2  0
  5  7  1  0
  6  8  1  0
  7  9  2  0
  8 10  2  0
  9 10  1  0
  9 11  1  0
 11 12  1  0
 12 13  2  0
 12 14  1  0
 14 15  1  0
 15 16  1  0
 16 17  2  0
 16 18  1  0
 17 19  1  0
 18 20  2  0
 19 21  2  0
 20 21  1  0
M  END
>  <ref_url>  (625) 
https://fakepage.com

>  <submitter_name>  (625) 
Steph Wills

>  <submitter_email>  (625) 
stephanie.wills@dtc.ox.ac.uk

>  <submitter_institution>  (625) 
University of Oxford

>  <generation_date>  (625) 
2020-06-04

>  <method>  (625) 
Fragment network

>  <ref_mols>  (625) 
x0183_0B,x0212_0B

>  <ref_pdb>  (625) 
references/x0183-0B-x0212-0B-165634.holo_minimised_nolig.pdb

>  <original SMILES>  (625) 
NCCCc1cccc(NC(=O)NCc2ccccc2)c1

>  <synthon>  (625) 
[Xe]c1ccccc1

>  <original_name>  (625) 
x0183-0B-x0212-0B-165634

>  <comRMSD_score>  (625) 
0.8948642769012924

>  <IF_score>  (625) 
0.55

>  <SuCOS_score>  (625) 
0.557014270305241

>  <compound_ID>  (625) 
CHEMSPACE-BB:CSMB00014267918

$$$$

     RDKit          3D

 23 24  0  0  0  0  0  0  0  0999 V2000
  -12.9210    6.4550  -73.7330 C   0  0  0  0  0  0  0  0  0  0  0  0
  -13.5760    5.9590  -74.8600 N   0  0  0  0  0  0  0  0  0  0  0  0
  -14.7700    6.7390  -75.2230 C   0  0  0  0  0  0  0  0  0  0  0  0
  -13.6270    4.2920  -75.0840 S   0  0  0  0  0  0  0  0  0  0  0  0
  -13.4890    3.7130  -73.7660 O   0  0  0  0  0  0  0  0  0  0  0  0
  -14.6690    3.9150  -76.0020 O   0  0  0  0  0  0  0  0  0  0  0  0
  -12.1070    4.1200  -75.9560 C   0  0  0  0  0  0  0  0  0  0  0  0
  -11.8960    4.6990  -77.2790 C   0  0  0  0  0  0  0  0  0  0  0  0
  -11.0800    3.4200  -75.3720 C   0  0  0  0  0  0  0  0  0  0  0  0
  -10.6910    4.5580  -77.9480 C   0  0  0  0  0  0  0  0  0  0  0  0
   -9.8810    3.2830  -76.0400 C   0  0  0  0  0  0  0  0  0  0  0  0
   -9.6790    3.8390  -77.3090 C   0  0  0  0  0  0  0  0  0  0  0  0
   -8.4350    3.6260  -77.8500 N   0  0  0  0  0  0  0  0  0  0  0  0
   -7.6900    2.5640  -77.4060 C   0  0  0  0  0  0  0  0  0  0  0  0
   -7.9340    1.8010  -76.4780 O   0  0  0  0  0  0  0  0  0  0  0  0
   -6.5370    2.4300  -78.2200 N   0  0  0  0  0  0  0  0  0  0  0  0
   -6.6650    2.5980  -79.5500 C   0  0  0  0  0  0  0  0  0  0  0  0
   -7.6470    1.6160  -80.2130 C   0  0  0  0  0  0  0  0  0  0  0  0
   -7.9970    0.2640  -79.5740 C   0  0  0  0  0  0  0  0  0  0  0  0
   -8.2520    1.9360  -81.4360 C   0  0  0  0  0  0  0  0  0  0  0  0
   -8.9710   -0.5990  -80.3440 C   0  0  0  0  0  0  0  0  0  0  0  0
   -9.1460    1.0670  -82.0830 C   0  0  0  0  0  0  0  0  0  0  0  0
   -9.4880   -0.1720  -81.5380 C   0  0  0  0  0  0  0  0  0  0  0  0
  1  2  1  0
  2  3  1  0
  4  2  1  0
  4  5  2  0
  4  6  2  0
  4  7  1  0
  7  8  2  0
  7  9  1  0
  8 10  1  0
  9 11  2  0
 10 12  2  0
 11 12  1  0
 12 13  1  0
 13 14  1  0
 14 15  2  0
 14 16  1  0
 16 17  1  0
 17 18  1  0
 18 19  2  0
 18 20  1  0
 19 21  1  0
 20 22  2  0
 21 23  2  0
 22 23  1  0
M  END
>  <ref_url>  (626) 
https://fakepage.com

>  <submitter_name>  (626) 
Steph Wills

>  <submitter_email>  (626) 
stephanie.wills@dtc.ox.ac.uk

>  <submitter_institution>  (626) 
University of Oxford

>  <generation_date>  (626) 
2020-06-04

>  <method>  (626) 
Fragment network

>  <ref_mols>  (626) 
x0183_0B,x0212_0B

>  <ref_pdb>  (626) 
references/x0183-0B-x0212-0B-167462.holo_minimised_nolig.pdb

>  <original SMILES>  (626) 
CN(C)S(=O)(=O)c1ccc(NC(=O)NCc2ccccc2)cc1

>  <synthon>  (626) 
[Xe]c1ccccc1

>  <original_name>  (626) 
x0183-0B-x0212-0B-167462

>  <comRMSD_score>  (626) 
0.5792646040295228

>  <IF_score>  (626) 
0.65

>  <SuCOS_score>  (626) 
0.5141825184081749

>  <compound_ID>  (626) 
REAL:PV-001941064354

$$$$

     RDKit          3D

 22 24  0  0  0  0  0  0  0  0999 V2000
   -8.3720    1.5860  -77.3730 O   0  0  0  0  0  0  0  0  0  0  0  0
   -8.4670    2.7200  -77.7800 C   0  0  0  0  0  0  0  0  0  0  0  0
   -7.5350    3.3490  -78.4970 N   0  0  0  0  0  0  0  0  0  0  0  0
   -9.6780    3.3980  -77.3810 C   0  0  0  0  0  0  0  0  0  0  0  0
   -6.8490    2.6300  -79.5480 C   0  0  0  0  0  0  0  0  0  0  0  0
   -9.9560    3.1050  -76.0890 C   0  0  0  0  0  0  0  0  0  0  0  0
  -10.4950    4.2390  -78.1620 C   0  0  0  0  0  0  0  0  0  0  0  0
   -7.6740    1.6850  -80.1670 C   0  0  0  0  0  0  0  0  0  0  0  0
  -11.0190    3.6040  -75.4800 C   0  0  0  0  0  0  0  0  0  0  0  0
  -11.6410    4.8100  -77.5800 C   0  0  0  0  0  0  0  0  0  0  0  0
   -8.2150    2.0040  -81.3920 C   0  0  0  0  0  0  0  0  0  0  0  0
   -7.9660    0.4360  -79.5830 C   0  0  0  0  0  0  0  0  0  0  0  0
  -11.9210    4.5090  -76.2320 C   0  0  0  0  0  0  0  0  0  0  0  0
   -9.0360    1.0960  -82.0470 C   0  0  0  0  0  0  0  0  0  0  0  0
   -8.7960   -0.4750  -80.2440 C   0  0  0  0  0  0  0  0  0  0  0  0
  -13.0310    4.9900  -75.3540 C   0  0  0  0  0  0  0  0  0  0  0  0
   -9.3300   -0.1410  -81.4840 C   0  0  0  0  0  0  0  0  0  0  0  0
  -13.2700    6.3230  -75.1970 C   0  0  0  0  0  0  0  0  0  0  0  0
  -14.3470    4.2630  -75.2560 C   0  0  0  0  0  0  0  0  0  0  0  0
  -13.3420    6.4070  -73.8280 C   0  0  0  0  0  0  0  0  0  0  0  0
  -14.9480    4.8670  -74.1160 C   0  0  0  0  0  0  0  0  0  0  0  0
  -13.9220    5.4300  -73.3090 O   0  0  0  0  0  0  0  0  0  0  0  0
  1  2  2  0
  2  3  1  0
  2  4  1  0
  3  5  1  0
  4  6  2  0
  4  7  1  0
  5  8  1  0
  6  9  1  0
  7 10  2  0
  8 11  2  0
  8 12  1  0
  9 13  2  0
 10 13  1  0
 11 14  1  0
 12 15  2  0
 13 16  1  0
 14 17  2  0
 15 17  1  0
 16 18  1  0
 16 19  1  0
 18 20  1  0
 19 21  1  0
 20 22  1  0
 21 22  1  0
M  END
>  <ref_url>  (627) 
https://fakepage.com

>  <submitter_name>  (627) 
Steph Wills

>  <submitter_email>  (627) 
stephanie.wills@dtc.ox.ac.uk

>  <submitter_institution>  (627) 
University of Oxford

>  <generation_date>  (627) 
2020-06-04

>  <method>  (627) 
Fragment network

>  <ref_mols>  (627) 
x0183_0B,x0212_0B

>  <ref_pdb>  (627) 
references/x0183-0B-x0212-0B-169150.holo_minimised_nolig.pdb

>  <original SMILES>  (627) 
O=C(NCc1ccccc1)c1ccc(C2CCOCC2)cc1

>  <synthon>  (627) 
[Xe]c1ccccc1

>  <original_name>  (627) 
x0183-0B-x0212-0B-169150

>  <comRMSD_score>  (627) 
0.918579075811396

>  <IF_score>  (627) 
0.55

>  <SuCOS_score>  (627) 
0.5313129610532537

>  <compound_ID>  (627) 
REAL:Z2762875866

$$$$

     RDKit          3D

 26 27  0  0  0  0  0  0  0  0999 V2000
  -11.8580    6.1660  -73.6740 C   0  0  0  0  0  0  0  0  0  0  0  0
  -13.3370    6.3350  -73.8380 C   0  0  0  0  0  0  0  0  0  0  0  0
  -13.7660    6.2380  -75.2390 N   0  0  0  0  0  0  0  0  0  0  0  0
  -13.7200    7.2610  -76.1470 C   0  0  0  0  0  0  0  0  0  0  0  0
  -13.9710    4.6910  -75.9760 S   0  0  0  0  0  0  0  0  0  0  0  0
  -12.4590    7.8460  -76.3570 C   0  0  0  0  0  0  0  0  0  0  0  0
  -14.6050    3.7650  -75.0650 O   0  0  0  0  0  0  0  0  0  0  0  0
  -14.4760    4.8460  -77.3320 O   0  0  0  0  0  0  0  0  0  0  0  0
  -12.3070    4.1560  -76.1200 C   0  0  0  0  0  0  0  0  0  0  0  0
  -11.4770    4.7040  -77.0920 C   0  0  0  0  0  0  0  0  0  0  0  0
  -11.8860    3.1820  -75.2310 C   0  0  0  0  0  0  0  0  0  0  0  0
  -10.1800    4.2540  -77.1560 C   0  0  0  0  0  0  0  0  0  0  0  0
  -10.6150    2.7240  -75.2720 C   0  0  0  0  0  0  0  0  0  0  0  0
   -9.7490    3.2240  -76.1840 C   0  0  0  0  0  0  0  0  0  0  0  0
   -8.6190    2.8740  -76.2580 O   0  0  0  0  0  0  0  0  0  0  0  0
   -8.4670    2.0650  -77.3490 C   0  0  0  0  0  0  0  0  0  0  0  0
   -8.2190    3.0260  -78.4340 C   0  0  0  0  0  0  0  0  0  0  0  0
   -9.1000    3.6630  -78.9960 O   0  0  0  0  0  0  0  0  0  0  0  0
   -6.8980    3.0970  -78.7010 N   0  0  0  0  0  0  0  0  0  0  0  0
   -6.4010    2.1210  -79.6160 C   0  0  0  0  0  0  0  0  0  0  0  0
   -7.5530    1.2940  -80.1760 C   0  0  0  0  0  0  0  0  0  0  0  0
   -8.2370    1.8260  -81.3840 C   0  0  0  0  0  0  0  0  0  0  0  0
   -8.0330    0.0890  -79.6690 C   0  0  0  0  0  0  0  0  0  0  0  0
   -9.2920    1.1720  -81.9940 C   0  0  0  0  0  0  0  0  0  0  0  0
   -9.0990   -0.5440  -80.3030 C   0  0  0  0  0  0  0  0  0  0  0  0
   -9.7360   -0.0390  -81.4440 C   0  0  0  0  0  0  0  0  0  0  0  0
  1  2  1  0
  2  3  1  0
  3  4  1  0
  5  3  1  0
  4  6  1  0
  5  7  2  0
  5  8  2  0
  5  9  1  0
  9 10  2  0
  9 11  1  0
 10 12  1  0
 11 13  2  0
 12 14  2  0
 13 14  1  0
 14 15  1  0
 15 16  1  0
 16 17  1  0
 17 18  2  0
 17 19  1  0
 19 20  1  0
 20 21  1  0
 21 22  2  0
 21 23  1  0
 22 24  1  0
 23 25  2  0
 24 26  2  0
 25 26  1  0
M  END
>  <ref_url>  (628) 
https://fakepage.com

>  <submitter_name>  (628) 
Steph Wills

>  <submitter_email>  (628) 
stephanie.wills@dtc.ox.ac.uk

>  <submitter_institution>  (628) 
University of Oxford

>  <generation_date>  (628) 
2020-06-04

>  <method>  (628) 
Fragment network

>  <ref_mols>  (628) 
x0183_0B,x0212_0B

>  <ref_pdb>  (628) 
references/x0183-0B-x0212-0B-171605.holo_minimised_nolig.pdb

>  <original SMILES>  (628) 
CCN(CC)S(=O)(=O)c1ccc(OCC(=O)NCc2ccccc2)cc1

>  <synthon>  (628) 
[Xe]c1ccccc1

>  <original_name>  (628) 
x0183-0B-x0212-0B-171605

>  <comRMSD_score>  (628) 
0.966869614711234

>  <IF_score>  (628) 
0.5

>  <SuCOS_score>  (628) 
0.4891733114266346

>  <compound_ID>  (628) 
MOLPORT:003-248-701

$$$$

     RDKit          3D

 25 26  0  0  0  0  0  0  0  0999 V2000
  -12.6130    6.2610  -73.8100 C   0  0  0  0  0  0  0  0  0  0  0  0
  -12.6560    5.7950  -75.1690 O   0  0  0  0  0  0  0  0  0  0  0  0
  -13.2180    4.5690  -75.3590 C   0  0  0  0  0  0  0  0  0  0  0  0
  -14.4000    4.2950  -75.2090 O   0  0  0  0  0  0  0  0  0  0  0  0
  -12.2290    3.5390  -75.7960 C   0  0  0  0  0  0  0  0  0  0  0  0
  -11.7520    3.5410  -77.1130 C   0  0  0  0  0  0  0  0  0  0  0  0
  -11.7630    2.5570  -74.9240 C   0  0  0  0  0  0  0  0  0  0  0  0
  -10.8350    2.5570  -77.5240 C   0  0  0  0  0  0  0  0  0  0  0  0
  -10.8580    1.5780  -75.3120 C   0  0  0  0  0  0  0  0  0  0  0  0
  -10.3740    1.5510  -76.6220 C   0  0  0  0  0  0  0  0  0  0  0  0
   -9.4310    0.5100  -77.0240 N   0  0  0  0  0  0  0  0  0  0  0  0
   -8.0240    0.7820  -77.0240 C   0  0  0  0  0  0  0  0  0  0  0  0
   -7.1300    0.0650  -76.5930 O   0  0  0  0  0  0  0  0  0  0  0  0
   -7.8120    2.0050  -77.6110 N   0  0  0  0  0  0  0  0  0  0  0  0
   -7.0780    2.0890  -78.7910 C   0  0  0  0  0  0  0  0  0  0  0  0
   -8.8480    2.8760  -77.5040 C   0  0  2  0  0  0  0  0  0  0  0  0
   -7.8750    1.3110  -79.8350 C   0  0  0  0  0  0  0  0  0  0  0  0
   -8.9410    3.9070  -78.4360 C   0  0  0  0  0  0  0  0  0  0  0  0
   -8.8840    3.2820  -76.0460 C   0  0  0  0  0  0  0  0  0  0  0  0
   -8.1960    1.8910  -81.1730 C   0  0  0  0  0  0  0  0  0  0  0  0
   -8.3250    0.0250  -79.5280 C   0  0  0  0  0  0  0  0  0  0  0  0
   -9.9580    4.0180  -75.7620 O   0  0  0  0  0  0  0  0  0  0  0  0
   -8.9350    1.1160  -82.0560 C   0  0  0  0  0  0  0  0  0  0  0  0
   -9.0580   -0.7000  -80.4430 C   0  0  0  0  0  0  0  0  0  0  0  0
   -9.3570   -0.1640  -81.6800 C   0  0  0  0  0  0  0  0  0  0  0  0
  1  2  1  0
  2  3  1  0
  3  4  2  0
  3  5  1  0
  5  6  2  0
  5  7  1  0
  6  8  1  0
  7  9  2  0
  8 10  2  0
  9 10  1  0
 10 11  1  0
 11 12  1  0
 12 13  2  0
 12 14  1  0
 14 15  1  0
 14 16  1  0
 15 17  1  0
 16 18  1  6
 16 19  1  0
 17 20  2  0
 17 21  1  0
 19 22  1  0
 20 23  1  0
 21 24  2  0
 23 25  2  0
 24 25  1  0
M  END
>  <ref_url>  (629) 
https://fakepage.com

>  <submitter_name>  (629) 
Steph Wills

>  <submitter_email>  (629) 
stephanie.wills@dtc.ox.ac.uk

>  <submitter_institution>  (629) 
University of Oxford

>  <generation_date>  (629) 
2020-06-04

>  <method>  (629) 
Fragment network

>  <ref_mols>  (629) 
x0183_0B,x0212_0B

>  <ref_pdb>  (629) 
references/x0183-0B-x0212-0B-173588.holo_minimised_nolig.pdb

>  <original SMILES>  (629) 
COC(=O)c1ccc(NC(=O)N(Cc2ccccc2)C(C)CO)cc1

>  <synthon>  (629) 
[Xe]c1ccccc1

>  <original_name>  (629) 
x0183-0B-x0212-0B-173588

>  <comRMSD_score>  (629) 
0.90262019821308

>  <IF_score>  (629) 
0.55

>  <SuCOS_score>  (629) 
0.4822832135450473

>  <compound_ID>  (629) 
REAL:Z1844820407

$$$$

     RDKit          3D

 22 23  0  0  0  0  0  0  0  0999 V2000
  -12.8590    6.3860  -73.7180 C   0  0  0  0  0  0  0  0  0  0  0  0
  -13.4750    5.8100  -74.9170 N   0  0  0  0  0  0  0  0  0  0  0  0
  -13.5050    4.2140  -75.3240 S   0  0  0  0  0  0  0  0  0  0  0  0
  -13.4240    3.2970  -73.9690 O   0  0  0  0  0  0  0  0  0  0  0  0
  -14.5480    3.9740  -76.2800 O   0  0  0  0  0  0  0  0  0  0  0  0
  -11.9760    4.0230  -76.1730 C   0  0  0  0  0  0  0  0  0  0  0  0
  -11.7640    4.6570  -77.4770 C   0  0  0  0  0  0  0  0  0  0  0  0
  -10.9320    3.2700  -75.6350 C   0  0  0  0  0  0  0  0  0  0  0  0
  -10.5830    4.5260  -78.1630 C   0  0  0  0  0  0  0  0  0  0  0  0
   -9.7320    3.1510  -76.3540 C   0  0  0  0  0  0  0  0  0  0  0  0
   -9.5640    3.7730  -77.5970 C   0  0  0  0  0  0  0  0  0  0  0  0
   -8.4090    3.6720  -78.3040 N   0  0  0  0  0  0  0  0  0  0  0  0
   -8.4640    3.8560  -79.7540 C   0  0  0  0  0  0  0  0  0  0  0  0
   -7.1850    3.9010  -80.2660 C   0  0  0  0  0  0  0  0  0  0  0  0
   -6.3950    3.0940  -79.8090 O   0  0  0  0  0  0  0  0  0  0  0  0
   -6.9280    2.0130  -79.0550 C   0  0  0  0  0  0  0  0  0  0  0  0
   -7.7670    1.2880  -79.8930 C   0  0  0  0  0  0  0  0  0  0  0  0
   -8.2160    0.0640  -79.3890 C   0  0  0  0  0  0  0  0  0  0  0  0
   -8.1580    1.7350  -81.1800 C   0  0  0  0  0  0  0  0  0  0  0  0
   -9.1590   -0.8030  -80.2790 C   0  0  0  0  0  0  0  0  0  0  0  0
   -8.9910    0.9550  -81.9530 C   0  0  0  0  0  0  0  0  0  0  0  0
   -9.4790   -0.2710  -81.5260 C   0  0  0  0  0  0  0  0  0  0  0  0
  1  2  1  0
  3  2  1  0
  3  4  2  0
  3  5  2  0
  3  6  1  0
  6  7  2  0
  6  8  1  0
  7  9  1  0
  8 10  2  0
  9 11  2  0
 10 11  1  0
 11 12  1  0
 12 13  1  0
 13 14  1  0
 14 15  1  0
 15 16  1  0
 16 17  1  0
 17 18  2  0
 17 19  1  0
 18 20  1  0
 19 21  2  0
 20 22  2  0
 21 22  1  0
M  END
>  <ref_url>  (630) 
https://fakepage.com

>  <submitter_name>  (630) 
Steph Wills

>  <submitter_email>  (630) 
stephanie.wills@dtc.ox.ac.uk

>  <submitter_institution>  (630) 
University of Oxford

>  <generation_date>  (630) 
2020-06-04

>  <method>  (630) 
Fragment network

>  <ref_mols>  (630) 
x0183_0B,x0212_0B

>  <ref_pdb>  (630) 
references/x0183-0B-x0212-0B-179988.holo_minimised_nolig.pdb

>  <original SMILES>  (630) 
CNS(=O)(=O)c1ccc(NCCOCc2ccccc2)cc1

>  <synthon>  (630) 
[Xe]c1ccccc1

>  <original_name>  (630) 
x0183-0B-x0212-0B-179988

>  <comRMSD_score>  (630) 
0.5162036276365992

>  <IF_score>  (630) 
0.55

>  <SuCOS_score>  (630) 
0.4991954753150318

>  <compound_ID>  (630) 
CHEMSPACE-BB:CSMB00017163268

$$$$

     RDKit          3D

 21 22  0  0  0  0  0  0  0  0999 V2000
  -11.7480    6.2400  -73.6260 C   0  0  0  0  0  0  0  0  0  0  0  0
  -13.2410    6.3610  -73.7380 C   0  0  0  0  0  0  0  0  0  0  0  0
  -13.7610    5.8140  -75.0770 C   0  0  0  0  0  0  0  0  0  0  0  0
  -13.4320    4.3250  -75.2680 C   0  0  0  0  0  0  0  0  0  0  0  0
  -12.1430    4.1440  -76.0070 C   0  0  0  0  0  0  0  0  0  0  0  0
  -11.1400    3.3780  -75.4270 C   0  0  0  0  0  0  0  0  0  0  0  0
  -11.9290    4.7300  -77.2660 C   0  0  0  0  0  0  0  0  0  0  0  0
   -9.9340    3.1990  -76.0780 C   0  0  0  0  0  0  0  0  0  0  0  0
  -10.7120    4.5440  -77.9190 C   0  0  0  0  0  0  0  0  0  0  0  0
   -9.7150    3.7760  -77.3130 C   0  0  0  0  0  0  0  0  0  0  0  0
   -8.5050    3.6060  -77.9540 N   0  0  0  0  0  0  0  0  0  0  0  0
   -7.3660    3.2210  -77.2990 C   0  0  0  0  0  0  0  0  0  0  0  0
   -6.8720    3.7310  -76.2990 O   0  0  0  0  0  0  0  0  0  0  0  0
   -6.7520    2.0380  -77.9740 C   0  0  0  0  0  0  0  0  0  0  0  0
   -6.7050    2.2720  -79.4700 C   0  0  0  0  0  0  0  0  0  0  0  0
   -7.6940    1.4180  -80.2070 C   0  0  0  0  0  0  0  0  0  0  0  0
   -8.0950    0.1720  -79.6960 C   0  0  0  0  0  0  0  0  0  0  0  0
   -8.2230    1.8650  -81.4090 C   0  0  0  0  0  0  0  0  0  0  0  0
   -9.0080   -0.6120  -80.3910 C   0  0  0  0  0  0  0  0  0  0  0  0
   -9.1270    1.0800  -82.0940 C   0  0  0  0  0  0  0  0  0  0  0  0
   -9.5230   -0.1560  -81.5920 C   0  0  0  0  0  0  0  0  0  0  0  0
  1  2  1  0
  2  3  1  0
  3  4  1  0
  4  5  1  0
  5  6  2  0
  5  7  1  0
  6  8  1  0
  7  9  2  0
  8 10  2  0
  9 10  1  0
 10 11  1  0
 11 12  1  0
 12 13  2  0
 12 14  1  0
 14 15  1  0
 15 16  1  0
 16 17  2  0
 16 18  1  0
 17 19  1  0
 18 20  2  0
 19 21  2  0
 20 21  1  0
M  END
>  <ref_url>  (631) 
https://fakepage.com

>  <submitter_name>  (631) 
Steph Wills

>  <submitter_email>  (631) 
stephanie.wills@dtc.ox.ac.uk

>  <submitter_institution>  (631) 
University of Oxford

>  <generation_date>  (631) 
2020-06-04

>  <method>  (631) 
Fragment network

>  <ref_mols>  (631) 
x0183_0B,x0212_0B

>  <ref_pdb>  (631) 
references/x0183-0B-x0212-0B-181689.holo_minimised_nolig.pdb

>  <original SMILES>  (631) 
CCCCc1ccc(NC(=O)CCc2ccccc2)cc1

>  <synthon>  (631) 
[Xe]c1ccccc1

>  <original_name>  (631) 
x0183-0B-x0212-0B-181689

>  <comRMSD_score>  (631) 
0.5624391654346385

>  <IF_score>  (631) 
0.65

>  <SuCOS_score>  (631) 
0.5601759611574336

>  <compound_ID>  (631) 
REAL:PV-001792755838, MOLPORT:002-840-282

$$$$

     RDKit          3D

 26 27  0  0  0  0  0  0  0  0999 V2000
  -12.8740    6.1870  -73.9140 C   0  0  0  0  0  0  0  0  0  0  0  0
  -13.2830    5.8290  -75.0360 O   0  0  0  0  0  0  0  0  0  0  0  0
  -13.1760    4.5110  -75.4220 C   0  0  0  0  0  0  0  0  0  0  0  0
  -13.9750    3.6160  -75.1720 O   0  0  0  0  0  0  0  0  0  0  0  0
  -12.0210    4.3100  -76.1880 C   0  0  0  0  0  0  0  0  0  0  0  0
  -11.9780    4.7270  -77.5150 C   0  0  0  0  0  0  0  0  0  0  0  0
  -10.9010    3.6890  -75.6210 C   0  0  0  0  0  0  0  0  0  0  0  0
  -10.8230    4.5260  -78.2680 C   0  0  0  0  0  0  0  0  0  0  0  0
   -9.7400    3.4990  -76.3770 C   0  0  0  0  0  0  0  0  0  0  0  0
   -9.7090    3.9180  -77.7060 C   0  0  0  0  0  0  0  0  0  0  0  0
   -8.5700    2.9090  -75.8840 N   0  0  0  0  0  0  0  0  0  0  0  0
   -7.4140    2.7030  -76.6090 C   0  0  0  0  0  0  0  0  0  0  0  0
   -7.4210    1.7930  -77.4250 O   0  0  0  0  0  0  0  0  0  0  0  0
   -6.2040    3.4450  -76.4620 C   0  0  2  0  0  0  0  0  0  0  0  0
   -6.1210    4.3060  -75.3870 C   0  0  0  0  0  0  0  0  0  0  0  0
   -6.0170    4.3490  -77.5760 N   0  0  0  0  0  0  0  0  0  0  0  0
   -6.2490    3.8810  -78.8990 C   0  0  0  0  0  0  0  0  0  0  0  0
   -5.5740    4.4290  -79.9480 O   0  0  0  0  0  0  0  0  0  0  0  0
   -7.0590    2.9830  -78.9880 O   0  0  0  0  0  0  0  0  0  0  0  0
   -6.4630    1.8050  -79.4560 C   0  0  0  0  0  0  0  0  0  0  0  0
   -7.5420    1.0920  -80.2320 C   0  0  0  0  0  0  0  0  0  0  0  0
   -7.9720   -0.1580  -79.7940 C   0  0  0  0  0  0  0  0  0  0  0  0
   -8.0890    1.6770  -81.3700 C   0  0  0  0  0  0  0  0  0  0  0  0
   -8.9480   -0.8360  -80.4980 C   0  0  0  0  0  0  0  0  0  0  0  0
   -9.0610    0.9940  -82.0710 C   0  0  0  0  0  0  0  0  0  0  0  0
   -9.4890   -0.2640  -81.6340 C   0  0  0  0  0  0  0  0  0  0  0  0
  1  2  1  0
  2  3  1  0
  3  4  2  0
  3  5  1  0
  5  6  2  0
  5  7  1  0
  6  8  1  0
  7  9  2  0
  8 10  2  0
  9 10  1  0
  9 11  1  0
 11 12  1  0
 12 13  2  0
 12 14  1  0
 14 15  1  1
 14 16  1  0
 16 17  1  0
 17 18  2  0
 17 19  1  0
 19 20  1  0
 20 21  1  0
 21 22  2  0
 21 23  1  0
 22 24  1  0
 23 25  2  0
 24 26  2  0
 25 26  1  0
M  END
>  <ref_url>  (632) 
https://fakepage.com

>  <submitter_name>  (632) 
Steph Wills

>  <submitter_email>  (632) 
stephanie.wills@dtc.ox.ac.uk

>  <submitter_institution>  (632) 
University of Oxford

>  <generation_date>  (632) 
2020-06-04

>  <method>  (632) 
Fragment network

>  <ref_mols>  (632) 
x0183_0B,x0212_0B

>  <ref_pdb>  (632) 
references/x0183-0B-x0212-0B-182209.holo_minimised_nolig.pdb

>  <original SMILES>  (632) 
COC(=O)c1cccc(NC(=O)C(C)NC(=O)OCc2ccccc2)c1

>  <synthon>  (632) 
[Xe]c1ccccc1

>  <original_name>  (632) 
x0183-0B-x0212-0B-182209

>  <comRMSD_score>  (632) 
0.6721120111674506

>  <IF_score>  (632) 
0.55

>  <SuCOS_score>  (632) 
0.4608854319661409

>  <compound_ID>  (632) 
CHEMSPACE-BB:CSMB00026860586, MOLPORT:004-227-847

$$$$

     RDKit          3D

 24 26  0  0  0  0  0  0  0  0999 V2000
   -8.4700    4.0110  -78.3970 O   0  0  0  0  0  0  0  0  0  0  0  0
   -7.8090    3.1250  -77.8820 C   0  0  0  0  0  0  0  0  0  0  0  0
   -8.1750    2.4270  -76.6790 C   0  0  0  0  0  0  0  0  0  0  0  0
   -6.6470    2.6080  -78.3660 N   0  0  0  0  0  0  0  0  0  0  0  0
   -9.1470    1.8220  -76.9450 O   0  0  0  0  0  0  0  0  0  0  0  0
   -6.6970    2.6240  -79.7930 C   0  0  0  0  0  0  0  0  0  0  0  0
  -10.1870    2.6310  -76.8470 C   0  0  0  0  0  0  0  0  0  0  0  0
   -7.6210    1.6830  -80.2640 C   0  0  0  0  0  0  0  0  0  0  0  0
  -10.6690    3.5140  -77.9290 C   0  0  0  0  0  0  0  0  0  0  0  0
  -10.8240    2.6180  -75.6410 C   0  0  0  0  0  0  0  0  0  0  0  0
   -8.2520    1.9550  -81.4460 C   0  0  0  0  0  0  0  0  0  0  0  0
   -7.9290    0.4800  -79.6000 C   0  0  0  0  0  0  0  0  0  0  0  0
  -11.7830    4.3100  -77.6900 C   0  0  0  0  0  0  0  0  0  0  0  0
  -11.9100    3.4020  -75.4420 C   0  0  0  0  0  0  0  0  0  0  0  0
   -9.2110    1.0230  -82.0080 C   0  0  0  0  0  0  0  0  0  0  0  0
   -8.8630   -0.4280  -80.1390 C   0  0  0  0  0  0  0  0  0  0  0  0
  -12.4010    4.2390  -76.4470 C   0  0  0  0  0  0  0  0  0  0  0  0
   -9.5020   -0.1550  -81.3490 C   0  0  0  0  0  0  0  0  0  0  0  0
  -13.5200    4.9860  -76.1710 C   0  0  0  0  0  0  0  0  0  0  0  0
  -13.0710    6.6150  -75.6080 S   0  0  0  0  0  0  0  0  0  0  0  0
  -14.4470    4.0660  -74.9190 S   0  0  0  0  0  0  0  0  0  0  0  0
  -12.7210    6.6120  -73.8760 C   0  0  0  0  0  0  0  0  0  0  0  0
  -13.2690    4.2170  -73.5410 C   0  0  0  0  0  0  0  0  0  0  0  0
  -13.2420    5.4870  -72.9840 C   0  0  0  0  0  0  0  0  0  0  0  0
  1  2  2  0
  2  3  1  0
  2  4  1  0
  3  5  1  0
  4  6  1  0
  5  7  1  0
  6  8  1  0
  7  9  2  0
  7 10  1  0
  8 11  2  0
  8 12  1  0
  9 13  1  0
 10 14  2  0
 11 15  1  0
 12 16  2  0
 13 17  2  0
 14 17  1  0
 15 18  2  0
 16 18  1  0
 17 19  1  0
 19 20  1  0
 19 21  1  0
 20 22  1  0
 21 23  1  0
 22 24  1  0
 23 24  1  0
M  END
>  <ref_url>  (633) 
https://fakepage.com

>  <submitter_name>  (633) 
Steph Wills

>  <submitter_email>  (633) 
stephanie.wills@dtc.ox.ac.uk

>  <submitter_institution>  (633) 
University of Oxford

>  <generation_date>  (633) 
2020-06-04

>  <method>  (633) 
Fragment network

>  <ref_mols>  (633) 
x0183_0B,x0212_0B

>  <ref_pdb>  (633) 
references/x0183-0B-x0212-0B-182694.holo_minimised_nolig.pdb

>  <original SMILES>  (633) 
O=C(COc1ccc(C2SCCCS2)cc1)NCc1ccccc1

>  <synthon>  (633) 
[Xe]c1ccccc1

>  <original_name>  (633) 
x0183-0B-x0212-0B-182694

>  <comRMSD_score>  (633) 
0.9455102482943434

>  <IF_score>  (633) 
0.55

>  <SuCOS_score>  (633) 
0.4953217970349154

>  <compound_ID>  (633) 
MOLPORT:004-584-636

$$$$

     RDKit          3D

 21 22  0  0  0  0  0  0  0  0999 V2000
  -12.8270    6.2920  -73.7980 C   0  0  0  0  0  0  0  0  0  0  0  0
  -13.4050    6.1530  -75.2240 C   0  0  0  0  0  0  0  0  0  0  0  0
  -13.4680    4.7000  -75.7630 C   0  0  2  0  0  0  0  0  0  0  0  0
  -14.0710    3.6850  -75.0140 C   0  0  0  0  0  0  0  0  0  0  0  0
  -12.1030    4.2350  -76.2230 C   0  0  0  0  0  0  0  0  0  0  0  0
  -11.2070    3.4400  -75.3540 C   0  0  0  0  0  0  0  0  0  0  0  0
  -11.6830    4.5590  -77.5080 C   0  0  0  0  0  0  0  0  0  0  0  0
   -9.9720    3.0330  -75.8230 C   0  0  0  0  0  0  0  0  0  0  0  0
  -10.4270    4.1210  -77.9380 C   0  0  0  0  0  0  0  0  0  0  0  0
   -9.6020    3.3760  -77.0990 C   0  0  0  0  0  0  0  0  0  0  0  0
   -9.8550    4.3420  -79.1780 N   0  0  0  0  0  0  0  0  0  0  0  0
   -8.5720    3.9640  -79.4890 C   0  0  0  0  0  0  0  0  0  0  0  0
   -7.9720    4.2680  -80.4870 O   0  0  0  0  0  0  0  0  0  0  0  0
   -7.8890    3.0710  -78.4840 C   0  0  0  0  0  0  0  0  0  0  0  0
   -6.9110    2.1110  -79.0850 C   0  0  0  0  0  0  0  0  0  0  0  0
   -7.8110    1.3000  -79.9880 C   0  0  0  0  0  0  0  0  0  0  0  0
   -8.2590    0.0560  -79.5530 C   0  0  0  0  0  0  0  0  0  0  0  0
   -8.2070    1.7900  -81.2450 C   0  0  0  0  0  0  0  0  0  0  0  0
   -9.0980   -0.7050  -80.3610 C   0  0  0  0  0  0  0  0  0  0  0  0
   -9.0390    1.0260  -82.0380 C   0  0  0  0  0  0  0  0  0  0  0  0
   -9.4860   -0.2210  -81.6000 C   0  0  0  0  0  0  0  0  0  0  0  0
  1  2  1  0
  2  3  1  0
  3  4  1  1
  3  5  1  0
  5  6  2  0
  5  7  1  0
  6  8  1  0
  7  9  2  0
  8 10  2  0
  9 10  1  0
  9 11  1  0
 11 12  1  0
 12 13  2  0
 12 14  1  0
 14 15  1  0
 15 16  1  0
 16 17  2  0
 16 18  1  0
 17 19  1  0
 18 20  2  0
 19 21  2  0
 20 21  1  0
M  END
>  <ref_url>  (634) 
https://fakepage.com

>  <submitter_name>  (634) 
Steph Wills

>  <submitter_email>  (634) 
stephanie.wills@dtc.ox.ac.uk

>  <submitter_institution>  (634) 
University of Oxford

>  <generation_date>  (634) 
2020-06-04

>  <method>  (634) 
Fragment network

>  <ref_mols>  (634) 
x0183_0B,x0212_0B

>  <ref_pdb>  (634) 
references/x0183-0B-x0212-0B-185365.holo_minimised_nolig.pdb

>  <original SMILES>  (634) 
CCC(C)c1cccc(NC(=O)CCc2ccccc2)c1

>  <synthon>  (634) 
[Xe]c1ccccc1

>  <original_name>  (634) 
x0183-0B-x0212-0B-185365

>  <comRMSD_score>  (634) 
0.6783763022153755

>  <IF_score>  (634) 
0.55

>  <SuCOS_score>  (634) 
0.5357716645979267

>  <compound_ID>  (634) 
REAL:PV-001812819918

$$$$

     RDKit          3D

 21 22  0  0  0  0  0  0  0  0999 V2000
   -6.6280    3.5590  -76.2310 C   0  0  0  0  0  0  0  0  0  0  0  0
   -7.1200    2.2870  -76.9370 C   0  0  1  0  0  0  0  0  0  0  0  0
   -8.4560    1.8650  -76.3320 C   0  0  0  0  0  0  0  0  0  0  0  0
   -7.3470    2.5310  -78.3600 N   0  0  0  0  0  0  0  0  0  0  0  0
   -8.9230    2.7940  -75.7240 O   0  0  0  0  0  0  0  0  0  0  0  0
   -6.1630    2.5380  -79.0370 C   0  0  0  0  0  0  0  0  0  0  0  0
   -9.9190    3.4250  -76.3350 C   0  0  0  0  0  0  0  0  0  0  0  0
   -5.3460    3.3830  -78.6560 O   0  0  0  0  0  0  0  0  0  0  0  0
   -6.0370    1.5900  -80.0400 N   0  0  0  0  0  0  0  0  0  0  0  0
  -11.0920    3.5800  -75.6240 C   0  0  0  0  0  0  0  0  0  0  0  0
   -9.8410    3.9290  -77.6410 C   0  0  0  0  0  0  0  0  0  0  0  0
   -7.2710    0.9530  -80.4910 C   0  0  0  0  0  0  0  0  0  0  0  0
  -12.2240    4.2740  -76.2520 C   0  0  0  0  0  0  0  0  0  0  0  0
  -10.9200    4.5850  -78.2340 C   0  0  0  0  0  0  0  0  0  0  0  0
   -7.6640   -0.3750  -79.8990 C   0  0  0  0  0  0  0  0  0  0  0  0
   -8.1170    1.4830  -81.4480 C   0  0  0  0  0  0  0  0  0  0  0  0
  -12.1130    4.7650  -77.5490 C   0  0  0  0  0  0  0  0  0  0  0  0
   -8.9310   -1.0300  -80.4050 C   0  0  0  0  0  0  0  0  0  0  0  0
   -9.2650    0.8470  -81.8940 C   0  0  0  0  0  0  0  0  0  0  0  0
   -7.8760    2.6750  -82.0240 F   0  0  0  0  0  0  0  0  0  0  0  0
   -9.6720   -0.3890  -81.3860 C   0  0  0  0  0  0  0  0  0  0  0  0
  2  1  1  1
  2  3  1  0
  2  4  1  0
  3  5  1  0
  4  6  1  0
  5  7  1  0
  6  8  2  0
  6  9  1  0
  7 10  2  0
  7 11  1  0
  9 12  1  0
 10 13  1  0
 11 14  2  0
 12 15  2  0
 12 16  1  0
 13 17  2  0
 14 17  1  0
 15 18  1  0
 16 19  2  0
 16 20  1  0
 18 21  2  0
 19 21  1  0
M  END
>  <ref_url>  (635) 
https://fakepage.com

>  <submitter_name>  (635) 
Steph Wills

>  <submitter_email>  (635) 
stephanie.wills@dtc.ox.ac.uk

>  <submitter_institution>  (635) 
University of Oxford

>  <generation_date>  (635) 
2020-06-04

>  <method>  (635) 
Fragment network

>  <ref_mols>  (635) 
x0183_0B,x0212_0B

>  <ref_pdb>  (635) 
references/x0183-0B-x0212-0B-185854.holo_minimised_nolig.pdb

>  <original SMILES>  (635) 
CC(COc1ccccc1)NC(=O)Nc1ccccc1F

>  <synthon>  (635) 
[Xe]c1ccccc1

>  <original_name>  (635) 
x0183-0B-x0212-0B-185854

>  <comRMSD_score>  (635) 
0.7472610623056002

>  <IF_score>  (635) 
0.55

>  <SuCOS_score>  (635) 
0.4045065716318776

>  <compound_ID>  (635) 
REAL:Z603224912

$$$$

     RDKit          3D

 26 27  0  0  0  0  0  0  0  0999 V2000
  -12.9260    6.2130  -73.7510 C   0  0  0  0  0  0  0  0  0  0  0  0
  -13.6460    5.7600  -74.9210 O   0  0  0  0  0  0  0  0  0  0  0  0
  -13.4790    4.4630  -75.3350 C   0  0  0  0  0  0  0  0  0  0  0  0
  -14.3430    3.3700  -75.0930 O   0  0  0  0  0  0  0  0  0  0  0  0
  -12.1990    4.3470  -76.1520 C   0  0  0  0  0  0  0  0  0  0  0  0
  -12.1750    4.8090  -77.4650 C   0  0  0  0  0  0  0  0  0  0  0  0
  -11.0590    3.7840  -75.5830 C   0  0  0  0  0  0  0  0  0  0  0  0
  -11.0160    4.7190  -78.2080 C   0  0  0  0  0  0  0  0  0  0  0  0
   -9.8700    3.6850  -76.3050 C   0  0  0  0  0  0  0  0  0  0  0  0
   -9.8020    4.1480  -77.6240 C   0  0  0  0  0  0  0  0  0  0  0  0
   -8.6120    4.0700  -78.3360 N   0  0  0  0  0  0  0  0  0  0  0  0
   -7.4030    3.5720  -77.8970 C   0  0  0  0  0  0  0  0  0  0  0  0
   -6.3170    4.2800  -77.3010 O   0  0  0  0  0  0  0  0  0  0  0  0
   -7.4110    2.2250  -78.1300 N   0  0  0  0  0  0  0  0  0  0  0  0
   -6.7500    1.8660  -79.3600 C   0  0  0  0  0  0  0  0  0  0  0  0
   -8.7040    1.7090  -78.0160 C   0  0  0  0  0  0  0  0  0  0  0  0
   -7.6620    1.1620  -80.0900 C   0  0  0  0  0  0  0  0  0  0  0  0
   -9.0550    1.7930  -76.6830 C   0  0  0  0  0  0  0  0  0  0  0  0
   -8.0710   -0.1990  -79.5460 C   0  0  0  0  0  0  0  0  0  0  0  0
   -8.1970    1.6720  -81.2690 C   0  0  0  0  0  0  0  0  0  0  0  0
   -8.9500    0.6260  -75.9300 C   0  0  0  0  0  0  0  0  0  0  0  0
   -8.1850    2.8640  -76.0510 C   0  0  0  0  0  0  0  0  0  0  0  0
  -10.5350    2.2320  -76.5980 C   0  0  0  0  0  0  0  0  0  0  0  0
   -9.0720   -0.9180  -80.3650 C   0  0  0  0  0  0  0  0  0  0  0  0
   -9.1280    0.9590  -82.0030 C   0  0  0  0  0  0  0  0  0  0  0  0
   -9.6050   -0.3070  -81.6250 C   0  0  0  0  0  0  0  0  0  0  0  0
  1  2  1  0
  2  3  1  0
  3  4  2  0
  3  5  1  0
  5  6  2  0
  5  7  1  0
  6  8  1  0
  7  9  2  0
  8 10  2  0
  9 10  1  0
 10 11  1  0
 11 12  1  0
 12 13  2  0
 12 14  1  0
 14 15  1  0
 14 16  1  0
 15 17  1  0
 18 16  1  0
 17 19  2  0
 17 20  1  0
 18 21  1  0
 18 22  1  0
 18 23  1  0
 19 24  1  0
 20 25  2  0
 24 26  2  0
 25 26  1  0
M  END
>  <ref_url>  (636) 
https://fakepage.com

>  <submitter_name>  (636) 
Steph Wills

>  <submitter_email>  (636) 
stephanie.wills@dtc.ox.ac.uk

>  <submitter_institution>  (636) 
University of Oxford

>  <generation_date>  (636) 
2020-06-04

>  <method>  (636) 
Fragment network

>  <ref_mols>  (636) 
x0183_0B,x0212_0B

>  <ref_pdb>  (636) 
references/x0183-0B-x0212-0B-189272.holo_minimised_nolig.pdb

>  <original SMILES>  (636) 
COC(=O)c1ccc(NC(=O)N(Cc2ccccc2)CC(C)(C)C)cc1

>  <synthon>  (636) 
[Xe]c1ccccc1

>  <original_name>  (636) 
x0183-0B-x0212-0B-189272

>  <comRMSD_score>  (636) 
0.6824757219939117

>  <IF_score>  (636) 
0.55

>  <SuCOS_score>  (636) 
0.5223286668596414

>  <compound_ID>  (636) 
REAL:Z1122642727

$$$$

     RDKit          3D

 23 24  0  0  0  0  0  0  0  0999 V2000
  -13.6070    7.9170  -73.7150 C   0  0  0  0  0  0  0  0  0  0  0  0
  -13.1810    6.4600  -73.8970 C   0  0  0  0  0  0  0  0  0  0  0  0
  -11.7420    6.1810  -73.6940 C   0  0  0  0  0  0  0  0  0  0  0  0
  -13.8360    5.8120  -72.6450 C   0  0  0  0  0  0  0  0  0  0  0  0
  -13.6770    5.7520  -75.0540 O   0  0  0  0  0  0  0  0  0  0  0  0
  -13.3120    4.4550  -75.3040 C   0  0  0  0  0  0  0  0  0  0  0  0
  -12.1320    4.2150  -75.9770 C   0  0  0  0  0  0  0  0  0  0  0  0
  -11.9170    4.7800  -77.2320 C   0  0  0  0  0  0  0  0  0  0  0  0
  -11.1250    3.4190  -75.4290 C   0  0  0  0  0  0  0  0  0  0  0  0
  -10.7340    4.5740  -77.9280 C   0  0  0  0  0  0  0  0  0  0  0  0
   -9.9470    3.2060  -76.1060 C   0  0  0  0  0  0  0  0  0  0  0  0
   -9.7510    3.7890  -77.3570 C   0  0  0  0  0  0  0  0  0  0  0  0
   -8.5800    3.6110  -78.0460 N   0  0  0  0  0  0  0  0  0  0  0  0
   -7.5310    3.1820  -77.3450 C   0  0  0  0  0  0  0  0  0  0  0  0
   -7.0690    3.6370  -76.0750 O   0  0  0  0  0  0  0  0  0  0  0  0
   -6.8780    2.1390  -78.0800 N   0  0  0  0  0  0  0  0  0  0  0  0
   -6.8370    2.3100  -79.4390 C   0  0  0  0  0  0  0  0  0  0  0  0
   -7.7200    1.4710  -80.1240 C   0  0  0  0  0  0  0  0  0  0  0  0
   -8.0950    0.2300  -79.5770 C   0  0  0  0  0  0  0  0  0  0  0  0
   -8.2320    1.8780  -81.3700 C   0  0  0  0  0  0  0  0  0  0  0  0
   -9.0460   -0.7230  -80.2830 C   0  0  0  0  0  0  0  0  0  0  0  0
   -9.1080    1.0500  -82.0720 C   0  0  0  0  0  0  0  0  0  0  0  0
   -9.5130   -0.1880  -81.5850 C   0  0  0  0  0  0  0  0  0  0  0  0
  1  2  1  0
  2  3  1  0
  2  4  1  0
  2  5  1  0
  5  6  1  0
  6  7  1  0
  7  8  2  0
  7  9  1  0
  8 10  1  0
  9 11  2  0
 10 12  2  0
 11 12  1  0
 12 13  1  0
 13 14  1  0
 14 15  2  0
 14 16  1  0
 16 17  1  0
 17 18  1  0
 18 19  2  0
 18 20  1  0
 19 21  1  0
 20 22  2  0
 21 23  2  0
 22 23  1  0
M  END
>  <ref_url>  (637) 
https://fakepage.com

>  <submitter_name>  (637) 
Steph Wills

>  <submitter_email>  (637) 
stephanie.wills@dtc.ox.ac.uk

>  <submitter_institution>  (637) 
University of Oxford

>  <generation_date>  (637) 
2020-06-04

>  <method>  (637) 
Fragment network

>  <ref_mols>  (637) 
x0183_0B,x0212_0B

>  <ref_pdb>  (637) 
references/x0183-0B-x0212-0B-190264.holo_minimised_nolig.pdb

>  <original SMILES>  (637) 
CC(C)(C)OCc1ccc(NC(=O)NCc2ccccc2)cc1

>  <synthon>  (637) 
[Xe]c1ccccc1

>  <original_name>  (637) 
x0183-0B-x0212-0B-190264

>  <comRMSD_score>  (637) 
0.5344289441041673

>  <IF_score>  (637) 
0.55

>  <SuCOS_score>  (637) 
0.5466479259830108

>  <compound_ID>  (637) 
REAL:Z1367207557

$$$$

     RDKit          3D

 22 23  0  0  0  0  0  0  0  0999 V2000
  -11.8330    6.2110  -73.6800 C   0  0  0  0  0  0  0  0  0  0  0  0
  -13.3370    6.2340  -73.7310 C   0  0  0  0  0  0  0  0  0  0  0  0
  -13.8520    5.5900  -74.9080 O   0  0  0  0  0  0  0  0  0  0  0  0
  -13.4730    4.2100  -75.0890 C   0  0  0  0  0  0  0  0  0  0  0  0
  -12.2360    4.1630  -75.9360 C   0  0  0  0  0  0  0  0  0  0  0  0
  -12.2210    4.8080  -77.1640 C   0  0  0  0  0  0  0  0  0  0  0  0
  -11.0950    3.4830  -75.5020 C   0  0  0  0  0  0  0  0  0  0  0  0
  -11.0870    4.7910  -77.9410 C   0  0  0  0  0  0  0  0  0  0  0  0
   -9.9480    3.4690  -76.2920 C   0  0  0  0  0  0  0  0  0  0  0  0
   -9.9500    4.1370  -77.5150 C   0  0  0  0  0  0  0  0  0  0  0  0
   -8.8820    4.2420  -78.3880 N   0  0  0  0  0  0  0  0  0  0  0  0
   -8.3000    3.3210  -79.1280 C   0  0  0  0  0  0  0  0  0  0  0  0
   -8.5350    3.1220  -80.3060 O   0  0  0  0  0  0  0  0  0  0  0  0
   -7.3770    2.6340  -78.3870 N   0  0  0  0  0  0  0  0  0  0  0  0
   -7.6170    2.3120  -76.9960 C   0  0  0  0  0  0  0  0  0  0  0  0
   -6.6450    1.6870  -79.1820 C   0  0  0  0  0  0  0  0  0  0  0  0
   -7.6610    1.0100  -80.0410 C   0  0  0  0  0  0  0  0  0  0  0  0
   -8.2010   -0.1970  -79.5990 C   0  0  0  0  0  0  0  0  0  0  0  0
   -8.0870    1.5600  -81.2610 C   0  0  0  0  0  0  0  0  0  0  0  0
   -9.1520   -0.8550  -80.3550 C   0  0  0  0  0  0  0  0  0  0  0  0
   -9.0350    0.8990  -82.0060 C   0  0  0  0  0  0  0  0  0  0  0  0
   -9.5680   -0.3100  -81.5550 C   0  0  0  0  0  0  0  0  0  0  0  0
  1  2  1  0
  2  3  1  0
  3  4  1  0
  4  5  1  0
  5  6  2  0
  5  7  1  0
  6  8  1  0
  7  9  2  0
  8 10  2  0
  9 10  1  0
 10 11  1  0
 11 12  1  0
 12 13  2  0
 12 14  1  0
 14 15  1  0
 14 16  1  0
 16 17  1  0
 17 18  2  0
 17 19  1  0
 18 20  1  0
 19 21  2  0
 20 22  2  0
 21 22  1  0
M  END
>  <ref_url>  (638) 
https://fakepage.com

>  <submitter_name>  (638) 
Steph Wills

>  <submitter_email>  (638) 
stephanie.wills@dtc.ox.ac.uk

>  <submitter_institution>  (638) 
University of Oxford

>  <generation_date>  (638) 
2020-06-04

>  <method>  (638) 
Fragment network

>  <ref_mols>  (638) 
x0183_0B,x0212_0B

>  <ref_pdb>  (638) 
references/x0183-0B-x0212-0B-191841.holo_minimised_nolig.pdb

>  <original SMILES>  (638) 
CCOCc1ccc(NC(=O)N(C)Cc2ccccc2)cc1

>  <synthon>  (638) 
[Xe]c1ccccc1

>  <original_name>  (638) 
x0183-0B-x0212-0B-191841

>  <comRMSD_score>  (638) 
0.6426198403871906

>  <IF_score>  (638) 
0.55

>  <SuCOS_score>  (638) 
0.5133564899579385

>  <compound_ID>  (638) 
REAL:Z1278556897

$$$$

     RDKit          3D

 22 23  0  0  0  0  0  0  0  0999 V2000
  -12.9600    6.3660  -73.7360 C   0  0  0  0  0  0  0  0  0  0  0  0
  -13.7040    5.9010  -74.8260 N   0  0  0  0  0  0  0  0  0  0  0  0
  -13.5100    4.5760  -75.4070 C   0  0  0  0  0  0  0  0  0  0  0  0
  -14.4060    3.4340  -75.4050 O   0  0  0  0  0  0  0  0  0  0  0  0
  -12.1970    4.3340  -76.1340 C   0  0  0  0  0  0  0  0  0  0  0  0
  -11.9890    4.8370  -77.4240 C   0  0  0  0  0  0  0  0  0  0  0  0
  -11.2050    3.6020  -75.4840 C   0  0  0  0  0  0  0  0  0  0  0  0
  -10.7830    4.6080  -78.0630 C   0  0  0  0  0  0  0  0  0  0  0  0
   -9.9910    3.3560  -76.0840 C   0  0  0  0  0  0  0  0  0  0  0  0
   -9.7410    3.8380  -77.3590 C   0  0  0  0  0  0  0  0  0  0  0  0
   -8.5180    3.5740  -77.9070 N   0  0  0  0  0  0  0  0  0  0  0  0
   -7.8060    2.4740  -77.5290 C   0  0  0  0  0  0  0  0  0  0  0  0
   -8.4210    1.6390  -76.6350 O   0  0  0  0  0  0  0  0  0  0  0  0
   -6.5920    2.3690  -78.1100 N   0  0  0  0  0  0  0  0  0  0  0  0
   -5.5060    3.1770  -77.5730 C   0  0  0  0  0  0  0  0  0  0  0  0
   -6.6030    2.5870  -79.4520 C   0  0  0  0  0  0  0  0  0  0  0  0
   -7.5660    1.5680  -80.0830 C   0  0  0  0  0  0  0  0  0  0  0  0
   -8.1390    2.0160  -81.3800 C   0  0  0  0  0  0  0  0  0  0  0  0
   -7.9180    0.3040  -79.5440 C   0  0  0  0  0  0  0  0  0  0  0  0
   -9.0730    1.0820  -82.0660 C   0  0  0  0  0  0  0  0  0  0  0  0
   -8.8060   -0.5760  -80.1980 C   0  0  0  0  0  0  0  0  0  0  0  0
   -9.3910   -0.2480  -81.4240 C   0  0  0  0  0  0  0  0  0  0  0  0
  1  2  1  0
  2  3  1  0
  3  4  2  0
  3  5  1  0
  5  6  2  0
  5  7  1  0
  6  8  1  0
  7  9  2  0
  8 10  2  0
  9 10  1  0
 10 11  1  0
 11 12  1  0
 12 13  2  0
 12 14  1  0
 14 15  1  0
 14 16  1  0
 16 17  1  0
 17 18  2  0
 17 19  1  0
 18 20  1  0
 19 21  2  0
 20 22  2  0
 21 22  1  0
M  END
>  <ref_url>  (639) 
https://fakepage.com

>  <submitter_name>  (639) 
Steph Wills

>  <submitter_email>  (639) 
stephanie.wills@dtc.ox.ac.uk

>  <submitter_institution>  (639) 
University of Oxford

>  <generation_date>  (639) 
2020-06-04

>  <method>  (639) 
Fragment network

>  <ref_mols>  (639) 
x0183_0B,x0212_0B

>  <ref_pdb>  (639) 
references/x0183-0B-x0212-0B-194495.holo_minimised_nolig.pdb

>  <original SMILES>  (639) 
CNC(=O)c1ccc(NC(=O)N(C)Cc2ccccc2)cc1

>  <synthon>  (639) 
[Xe]c1ccccc1

>  <original_name>  (639) 
x0183-0B-x0212-0B-194495

>  <comRMSD_score>  (639) 
0.5862018360535832

>  <IF_score>  (639) 
0.55

>  <SuCOS_score>  (639) 
0.5066358352966873

>  <compound_ID>  (639) 
REAL:Z411817212

$$$$

     RDKit          3D

 22 23  0  0  0  0  0  0  0  0999 V2000
   -5.1010    2.0090  -79.9370 O   0  0  0  0  0  0  0  0  0  0  0  0
   -6.2200    2.1390  -79.4720 C   0  0  0  0  0  0  0  0  0  0  0  0
   -6.6640    2.9360  -78.3710 N   0  0  0  0  0  0  0  0  0  0  0  0
   -7.2710    1.3260  -80.2050 C   0  0  0  0  0  0  0  0  0  0  0  0
   -8.0380    3.2050  -78.6080 C   0  0  0  0  0  0  0  0  0  0  0  0
   -7.6510   -0.0460  -79.6600 C   0  0  0  0  0  0  0  0  0  0  0  0
   -7.9080    1.7930  -81.3710 C   0  0  0  0  0  0  0  0  0  0  0  0
   -8.7590    4.2060  -79.9640 S   0  0  0  0  0  0  0  0  0  0  0  0
   -8.9250    2.5760  -77.7080 N   0  0  0  0  0  0  0  0  0  0  0  0
   -8.6890   -0.8870  -80.3850 C   0  0  0  0  0  0  0  0  0  0  0  0
   -8.8560    1.0310  -82.0450 C   0  0  0  0  0  0  0  0  0  0  0  0
  -10.0120    3.1400  -77.1210 C   0  0  0  0  0  0  0  0  0  0  0  0
   -9.2520   -0.2440  -81.6150 C   0  0  0  0  0  0  0  0  0  0  0  0
  -10.8150    4.1570  -77.9080 C   0  0  0  0  0  0  0  0  0  0  0  0
  -10.3880    2.8100  -75.8490 C   0  0  0  0  0  0  0  0  0  0  0  0
  -11.9240    4.7280  -77.3090 C   0  0  0  0  0  0  0  0  0  0  0  0
  -11.4980    3.4130  -75.3150 C   0  0  0  0  0  0  0  0  0  0  0  0
  -12.2640    4.3520  -76.0120 C   0  0  0  0  0  0  0  0  0  0  0  0
  -13.3690    4.9110  -75.4060 C   0  0  0  0  0  0  0  0  0  0  0  0
  -14.5340    4.3540  -75.8160 F   0  0  0  0  0  0  0  0  0  0  0  0
  -13.4810    6.2320  -75.6580 F   0  0  0  0  0  0  0  0  0  0  0  0
  -13.3350    4.8150  -74.0550 F   0  0  0  0  0  0  0  0  0  0  0  0
  1  2  2  0
  2  3  1  0
  2  4  1  0
  3  5  1  0
  4  6  2  0
  4  7  1  0
  5  8  2  0
  5  9  1  0
  6 10  1  0
  7 11  2  0
  9 12  1  0
 10 13  2  0
 11 13  1  0
 12 14  2  0
 12 15  1  0
 14 16  1  0
 15 17  2  0
 16 18  2  0
 17 18  1  0
 18 19  1  0
 19 20  1  0
 19 21  1  0
 19 22  1  0
M  END
>  <ref_url>  (640) 
https://fakepage.com

>  <submitter_name>  (640) 
Steph Wills

>  <submitter_email>  (640) 
stephanie.wills@dtc.ox.ac.uk

>  <submitter_institution>  (640) 
University of Oxford

>  <generation_date>  (640) 
2020-06-04

>  <method>  (640) 
Fragment network

>  <ref_mols>  (640) 
x0183_0B,x0212_0B

>  <ref_pdb>  (640) 
references/x0183-0B-x0212-0B-194512.holo_minimised_nolig.pdb

>  <original SMILES>  (640) 
O=C(NC(=S)Nc1ccc(C(F)(F)F)cc1)c1ccccc1

>  <synthon>  (640) 
[Xe]c1ccccc1

>  <original_name>  (640) 
x0183-0B-x0212-0B-194512

>  <comRMSD_score>  (640) 
0.9319428407007232

>  <IF_score>  (640) 
0.55

>  <SuCOS_score>  (640) 
0.4422053860159962

>  <compound_ID>  (640) 
MOLPORT:000-689-315

$$$$

     RDKit          3D

 25 26  0  0  0  0  0  0  0  0999 V2000
  -11.7860    6.2270  -73.6000 C   0  0  0  0  0  0  0  0  0  0  0  0
  -13.2660    6.4320  -73.7660 C   0  0  0  0  0  0  0  0  0  0  0  0
  -13.7810    5.9300  -75.1250 C   0  0  0  0  0  0  0  0  0  0  0  0
  -13.5890    4.4280  -75.3680 C   0  0  0  0  0  0  0  0  0  0  0  0
  -12.2740    4.0660  -75.9850 C   0  0  0  0  0  0  0  0  0  0  0  0
  -11.8470    4.5670  -77.2310 C   0  0  0  0  0  0  0  0  0  0  0  0
  -11.4600    3.1960  -75.2790 C   0  0  0  0  0  0  0  0  0  0  0  0
  -10.6050    4.1770  -77.7500 C   0  0  0  0  0  0  0  0  0  0  0  0
  -10.2490    2.8210  -75.7930 C   0  0  0  0  0  0  0  0  0  0  0  0
   -9.8200    3.2950  -77.0050 C   0  0  0  0  0  0  0  0  0  0  0  0
   -8.5890    2.7780  -77.3040 N   0  0  0  0  0  0  0  0  0  0  0  0
   -8.2430    1.4540  -77.0850 C   0  0  0  0  0  0  0  0  0  0  0  0
   -8.9370    0.5830  -76.5660 O   0  0  0  0  0  0  0  0  0  0  0  0
   -6.8450    1.1480  -77.5670 C   0  0  0  0  0  0  0  0  0  0  0  0
   -6.6410    1.8730  -78.8950 C   0  0  2  0  0  0  0  0  0  0  0  0
   -6.7480    3.3060  -78.6260 N   0  0  0  0  0  0  0  0  0  0  0  0
   -7.6190    1.3020  -79.9250 C   0  0  0  0  0  0  0  0  0  0  0  0
   -5.7810    4.0610  -77.9960 C   0  0  0  0  0  0  0  0  0  0  0  0
   -8.1750    0.0490  -79.6140 C   0  0  0  0  0  0  0  0  0  0  0  0
   -7.9930    1.9150  -81.1440 C   0  0  0  0  0  0  0  0  0  0  0  0
   -5.9110    4.3530  -76.5230 C   0  0  0  0  0  0  0  0  0  0  0  0
   -4.8230    4.4730  -78.6540 O   0  0  0  0  0  0  0  0  0  0  0  0
   -9.0620   -0.5830  -80.4710 C   0  0  0  0  0  0  0  0  0  0  0  0
   -8.8850    1.2630  -82.0020 C   0  0  0  0  0  0  0  0  0  0  0  0
   -9.4110    0.0220  -81.6590 C   0  0  0  0  0  0  0  0  0  0  0  0
  1  2  1  0
  2  3  1  0
  3  4  1  0
  4  5  1  0
  5  6  2  0
  5  7  1  0
  6  8  1  0
  7  9  2  0
  8 10  2  0
  9 10  1  0
 10 11  1  0
 11 12  1  0
 12 13  2  0
 12 14  1  0
 15 14  1  1
 15 16  1  0
 15 17  1  0
 16 18  1  0
 17 19  2  0
 17 20  1  0
 18 21  1  0
 18 22  2  0
 19 23  1  0
 20 24  2  0
 23 25  2  0
 24 25  1  0
M  END
>  <ref_url>  (641) 
https://fakepage.com

>  <submitter_name>  (641) 
Steph Wills

>  <submitter_email>  (641) 
stephanie.wills@dtc.ox.ac.uk

>  <submitter_institution>  (641) 
University of Oxford

>  <generation_date>  (641) 
2020-06-04

>  <method>  (641) 
Fragment network

>  <ref_mols>  (641) 
x0183_0B,x0212_0B

>  <ref_pdb>  (641) 
references/x0183-0B-x0212-0B-196573.holo_minimised_nolig.pdb

>  <original SMILES>  (641) 
CCCCc1ccc(NC(=O)CC(NC(C)=O)c2ccccc2)cc1

>  <synthon>  (641) 
[Xe]c1ccccc1

>  <original_name>  (641) 
x0183-0B-x0212-0B-196573

>  <comRMSD_score>  (641) 
0.7905433668147591

>  <IF_score>  (641) 
0.55

>  <SuCOS_score>  (641) 
0.5434091898572311

>  <compound_ID>  (641) 
MOLPORT:006-056-118

$$$$

     RDKit          3D

 30 31  0  0  0  0  0  0  0  0999 V2000
  -12.8390    7.1050  -76.7610 C   0  0  0  0  0  0  0  0  0  0  0  0
  -12.3400    6.9090  -75.6730 O   0  0  0  0  0  0  0  0  0  0  0  0
  -13.1440    6.0620  -74.8230 N   0  0  0  0  0  0  0  0  0  0  0  0
  -12.7350    6.0140  -73.4300 C   0  0  0  0  0  0  0  0  0  0  0  0
  -13.4110    4.5600  -75.5390 S   0  0  0  0  0  0  0  0  0  0  0  0
  -13.5140    3.5880  -74.4790 O   0  0  0  0  0  0  0  0  0  0  0  0
  -14.4730    4.7130  -76.5080 O   0  0  0  0  0  0  0  0  0  0  0  0
  -11.8950    4.3070  -76.4300 C   0  0  0  0  0  0  0  0  0  0  0  0
  -11.7730    4.7290  -77.7400 C   0  0  0  0  0  0  0  0  0  0  0  0
  -10.7760    3.6790  -75.8340 C   0  0  0  0  0  0  0  0  0  0  0  0
  -10.6090    4.5570  -78.4470 C   0  0  0  0  0  0  0  0  0  0  0  0
   -9.5790    3.5070  -76.5690 C   0  0  0  0  0  0  0  0  0  0  0  0
   -9.5020    3.9600  -77.8970 C   0  0  0  0  0  0  0  0  0  0  0  0
   -8.3480    2.8440  -75.9720 C   0  0  0  0  0  0  0  0  0  0  0  0
   -7.3320    3.4910  -75.7460 O   0  0  0  0  0  0  0  0  0  0  0  0
   -8.5540    1.5300  -75.7420 O   0  0  0  0  0  0  0  0  0  0  0  0
   -7.5100    0.6370  -76.1500 C   0  0  0  0  0  0  0  0  0  0  0  0
   -8.1040   -0.2410  -77.0400 C   0  0  0  0  0  0  0  0  0  0  0  0
   -8.2800   -1.5300  -76.6420 O   0  0  0  0  0  0  0  0  0  0  0  0
   -8.4550    0.3180  -78.2350 N   0  0  0  0  0  0  0  0  0  0  0  0
   -8.4800    1.7630  -78.4180 C   0  0  0  0  0  0  0  0  0  0  0  0
   -9.5570    2.3370  -78.5330 O   0  0  0  0  0  0  0  0  0  0  0  0
   -7.1520    2.3730  -78.4630 N   0  0  0  0  0  0  0  0  0  0  0  0
   -6.4470    2.1580  -79.6150 C   0  0  0  0  0  0  0  0  0  0  0  0
   -7.3880    1.2970  -80.4170 C   0  0  0  0  0  0  0  0  0  0  0  0
   -8.1620    1.8550  -81.4340 C   0  0  0  0  0  0  0  0  0  0  0  0
   -7.4860   -0.0630  -80.1070 C   0  0  0  0  0  0  0  0  0  0  0  0
   -9.0450    1.0460  -82.1340 C   0  0  0  0  0  0  0  0  0  0  0  0
   -8.3730   -0.8510  -80.8120 C   0  0  0  0  0  0  0  0  0  0  0  0
   -9.1380   -0.2990  -81.8020 C   0  0  0  0  0  0  0  0  0  0  0  0
  1  2  1  0
  2  3  1  0
  3  4  1  0
  5  3  1  0
  5  6  2  0
  5  7  2  0
  5  8  1  0
  8  9  2  0
  8 10  1  0
  9 11  1  0
 10 12  2  0
 11 13  2  0
 12 13  1  0
 12 14  1  0
 14 15  2  0
 14 16  1  0
 16 17  1  0
 17 18  1  0
 18 19  2  0
 18 20  1  0
 20 21  1  0
 21 22  2  0
 21 23  1  0
 23 24  1  0
 24 25  1  0
 25 26  2  0
 25 27  1  0
 26 28  1  0
 27 29  2  0
 28 30  2  0
 29 30  1  0
M  END
>  <ref_url>  (642) 
https://fakepage.com

>  <submitter_name>  (642) 
Steph Wills

>  <submitter_email>  (642) 
stephanie.wills@dtc.ox.ac.uk

>  <submitter_institution>  (642) 
University of Oxford

>  <generation_date>  (642) 
2020-06-04

>  <method>  (642) 
Fragment network

>  <ref_mols>  (642) 
x0183_0B,x0212_0B

>  <ref_pdb>  (642) 
references/x0183-0B-x0212-0B-198687.holo_minimised_nolig.pdb

>  <original SMILES>  (642) 
CON(C)S(=O)(=O)c1cccc(C(=O)OCC(=O)NC(=O)NCc2ccccc2)c1

>  <synthon>  (642) 
[Xe]c1ccccc1

>  <original_name>  (642) 
x0183-0B-x0212-0B-198687

>  <comRMSD_score>  (642) 
0.8380916373479655

>  <IF_score>  (642) 
0.775

>  <SuCOS_score>  (642) 
0.4903573462755706

>  <compound_ID>  (642) 
MOLPORT:004-478-837

$$$$

     RDKit          3D

 23 24  0  0  0  0  0  0  0  0999 V2000
   -4.4320   -0.8030  -85.4360 C   0  0  0  0  0  0  0  0  0  0  0  0
   -5.6470   -0.0360  -85.2310 N   0  0  0  0  0  0  0  0  0  0  0  0
   -6.5850   -0.0160  -86.3700 C   0  0  0  0  0  0  0  0  0  0  0  0
   -6.3080   -0.3150  -83.9360 C   0  0  0  0  0  0  0  0  0  0  0  0
   -7.7030   -0.2750  -84.0070 C   0  0  0  0  0  0  0  0  0  0  0  0
   -8.3230    0.6640  -83.5240 O   0  0  0  0  0  0  0  0  0  0  0  0
   -8.4900    0.6300  -82.1810 C   0  0  0  0  0  0  0  0  0  0  0  0
   -9.0470   -0.4290  -81.4960 C   0  0  0  0  0  0  0  0  0  0  0  0
   -8.0550    1.7420  -81.4520 C   0  0  0  0  0  0  0  0  0  0  0  0
   -9.1840   -0.4520  -80.1280 C   0  0  0  0  0  0  0  0  0  0  0  0
   -8.1740    1.7500  -80.0560 C   0  0  0  0  0  0  0  0  0  0  0  0
   -8.7390    0.6520  -79.3900 C   0  0  0  0  0  0  0  0  0  0  0  0
   -7.6920    2.9100  -79.4310 N   0  0  0  0  0  0  0  0  0  0  0  0
   -7.6000    3.1920  -78.0930 C   0  0  0  0  0  0  0  0  0  0  0  0
   -6.4720    3.8380  -77.5050 O   0  0  0  0  0  0  0  0  0  0  0  0
   -8.7010    2.7690  -77.3480 N   0  0  0  0  0  0  0  0  0  0  0  0
   -8.3660    1.9590  -76.2930 C   0  0  0  0  0  0  0  0  0  0  0  0
   -9.8960    3.4210  -77.1500 C   0  0  0  0  0  0  0  0  0  0  0  0
  -10.5010    3.0850  -75.9340 C   0  0  0  0  0  0  0  0  0  0  0  0
  -10.5120    4.3380  -78.0250 C   0  0  0  0  0  0  0  0  0  0  0  0
  -11.8050    3.6410  -75.4630 C   0  0  0  0  0  0  0  0  0  0  0  0
  -11.7450    4.9060  -77.6500 C   0  0  0  0  0  0  0  0  0  0  0  0
  -12.3670    4.5860  -76.4420 C   0  0  0  0  0  0  0  0  0  0  0  0
  1  2  1  0
  2  3  1  0
  2  4  1  0
  4  5  1  0
  5  6  1  0
  6  7  1  0
  7  8  2  0
  7  9  1  0
  8 10  1  0
  9 11  2  0
 10 12  2  0
 11 12  1  0
 11 13  1  0
 13 14  1  0
 14 15  2  0
 14 16  1  0
 16 17  1  0
 16 18  1  0
 18 19  2  0
 18 20  1  0
 19 21  1  0
 20 22  2  0
 21 23  2  0
 22 23  1  0
M  END
>  <ref_url>  (643) 
https://fakepage.com

>  <submitter_name>  (643) 
Steph Wills

>  <submitter_email>  (643) 
stephanie.wills@dtc.ox.ac.uk

>  <submitter_institution>  (643) 
University of Oxford

>  <generation_date>  (643) 
2020-06-04

>  <method>  (643) 
Fragment network

>  <ref_mols>  (643) 
x0183_0B,x0212_0B

>  <ref_pdb>  (643) 
references/x0183-0B-x0212-0B-199033.holo_minimised_nolig.pdb

>  <original SMILES>  (643) 
CN(C)CCOc1cccc(NC(=O)N(C)c2ccccc2)c1

>  <synthon>  (643) 
[Xe]c1ccccc1

>  <original_name>  (643) 
x0183-0B-x0212-0B-199033

>  <comRMSD_score>  (643) 
0.9696858843386924

>  <IF_score>  (643) 
0.225

>  <SuCOS_score>  (643) 
0.3403994140141606

>  <compound_ID>  (643) 
REAL:Z2494539572

$$$$

     RDKit          3D

 25 26  0  0  0  0  0  0  0  0999 V2000
  -12.4610    7.6110  -76.4990 C   0  0  0  0  0  0  0  0  0  0  0  0
  -13.7260    6.7470  -76.4480 C   0  0  0  0  0  0  0  0  0  0  0  0
  -13.6310    5.9190  -75.2400 N   0  0  0  0  0  0  0  0  0  0  0  0
  -12.9610    6.4920  -74.0450 C   0  0  0  0  0  0  0  0  0  0  0  0
  -13.5630    4.2300  -75.5490 S   0  0  0  0  0  0  0  0  0  0  0  0
  -13.2480    5.7000  -72.8230 C   0  0  0  0  0  0  0  0  0  0  0  0
  -14.5120    3.8610  -76.5670 O   0  0  0  0  0  0  0  0  0  0  0  0
  -13.5760    3.5550  -74.2670 O   0  0  0  0  0  0  0  0  0  0  0  0
  -11.9270    4.0150  -76.1820 C   0  0  0  0  0  0  0  0  0  0  0  0
  -11.0910    3.2370  -75.4280 C   0  0  0  0  0  0  0  0  0  0  0  0
  -11.4600    4.5940  -77.3930 C   0  0  0  0  0  0  0  0  0  0  0  0
   -9.8070    2.9690  -75.7370 C   0  0  0  0  0  0  0  0  0  0  0  0
  -10.1110    4.3710  -77.8080 C   0  0  0  0  0  0  0  0  0  0  0  0
   -9.2750    3.5790  -76.9900 C   0  0  0  0  0  0  0  0  0  0  0  0
   -7.8710    3.1900  -77.1120 N   0  0  0  0  0  0  0  0  0  0  0  0
   -6.8340    3.8220  -77.8070 C   0  0  0  0  0  0  0  0  0  0  0  0
   -5.9030    4.5580  -77.4940 O   0  0  0  0  0  0  0  0  0  0  0  0
   -6.9350    3.4160  -79.0840 C   0  0  0  0  0  0  0  0  0  0  0  0
   -7.7160    2.1680  -79.1280 C   0  0  0  0  0  0  0  0  0  0  0  0
   -8.1620    1.3360  -80.0710 C   0  0  0  0  0  0  0  0  0  0  0  0
   -8.3120    1.7340  -81.3760 C   0  0  0  0  0  0  0  0  0  0  0  0
   -8.4790    0.0520  -79.6270 C   0  0  0  0  0  0  0  0  0  0  0  0
   -8.7940    0.8410  -82.2900 C   0  0  0  0  0  0  0  0  0  0  0  0
   -8.9700   -0.8920  -80.4960 C   0  0  0  0  0  0  0  0  0  0  0  0
   -9.1440   -0.5490  -81.8180 C   0  0  0  0  0  0  0  0  0  0  0  0
  1  2  1  0
  2  3  1  0
  3  4  1  0
  5  3  1  0
  4  6  1  0
  5  7  2  0
  5  8  2  0
  5  9  1  0
  9 10  2  0
  9 11  1  0
 10 12  1  0
 11 13  2  0
 12 14  2  0
 13 14  1  0
 14 15  1  0
 15 16  1  0
 16 17  2  0
 16 18  1  0
 18 19  2  3
 19 20  1  0
 20 21  2  0
 20 22  1  0
 21 23  1  0
 22 24  2  0
 23 25  2  0
 24 25  1  0
M  END
>  <ref_url>  (644) 
https://fakepage.com

>  <submitter_name>  (644) 
Steph Wills

>  <submitter_email>  (644) 
stephanie.wills@dtc.ox.ac.uk

>  <submitter_institution>  (644) 
University of Oxford

>  <generation_date>  (644) 
2020-06-04

>  <method>  (644) 
Fragment network

>  <ref_mols>  (644) 
x0183_0B,x0212_0B

>  <ref_pdb>  (644) 
references/x0183-0B-x0212-0B-201387.holo_minimised_nolig.pdb

>  <original SMILES>  (644) 
CCN(CC)S(=O)(=O)c1ccc(NC(=O)C=Cc2ccccc2)cc1

>  <synthon>  (644) 
[Xe]c1ccccc1

>  <original_name>  (644) 
x0183-0B-x0212-0B-201387

>  <comRMSD_score>  (644) 
0.682139662033017

>  <IF_score>  (644) 
0.65

>  <SuCOS_score>  (644) 
0.5202067344240247

>  <compound_ID>  (644) 
MOLPORT:000-643-245, MOLPORT:009-661-358

$$$$

     RDKit          3D

 22 23  0  0  0  0  0  0  0  0999 V2000
  -12.7630    6.2840  -73.7820 C   0  0  0  0  0  0  0  0  0  0  0  0
  -13.2600    5.8710  -75.0690 O   0  0  0  0  0  0  0  0  0  0  0  0
  -13.1890    4.5360  -75.3920 C   0  0  0  0  0  0  0  0  0  0  0  0
  -13.9910    3.6700  -75.0520 O   0  0  0  0  0  0  0  0  0  0  0  0
  -12.1240    4.2880  -76.1660 C   0  0  0  0  0  0  0  0  0  0  0  0
  -11.9220    4.8610  -77.5020 C   0  0  0  0  0  0  0  0  0  0  0  0
  -11.1310    3.4190  -75.6750 C   0  0  0  0  0  0  0  0  0  0  0  0
  -10.7780    4.5220  -78.2080 C   0  0  0  0  0  0  0  0  0  0  0  0
   -9.9850    3.0980  -76.4190 C   0  0  0  0  0  0  0  0  0  0  0  0
   -9.8430    3.6650  -77.6760 C   0  0  0  0  0  0  0  0  0  0  0  0
   -9.0210    2.2330  -75.9020 N   0  0  0  0  0  0  0  0  0  0  0  0
   -7.8750    1.7890  -76.5310 C   0  0  0  0  0  0  0  0  0  0  0  0
   -7.5880    0.6150  -76.7130 O   0  0  0  0  0  0  0  0  0  0  0  0
   -6.9670    2.9290  -76.9930 C   0  0  0  0  0  0  0  0  0  0  0  0
   -7.3200    3.2830  -78.2350 O   0  0  0  0  0  0  0  0  0  0  0  0
   -6.8230    2.4320  -79.2580 C   0  0  0  0  0  0  0  0  0  0  0  0
   -7.7520    1.5260  -80.0730 C   0  0  0  0  0  0  0  0  0  0  0  0
   -8.2030    0.3090  -79.5520 C   0  0  0  0  0  0  0  0  0  0  0  0
   -8.1680    1.8960  -81.3590 C   0  0  0  0  0  0  0  0  0  0  0  0
   -9.0440   -0.5230  -80.2950 C   0  0  0  0  0  0  0  0  0  0  0  0
   -9.0050    1.0660  -82.1010 C   0  0  0  0  0  0  0  0  0  0  0  0
   -9.4440   -0.1470  -81.5680 C   0  0  0  0  0  0  0  0  0  0  0  0
  1  2  1  0
  2  3  1  0
  3  4  2  0
  3  5  1  0
  5  6  2  0
  5  7  1  0
  6  8  1  0
  7  9  2  0
  8 10  2  0
  9 10  1  0
  9 11  1  0
 11 12  1  0
 12 13  2  0
 12 14  1  0
 14 15  1  0
 15 16  1  0
 16 17  1  0
 17 18  2  0
 17 19  1  0
 18 20  1  0
 19 21  2  0
 20 22  2  0
 21 22  1  0
M  END
>  <ref_url>  (645) 
https://fakepage.com

>  <submitter_name>  (645) 
Steph Wills

>  <submitter_email>  (645) 
stephanie.wills@dtc.ox.ac.uk

>  <submitter_institution>  (645) 
University of Oxford

>  <generation_date>  (645) 
2020-06-04

>  <method>  (645) 
Fragment network

>  <ref_mols>  (645) 
x0183_0B,x0212_0B

>  <ref_pdb>  (645) 
references/x0183-0B-x0212-0B-204624.holo_minimised_nolig.pdb

>  <original SMILES>  (645) 
COC(=O)c1cccc(NC(=O)COCc2ccccc2)c1

>  <synthon>  (645) 
[Xe]c1ccccc1

>  <original_name>  (645) 
x0183-0B-x0212-0B-204624

>  <comRMSD_score>  (645) 
0.590525001822764

>  <IF_score>  (645) 
0.55

>  <SuCOS_score>  (645) 
0.4922164036058788

>  <compound_ID>  (645) 
CHEMSPACE-BB:CSMB00000175607

$$$$

     RDKit          3D

 25 26  0  0  0  0  0  0  0  0999 V2000
  -12.8770    6.2590  -73.8660 C   0  0  0  0  0  0  0  0  0  0  0  0
  -13.4200    5.7930  -74.8840 O   0  0  0  0  0  0  0  0  0  0  0  0
  -13.1900    4.4700  -75.1540 C   0  0  1  0  0  0  0  0  0  0  0  0
  -14.2910    3.8510  -75.7650 C   0  0  0  0  0  0  0  0  0  0  0  0
  -12.0060    4.2010  -76.0900 C   0  0  0  0  0  0  0  0  0  0  0  0
  -11.9910    4.7370  -77.3760 C   0  0  0  0  0  0  0  0  0  0  0  0
  -10.9090    3.4180  -75.7040 C   0  0  0  0  0  0  0  0  0  0  0  0
  -10.9710    4.5410  -78.2760 C   0  0  0  0  0  0  0  0  0  0  0  0
   -9.8570    3.2060  -76.6030 C   0  0  0  0  0  0  0  0  0  0  0  0
   -9.9060    3.7700  -77.8740 C   0  0  0  0  0  0  0  0  0  0  0  0
   -8.7430    2.4720  -76.3400 N   0  0  0  0  0  0  0  0  0  0  0  0
   -7.4850    2.9730  -76.8270 C   0  0  0  0  0  0  0  0  0  0  0  0
   -6.4380    3.0780  -76.1940 O   0  0  0  0  0  0  0  0  0  0  0  0
   -7.5630    3.3700  -78.2190 N   0  0  0  0  0  0  0  0  0  0  0  0
   -6.8170    2.5410  -79.2040 C   0  0  2  0  0  0  0  0  0  0  0  0
   -6.0940    3.4890  -79.9370 C   0  0  0  0  0  0  0  0  0  0  0  0
   -7.7190    1.5860  -79.9950 C   0  0  0  0  0  0  0  0  0  0  0  0
   -5.2090    4.4390  -79.1130 C   0  0  0  0  0  0  0  0  0  0  0  0
   -8.1870    1.9440  -81.2650 C   0  0  0  0  0  0  0  0  0  0  0  0
   -8.0920    0.3370  -79.4720 C   0  0  0  0  0  0  0  0  0  0  0  0
   -3.7500    3.9830  -79.0210 C   0  0  0  0  0  0  0  0  0  0  0  0
   -8.9950    1.0840  -81.9950 C   0  0  0  0  0  0  0  0  0  0  0  0
   -8.9030   -0.5100  -80.2170 C   0  0  0  0  0  0  0  0  0  0  0  0
   -2.8880    4.7090  -79.9040 O   0  0  0  0  0  0  0  0  0  0  0  0
   -9.3610   -0.1560  -81.4760 C   0  0  0  0  0  0  0  0  0  0  0  0
  1  2  1  0
  2  3  1  0
  3  4  1  6
  3  5  1  0
  5  6  2  0
  5  7  1  0
  6  8  1  0
  7  9  2  0
  8 10  2  0
  9 10  1  0
  9 11  1  0
 11 12  1  0
 12 13  2  0
 12 14  1  0
 14 15  1  0
 15 16  1  6
 15 17  1  0
 16 18  1  0
 17 19  2  0
 17 20  1  0
 18 21  1  0
 19 22  1  0
 20 23  2  0
 21 24  1  0
 22 25  2  0
 23 25  1  0
M  END
>  <ref_url>  (646) 
https://fakepage.com

>  <submitter_name>  (646) 
Steph Wills

>  <submitter_email>  (646) 
stephanie.wills@dtc.ox.ac.uk

>  <submitter_institution>  (646) 
University of Oxford

>  <generation_date>  (646) 
2020-06-04

>  <method>  (646) 
Fragment network

>  <ref_mols>  (646) 
x0183_0B,x0212_0B

>  <ref_pdb>  (646) 
references/x0183-0B-x0212-0B-205760.holo_minimised_nolig.pdb

>  <original SMILES>  (646) 
COC(C)c1cccc(NC(=O)NC(CCCO)c2ccccc2)c1

>  <synthon>  (646) 
[Xe]c1ccccc1

>  <original_name>  (646) 
x0183-0B-x0212-0B-205760

>  <comRMSD_score>  (646) 
0.5328130100736119

>  <IF_score>  (646) 
0.55

>  <SuCOS_score>  (646) 
0.5110402458498735

>  <compound_ID>  (646) 
MOLPORT:028-284-024

$$$$

     RDKit          3D

 27 29  0  0  0  0  0  0  0  0999 V2000
  -11.4380    0.3990  -78.2400 C   0  0  0  0  0  0  0  0  0  0  0  0
  -11.1240    1.7920  -77.6800 C   0  0  1  0  0  0  0  0  0  0  0  0
  -10.1540    2.4200  -78.1660 O   0  0  0  0  0  0  0  0  0  0  0  0
  -12.4130    2.6660  -77.8590 C   0  0  0  0  0  0  0  0  0  0  0  0
   -8.8130    2.2740  -77.7890 C   0  0  0  0  0  0  0  0  0  0  0  0
  -12.4500    3.5810  -78.6620 O   0  0  0  0  0  0  0  0  0  0  0  0
  -13.5130    2.3940  -77.0590 N   0  0  0  0  0  0  0  0  0  0  0  0
   -7.7190    2.2730  -78.8160 C   0  0  0  0  0  0  0  0  0  0  0  0
  -14.0480    3.5030  -76.3620 C   0  0  0  0  0  0  0  0  0  0  0  0
   -8.1720    1.4690  -79.8290 C   0  0  0  0  0  0  0  0  0  0  0  0
  -13.1380    4.2490  -75.6200 C   0  0  0  0  0  0  0  0  0  0  0  0
   -8.2760    1.9070  -81.1540 C   0  0  0  0  0  0  0  0  0  0  0  0
   -8.5460    0.1770  -79.4630 C   0  0  0  0  0  0  0  0  0  0  0  0
  -11.8800    4.1950  -76.2290 C   0  0  0  0  0  0  0  0  0  0  0  0
  -13.0790    3.4610  -74.3010 C   0  0  0  0  0  0  0  0  0  0  0  0
  -13.7100    5.6860  -75.2910 C   0  0  0  0  0  0  0  0  0  0  0  0
   -8.7680    1.0350  -82.1160 C   0  0  0  0  0  0  0  0  0  0  0  0
   -9.0340   -0.7040  -80.3850 C   0  0  0  0  0  0  0  0  0  0  0  0
  -10.7160    3.4650  -75.6210 C   0  0  0  0  0  0  0  0  0  0  0  0
  -11.7300    4.8050  -77.4180 C   0  0  0  0  0  0  0  0  0  0  0  0
  -12.6450    4.2370  -73.2080 C   0  0  0  0  0  0  0  0  0  0  0  0
  -13.2160    6.2640  -73.9540 C   0  0  0  0  0  0  0  0  0  0  0  0
   -9.1830   -0.3830  -81.7030 C   0  0  0  0  0  0  0  0  0  0  0  0
   -9.2870    3.2750  -76.1600 C   0  0  0  0  0  0  0  0  0  0  0  0
  -10.5280    4.7220  -78.0310 C   0  0  0  0  0  0  0  0  0  0  0  0
  -12.1070    5.5200  -73.5510 O   0  0  0  0  0  0  0  0  0  0  0  0
   -9.4470    4.0480  -77.4790 C   0  0  0  0  0  0  0  0  0  0  0  0
  2  1  1  6
  2  3  1  0
  2  4  1  0
  3  5  1  0
  4  6  2  0
  4  7  1  0
  5  8  1  0
  7  9  1  0
  8 10  1  0
 11  9  1  0
 10 12  2  0
 10 13  1  0
 11 14  1  0
 11 15  1  0
 11 16  1  0
 12 17  1  0
 13 18  2  0
 14 19  2  0
 14 20  1  0
 15 21  1  0
 16 22  1  0
 17 23  2  0
 18 23  1  0
 19 24  1  0
 20 25  2  0
 21 26  1  0
 22 26  1  0
 24 27  2  0
 25 27  1  0
M  END
>  <ref_url>  (647) 
https://fakepage.com

>  <submitter_name>  (647) 
Steph Wills

>  <submitter_email>  (647) 
stephanie.wills@dtc.ox.ac.uk

>  <submitter_institution>  (647) 
University of Oxford

>  <generation_date>  (647) 
2020-06-04

>  <method>  (647) 
Fragment network

>  <ref_mols>  (647) 
x0183_0B,x0212_0B

>  <ref_pdb>  (647) 
references/x0183-0B-x0212-0B-207766.holo_minimised_nolig.pdb

>  <original SMILES>  (647) 
CC(OCCc1ccccc1)C(=O)NCC1(c2ccccc2)CCOCC1

>  <synthon>  (647) 
[Xe]c1ccccc1

>  <original_name>  (647) 
x0183-0B-x0212-0B-207766

>  <comRMSD_score>  (647) 
0.6949403917949706

>  <IF_score>  (647) 
0.55

>  <SuCOS_score>  (647) 
0.539058928159719

>  <compound_ID>  (647) 
REAL:Z2254680318

$$$$

     RDKit          3D

 27 28  0  0  0  0  0  0  0  0999 V2000
  -12.8010    6.3060  -73.6710 C   0  0  0  0  0  0  0  0  0  0  0  0
  -12.9190    5.1290  -73.9820 O   0  0  0  0  0  0  0  0  0  0  0  0
  -13.3210    4.7900  -75.2270 C   0  0  0  0  0  0  0  0  0  0  0  0
  -14.4610    4.8050  -75.6560 O   0  0  0  0  0  0  0  0  0  0  0  0
  -12.2590    4.3340  -75.9780 C   0  0  0  0  0  0  0  0  0  0  0  0
  -12.0380    4.8160  -77.2700 C   0  0  0  0  0  0  0  0  0  0  0  0
  -11.4220    3.3760  -75.4370 C   0  0  0  0  0  0  0  0  0  0  0  0
  -10.9870    4.3050  -78.0170 C   0  0  0  0  0  0  0  0  0  0  0  0
  -10.3860    2.8730  -76.1740 C   0  0  0  0  0  0  0  0  0  0  0  0
  -10.1720    3.3230  -77.4750 C   0  0  0  0  0  0  0  0  0  0  0  0
   -9.1810    2.7760  -78.2340 N   0  0  0  0  0  0  0  0  0  0  0  0
   -9.4490    1.5050  -78.7020 C   0  0  0  0  0  0  0  0  0  0  0  0
   -9.8750    1.2430  -79.8170 O   0  0  0  0  0  0  0  0  0  0  0  0
   -9.2270    0.5080  -77.7340 N   0  0  0  0  0  0  0  0  0  0  0  0
   -8.5560    0.8200  -76.4660 C   0  0  0  0  0  0  0  0  0  0  0  0
   -7.3640    0.0940  -76.4820 C   0  0  0  0  0  0  0  0  0  0  0  0
   -6.0050    1.1230  -77.1440 S   0  0  0  0  0  0  0  0  0  0  0  0
   -5.2940    0.3380  -78.1450 O   0  0  0  0  0  0  0  0  0  0  0  0
   -5.2840    1.7210  -76.0350 O   0  0  0  0  0  0  0  0  0  0  0  0
   -6.8340    2.3360  -77.9340 N   0  0  0  0  0  0  0  0  0  0  0  0
   -6.6740    2.4710  -79.3640 C   0  0  0  0  0  0  0  0  0  0  0  0
   -7.5080    1.5910  -80.0410 C   0  0  0  0  0  0  0  0  0  0  0  0
   -7.7460    0.1810  -79.5380 C   0  0  0  0  0  0  0  0  0  0  0  0
   -8.1680    1.9740  -81.2140 C   0  0  0  0  0  0  0  0  0  0  0  0
   -8.6760   -0.7280  -80.3010 C   0  0  0  0  0  0  0  0  0  0  0  0
   -9.0190    1.0740  -81.8790 C   0  0  0  0  0  0  0  0  0  0  0  0
   -9.2770   -0.2330  -81.4450 C   0  0  0  0  0  0  0  0  0  0  0  0
  1  2  1  0
  2  3  1  0
  3  4  2  0
  3  5  1  0
  5  6  2  0
  5  7  1  0
  6  8  1  0
  7  9  2  0
  8 10  2  0
  9 10  1  0
 10 11  1  0
 11 12  1  0
 12 13  2  0
 12 14  1  0
 14 15  1  0
 15 16  1  0
 16 17  1  0
 17 18  2  0
 17 19  2  0
 17 20  1  0
 20 21  1  0
 21 22  1  0
 22 23  2  0
 22 24  1  0
 23 25  1  0
 24 26  2  0
 25 27  2  0
 26 27  1  0
M  END
>  <ref_url>  (648) 
https://fakepage.com

>  <submitter_name>  (648) 
Steph Wills

>  <submitter_email>  (648) 
stephanie.wills@dtc.ox.ac.uk

>  <submitter_institution>  (648) 
University of Oxford

>  <generation_date>  (648) 
2020-06-04

>  <method>  (648) 
Fragment network

>  <ref_mols>  (648) 
x0183_0B,x0212_0B

>  <ref_pdb>  (648) 
references/x0183-0B-x0212-0B-209337.holo_minimised_nolig.pdb

>  <original SMILES>  (648) 
COC(=O)c1ccc(NC(=O)NCCS(=O)(=O)NCc2ccccc2)cc1

>  <synthon>  (648) 
[Xe]c1ccccc1

>  <original_name>  (648) 
x0183-0B-x0212-0B-209337

>  <comRMSD_score>  (648) 
0.7822048845932119

>  <IF_score>  (648) 
0.45

>  <SuCOS_score>  (648) 
0.4805081953440093

>  <compound_ID>  (648) 
REAL:Z433908694

$$$$

     RDKit          3D

 24 25  0  0  0  0  0  0  0  0999 V2000
  -13.4780   -0.7140  -85.6540 C   0  0  0  0  0  0  0  0  0  0  0  0
  -13.8810   -0.2250  -84.3130 C   0  0  0  0  0  0  0  0  0  0  0  0
  -13.6640   -1.1620  -83.3170 N   0  0  0  0  0  0  0  0  0  0  0  0
  -12.7810   -1.0440  -82.2260 C   0  0  0  0  0  0  0  0  0  0  0  0
  -13.1730   -0.9030  -81.0740 O   0  0  0  0  0  0  0  0  0  0  0  0
  -11.3220   -1.0610  -82.3060 C   0  0  0  0  0  0  0  0  0  0  0  0
  -10.8300   -1.2530  -81.1940 O   0  0  0  0  0  0  0  0  0  0  0  0
   -9.9080   -0.3560  -80.7270 C   0  0  0  0  0  0  0  0  0  0  0  0
   -9.1830   -0.5830  -79.5730 C   0  0  0  0  0  0  0  0  0  0  0  0
   -9.6680    0.8440  -81.4100 C   0  0  0  0  0  0  0  0  0  0  0  0
   -8.2680    0.3540  -79.1080 C   0  0  0  0  0  0  0  0  0  0  0  0
   -8.7370    1.7910  -80.9490 C   0  0  0  0  0  0  0  0  0  0  0  0
   -8.0410    1.5530  -79.7850 C   0  0  0  0  0  0  0  0  0  0  0  0
   -7.1390    2.4470  -79.2520 N   0  0  0  0  0  0  0  0  0  0  0  0
   -7.3300    3.1330  -78.0290 C   0  0  0  0  0  0  0  0  0  0  0  0
   -6.5520    3.9710  -77.5790 O   0  0  0  0  0  0  0  0  0  0  0  0
   -8.5140    2.7170  -77.3800 N   0  0  0  0  0  0  0  0  0  0  0  0
   -8.5560    1.7240  -76.4530 C   0  0  0  0  0  0  0  0  0  0  0  0
   -9.7100    3.4640  -77.1690 C   0  0  0  0  0  0  0  0  0  0  0  0
  -10.3320    3.0150  -76.0240 C   0  0  0  0  0  0  0  0  0  0  0  0
  -10.2850    4.4930  -77.9080 C   0  0  0  0  0  0  0  0  0  0  0  0
  -11.5080    3.5230  -75.5540 C   0  0  0  0  0  0  0  0  0  0  0  0
  -11.5010    5.0440  -77.4440 C   0  0  0  0  0  0  0  0  0  0  0  0
  -12.1000    4.5440  -76.2670 C   0  0  0  0  0  0  0  0  0  0  0  0
  1  2  1  0
  2  3  1  0
  3  4  1  0
  4  5  2  0
  4  6  1  0
  6  7  1  0
  7  8  1  0
  8  9  2  0
  8 10  1  0
  9 11  1  0
 10 12  2  0
 11 13  2  0
 12 13  1  0
 13 14  1  0
 14 15  1  0
 15 16  2  0
 15 17  1  0
 17 18  1  0
 17 19  1  0
 19 20  2  0
 19 21  1  0
 20 22  1  0
 21 23  2  0
 22 24  2  0
 23 24  1  0
M  END
>  <ref_url>  (649) 
https://fakepage.com

>  <submitter_name>  (649) 
Steph Wills

>  <submitter_email>  (649) 
stephanie.wills@dtc.ox.ac.uk

>  <submitter_institution>  (649) 
University of Oxford

>  <generation_date>  (649) 
2020-06-04

>  <method>  (649) 
Fragment network

>  <ref_mols>  (649) 
x0183_0B,x0212_0B

>  <ref_pdb>  (649) 
references/x0183-0B-x0212-0B-211615.holo_minimised_nolig.pdb

>  <original SMILES>  (649) 
CCNC(=O)COc1ccc(NC(=O)N(C)c2ccccc2)cc1

>  <synthon>  (649) 
[Xe]c1ccccc1

>  <original_name>  (649) 
x0183-0B-x0212-0B-211615

>  <comRMSD_score>  (649) 
0.92307854487037

>  <IF_score>  (649) 
0.5833333333333333

>  <SuCOS_score>  (649) 
0.34171980153962

>  <compound_ID>  (649) 
REAL:Z1878300408

$$$$

     RDKit          3D

 24 25  0  0  0  0  0  0  0  0999 V2000
  -12.8250    6.3090  -73.7140 C   0  0  0  0  0  0  0  0  0  0  0  0
  -13.4410    5.6930  -74.8540 O   0  0  0  0  0  0  0  0  0  0  0  0
  -13.1890    4.3620  -75.0920 C   0  0  1  0  0  0  0  0  0  0  0  0
  -14.2320    3.5690  -75.5990 C   0  0  0  0  0  0  0  0  0  0  0  0
  -12.0070    4.2130  -76.0450 C   0  0  0  0  0  0  0  0  0  0  0  0
  -12.0980    4.7580  -77.3320 C   0  0  0  0  0  0  0  0  0  0  0  0
  -10.8380    3.5480  -75.6740 C   0  0  0  0  0  0  0  0  0  0  0  0
  -11.0470    4.6440  -78.2300 C   0  0  0  0  0  0  0  0  0  0  0  0
   -9.8040    3.4560  -76.5970 C   0  0  0  0  0  0  0  0  0  0  0  0
   -9.8940    3.9930  -77.8640 C   0  0  0  0  0  0  0  0  0  0  0  0
   -8.5490    2.8010  -76.3500 N   0  0  0  0  0  0  0  0  0  0  0  0
   -8.2870    2.1670  -77.5640 C   0  0  0  0  0  0  0  0  0  0  0  0
   -9.1600    1.7030  -78.2820 O   0  0  0  0  0  0  0  0  0  0  0  0
   -6.9520    2.0980  -77.8690 N   0  0  0  0  0  0  0  0  0  0  0  0
   -6.8380    2.4330  -79.1290 C   0  0  1  0  0  0  0  0  0  0  0  0
   -5.4730    2.6030  -79.7680 C   0  0  0  0  0  0  0  0  0  0  0  0
   -7.7170    1.4890  -79.9440 C   0  0  0  0  0  0  0  0  0  0  0  0
   -4.9400    1.5430  -80.5270 C   0  0  0  0  0  0  0  0  0  0  0  0
   -8.1840    1.8600  -81.1630 C   0  0  0  0  0  0  0  0  0  0  0  0
   -8.1090    0.2260  -79.5560 C   0  0  0  0  0  0  0  0  0  0  0  0
   -3.7520    1.3330  -80.2460 O   0  0  0  0  0  0  0  0  0  0  0  0
   -9.0270    0.9130  -81.9280 C   0  0  0  0  0  0  0  0  0  0  0  0
   -8.9180   -0.6300  -80.3290 C   0  0  0  0  0  0  0  0  0  0  0  0
   -9.5330   -0.5020  -81.6210 C   0  0  0  0  0  0  0  0  0  0  0  0
  1  2  1  0
  2  3  1  0
  3  4  1  6
  3  5  1  0
  5  6  2  0
  5  7  1  0
  6  8  1  0
  7  9  2  0
  8 10  2  0
  9 10  1  0
  9 11  1  0
 11 12  1  0
 12 13  2  0
 12 14  1  0
 14 15  1  0
 15 16  1  6
 15 17  1  0
 16 18  1  0
 17 19  2  0
 17 20  1  0
 18 21  1  0
 19 22  1  0
 20 23  2  0
 22 24  2  0
 23 24  1  0
M  END
>  <ref_url>  (650) 
https://fakepage.com

>  <submitter_name>  (650) 
Steph Wills

>  <submitter_email>  (650) 
stephanie.wills@dtc.ox.ac.uk

>  <submitter_institution>  (650) 
University of Oxford

>  <generation_date>  (650) 
2020-06-04

>  <method>  (650) 
Fragment network

>  <ref_mols>  (650) 
x0183_0B,x0212_0B

>  <ref_pdb>  (650) 
references/x0183-0B-x0212-0B-212784.holo_minimised_nolig.pdb

>  <original SMILES>  (650) 
COC(C)c1cccc(NC(=O)NC(CCO)c2ccccc2)c1

>  <synthon>  (650) 
[Xe]c1ccccc1

>  <original_name>  (650) 
x0183-0B-x0212-0B-212784

>  <comRMSD_score>  (650) 
0.488121152235035

>  <IF_score>  (650) 
0.55

>  <SuCOS_score>  (650) 
0.5219925485600457

>  <compound_ID>  (650) 
MOLPORT:023-160-236

$$$$

     RDKit          3D

 23 24  0  0  0  0  0  0  0  0999 V2000
  -12.9750    6.2000  -73.7950 C   0  0  0  0  0  0  0  0  0  0  0  0
  -14.0690    5.9000  -74.8670 C   0  0  0  0  0  0  0  0  0  0  0  0
  -13.9340    4.5730  -75.6480 C   0  0  2  0  0  0  0  0  0  0  0  0
  -14.2800    3.3770  -74.7960 C   0  0  0  0  0  0  0  0  0  0  0  0
  -12.5580    4.4180  -76.2100 C   0  0  0  0  0  0  0  0  0  0  0  0
  -11.5760    3.7550  -75.5010 C   0  0  0  0  0  0  0  0  0  0  0  0
  -12.2670    4.9570  -77.4720 C   0  0  0  0  0  0  0  0  0  0  0  0
  -10.3230    3.6150  -75.9780 C   0  0  0  0  0  0  0  0  0  0  0  0
  -10.9920    4.8220  -77.9750 C   0  0  0  0  0  0  0  0  0  0  0  0
  -10.0500    4.1640  -77.2160 C   0  0  0  0  0  0  0  0  0  0  0  0
   -8.9680    4.0550  -77.5930 O   0  0  0  0  0  0  0  0  0  0  0  0
   -8.5410    3.0730  -76.7170 C   0  0  0  0  0  0  0  0  0  0  0  0
   -8.3550    1.9980  -77.7040 C   0  0  0  0  0  0  0  0  0  0  0  0
   -9.3500    1.4500  -78.1620 O   0  0  0  0  0  0  0  0  0  0  0  0
   -7.0650    1.7360  -78.1270 N   0  0  0  0  0  0  0  0  0  0  0  0
   -6.6140    2.1740  -79.3360 C   0  0  1  0  0  0  0  0  0  0  0  0
   -5.1630    1.8790  -79.7340 C   0  0  0  0  0  0  0  0  0  0  0  0
   -7.4890    1.3560  -80.2640 C   0  0  0  0  0  0  0  0  0  0  0  0
   -7.7840    0.0440  -79.8910 C   0  0  0  0  0  0  0  0  0  0  0  0
   -8.0100    1.8440  -81.4590 C   0  0  0  0  0  0  0  0  0  0  0  0
   -8.5630   -0.7930  -80.6600 C   0  0  0  0  0  0  0  0  0  0  0  0
   -8.7930    1.0100  -82.2470 C   0  0  0  0  0  0  0  0  0  0  0  0
   -9.0680   -0.3050  -81.8470 C   0  0  0  0  0  0  0  0  0  0  0  0
  1  2  1  0
  2  3  1  0
  3  4  1  1
  3  5  1  0
  5  6  2  0
  5  7  1  0
  6  8  1  0
  7  9  2  0
  8 10  2  0
  9 10  1  0
 10 11  1  0
 11 12  1  0
 12 13  1  0
 13 14  2  0
 13 15  1  0
 15 16  1  0
 16 17  1  6
 16 18  1  0
 18 19  2  0
 18 20  1  0
 19 21  1  0
 20 22  2  0
 21 23  2  0
 22 23  1  0
M  END
>  <ref_url>  (651) 
https://fakepage.com

>  <submitter_name>  (651) 
Steph Wills

>  <submitter_email>  (651) 
stephanie.wills@dtc.ox.ac.uk

>  <submitter_institution>  (651) 
University of Oxford

>  <generation_date>  (651) 
2020-06-04

>  <method>  (651) 
Fragment network

>  <ref_mols>  (651) 
x0183_0B,x0212_0B

>  <ref_pdb>  (651) 
references/x0183-0B-x0212-0B-212841.holo_minimised_nolig.pdb

>  <original SMILES>  (651) 
CCC(C)c1ccc(OCC(=O)NC(C)c2ccccc2)cc1

>  <synthon>  (651) 
[Xe]c1ccccc1

>  <original_name>  (651) 
x0183-0B-x0212-0B-212841

>  <comRMSD_score>  (651) 
0.9380031193188272

>  <IF_score>  (651) 
0.65

>  <SuCOS_score>  (651) 
0.4953685845903868

>  <compound_ID>  (651) 
MOLPORT:003-198-055

$$$$

     RDKit          3D

 25 26  0  0  0  0  0  0  0  0999 V2000
  -12.9210    6.1640  -73.6860 C   0  0  0  0  0  0  0  0  0  0  0  0
  -13.3400    4.8140  -73.9310 O   0  0  0  0  0  0  0  0  0  0  0  0
  -13.4510    4.3420  -75.2940 C   0  0  0  0  0  0  0  0  0  0  0  0
  -14.5110    3.9750  -75.7750 O   0  0  0  0  0  0  0  0  0  0  0  0
  -12.2080    4.2630  -76.1060 C   0  0  0  0  0  0  0  0  0  0  0  0
  -12.1410    4.7740  -77.4070 C   0  0  0  0  0  0  0  0  0  0  0  0
  -11.0810    3.6620  -75.5540 C   0  0  0  0  0  0  0  0  0  0  0  0
  -10.9600    4.6810  -78.1280 C   0  0  0  0  0  0  0  0  0  0  0  0
   -9.9030    3.5800  -76.2800 C   0  0  0  0  0  0  0  0  0  0  0  0
   -9.8410    4.0930  -77.5720 C   0  0  0  0  0  0  0  0  0  0  0  0
   -8.6240    3.9750  -78.2100 N   0  0  0  0  0  0  0  0  0  0  0  0
   -7.4420    3.5840  -77.6280 C   0  0  0  0  0  0  0  0  0  0  0  0
   -6.6980    4.2740  -76.9530 O   0  0  0  0  0  0  0  0  0  0  0  0
   -7.1040    2.2970  -77.8400 N   0  0  0  0  0  0  0  0  0  0  0  0
   -6.6190    1.9500  -79.1730 C   0  0  0  0  0  0  0  0  0  0  0  0
   -7.7380    1.3090  -76.9380 C   0  0  0  0  0  0  0  0  0  0  0  0
   -7.6390    1.2320  -80.0400 C   0  0  0  0  0  0  0  0  0  0  0  0
   -9.0810    1.6040  -76.7290 C   0  0  1  0  0  0  0  0  0  0  0  0
   -8.1080   -0.0150  -79.6370 C   0  0  0  0  0  0  0  0  0  0  0  0
   -8.1260    1.7750  -81.2380 C   0  0  0  0  0  0  0  0  0  0  0  0
   -9.8150    1.6610  -77.9040 C   0  0  0  0  0  0  0  0  0  0  0  0
   -9.6290    0.5360  -76.1000 O   0  0  0  0  0  0  0  0  0  0  0  0
   -9.0280   -0.7390  -80.3720 C   0  0  0  0  0  0  0  0  0  0  0  0
   -9.0480    1.0530  -81.9860 C   0  0  0  0  0  0  0  0  0  0  0  0
   -9.4980   -0.1980  -81.5540 C   0  0  0  0  0  0  0  0  0  0  0  0
  1  2  1  0
  2  3  1  0
  3  4  2  0
  3  5  1  0
  5  6  2  0
  5  7  1  0
  6  8  1  0
  7  9  2  0
  8 10  2  0
  9 10  1  0
 10 11  1  0
 11 12  1  0
 12 13  2  0
 12 14  1  0
 14 15  1  0
 14 16  1  0
 15 17  1  0
 16 18  1  0
 17 19  2  0
 17 20  1  0
 18 21  1  6
 18 22  1  0
 19 23  1  0
 20 24  2  0
 23 25  2  0
 24 25  1  0
M  END
>  <ref_url>  (652) 
https://fakepage.com

>  <submitter_name>  (652) 
Steph Wills

>  <submitter_email>  (652) 
stephanie.wills@dtc.ox.ac.uk

>  <submitter_institution>  (652) 
University of Oxford

>  <generation_date>  (652) 
2020-06-04

>  <method>  (652) 
Fragment network

>  <ref_mols>  (652) 
x0183_0B,x0212_0B

>  <ref_pdb>  (652) 
references/x0183-0B-x0212-0B-212864.holo_minimised_nolig.pdb

>  <original SMILES>  (652) 
COC(=O)c1ccc(NC(=O)N(Cc2ccccc2)CC(C)O)cc1

>  <synthon>  (652) 
[Xe]c1ccccc1

>  <original_name>  (652) 
x0183-0B-x0212-0B-212864

>  <comRMSD_score>  (652) 
0.7814650296670935

>  <IF_score>  (652) 
0.55

>  <SuCOS_score>  (652) 
0.5187126936351246

>  <compound_ID>  (652) 
REAL:Z1257891393

$$$$

     RDKit          3D

 20 21  0  0  0  0  0  0  0  0999 V2000
  -12.8360    6.3820  -73.8290 C   0  0  0  0  0  0  0  0  0  0  0  0
  -13.4690    5.7790  -74.9090 N   0  0  0  0  0  0  0  0  0  0  0  0
  -13.3070    4.3660  -75.1930 C   0  0  0  0  0  0  0  0  0  0  0  0
  -12.1680    4.1690  -75.9630 C   0  0  0  0  0  0  0  0  0  0  0  0
  -12.0320    4.7890  -77.3210 C   0  0  0  0  0  0  0  0  0  0  0  0
  -11.1290    3.3870  -75.4800 C   0  0  0  0  0  0  0  0  0  0  0  0
  -10.8670    4.5540  -78.0420 C   0  0  0  0  0  0  0  0  0  0  0  0
   -9.9910    3.1900  -76.2410 C   0  0  0  0  0  0  0  0  0  0  0  0
   -9.8550    3.7630  -77.5040 C   0  0  0  0  0  0  0  0  0  0  0  0
   -8.6820    3.5160  -78.1930 N   0  0  0  0  0  0  0  0  0  0  0  0
   -7.5360    3.1200  -77.4070 C   0  0  0  0  0  0  0  0  0  0  0  0
   -7.1650    3.6300  -76.3600 O   0  0  0  0  0  0  0  0  0  0  0  0
   -7.0240    2.2400  -77.9330 N   0  0  0  0  0  0  0  0  0  0  0  0
   -6.8510    2.3380  -79.3670 C   0  0  0  0  0  0  0  0  0  0  0  0
   -7.7180    1.5040  -80.0760 C   0  0  0  0  0  0  0  0  0  0  0  0
   -8.1210    0.2550  -79.5810 C   0  0  0  0  0  0  0  0  0  0  0  0
   -8.2280    1.8950  -81.3380 C   0  0  0  0  0  0  0  0  0  0  0  0
   -9.0410   -0.6250  -80.3530 C   0  0  0  0  0  0  0  0  0  0  0  0
   -9.0900    1.0650  -82.0620 C   0  0  0  0  0  0  0  0  0  0  0  0
   -9.4850   -0.1770  -81.5690 C   0  0  0  0  0  0  0  0  0  0  0  0
  1  2  1  0
  2  3  1  0
  3  4  1  0
  4  5  2  0
  4  6  1  0
  5  7  1  0
  6  8  2  0
  7  9  2  0
  8  9  1  0
  9 10  1  0
 10 11  1  0
 11 12  2  0
 11 13  1  0
 13 14  1  0
 14 15  1  0
 15 16  2  0
 15 17  1  0
 16 18  1  0
 17 19  2  0
 18 20  2  0
 19 20  1  0
M  END
>  <ref_url>  (653) 
https://fakepage.com

>  <submitter_name>  (653) 
Steph Wills

>  <submitter_email>  (653) 
stephanie.wills@dtc.ox.ac.uk

>  <submitter_institution>  (653) 
University of Oxford

>  <generation_date>  (653) 
2020-06-04

>  <method>  (653) 
Fragment network

>  <ref_mols>  (653) 
x0183_0B,x0212_0B

>  <ref_pdb>  (653) 
references/x0183-0B-x0212-0B-213287.holo_minimised_nolig.pdb

>  <original SMILES>  (653) 
CNCc1ccc(NC(=O)NCc2ccccc2)cc1

>  <synthon>  (653) 
[Xe]c1ccccc1

>  <original_name>  (653) 
x0183-0B-x0212-0B-213287

>  <comRMSD_score>  (653) 
0.5178497923214858

>  <IF_score>  (653) 
0.55

>  <SuCOS_score>  (653) 
0.5158344547975017

>  <compound_ID>  (653) 
CHEMSPACE-BB:CSMB00014267122

$$$$

     RDKit          3D

 24 25  0  0  0  0  0  0  0  0999 V2000
  -12.7830    6.4810  -73.6900 C   0  0  0  0  0  0  0  0  0  0  0  0
  -13.1750    6.1430  -74.9740 N   0  0  0  0  0  0  0  0  0  0  0  0
  -13.3690    4.7760  -75.3830 C   0  0  0  0  0  0  0  0  0  0  0  0
  -14.3220    4.0530  -75.0830 O   0  0  0  0  0  0  0  0  0  0  0  0
  -12.3690    4.2740  -76.2000 C   0  0  0  0  0  0  0  0  0  0  0  0
  -11.6590    3.0620  -75.7240 C   0  0  0  0  0  0  0  0  0  0  0  0
  -11.9900    4.8180  -77.4420 C   0  0  0  0  0  0  0  0  0  0  0  0
  -10.6870    2.5110  -76.5170 C   0  0  0  0  0  0  0  0  0  0  0  0
  -10.9960    4.2200  -78.2060 C   0  0  0  0  0  0  0  0  0  0  0  0
  -10.3530    3.0630  -77.7490 C   0  0  0  0  0  0  0  0  0  0  0  0
   -9.3830    2.4100  -78.4800 N   0  0  0  0  0  0  0  0  0  0  0  0
   -8.8790    1.3550  -77.6190 C   0  0  0  0  0  0  0  0  0  0  0  0
   -8.9110    0.1240  -77.7350 O   0  0  0  0  0  0  0  0  0  0  0  0
   -8.2580    2.0500  -76.4290 C   0  0  0  0  0  0  0  0  0  0  0  0
   -7.5650    3.0960  -77.0150 C   0  0  0  0  0  0  0  0  0  0  0  0
   -6.6890    2.4620  -77.9850 N   0  0  0  0  0  0  0  0  0  0  0  0
   -6.7890    2.6400  -79.3560 C   0  0  0  0  0  0  0  0  0  0  0  0
   -6.1420    3.6350  -80.0130 O   0  0  0  0  0  0  0  0  0  0  0  0
   -7.6510    1.6480  -80.1290 C   0  0  0  0  0  0  0  0  0  0  0  0
   -8.2300    2.0260  -81.3430 C   0  0  0  0  0  0  0  0  0  0  0  0
   -7.8690    0.3470  -79.6380 C   0  0  0  0  0  0  0  0  0  0  0  0
   -9.0160    1.1180  -82.0500 C   0  0  0  0  0  0  0  0  0  0  0  0
   -8.6660   -0.5450  -80.3630 C   0  0  0  0  0  0  0  0  0  0  0  0
   -9.2420   -0.1700  -81.5670 C   0  0  0  0  0  0  0  0  0  0  0  0
  1  2  1  0
  2  3  1  0
  3  4  2  0
  3  5  1  0
  5  6  2  0
  5  7  1  0
  6  8  1  0
  7  9  2  0
  8 10  2  0
  9 10  1  0
 10 11  1  0
 11 12  1  0
 12 13  2  0
 12 14  1  0
 14 15  1  0
 15 16  1  0
 16 17  1  0
 17 18  2  0
 17 19  1  0
 19 20  2  0
 19 21  1  0
 20 22  1  0
 21 23  2  0
 22 24  2  0
 23 24  1  0
M  END
>  <ref_url>  (654) 
https://fakepage.com

>  <submitter_name>  (654) 
Steph Wills

>  <submitter_email>  (654) 
stephanie.wills@dtc.ox.ac.uk

>  <submitter_institution>  (654) 
University of Oxford

>  <generation_date>  (654) 
2020-06-04

>  <method>  (654) 
Fragment network

>  <ref_mols>  (654) 
x0183_0B,x0212_0B

>  <ref_pdb>  (654) 
references/x0183-0B-x0212-0B-216619.holo_minimised_nolig.pdb

>  <original SMILES>  (654) 
CNC(=O)c1ccc(NC(=O)CCNC(=O)c2ccccc2)cc1

>  <synthon>  (654) 
[Xe]c1ccccc1

>  <original_name>  (654) 
x0183-0B-x0212-0B-216619

>  <comRMSD_score>  (654) 
0.7840839429739834

>  <IF_score>  (654) 
0.425

>  <SuCOS_score>  (654) 
0.4732867523163017

>  <compound_ID>  (654) 
MOLPORT:005-615-359

$$$$

     RDKit          3D

 22 23  0  0  0  0  0  0  0  0999 V2000
  -12.6890    6.4110  -73.6890 C   0  0  0  0  0  0  0  0  0  0  0  0
  -13.1500    6.3060  -75.1010 C   0  0  0  0  0  0  0  0  0  0  0  0
  -13.4680    5.0980  -75.7240 C   0  0  2  0  0  0  0  0  0  0  0  0
  -14.3450    4.3040  -74.8570 N   0  0  0  0  0  0  0  0  0  0  0  0
  -12.4620    4.2990  -76.2100 C   0  0  0  0  0  0  0  0  0  0  0  0
  -11.9870    4.4190  -77.5090 C   0  0  0  0  0  0  0  0  0  0  0  0
  -11.8920    3.3220  -75.4100 C   0  0  0  0  0  0  0  0  0  0  0  0
  -11.0090    3.6080  -78.0420 C   0  0  0  0  0  0  0  0  0  0  0  0
  -10.9190    2.4980  -75.9160 C   0  0  0  0  0  0  0  0  0  0  0  0
  -10.4790    2.6140  -77.2170 C   0  0  0  0  0  0  0  0  0  0  0  0
   -9.5580    1.7310  -77.5750 O   0  0  0  0  0  0  0  0  0  0  0  0
   -8.4370    1.9670  -76.8040 C   0  0  0  0  0  0  0  0  0  0  0  0
   -7.8980    2.9570  -77.5570 C   0  0  0  0  0  0  0  0  0  0  0  0
   -8.4530    4.0300  -77.7270 O   0  0  0  0  0  0  0  0  0  0  0  0
   -6.6710    2.5790  -78.1810 N   0  0  0  0  0  0  0  0  0  0  0  0
   -6.6690    2.7440  -79.6480 C   0  0  0  0  0  0  0  0  0  0  0  0
   -7.5310    1.7660  -80.1680 C   0  0  0  0  0  0  0  0  0  0  0  0
   -8.2120    2.0600  -81.4700 C   0  0  0  0  0  0  0  0  0  0  0  0
   -7.8090    0.5140  -79.5700 C   0  0  0  0  0  0  0  0  0  0  0  0
   -9.1240    1.0300  -82.0630 C   0  0  0  0  0  0  0  0  0  0  0  0
   -8.6910   -0.4250  -80.1850 C   0  0  0  0  0  0  0  0  0  0  0  0
   -9.3330   -0.1770  -81.4070 C   0  0  0  0  0  0  0  0  0  0  0  0
  1  2  1  0
  2  3  1  0
  3  4  1  1
  3  5  1  0
  5  6  2  0
  5  7  1  0
  6  8  1  0
  7  9  2  0
  8 10  2  0
  9 10  1  0
 10 11  1  0
 11 12  1  0
 12 13  1  0
 13 14  2  0
 13 15  1  0
 15 16  1  0
 16 17  1  0
 17 18  2  0
 17 19  1  0
 18 20  1  0
 19 21  2  0
 20 22  2  0
 21 22  1  0
M  END
>  <ref_url>  (655) 
https://fakepage.com

>  <submitter_name>  (655) 
Steph Wills

>  <submitter_email>  (655) 
stephanie.wills@dtc.ox.ac.uk

>  <submitter_institution>  (655) 
University of Oxford

>  <generation_date>  (655) 
2020-06-04

>  <method>  (655) 
Fragment network

>  <ref_mols>  (655) 
x0183_0B,x0212_0B

>  <ref_pdb>  (655) 
references/x0183-0B-x0212-0B-218941.holo_minimised_nolig.pdb

>  <original SMILES>  (655) 
CCC(N)c1ccc(OCC(=O)NCc2ccccc2)cc1

>  <synthon>  (655) 
[Xe]c1ccccc1

>  <original_name>  (655) 
x0183-0B-x0212-0B-218941

>  <comRMSD_score>  (655) 
0.9280481109814812

>  <IF_score>  (655) 
0.425

>  <SuCOS_score>  (655) 
0.4725719945230924

>  <compound_ID>  (655) 
CHEMSPACE-BB:CSMB00017307819, CHEMSPACE-BB:CSMB00020391352

$$$$

     RDKit          3D

 20 21  0  0  0  0  0  0  0  0999 V2000
  -12.7490    6.0380  -73.7120 C   0  0  0  0  0  0  0  0  0  0  0  0
  -12.8940    4.9020  -74.1950 O   0  0  0  0  0  0  0  0  0  0  0  0
  -13.1580    4.7290  -75.5200 C   0  0  0  0  0  0  0  0  0  0  0  0
  -12.0160    4.4040  -76.2720 C   0  0  0  0  0  0  0  0  0  0  0  0
  -11.9050    4.8400  -77.5750 C   0  0  0  0  0  0  0  0  0  0  0  0
  -10.9560    3.6380  -75.7540 C   0  0  0  0  0  0  0  0  0  0  0  0
  -10.8220    4.5660  -78.3870 C   0  0  0  0  0  0  0  0  0  0  0  0
   -9.8360    3.3460  -76.5630 C   0  0  0  0  0  0  0  0  0  0  0  0
   -9.7880    3.8180  -77.8800 C   0  0  0  0  0  0  0  0  0  0  0  0
   -8.7210    2.6030  -76.1830 N   0  0  0  0  0  0  0  0  0  0  0  0
   -7.4380    3.1090  -76.1000 C   0  0  0  0  0  0  0  0  0  0  0  0
   -6.9200    3.3120  -77.3580 C   0  0  0  0  0  0  0  0  0  0  0  0
   -6.8890    2.2980  -78.0230 O   0  0  0  0  0  0  0  0  0  0  0  0
   -6.9450    2.5750  -79.4000 C   0  0  0  0  0  0  0  0  0  0  0  0
   -7.7260    1.6610  -80.0770 C   0  0  0  0  0  0  0  0  0  0  0  0
   -8.2440    2.0150  -81.4290 C   0  0  0  0  0  0  0  0  0  0  0  0
   -8.0590    0.4000  -79.5470 C   0  0  0  0  0  0  0  0  0  0  0  0
   -9.0830    1.0060  -82.1400 C   0  0  0  0  0  0  0  0  0  0  0  0
   -8.8630   -0.5160  -80.2740 C   0  0  0  0  0  0  0  0  0  0  0  0
   -9.3650   -0.2220  -81.5480 C   0  0  0  0  0  0  0  0  0  0  0  0
  1  2  1  0
  2  3  1  0
  3  4  1  0
  4  5  2  0
  4  6  1  0
  5  7  1  0
  6  8  2  0
  7  9  2  0
  8  9  1  0
  8 10  1  0
 10 11  1  0
 11 12  1  0
 12 13  1  0
 13 14  1  0
 14 15  1  0
 15 16  2  0
 15 17  1  0
 16 18  1  0
 17 19  2  0
 18 20  2  0
 19 20  1  0
M  END
>  <ref_url>  (656) 
https://fakepage.com

>  <submitter_name>  (656) 
Steph Wills

>  <submitter_email>  (656) 
stephanie.wills@dtc.ox.ac.uk

>  <submitter_institution>  (656) 
University of Oxford

>  <generation_date>  (656) 
2020-06-04

>  <method>  (656) 
Fragment network

>  <ref_mols>  (656) 
x0183_0B,x0212_0B

>  <ref_pdb>  (656) 
references/x0183-0B-x0212-0B-219392.holo_minimised_nolig.pdb

>  <original SMILES>  (656) 
COCc1cccc(NCCOCc2ccccc2)c1

>  <synthon>  (656) 
[Xe]c1ccccc1

>  <original_name>  (656) 
x0183-0B-x0212-0B-219392

>  <comRMSD_score>  (656) 
0.6659737788187112

>  <IF_score>  (656) 
0.65

>  <SuCOS_score>  (656) 
0.4705536839909238

>  <compound_ID>  (656) 
CHEMSPACE-BB:CSMB00014804559

$$$$

     RDKit          3D

 22 24  0  0  0  0  0  0  0  0999 V2000
   -6.8460    3.0450  -76.7410 O   0  0  0  0  0  0  0  0  0  0  0  0
   -7.5160    2.4990  -77.5720 C   0  0  0  0  0  0  0  0  0  0  0  0
   -7.0740    2.3520  -78.9600 N   0  0  0  0  0  0  0  0  0  0  0  0
   -8.7650    1.9970  -77.3150 N   0  0  0  0  0  0  0  0  0  0  0  0
   -7.8780    1.5230  -79.8760 C   0  0  0  0  0  0  0  0  0  0  0  0
   -9.8770    2.9160  -77.2190 C   0  0  0  0  0  0  0  0  0  0  0  0
   -8.3300    0.2000  -79.3830 C   0  0  0  0  0  0  0  0  0  0  0  0
   -8.2120    1.9430  -81.1730 C   0  0  0  0  0  0  0  0  0  0  0  0
  -10.2380    3.6970  -78.4300 C   0  0  0  0  0  0  0  0  0  0  0  0
  -10.6860    3.1550  -75.9940 C   0  0  0  0  0  0  0  0  0  0  0  0
   -9.0860   -0.6160  -80.2230 C   0  0  0  0  0  0  0  0  0  0  0  0
   -8.9720    1.0770  -81.9680 C   0  0  0  0  0  0  0  0  0  0  0  0
  -11.2770    4.5830  -78.3820 C   0  0  0  0  0  0  0  0  0  0  0  0
  -11.7440    4.1070  -76.0550 C   0  0  0  0  0  0  0  0  0  0  0  0
   -9.4020   -0.1730  -81.5090 C   0  0  0  0  0  0  0  0  0  0  0  0
  -12.0220    4.8030  -77.2480 C   0  0  0  0  0  0  0  0  0  0  0  0
  -12.5380    4.4150  -74.9730 C   0  0  0  0  0  0  0  0  0  0  0  0
  -12.8490    5.7770  -74.9560 C   0  0  0  0  0  0  0  0  0  0  0  0
  -13.9810    3.9160  -74.9800 C   0  0  0  0  0  0  0  0  0  0  0  0
  -13.1190    6.2100  -73.6790 C   0  0  0  0  0  0  0  0  0  0  0  0
  -14.6780    4.6530  -73.9920 C   0  0  0  0  0  0  0  0  0  0  0  0
  -13.8830    5.4550  -73.0720 O   0  0  0  0  0  0  0  0  0  0  0  0
  1  2  2  0
  2  3  1  0
  2  4  1  0
  3  5  1  0
  4  6  1  0
  5  7  2  0
  5  8  1  0
  6  9  2  0
  6 10  1  0
  7 11  1  0
  8 12  2  0
  9 13  1  0
 10 14  2  0
 11 15  2  0
 12 15  1  0
 13 16  2  0
 14 16  1  0
 14 17  1  0
 17 18  1  0
 17 19  1  0
 18 20  1  0
 19 21  1  0
 20 22  1  0
 21 22  1  0
M  END
>  <ref_url>  (657) 
https://fakepage.com

>  <submitter_name>  (657) 
Steph Wills

>  <submitter_email>  (657) 
stephanie.wills@dtc.ox.ac.uk

>  <submitter_institution>  (657) 
University of Oxford

>  <generation_date>  (657) 
2020-06-04

>  <method>  (657) 
Fragment network

>  <ref_mols>  (657) 
x0183_0B,x0212_0B

>  <ref_pdb>  (657) 
references/x0183-0B-x0212-0B-221263.holo_minimised_nolig.pdb

>  <original SMILES>  (657) 
O=C(Nc1ccccc1)Nc1cccc(C2CCOCC2)c1

>  <synthon>  (657) 
[Xe]c1ccccc1

>  <original_name>  (657) 
x0183-0B-x0212-0B-221263

>  <comRMSD_score>  (657) 
0.7304202747581543

>  <IF_score>  (657) 
0.55

>  <SuCOS_score>  (657) 
0.4952079628183266

>  <compound_ID>  (657) 
REAL:Z2711871760

$$$$

     RDKit          3D

 22 23  0  0  0  0  0  0  0  0999 V2000
  -12.9260    6.3920  -73.6730 C   0  0  0  0  0  0  0  0  0  0  0  0
  -13.5820    5.8170  -74.7580 N   0  0  0  0  0  0  0  0  0  0  0  0
  -13.5150    4.3810  -75.0000 C   0  0  0  0  0  0  0  0  0  0  0  0
  -12.4950    4.0440  -76.0550 C   0  0  0  0  0  0  0  0  0  0  0  0
  -12.4760    4.7980  -77.2160 C   0  0  0  0  0  0  0  0  0  0  0  0
  -11.5880    2.9920  -75.8860 C   0  0  0  0  0  0  0  0  0  0  0  0
  -11.6040    4.5600  -78.2240 C   0  0  0  0  0  0  0  0  0  0  0  0
  -10.6730    2.6980  -76.8800 C   0  0  0  0  0  0  0  0  0  0  0  0
  -10.6720    3.4640  -78.0470 C   0  0  0  0  0  0  0  0  0  0  0  0
   -9.7590    3.1230  -78.9250 O   0  0  0  0  0  0  0  0  0  0  0  0
   -8.6580    3.7710  -78.4060 C   0  0  0  0  0  0  0  0  0  0  0  0
   -8.0120    3.0250  -77.4560 C   0  0  0  0  0  0  0  0  0  0  0  0
   -8.5920    3.0140  -76.1490 O   0  0  0  0  0  0  0  0  0  0  0  0
   -6.9080    2.3460  -77.8280 N   0  0  0  0  0  0  0  0  0  0  0  0
   -5.7860    2.2690  -76.9150 C   0  0  0  0  0  0  0  0  0  0  0  0
   -6.6480    2.2280  -79.2050 C   0  0  0  0  0  0  0  0  0  0  0  0
   -7.6260    1.4010  -80.0040 C   0  0  0  0  0  0  0  0  0  0  0  0
   -8.0830    0.0690  -79.4470 C   0  0  0  0  0  0  0  0  0  0  0  0
   -8.1090    1.8460  -81.2450 C   0  0  0  0  0  0  0  0  0  0  0  0
   -9.0540   -0.6670  -80.3430 C   0  0  0  0  0  0  0  0  0  0  0  0
   -9.0050    1.0840  -81.9980 C   0  0  0  0  0  0  0  0  0  0  0  0
   -9.4700   -0.1520  -81.5540 C   0  0  0  0  0  0  0  0  0  0  0  0
  1  2  1  0
  2  3  1  0
  3  4  1  0
  4  5  2  0
  4  6  1  0
  5  7  1  0
  6  8  2  0
  7  9  2  0
  8  9  1  0
  9 10  1  0
 10 11  1  0
 11 12  1  0
 12 13  2  0
 12 14  1  0
 14 15  1  0
 14 16  1  0
 16 17  1  0
 17 18  2  0
 17 19  1  0
 18 20  1  0
 19 21  2  0
 20 22  2  0
 21 22  1  0
M  END
>  <ref_url>  (658) 
https://fakepage.com

>  <submitter_name>  (658) 
Steph Wills

>  <submitter_email>  (658) 
stephanie.wills@dtc.ox.ac.uk

>  <submitter_institution>  (658) 
University of Oxford

>  <generation_date>  (658) 
2020-06-04

>  <method>  (658) 
Fragment network

>  <ref_mols>  (658) 
x0183_0B,x0212_0B

>  <ref_pdb>  (658) 
references/x0183-0B-x0212-0B-225655.holo_minimised_nolig.pdb

>  <original SMILES>  (658) 
CNCc1ccc(OCC(=O)N(C)Cc2ccccc2)cc1

>  <synthon>  (658) 
[Xe]c1ccccc1

>  <original_name>  (658) 
x0183-0B-x0212-0B-225655

>  <comRMSD_score>  (658) 
0.7455015711536714

>  <IF_score>  (658) 
0.425

>  <SuCOS_score>  (658) 
0.4823251272084788

>  <compound_ID>  (658) 
CHEMSPACE-BB:CSMB00014057900

$$$$

     RDKit          3D

 23 25  0  0  0  0  0  0  0  0999 V2000
  -14.7480    6.0520  -72.1570 O   0  0  0  0  0  0  0  0  0  0  0  0
  -14.2590    5.7860  -73.2340 C   0  0  0  0  0  0  0  0  0  0  0  0
  -13.1640    6.5440  -73.9000 C   0  0  0  0  0  0  0  0  0  0  0  0
  -14.6450    4.7190  -74.0580 N   0  0  0  0  0  0  0  0  0  0  0  0
  -13.0680    6.1950  -75.3290 C   0  0  0  0  0  0  0  0  0  0  0  0
  -13.7610    4.0140  -74.7990 N   0  0  0  0  0  0  0  0  0  0  0  0
  -12.8550    4.8260  -75.4960 C   0  0  0  0  0  0  0  0  0  0  0  0
  -11.8120    4.3910  -76.2830 C   0  0  0  0  0  0  0  0  0  0  0  0
  -10.8640    3.4990  -75.7750 C   0  0  0  0  0  0  0  0  0  0  0  0
  -11.7300    4.8930  -77.5930 C   0  0  0  0  0  0  0  0  0  0  0  0
   -9.8180    3.1120  -76.5760 C   0  0  0  0  0  0  0  0  0  0  0  0
  -10.6900    4.5260  -78.4350 C   0  0  0  0  0  0  0  0  0  0  0  0
   -9.7190    3.6570  -77.9860 C   0  0  0  0  0  0  0  0  0  0  0  0
   -8.6790    3.2770  -78.7620 N   0  0  0  0  0  0  0  0  0  0  0  0
   -7.4550    2.7730  -78.2290 C   0  0  0  0  0  0  0  0  0  0  0  0
   -6.8410    2.9750  -76.9480 O   0  0  0  0  0  0  0  0  0  0  0  0
   -6.7960    1.9730  -79.1420 C   0  0  0  0  0  0  0  0  0  0  0  0
   -7.6560    1.2710  -79.9900 C   0  0  0  0  0  0  0  0  0  0  0  0
   -8.0680    1.8310  -81.2210 C   0  0  0  0  0  0  0  0  0  0  0  0
   -8.1010   -0.0060  -79.5770 C   0  0  0  0  0  0  0  0  0  0  0  0
   -8.9180    1.1220  -82.0500 C   0  0  0  0  0  0  0  0  0  0  0  0
   -8.9600   -0.7060  -80.4260 C   0  0  0  0  0  0  0  0  0  0  0  0
   -9.3340   -0.1270  -81.6180 C   0  0  0  0  0  0  0  0  0  0  0  0
  1  2  2  0
  2  3  1  0
  2  4  1  0
  3  5  1  0
  4  6  1  0
  5  7  1  0
  6  7  2  0
  7  8  1  0
  8  9  2  0
  8 10  1  0
  9 11  1  0
 10 12  2  0
 11 13  2  0
 12 13  1  0
 13 14  1  0
 14 15  1  0
 15 16  2  0
 15 17  1  0
 17 18  1  0
 18 19  2  0
 18 20  1  0
 19 21  1  0
 20 22  2  0
 21 23  2  0
 22 23  1  0
M  END
>  <ref_url>  (659) 
https://fakepage.com

>  <submitter_name>  (659) 
Steph Wills

>  <submitter_email>  (659) 
stephanie.wills@dtc.ox.ac.uk

>  <submitter_institution>  (659) 
University of Oxford

>  <generation_date>  (659) 
2020-06-04

>  <method>  (659) 
Fragment network

>  <ref_mols>  (659) 
x0183_0B,x0212_0B

>  <ref_pdb>  (659) 
references/x0183-0B-x0212-0B-225861.holo_minimised_nolig.pdb

>  <original SMILES>  (659) 
O=C1CCC(c2ccc(NC(=O)Cc3ccccc3)cc2)=NN1

>  <synthon>  (659) 
[Xe]c1ccccc1

>  <original_name>  (659) 
x0183-0B-x0212-0B-225861

>  <comRMSD_score>  (659) 
0.6452290147548239

>  <IF_score>  (659) 
0.55

>  <SuCOS_score>  (659) 
0.4894075000661515

>  <compound_ID>  (659) 
REAL:Z1341795537

$$$$

     RDKit          3D

 21 22  0  0  0  0  0  0  0  0999 V2000
  -12.7830    6.2460  -73.6660 C   0  0  0  0  0  0  0  0  0  0  0  0
  -13.7300    5.1960  -74.2330 C   0  0  0  0  0  0  0  0  0  0  0  0
  -13.7390    4.9320  -75.7440 C   0  0  2  0  0  0  0  0  0  0  0  0
  -14.7910    3.8800  -76.1010 C   0  0  0  0  0  0  0  0  0  0  0  0
  -12.4250    4.4270  -76.2600 C   0  0  0  0  0  0  0  0  0  0  0  0
  -11.6670    3.5520  -75.4950 C   0  0  0  0  0  0  0  0  0  0  0  0
  -11.9780    4.8370  -77.5250 C   0  0  0  0  0  0  0  0  0  0  0  0
  -10.4810    3.0830  -75.9820 C   0  0  0  0  0  0  0  0  0  0  0  0
  -10.7760    4.3590  -78.0100 C   0  0  0  0  0  0  0  0  0  0  0  0
  -10.0490    3.4830  -77.2250 C   0  0  0  0  0  0  0  0  0  0  0  0
   -8.9150    3.0320  -77.6920 O   0  0  0  0  0  0  0  0  0  0  0  0
   -8.1890    2.5700  -76.5860 C   0  0  0  0  0  0  0  0  0  0  0  0
   -6.7460    2.7980  -76.9250 C   0  0  0  0  0  0  0  0  0  0  0  0
   -6.3580    2.1890  -78.1840 N   0  0  0  0  0  0  0  0  0  0  0  0
   -7.0560    2.7650  -79.3220 C   0  0  0  0  0  0  0  0  0  0  0  0
   -7.7200    1.6760  -80.1220 C   0  0  0  0  0  0  0  0  0  0  0  0
   -7.9250    0.3850  -79.6020 C   0  0  0  0  0  0  0  0  0  0  0  0
   -8.1360    1.9610  -81.4130 C   0  0  0  0  0  0  0  0  0  0  0  0
   -8.5360   -0.5980  -80.3810 C   0  0  0  0  0  0  0  0  0  0  0  0
   -8.7360    0.9870  -82.1810 C   0  0  0  0  0  0  0  0  0  0  0  0
   -8.9400   -0.2960  -81.6730 C   0  0  0  0  0  0  0  0  0  0  0  0
  1  2  1  0
  2  3  1  0
  3  4  1  1
  3  5  1  0
  5  6  2  0
  5  7  1  0
  6  8  1  0
  7  9  2  0
  8 10  2  0
  9 10  1  0
 10 11  1  0
 11 12  1  0
 12 13  1  0
 13 14  1  0
 14 15  1  0
 15 16  1  0
 16 17  2  0
 16 18  1  0
 17 19  1  0
 18 20  2  0
 19 21  2  0
 20 21  1  0
M  END
>  <ref_url>  (660) 
https://fakepage.com

>  <submitter_name>  (660) 
Steph Wills

>  <submitter_email>  (660) 
stephanie.wills@dtc.ox.ac.uk

>  <submitter_institution>  (660) 
University of Oxford

>  <generation_date>  (660) 
2020-06-04

>  <method>  (660) 
Fragment network

>  <ref_mols>  (660) 
x0183_0B,x0212_0B

>  <ref_pdb>  (660) 
references/x0183-0B-x0212-0B-227120.holo_minimised_nolig.pdb

>  <original SMILES>  (660) 
CCC(C)c1ccc(OCCNCc2ccccc2)cc1

>  <synthon>  (660) 
[Xe]c1ccccc1

>  <original_name>  (660) 
x0183-0B-x0212-0B-227120

>  <comRMSD_score>  (660) 
0.8844648518025306

>  <IF_score>  (660) 
0.55

>  <SuCOS_score>  (660) 
0.511691688129529

>  <compound_ID>  (660) 
CHEMSPACE-BB:CSMB00014269133

$$$$

     RDKit          3D

 24 25  0  0  0  0  0  0  0  0999 V2000
  -11.6710    6.2070  -73.6010 C   0  0  0  0  0  0  0  0  0  0  0  0
  -13.1090    6.5020  -73.9390 C   0  0  0  0  0  0  0  0  0  0  0  0
  -13.9430    5.7960  -72.8800 C   0  0  0  0  0  0  0  0  0  0  0  0
  -13.3200    8.0170  -73.8920 C   0  0  0  0  0  0  0  0  0  0  0  0
  -13.2790    5.9260  -75.2440 O   0  0  0  0  0  0  0  0  0  0  0  0
  -13.2500    4.5010  -75.2870 C   0  0  0  0  0  0  0  0  0  0  0  0
  -11.9610    3.9450  -75.8500 C   0  0  0  0  0  0  0  0  0  0  0  0
  -11.3750    2.8780  -75.1770 C   0  0  0  0  0  0  0  0  0  0  0  0
  -11.3270    4.4360  -77.0210 C   0  0  0  0  0  0  0  0  0  0  0  0
  -10.2120    2.2900  -75.6280 C   0  0  0  0  0  0  0  0  0  0  0  0
  -10.1370    3.8080  -77.4710 C   0  0  0  0  0  0  0  0  0  0  0  0
   -9.6100    2.7530  -76.7630 C   0  0  0  0  0  0  0  0  0  0  0  0
   -9.3610    4.1740  -78.6950 C   0  0  0  0  0  0  0  0  0  0  0  0
   -7.9650    4.0940  -78.3730 N   0  0  0  0  0  0  0  0  0  0  0  0
   -7.5270    3.2810  -77.3700 C   0  0  0  0  0  0  0  0  0  0  0  0
   -7.5580    3.5400  -76.1760 O   0  0  0  0  0  0  0  0  0  0  0  0
   -7.0250    2.1410  -77.9110 N   0  0  0  0  0  0  0  0  0  0  0  0
   -6.7210    2.1280  -79.3180 C   0  0  0  0  0  0  0  0  0  0  0  0
   -7.7820    1.3860  -80.0740 C   0  0  0  0  0  0  0  0  0  0  0  0
   -8.2800    1.8810  -81.2840 C   0  0  0  0  0  0  0  0  0  0  0  0
   -8.2880    0.1800  -79.5700 C   0  0  0  0  0  0  0  0  0  0  0  0
   -9.2560    1.1790  -81.9670 C   0  0  0  0  0  0  0  0  0  0  0  0
   -9.2720   -0.5180  -80.2630 C   0  0  0  0  0  0  0  0  0  0  0  0
   -9.7560   -0.0170  -81.4640 C   0  0  0  0  0  0  0  0  0  0  0  0
  1  2  1  0
  2  3  1  0
  2  4  1  0
  2  5  1  0
  5  6  1  0
  6  7  1  0
  7  8  2  0
  7  9  1  0
  8 10  1  0
  9 11  2  0
 10 12  2  0
 11 12  1  0
 11 13  1  0
 13 14  1  0
 14 15  1  0
 15 16  2  0
 15 17  1  0
 17 18  1  0
 18 19  1  0
 19 20  2  0
 19 21  1  0
 20 22  1  0
 21 23  2  0
 22 24  2  0
 23 24  1  0
M  END
>  <ref_url>  (661) 
https://fakepage.com

>  <submitter_name>  (661) 
Steph Wills

>  <submitter_email>  (661) 
stephanie.wills@dtc.ox.ac.uk

>  <submitter_institution>  (661) 
University of Oxford

>  <generation_date>  (661) 
2020-06-04

>  <method>  (661) 
Fragment network

>  <ref_mols>  (661) 
x0183_0B,x0212_0B

>  <ref_pdb>  (661) 
references/x0183-0B-x0212-0B-227392.holo_minimised_nolig.pdb

>  <original SMILES>  (661) 
CC(C)(C)OCc1cccc(CNC(=O)NCc2ccccc2)c1

>  <synthon>  (661) 
[Xe]c1ccccc1

>  <original_name>  (661) 
x0183-0B-x0212-0B-227392

>  <comRMSD_score>  (661) 
0.8288540728464029

>  <IF_score>  (661) 
0.5

>  <SuCOS_score>  (661) 
0.5356856115820984

>  <compound_ID>  (661) 
REAL:Z1015306270

$$$$

     RDKit          3D

 20 21  0  0  0  0  0  0  0  0999 V2000
  -12.8900    6.4730  -73.7980 C   0  0  0  0  0  0  0  0  0  0  0  0
  -13.6700    5.7520  -74.8470 C   0  0  0  0  0  0  0  0  0  0  0  0
  -13.2680    4.6050  -75.4220 C   0  0  0  0  0  0  0  0  0  0  0  0
  -14.0300    3.6480  -75.2750 O   0  0  0  0  0  0  0  0  0  0  0  0
  -12.0780    4.3420  -76.2120 C   0  0  0  0  0  0  0  0  0  0  0  0
  -11.9950    4.8450  -77.5070 C   0  0  0  0  0  0  0  0  0  0  0  0
  -11.0250    3.6050  -75.6950 C   0  0  0  0  0  0  0  0  0  0  0  0
  -10.8630    4.6070  -78.2640 C   0  0  0  0  0  0  0  0  0  0  0  0
   -9.8870    3.3590  -76.4380 C   0  0  0  0  0  0  0  0  0  0  0  0
   -9.8140    3.8760  -77.7420 C   0  0  0  0  0  0  0  0  0  0  0  0
   -8.6530    3.6070  -78.4400 N   0  0  0  0  0  0  0  0  0  0  0  0
   -7.6210    2.8410  -77.9960 C   0  0  0  0  0  0  0  0  0  0  0  0
   -7.2850    2.5870  -76.7010 O   0  0  0  0  0  0  0  0  0  0  0  0
   -6.8280    2.2140  -79.1360 C   0  0  0  0  0  0  0  0  0  0  0  0
   -7.7580    1.4520  -80.0760 C   0  0  0  0  0  0  0  0  0  0  0  0
   -8.2160    0.0920  -79.5700 C   0  0  0  0  0  0  0  0  0  0  0  0
   -8.1920    1.9200  -81.3130 C   0  0  0  0  0  0  0  0  0  0  0  0
   -9.0620   -0.6530  -80.3670 C   0  0  0  0  0  0  0  0  0  0  0  0
   -9.0440    1.1130  -82.0650 C   0  0  0  0  0  0  0  0  0  0  0  0
   -9.4690   -0.1440  -81.6010 C   0  0  0  0  0  0  0  0  0  0  0  0
  1  2  1  0
  2  3  1  0
  3  4  2  0
  3  5  1  0
  5  6  2  0
  5  7  1  0
  6  8  1  0
  7  9  2  0
  8 10  2  0
  9 10  1  0
 10 11  1  0
 11 12  1  0
 12 13  2  0
 12 14  1  0
 14 15  1  0
 15 16  2  0
 15 17  1  0
 16 18  1  0
 17 19  2  0
 18 20  2  0
 19 20  1  0
M  END
>  <ref_url>  (662) 
https://fakepage.com

>  <submitter_name>  (662) 
Steph Wills

>  <submitter_email>  (662) 
stephanie.wills@dtc.ox.ac.uk

>  <submitter_institution>  (662) 
University of Oxford

>  <generation_date>  (662) 
2020-06-04

>  <method>  (662) 
Fragment network

>  <ref_mols>  (662) 
x0183_0B,x0212_0B

>  <ref_pdb>  (662) 
references/x0183-0B-x0212-0B-227448.holo_minimised_nolig.pdb

>  <original SMILES>  (662) 
CCC(=O)c1ccc(NC(=O)Cc2ccccc2)cc1

>  <synthon>  (662) 
[Xe]c1ccccc1

>  <original_name>  (662) 
x0183-0B-x0212-0B-227448

>  <comRMSD_score>  (662) 
0.5534810713080397

>  <IF_score>  (662) 
0.55

>  <SuCOS_score>  (662) 
0.5216912635692179

>  <compound_ID>  (662) 
REAL:PV-001812333043

$$$$

     RDKit          3D

 26 27  0  0  0  0  0  0  0  0999 V2000
  -12.4840    7.7930  -76.4430 C   0  0  0  0  0  0  0  0  0  0  0  0
  -13.7650    6.9750  -76.2180 C   0  0  0  0  0  0  0  0  0  0  0  0
  -13.5650    5.9820  -75.1560 N   0  0  0  0  0  0  0  0  0  0  0  0
  -12.8110    6.4790  -73.9850 C   0  0  0  0  0  0  0  0  0  0  0  0
  -13.6100    4.3260  -75.5560 S   0  0  0  0  0  0  0  0  0  0  0  0
  -12.8730    5.6370  -72.9150 C   0  0  0  0  0  0  0  0  0  0  0  0
  -13.5620    3.4710  -74.4090 O   0  0  0  0  0  0  0  0  0  0  0  0
  -14.6800    4.1620  -76.5170 O   0  0  0  0  0  0  0  0  0  0  0  0
  -12.1380    4.1340  -76.5050 C   0  0  0  0  0  0  0  0  0  0  0  0
  -12.1670    4.7310  -77.7360 C   0  0  0  0  0  0  0  0  0  0  0  0
  -10.9970    3.4250  -76.0800 C   0  0  0  0  0  0  0  0  0  0  0  0
  -11.0770    4.6230  -78.5490 C   0  0  0  0  0  0  0  0  0  0  0  0
   -9.9100    3.3550  -76.9730 C   0  0  0  0  0  0  0  0  0  0  0  0
   -9.9760    3.9560  -78.1830 C   0  0  0  0  0  0  0  0  0  0  0  0
   -8.7560    2.6870  -76.6980 N   0  0  0  0  0  0  0  0  0  0  0  0
   -7.5330    3.1550  -77.1000 C   0  0  0  0  0  0  0  0  0  0  0  0
   -6.5920    3.4590  -76.3720 O   0  0  0  0  0  0  0  0  0  0  0  0
   -7.4760    3.2650  -78.5000 C   0  0  0  0  0  0  0  0  0  0  0  0
   -6.7390    2.3480  -79.2350 C   0  0  2  0  0  0  0  0  0  0  0  0
   -5.7140    2.8510  -80.1610 C   0  0  0  0  0  0  0  0  0  0  0  0
   -7.6870    1.4560  -80.0180 C   0  0  0  0  0  0  0  0  0  0  0  0
   -8.1440    1.8790  -81.2430 C   0  0  0  0  0  0  0  0  0  0  0  0
   -8.1050    0.2080  -79.5250 C   0  0  0  0  0  0  0  0  0  0  0  0
   -9.0000    1.0790  -81.9850 C   0  0  0  0  0  0  0  0  0  0  0  0
   -8.9690   -0.5970  -80.2700 C   0  0  0  0  0  0  0  0  0  0  0  0
   -9.4130   -0.1580  -81.5040 C   0  0  0  0  0  0  0  0  0  0  0  0
  1  2  1  0
  2  3  1  0
  3  4  1  0
  5  3  1  0
  4  6  1  0
  5  7  2  0
  5  8  2  0
  5  9  1  0
  9 10  2  0
  9 11  1  0
 10 12  1  0
 11 13  2  0
 12 14  2  0
 13 14  1  0
 13 15  1  0
 15 16  1  0
 16 17  2  0
 16 18  1  0
 18 19  1  0
 19 20  1  6
 19 21  1  0
 21 22  2  0
 21 23  1  0
 22 24  1  0
 23 25  2  0
 24 26  2  0
 25 26  1  0
M  END
>  <ref_url>  (663) 
https://fakepage.com

>  <submitter_name>  (663) 
Steph Wills

>  <submitter_email>  (663) 
stephanie.wills@dtc.ox.ac.uk

>  <submitter_institution>  (663) 
University of Oxford

>  <generation_date>  (663) 
2020-06-04

>  <method>  (663) 
Fragment network

>  <ref_mols>  (663) 
x0183_0B,x0212_0B

>  <ref_pdb>  (663) 
references/x0183-0B-x0212-0B-230160.holo_minimised_nolig.pdb

>  <original SMILES>  (663) 
CCN(CC)S(=O)(=O)c1cccc(NC(=O)CC(C)c2ccccc2)c1

>  <synthon>  (663) 
[Xe]c1ccccc1

>  <original_name>  (663) 
x0183-0B-x0212-0B-230160

>  <comRMSD_score>  (663) 
0.8102932025347828

>  <IF_score>  (663) 
0.425

>  <SuCOS_score>  (663) 
0.4954105814497365

>  <compound_ID>  (663) 
MOLPORT:003-324-545

$$$$

     RDKit          3D

 26 30  0  0  0  0  0  0  0  0999 V2000
  -14.8980    6.1540  -73.6180 C   0  0  0  0  0  0  0  0  0  0  0  0
  -13.4790    6.4470  -73.5060 C   0  0  0  0  0  0  0  0  0  0  0  0
  -12.6210    5.8660  -74.2560 C   0  0  0  0  0  0  0  0  0  0  0  0
  -15.3110    5.1970  -74.5780 C   0  0  0  0  0  0  0  0  0  0  0  0
  -14.3360    4.5520  -75.4080 C   0  0  0  0  0  0  0  0  0  0  0  0
  -12.9710    4.8950  -75.2510 C   0  0  0  0  0  0  0  0  0  0  0  0
  -11.8730    4.4520  -75.9070 C   0  0  0  0  0  0  0  0  0  0  0  0
  -11.0270    3.5500  -75.2820 C   0  0  0  0  0  0  0  0  0  0  0  0
  -11.5980    4.9360  -77.1820 C   0  0  0  0  0  0  0  0  0  0  0  0
   -9.8840    3.1360  -75.9110 C   0  0  0  0  0  0  0  0  0  0  0  0
  -10.4620    4.5220  -77.8160 C   0  0  0  0  0  0  0  0  0  0  0  0
   -9.6170    3.6300  -77.1620 C   0  0  0  0  0  0  0  0  0  0  0  0
   -8.4140    3.2010  -77.9020 C   0  0  0  0  0  0  0  0  0  0  0  0
   -6.9750    3.6100  -77.7640 N   0  0  0  0  0  0  0  0  0  0  0  0
   -8.6950    2.4360  -78.7010 O   0  0  0  0  0  0  0  0  0  0  0  0
   -6.3860    2.8480  -78.7700 N   0  0  0  0  0  0  0  0  0  0  0  0
   -7.5810    2.1790  -79.2590 C   0  0  0  0  0  0  0  0  0  0  0  0
   -7.9400    1.1980  -80.3020 C   0  0  0  0  0  0  0  0  0  0  0  0
   -8.1500    1.5820  -81.6130 C   0  0  0  0  0  0  0  0  0  0  0  0
   -8.1120   -0.1250  -79.8940 C   0  0  0  0  0  0  0  0  0  0  0  0
   -8.5410    0.6270  -82.5410 C   0  0  0  0  0  0  0  0  0  0  0  0
   -8.5010   -1.0810  -80.8040 C   0  0  0  0  0  0  0  0  0  0  0  0
   -8.7090   -0.6910  -82.1070 C   0  0  0  0  0  0  0  0  0  0  0  0
   -8.6860   -2.2620  -80.5760 O   0  0  0  0  0  0  0  0  0  0  0  0
   -9.0550   -2.5290  -81.9430 C   0  0  0  0  0  0  0  0  0  0  0  0
   -9.0450   -1.6520  -82.7950 O   0  0  0  0  0  0  0  0  0  0  0  0
  1  2  2  0
  2  3  1  0
  1  4  1  0
  4  5  2  0
  3  6  2  0
  5  6  1  0
  6  7  1  0
  7  8  2  0
  7  9  1  0
  8 10  1  0
  9 11  2  0
 10 12  2  0
 11 12  1  0
 12 13  1  0
 13 14  2  0
 13 15  1  0
 14 16  1  0
 15 17  1  0
 16 17  2  0
 17 18  1  0
 18 19  2  0
 18 20  1  0
 19 21  1  0
 20 22  2  0
 21 23  2  0
 22 23  1  0
 22 24  1  0
 24 25  1  0
 23 26  1  0
 25 26  1  0
M  END
>  <ref_url>  (664) 
https://fakepage.com

>  <submitter_name>  (664) 
Steph Wills

>  <submitter_email>  (664) 
stephanie.wills@dtc.ox.ac.uk

>  <submitter_institution>  (664) 
University of Oxford

>  <generation_date>  (664) 
2020-06-04

>  <method>  (664) 
Fragment network

>  <ref_mols>  (664) 
x0183_0B,x0212_0B

>  <ref_pdb>  (664) 
references/x0183-0B-x0212-0B-230364.holo_minimised_nolig.pdb

>  <original SMILES>  (664) 
c1ccc(-c2ccc(-c3nnc(-c4ccc5c(c4)OCO5)o3)cc2)cc1

>  <synthon>  (664) 
[Xe]c1ccccc1

>  <original_name>  (664) 
x0183-0B-x0212-0B-230364

>  <comRMSD_score>  (664) 
0.9775434084400616

>  <IF_score>  (664) 
0.225

>  <SuCOS_score>  (664) 
0.4789600010602937

>  <compound_ID>  (664) 
MOLPORT:001-509-455

$$$$

     RDKit          3D

 21 22  0  0  0  0  0  0  0  0999 V2000
  -12.9170    6.2690  -73.7160 C   0  0  0  0  0  0  0  0  0  0  0  0
  -13.6960    5.7480  -74.8890 C   0  0  0  0  0  0  0  0  0  0  0  0
  -13.4050    4.5060  -75.4710 C   0  0  0  0  0  0  0  0  0  0  0  0
  -14.3540    3.7280  -75.4520 O   0  0  0  0  0  0  0  0  0  0  0  0
  -12.1590    4.2560  -76.0010 C   0  0  0  0  0  0  0  0  0  0  0  0
  -11.3040    3.3840  -75.3350 C   0  0  0  0  0  0  0  0  0  0  0  0
  -11.7340    4.8660  -77.1900 C   0  0  0  0  0  0  0  0  0  0  0  0
  -10.0590    3.1430  -75.8550 C   0  0  0  0  0  0  0  0  0  0  0  0
  -10.4700    4.6020  -77.6990 C   0  0  0  0  0  0  0  0  0  0  0  0
   -9.6340    3.7360  -77.0110 C   0  0  0  0  0  0  0  0  0  0  0  0
   -8.3620    3.3990  -77.3690 N   0  0  0  0  0  0  0  0  0  0  0  0
   -7.8600    3.2880  -78.6110 C   0  0  0  0  0  0  0  0  0  0  0  0
   -8.3140    3.7350  -79.6530 O   0  0  0  0  0  0  0  0  0  0  0  0
   -6.6900    2.5650  -78.5420 C   0  0  0  0  0  0  0  0  0  0  0  0
   -6.4410    1.8710  -79.7010 C   0  0  0  0  0  0  0  0  0  0  0  0
   -7.5520    1.2740  -80.2720 C   0  0  0  0  0  0  0  0  0  0  0  0
   -8.2300    1.8940  -81.4660 C   0  0  0  0  0  0  0  0  0  0  0  0
   -8.0770    0.0740  -79.7660 C   0  0  0  0  0  0  0  0  0  0  0  0
   -9.4190    1.1920  -82.0550 C   0  0  0  0  0  0  0  0  0  0  0  0
   -9.2020   -0.5390  -80.3570 C   0  0  0  0  0  0  0  0  0  0  0  0
   -9.8540    0.0030  -81.4690 C   0  0  0  0  0  0  0  0  0  0  0  0
  1  2  1  0
  2  3  1  0
  3  4  2  0
  3  5  1  0
  5  6  2  0
  5  7  1  0
  6  8  1  0
  7  9  2  0
  8 10  2  0
  9 10  1  0
 10 11  1  0
 11 12  1  0
 12 13  2  0
 12 14  1  0
 14 15  1  0
 15 16  1  0
 16 17  2  0
 16 18  1  0
 17 19  1  0
 18 20  2  0
 19 21  2  0
 20 21  1  0
M  END
>  <ref_url>  (665) 
https://fakepage.com

>  <submitter_name>  (665) 
Steph Wills

>  <submitter_email>  (665) 
stephanie.wills@dtc.ox.ac.uk

>  <submitter_institution>  (665) 
University of Oxford

>  <generation_date>  (665) 
2020-06-04

>  <method>  (665) 
Fragment network

>  <ref_mols>  (665) 
x0183_0B,x0212_0B

>  <ref_pdb>  (665) 
references/x0183-0B-x0212-0B-231230.holo_minimised_nolig.pdb

>  <original SMILES>  (665) 
CCC(=O)c1ccc(NC(=O)CCc2ccccc2)cc1

>  <synthon>  (665) 
[Xe]c1ccccc1

>  <original_name>  (665) 
x0183-0B-x0212-0B-231230

>  <comRMSD_score>  (665) 
0.6400542222401215

>  <IF_score>  (665) 
0.6666666666666666

>  <SuCOS_score>  (665) 
0.5070494182061285

>  <compound_ID>  (665) 
REAL:PV-001812331316

$$$$

     RDKit          3D

 19 20  0  0  0  0  0  0  0  0999 V2000
  -13.3560    4.1240  -75.3520 C   0  0  0  0  0  0  0  0  0  0  0  0
  -12.1070    4.0350  -76.2220 C   0  0  0  0  0  0  0  0  0  0  0  0
  -12.0720    4.6580  -77.4700 C   0  0  0  0  0  0  0  0  0  0  0  0
  -10.9940    3.3250  -75.7720 C   0  0  0  0  0  0  0  0  0  0  0  0
  -10.8360    4.5440  -78.3010 C   0  0  0  0  0  0  0  0  0  0  0  0
   -9.8530    3.2290  -76.5530 C   0  0  0  0  0  0  0  0  0  0  0  0
   -9.7620    3.8290  -77.8100 C   0  0  0  0  0  0  0  0  0  0  0  0
   -8.7800    2.5330  -76.1060 N   0  0  0  0  0  0  0  0  0  0  0  0
   -7.9010    2.0130  -77.1120 C   0  0  0  0  0  0  0  0  0  0  0  0
   -7.7440    0.8080  -76.9500 O   0  0  0  0  0  0  0  0  0  0  0  0
   -7.4100    2.9150  -78.0590 N   0  0  0  0  0  0  0  0  0  0  0  0
   -6.7680    2.4180  -79.2490 C   0  0  0  0  0  0  0  0  0  0  0  0
   -5.4940    2.7520  -79.5670 O   0  0  0  0  0  0  0  0  0  0  0  0
   -7.5000    1.5560  -80.0780 C   0  0  0  0  0  0  0  0  0  0  0  0
   -7.9780    1.9800  -81.3190 C   0  0  0  0  0  0  0  0  0  0  0  0
   -7.7700    0.2330  -79.6900 C   0  0  0  0  0  0  0  0  0  0  0  0
   -8.7330    1.0110  -82.1730 C   0  0  0  0  0  0  0  0  0  0  0  0
   -8.4760   -0.6780  -80.4730 C   0  0  0  0  0  0  0  0  0  0  0  0
   -8.9560   -0.2910  -81.7190 C   0  0  0  0  0  0  0  0  0  0  0  0
  1  2  1  0
  2  3  2  0
  2  4  1  0
  3  5  1  0
  4  6  2  0
  5  7  2  0
  6  7  1  0
  6  8  1  0
  8  9  1  0
  9 10  2  0
  9 11  1  0
 11 12  1  0
 12 13  2  0
 12 14  1  0
 14 15  2  0
 14 16  1  0
 15 17  1  0
 16 18  2  0
 17 19  2  0
 18 19  1  0
M  END
>  <ref_url>  (666) 
https://fakepage.com

>  <submitter_name>  (666) 
Steph Wills

>  <submitter_email>  (666) 
stephanie.wills@dtc.ox.ac.uk

>  <submitter_institution>  (666) 
University of Oxford

>  <generation_date>  (666) 
2020-06-04

>  <method>  (666) 
Fragment network

>  <ref_mols>  (666) 
x0183_0B,x0212_0B

>  <ref_pdb>  (666) 
references/x0183-0B-x0212-0B-231975.holo_minimised_nolig.pdb

>  <original SMILES>  (666) 
Cc1cccc(NC(=O)NC(=O)c2ccccc2)c1

>  <synthon>  (666) 
[Xe]c1ccccc1

>  <original_name>  (666) 
x0183-0B-x0212-0B-231975

>  <comRMSD_score>  (666) 
0.6774519716651825

>  <IF_score>  (666) 
0.55

>  <SuCOS_score>  (666) 
0.4597773365645736

>  <compound_ID>  (666) 
MOLPORT:002-127-462

$$$$

     RDKit          3D

 22 23  0  0  0  0  0  0  0  0999 V2000
  -11.7920    6.2230  -73.6400 C   0  0  0  0  0  0  0  0  0  0  0  0
  -13.3060    6.2520  -73.6890 C   0  0  0  0  0  0  0  0  0  0  0  0
  -13.7050    5.3990  -74.8280 N   0  0  0  0  0  0  0  0  0  0  0  0
  -13.0110    4.0880  -75.0220 C   0  0  0  0  0  0  0  0  0  0  0  0
  -12.0630    4.1320  -76.1820 C   0  0  0  0  0  0  0  0  0  0  0  0
  -12.4940    4.7810  -77.3200 C   0  0  0  0  0  0  0  0  0  0  0  0
  -10.7780    3.5820  -76.2450 C   0  0  0  0  0  0  0  0  0  0  0  0
  -11.6950    4.8740  -78.4320 C   0  0  0  0  0  0  0  0  0  0  0  0
   -9.9750    3.6860  -77.3540 C   0  0  0  0  0  0  0  0  0  0  0  0
  -10.0920    2.8640  -75.2740 O   0  0  0  0  0  0  0  0  0  0  0  0
  -10.4190    4.3350  -78.4720 C   0  0  0  0  0  0  0  0  0  0  0  0
   -8.9710    2.2990  -75.8250 C   0  0  0  0  0  0  0  0  0  0  0  0
   -8.7570    2.0410  -77.3050 C   0  0  0  0  0  0  0  0  0  0  0  0
   -7.3750    2.3070  -77.7410 N   0  0  0  0  0  0  0  0  0  0  0  0
   -6.5750    3.1900  -76.8730 C   0  0  0  0  0  0  0  0  0  0  0  0
   -7.2140    2.6220  -79.1770 C   0  0  0  0  0  0  0  0  0  0  0  0
   -7.8580    1.6940  -80.0050 C   0  0  0  0  0  0  0  0  0  0  0  0
   -8.1870    0.3070  -79.5320 C   0  0  0  0  0  0  0  0  0  0  0  0
   -8.1990    2.0370  -81.2600 C   0  0  0  0  0  0  0  0  0  0  0  0
   -8.8760   -0.8560  -80.2450 C   0  0  0  0  0  0  0  0  0  0  0  0
   -8.8250    1.1280  -82.0590 C   0  0  0  0  0  0  0  0  0  0  0  0
   -9.1140   -0.1580  -81.5750 C   0  0  0  0  0  0  0  0  0  0  0  0
  1  2  1  0
  2  3  1  0
  3  4  1  0
  4  5  1  0
  5  6  2  0
  5  7  1  0
  6  8  1  0
  7  9  2  0
  7 10  1  0
  8 11  2  0
  9 11  1  0
 10 12  1  0
 12 13  1  0
 13 14  1  0
 14 15  1  0
 14 16  1  0
 16 17  1  0
 17 18  2  0
 17 19  1  0
 18 20  1  0
 19 21  2  0
 20 22  2  0
 21 22  1  0
M  END
>  <ref_url>  (667) 
https://fakepage.com

>  <submitter_name>  (667) 
Steph Wills

>  <submitter_email>  (667) 
stephanie.wills@dtc.ox.ac.uk

>  <submitter_institution>  (667) 
University of Oxford

>  <generation_date>  (667) 
2020-06-04

>  <method>  (667) 
Fragment network

>  <ref_mols>  (667) 
x0183_0B,x0212_0B

>  <ref_pdb>  (667) 
references/x0183-0B-x0212-0B-232465.holo_minimised_nolig.pdb

>  <original SMILES>  (667) 
CCNCc1ccccc1OCCN(C)Cc1ccccc1

>  <synthon>  (667) 
[Xe]c1ccccc1

>  <original_name>  (667) 
x0183-0B-x0212-0B-232465

>  <comRMSD_score>  (667) 
0.6920932285733168

>  <IF_score>  (667) 
0.675

>  <SuCOS_score>  (667) 
0.563889122047659

>  <compound_ID>  (667) 
CHEMSPACE-BB:CSMB00011673700

$$$$

     RDKit          3D

 20 21  0  0  0  0  0  0  0  0999 V2000
  -12.8290    6.3290  -73.6490 C   0  0  0  0  0  0  0  0  0  0  0  0
  -13.4660    5.6060  -74.8540 C   0  0  0  0  0  0  0  0  0  0  0  0
  -14.2490    6.1750  -75.6150 O   0  0  0  0  0  0  0  0  0  0  0  0
  -12.9850    4.2050  -74.9090 N   0  0  0  0  0  0  0  0  0  0  0  0
  -11.9060    4.0150  -75.8930 C   0  0  0  0  0  0  0  0  0  0  0  0
  -12.1220    4.8660  -77.0830 C   0  0  0  0  0  0  0  0  0  0  0  0
  -10.7720    3.1760  -75.8530 C   0  0  0  0  0  0  0  0  0  0  0  0
  -11.2170    4.8130  -78.0990 C   0  0  0  0  0  0  0  0  0  0  0  0
   -9.8810    3.1790  -76.9540 C   0  0  0  0  0  0  0  0  0  0  0  0
  -10.1250    3.9930  -78.0360 C   0  0  0  0  0  0  0  0  0  0  0  0
   -8.7580    2.3620  -76.9900 N   0  0  0  0  0  0  0  0  0  0  0  0
   -7.5110    2.9420  -77.4190 C   0  0  0  0  0  0  0  0  0  0  0  0
   -6.6420    3.6210  -76.6340 O   0  0  0  0  0  0  0  0  0  0  0  0
   -7.2930    2.6930  -78.8550 N   0  0  0  0  0  0  0  0  0  0  0  0
   -7.9370    1.7830  -79.7440 C   0  0  0  0  0  0  0  0  0  0  0  0
   -8.3150    0.5270  -79.2810 C   0  0  0  0  0  0  0  0  0  0  0  0
   -8.2350    2.0490  -81.1060 C   0  0  0  0  0  0  0  0  0  0  0  0
   -8.9860   -0.4680  -80.1570 C   0  0  0  0  0  0  0  0  0  0  0  0
   -8.8740    1.1020  -81.9420 C   0  0  0  0  0  0  0  0  0  0  0  0
   -9.2590   -0.1720  -81.4750 C   0  0  0  0  0  0  0  0  0  0  0  0
  1  2  1  0
  2  3  2  0
  2  4  1  0
  4  5  1  0
  5  6  2  0
  5  7  1  0
  6  8  1  0
  7  9  2  0
  8 10  2  0
  9 10  1  0
  9 11  1  0
 11 12  1  0
 12 13  2  0
 12 14  1  0
 14 15  1  0
 15 16  2  0
 15 17  1  0
 16 18  1  0
 17 19  2  0
 18 20  2  0
 19 20  1  0
M  END
>  <ref_url>  (668) 
https://fakepage.com

>  <submitter_name>  (668) 
Steph Wills

>  <submitter_email>  (668) 
stephanie.wills@dtc.ox.ac.uk

>  <submitter_institution>  (668) 
University of Oxford

>  <generation_date>  (668) 
2020-06-04

>  <method>  (668) 
Fragment network

>  <ref_mols>  (668) 
x0183_0B,x0212_0B

>  <ref_pdb>  (668) 
references/x0183-0B-x0212-0B-235768.holo_minimised_nolig.pdb

>  <original SMILES>  (668) 
CC(=O)Nc1cccc(NC(=O)Nc2ccccc2)c1

>  <synthon>  (668) 
[Xe]c1ccccc1

>  <original_name>  (668) 
x0183-0B-x0212-0B-235768

>  <comRMSD_score>  (668) 
0.883049325412296

>  <IF_score>  (668) 
0.55

>  <SuCOS_score>  (668) 
0.4217966784090399

>  <compound_ID>  (668) 
MOLPORT:004-129-012, REAL:Z44591105

$$$$

     RDKit          3D

 22 23  0  0  0  0  0  0  0  0999 V2000
  -12.7470    6.3940  -73.8680 C   0  0  0  0  0  0  0  0  0  0  0  0
  -13.3850    5.8260  -75.0180 O   0  0  0  0  0  0  0  0  0  0  0  0
  -13.1330    4.4170  -75.1980 C   0  0  1  0  0  0  0  0  0  0  0  0
  -14.2440    3.5310  -75.6670 C   0  0  0  0  0  0  0  0  0  0  0  0
  -11.9640    4.2680  -76.1430 C   0  0  0  0  0  0  0  0  0  0  0  0
  -11.9930    4.7620  -77.4580 C   0  0  0  0  0  0  0  0  0  0  0  0
  -10.8110    3.6140  -75.6990 C   0  0  0  0  0  0  0  0  0  0  0  0
  -10.8960    4.6040  -78.2980 C   0  0  0  0  0  0  0  0  0  0  0  0
   -9.7260    3.4710  -76.5490 C   0  0  0  0  0  0  0  0  0  0  0  0
   -9.7590    3.9610  -77.8450 C   0  0  0  0  0  0  0  0  0  0  0  0
   -8.5930    2.8470  -76.1180 N   0  0  0  0  0  0  0  0  0  0  0  0
   -8.2320    1.5420  -76.6100 C   0  0  0  0  0  0  0  0  0  0  0  0
   -8.7770    0.2570  -76.2670 O   0  0  0  0  0  0  0  0  0  0  0  0
   -7.2210    1.5290  -77.5650 C   0  0  0  0  0  0  0  0  0  0  0  0
   -7.5480    2.2620  -78.7080 C   0  0  1  0  0  0  0  0  0  0  0  0
   -6.3230    2.9080  -79.1460 N   0  0  0  0  0  0  0  0  0  0  0  0
   -8.1360    1.5090  -79.7300 C   0  0  0  0  0  0  0  0  0  0  0  0
   -8.6010    0.2340  -79.4030 C   0  0  0  0  0  0  0  0  0  0  0  0
   -8.2850    1.9780  -81.0540 C   0  0  0  0  0  0  0  0  0  0  0  0
   -9.2040   -0.5700  -80.3590 C   0  0  0  0  0  0  0  0  0  0  0  0
   -8.8950    1.1620  -82.0100 C   0  0  0  0  0  0  0  0  0  0  0  0
   -9.3530   -0.1090  -81.6490 C   0  0  0  0  0  0  0  0  0  0  0  0
  1  2  1  0
  2  3  1  0
  3  4  1  6
  3  5  1  0
  5  6  2  0
  5  7  1  0
  6  8  1  0
  7  9  2  0
  8 10  2  0
  9 10  1  0
  9 11  1  0
 11 12  1  0
 12 13  2  0
 12 14  1  0
 14 15  1  0
 15 16  1  6
 15 17  1  0
 17 18  2  0
 17 19  1  0
 18 20  1  0
 19 21  2  0
 20 22  2  0
 21 22  1  0
M  END
>  <ref_url>  (669) 
https://fakepage.com

>  <submitter_name>  (669) 
Steph Wills

>  <submitter_email>  (669) 
stephanie.wills@dtc.ox.ac.uk

>  <submitter_institution>  (669) 
University of Oxford

>  <generation_date>  (669) 
2020-06-04

>  <method>  (669) 
Fragment network

>  <ref_mols>  (669) 
x0183_0B,x0212_0B

>  <ref_pdb>  (669) 
references/x0183-0B-x0212-0B-237274.holo_minimised_nolig.pdb

>  <original SMILES>  (669) 
COC(C)c1cccc(NC(=O)CC(N)c2ccccc2)c1

>  <synthon>  (669) 
[Xe]c1ccccc1

>  <original_name>  (669) 
x0183-0B-x0212-0B-237274

>  <comRMSD_score>  (669) 
0.6192293298633088

>  <IF_score>  (669) 
0.55

>  <SuCOS_score>  (669) 
0.4959856874123602

>  <compound_ID>  (669) 
REAL:Z2436675204

$$$$

     RDKit          3D

 26 27  0  0  0  0  0  0  0  0999 V2000
  -12.8690    6.2970  -73.7210 C   0  0  0  0  0  0  0  0  0  0  0  0
  -13.6760    5.7760  -74.8960 C   0  0  0  0  0  0  0  0  0  0  0  0
  -14.5090    6.4840  -75.4520 O   0  0  0  0  0  0  0  0  0  0  0  0
  -13.3440    4.3930  -75.2510 N   0  0  0  0  0  0  0  0  0  0  0  0
  -12.1950    4.2170  -75.9710 C   0  0  0  0  0  0  0  0  0  0  0  0
  -12.0570    4.8310  -77.2200 C   0  0  0  0  0  0  0  0  0  0  0  0
  -11.1720    3.4360  -75.4600 C   0  0  0  0  0  0  0  0  0  0  0  0
  -10.8740    4.6530  -77.9390 C   0  0  0  0  0  0  0  0  0  0  0  0
  -10.0130    3.2660  -76.1730 C   0  0  0  0  0  0  0  0  0  0  0  0
   -9.8550    3.8720  -77.4070 C   0  0  0  0  0  0  0  0  0  0  0  0
   -8.6720    3.6550  -78.0310 N   0  0  0  0  0  0  0  0  0  0  0  0
   -7.9080    2.5900  -77.6210 C   0  0  0  0  0  0  0  0  0  0  0  0
   -8.2200    1.4120  -77.7600 O   0  0  0  0  0  0  0  0  0  0  0  0
   -6.7410    3.0100  -76.9950 N   0  0  0  0  0  0  0  0  0  0  0  0
   -5.6250    2.1030  -76.7410 C   0  0  0  0  0  0  0  0  0  0  0  0
   -5.9800    0.6190  -76.8660 C   0  0  1  0  0  0  0  0  0  0  0  0
   -7.2390    0.2100  -76.3940 C   0  0  0  0  0  0  0  0  0  0  0  0
   -5.8970    0.2360  -78.3640 C   0  0  0  0  0  0  0  0  0  0  0  0
   -5.6070    1.1910  -79.0980 O   0  0  0  0  0  0  0  0  0  0  0  0
   -6.7050    2.0520  -79.4240 C   0  0  0  0  0  0  0  0  0  0  0  0
   -7.6490    1.3200  -80.1510 C   0  0  0  0  0  0  0  0  0  0  0  0
   -8.1410    1.8220  -81.3550 C   0  0  0  0  0  0  0  0  0  0  0  0
   -8.1090    0.0770  -79.6830 C   0  0  0  0  0  0  0  0  0  0  0  0
   -9.0660    1.0880  -82.0740 C   0  0  0  0  0  0  0  0  0  0  0  0
   -9.0390   -0.6490  -80.4100 C   0  0  0  0  0  0  0  0  0  0  0  0
   -9.5170   -0.1440  -81.6100 C   0  0  0  0  0  0  0  0  0  0  0  0
  1  2  1  0
  2  3  2  0
  2  4  1  0
  4  5  1  0
  5  6  2  0
  5  7  1  0
  6  8  1  0
  7  9  2  0
  8 10  2  0
  9 10  1  0
 10 11  1  0
 11 12  1  0
 12 13  2  0
 12 14  1  0
 14 15  1  0
 15 16  1  0
 16 17  1  6
 16 18  1  0
 18 19  1  0
 19 20  1  0
 20 21  1  0
 21 22  2  0
 21 23  1  0
 22 24  1  0
 23 25  2  0
 24 26  2  0
 25 26  1  0
M  END
>  <ref_url>  (670) 
https://fakepage.com

>  <submitter_name>  (670) 
Steph Wills

>  <submitter_email>  (670) 
stephanie.wills@dtc.ox.ac.uk

>  <submitter_institution>  (670) 
University of Oxford

>  <generation_date>  (670) 
2020-06-04

>  <method>  (670) 
Fragment network

>  <ref_mols>  (670) 
x0183_0B,x0212_0B

>  <ref_pdb>  (670) 
references/x0183-0B-x0212-0B-237795.holo_minimised_nolig.pdb

>  <original SMILES>  (670) 
CC(=O)Nc1ccc(NC(=O)NCC(C)COCc2ccccc2)cc1

>  <synthon>  (670) 
[Xe]c1ccccc1

>  <original_name>  (670) 
x0183-0B-x0212-0B-237795

>  <comRMSD_score>  (670) 
0.7259290598949738

>  <IF_score>  (670) 
0.55

>  <SuCOS_score>  (670) 
0.4553451219875552

>  <compound_ID>  (670) 
REAL:Z807167578

$$$$

     RDKit          3D

 18 19  0  0  0  0  0  0  0  0999 V2000
  -10.7900   -2.2990  -81.9130 C   0  0  0  0  0  0  0  0  0  0  0  0
  -10.0320   -1.2750  -82.5610 O   0  0  0  0  0  0  0  0  0  0  0  0
   -9.3970   -0.4700  -81.6960 C   0  0  0  0  0  0  0  0  0  0  0  0
   -9.0360    0.9180  -82.2040 C   0  0  0  0  0  0  0  0  0  0  0  0
   -9.0030   -0.7760  -80.2860 C   0  0  0  0  0  0  0  0  0  0  0  0
   -8.3820    1.8410  -81.3990 C   0  0  0  0  0  0  0  0  0  0  0  0
   -8.3540    0.2050  -79.5530 C   0  0  0  0  0  0  0  0  0  0  0  0
   -8.0510    1.4710  -80.0840 C   0  0  0  0  0  0  0  0  0  0  0  0
   -7.4170    2.4060  -79.3150 N   0  0  0  0  0  0  0  0  0  0  0  0
   -7.6080    2.3580  -77.8750 C   0  0  0  0  0  0  0  0  0  0  0  0
   -7.2140    1.3390  -77.0570 O   0  0  0  0  0  0  0  0  0  0  0  0
   -8.2580    3.5160  -77.4580 N   0  0  0  0  0  0  0  0  0  0  0  0
   -9.5980    3.7660  -77.3350 C   0  0  0  0  0  0  0  0  0  0  0  0
   -9.9620    3.4250  -76.0630 C   0  0  0  0  0  0  0  0  0  0  0  0
  -10.5470    4.2820  -78.2510 C   0  0  0  0  0  0  0  0  0  0  0  0
  -11.2340    3.5740  -75.6270 C   0  0  0  0  0  0  0  0  0  0  0  0
  -11.8880    4.4630  -77.8450 C   0  0  0  0  0  0  0  0  0  0  0  0
  -12.2830    4.1240  -76.5380 C   0  0  0  0  0  0  0  0  0  0  0  0
  1  2  1  0
  2  3  1  0
  3  4  2  0
  3  5  1  0
  4  6  1  0
  5  7  2  0
  6  8  2  0
  7  8  1  0
  8  9  1  0
  9 10  1  0
 10 11  2  0
 10 12  1  0
 12 13  1  0
 13 14  2  0
 13 15  1  0
 14 16  1  0
 15 17  2  0
 16 18  2  0
 17 18  1  0
M  END
>  <ref_url>  (671) 
https://fakepage.com

>  <submitter_name>  (671) 
Steph Wills

>  <submitter_email>  (671) 
stephanie.wills@dtc.ox.ac.uk

>  <submitter_institution>  (671) 
University of Oxford

>  <generation_date>  (671) 
2020-06-04

>  <method>  (671) 
Fragment network

>  <ref_mols>  (671) 
x0183_0B,x0212_0B

>  <ref_pdb>  (671) 
references/x0183-0B-x0212-0B-240992.holo_minimised_nolig.pdb

>  <original SMILES>  (671) 
COc1ccc(NC(=O)Nc2ccccc2)cc1

>  <synthon>  (671) 
[Xe]c1ccccc1

>  <original_name>  (671) 
x0183-0B-x0212-0B-240992

>  <comRMSD_score>  (671) 
0.8806184244744193

>  <IF_score>  (671) 
0.65

>  <SuCOS_score>  (671) 
0.3590050557773906

>  <compound_ID>  (671) 
MOLPORT:000-874-312, REAL:Z44590025

$$$$

     RDKit          3D

 22 23  0  0  0  0  0  0  0  0999 V2000
  -12.9150    6.2990  -73.7050 C   0  0  0  0  0  0  0  0  0  0  0  0
  -13.6440    5.6460  -74.8430 C   0  0  2  0  0  0  0  0  0  0  0  0
  -13.2290    4.4350  -75.2930 C   0  0  0  0  0  0  0  0  0  0  0  0
  -13.9520    6.5790  -75.8390 C   0  0  0  0  0  0  0  0  0  0  0  0
  -12.0060    4.2750  -76.0810 C   0  0  0  0  0  0  0  0  0  0  0  0
  -13.8850    7.7740  -75.5940 O   0  0  0  0  0  0  0  0  0  0  0  0
  -14.2980    6.2950  -76.9740 O   0  0  0  0  0  0  0  0  0  0  0  0
  -11.8940    4.8320  -77.3640 C   0  0  0  0  0  0  0  0  0  0  0  0
  -10.9400    3.5650  -75.5510 C   0  0  0  0  0  0  0  0  0  0  0  0
  -10.7140    4.6770  -78.0900 C   0  0  0  0  0  0  0  0  0  0  0  0
   -9.7760    3.4190  -76.2740 C   0  0  0  0  0  0  0  0  0  0  0  0
   -9.6470    3.9740  -77.5480 C   0  0  0  0  0  0  0  0  0  0  0  0
   -8.4220    3.7720  -78.1700 N   0  0  0  0  0  0  0  0  0  0  0  0
   -7.6250    2.7010  -77.9100 C   0  0  0  0  0  0  0  0  0  0  0  0
   -7.4660    2.0990  -76.8650 O   0  0  0  0  0  0  0  0  0  0  0  0
   -6.8830    2.1820  -79.1350 C   0  0  0  0  0  0  0  0  0  0  0  0
   -7.7950    1.3170  -79.9860 C   0  0  0  0  0  0  0  0  0  0  0  0
   -8.2290    1.8900  -81.3210 C   0  0  0  0  0  0  0  0  0  0  0  0
   -8.2340    0.0590  -79.5800 C   0  0  0  0  0  0  0  0  0  0  0  0
   -9.0580    1.1100  -82.0890 C   0  0  0  0  0  0  0  0  0  0  0  0
   -9.0780   -0.6750  -80.4100 C   0  0  0  0  0  0  0  0  0  0  0  0
   -9.4800   -0.1520  -81.6400 C   0  0  0  0  0  0  0  0  0  0  0  0
  2  1  1  1
  2  3  1  0
  2  4  1  0
  3  5  1  0
  4  6  2  0
  4  7  1  0
  5  8  2  0
  5  9  1  0
  8 10  1  0
  9 11  2  0
 10 12  2  0
 11 12  1  0
 12 13  1  0
 13 14  1  0
 14 15  2  0
 14 16  1  0
 16 17  1  0
 17 18  2  0
 17 19  1  0
 18 20  1  0
 19 21  2  0
 20 22  2  0
 21 22  1  0
M  END
>  <ref_url>  (672) 
https://fakepage.com

>  <submitter_name>  (672) 
Steph Wills

>  <submitter_email>  (672) 
stephanie.wills@dtc.ox.ac.uk

>  <submitter_institution>  (672) 
University of Oxford

>  <generation_date>  (672) 
2020-06-04

>  <method>  (672) 
Fragment network

>  <ref_mols>  (672) 
x0183_0B,x0212_0B

>  <ref_pdb>  (672) 
references/x0183-0B-x0212-0B-242698.holo_minimised_nolig.pdb

>  <original SMILES>  (672) 
CC(Cc1ccc(NC(=O)Cc2ccccc2)cc1)C(=O)O

>  <synthon>  (672) 
[Xe]c1ccccc1

>  <original_name>  (672) 
x0183-0B-x0212-0B-242698

>  <comRMSD_score>  (672) 
0.5306867667885108

>  <IF_score>  (672) 
0.65

>  <SuCOS_score>  (672) 
0.5487132412023676

>  <compound_ID>  (672) 
REAL:Z1870260966

$$$$

     RDKit          3D

 21 22  0  0  0  0  0  0  0  0999 V2000
  -12.8420    6.2090  -73.7390 C   0  0  0  0  0  0  0  0  0  0  0  0
  -13.2110    4.8750  -74.1400 O   0  0  0  0  0  0  0  0  0  0  0  0
  -13.2780    4.5170  -75.4710 C   0  0  0  0  0  0  0  0  0  0  0  0
  -14.4110    4.6040  -76.2980 O   0  0  0  0  0  0  0  0  0  0  0  0
  -11.9470    3.9100  -75.9410 C   0  0  0  0  0  0  0  0  0  0  0  0
  -11.5450    2.7650  -75.2540 C   0  0  0  0  0  0  0  0  0  0  0  0
  -11.1380    4.4300  -76.9910 C   0  0  0  0  0  0  0  0  0  0  0  0
  -10.3700    2.1130  -75.5650 C   0  0  0  0  0  0  0  0  0  0  0  0
   -9.9240    3.7660  -77.3070 C   0  0  0  0  0  0  0  0  0  0  0  0
   -9.5480    2.6430  -76.6220 C   0  0  0  0  0  0  0  0  0  0  0  0
   -8.9710    4.1600  -78.3070 N   0  0  0  0  0  0  0  0  0  0  0  0
   -7.6970    3.6450  -77.7500 C   0  0  0  0  0  0  0  0  0  0  0  0
   -6.9240    4.2280  -77.0070 O   0  0  0  0  0  0  0  0  0  0  0  0
   -7.4500    2.3720  -78.1420 N   0  0  0  0  0  0  0  0  0  0  0  0
   -6.7940    2.1640  -79.3960 C   0  0  0  0  0  0  0  0  0  0  0  0
   -7.7520    1.3510  -80.2280 C   0  0  0  0  0  0  0  0  0  0  0  0
   -8.1320    0.0370  -79.6240 C   0  0  0  0  0  0  0  0  0  0  0  0
   -8.2550    1.7700  -81.4480 C   0  0  0  0  0  0  0  0  0  0  0  0
   -9.0840   -0.8600  -80.3660 C   0  0  0  0  0  0  0  0  0  0  0  0
   -9.1310    0.9640  -82.1540 C   0  0  0  0  0  0  0  0  0  0  0  0
   -9.5550   -0.2880  -81.6880 C   0  0  0  0  0  0  0  0  0  0  0  0
  1  2  1  0
  2  3  1  0
  3  4  2  0
  3  5  1  0
  5  6  2  0
  5  7  1  0
  6  8  1  0
  7  9  2  0
  8 10  2  0
  9 10  1  0
  9 11  1  0
 11 12  1  0
 12 13  2  0
 12 14  1  0
 14 15  1  0
 15 16  1  0
 16 17  2  0
 16 18  1  0
 17 19  1  0
 18 20  2  0
 19 21  2  0
 20 21  1  0
M  END
>  <ref_url>  (673) 
https://fakepage.com

>  <submitter_name>  (673) 
Steph Wills

>  <submitter_email>  (673) 
stephanie.wills@dtc.ox.ac.uk

>  <submitter_institution>  (673) 
University of Oxford

>  <generation_date>  (673) 
2020-06-04

>  <method>  (673) 
Fragment network

>  <ref_mols>  (673) 
x0183_0B,x0212_0B

>  <ref_pdb>  (673) 
references/x0183-0B-x0212-0B-242882.holo_minimised_nolig.pdb

>  <original SMILES>  (673) 
COC(=O)c1cccc(NC(=O)NCc2ccccc2)c1

>  <synthon>  (673) 
[Xe]c1ccccc1

>  <original_name>  (673) 
x0183-0B-x0212-0B-242882

>  <comRMSD_score>  (673) 
0.9889544235463272

>  <IF_score>  (673) 
0.65

>  <SuCOS_score>  (673) 
0.4918896705906481

>  <compound_ID>  (673) 
MOLPORT:002-908-722, CHEMSPACE-BB:CSMB00011201737, REAL:Z271189476

$$$$

     RDKit          3D

 22 23  0  0  0  0  0  0  0  0999 V2000
   -8.0930    4.1110  -79.9630 C   0  0  0  0  0  0  0  0  0  0  0  0
   -7.6310    2.8400  -79.2260 C   0  0  0  0  0  0  0  0  0  0  0  0
   -8.5350    1.7090  -79.6670 C   0  0  0  0  0  0  0  0  0  0  0  0
   -8.0230    1.2980  -80.9960 C   0  0  0  0  0  0  0  0  0  0  0  0
   -9.6600    1.0650  -79.0710 C   0  0  0  0  0  0  0  0  0  0  0  0
   -8.6030    0.2700  -81.6680 C   0  0  0  0  0  0  0  0  0  0  0  0
  -10.1840    0.0240  -79.8550 C   0  0  0  0  0  0  0  0  0  0  0  0
  -10.2220    1.4370  -77.7940 N   0  0  0  0  0  0  0  0  0  0  0  0
   -9.6900   -0.3710  -81.0940 C   0  0  0  0  0  0  0  0  0  0  0  0
  -11.6850    1.2820  -77.4210 C   0  0  0  0  0  0  0  0  0  0  0  0
  -12.3020    0.2170  -77.3700 O   0  0  0  0  0  0  0  0  0  0  0  0
  -12.3340    2.5430  -77.1170 N   0  0  0  0  0  0  0  0  0  0  0  0
  -13.3600    2.9070  -76.1800 C   0  0  0  0  0  0  0  0  0  0  0  0
  -13.0390    4.3600  -75.7810 C   0  0  1  0  0  0  0  0  0  0  0  0
  -13.0580    4.5920  -74.3510 O   0  0  0  0  0  0  0  0  0  0  0  0
  -11.6930    4.2440  -76.4240 C   0  0  0  0  0  0  0  0  0  0  0  0
  -12.7380    5.9150  -73.8350 C   0  0  0  0  0  0  0  0  0  0  0  0
  -10.6670    3.5840  -75.7430 C   0  0  0  0  0  0  0  0  0  0  0  0
  -11.4880    4.7480  -77.7010 C   0  0  0  0  0  0  0  0  0  0  0  0
   -9.4340    3.4190  -76.3450 C   0  0  0  0  0  0  0  0  0  0  0  0
  -10.2610    4.5780  -78.2980 C   0  0  0  0  0  0  0  0  0  0  0  0
   -9.2390    3.9160  -77.6250 C   0  0  0  0  0  0  0  0  0  0  0  0
  1  2  1  0
  2  3  1  0
  3  4  2  0
  3  5  1  0
  4  6  1  0
  5  7  2  0
  5  8  1  0
  6  9  2  0
  7  9  1  0
  8 10  1  0
 10 11  2  0
 10 12  1  0
 12 13  1  0
 14 13  1  1
 14 15  1  0
 14 16  1  0
 15 17  1  0
 16 18  2  0
 16 19  1  0
 18 20  1  0
 19 21  2  0
 20 22  2  0
 21 22  1  0
M  END
>  <ref_url>  (674) 
https://fakepage.com

>  <submitter_name>  (674) 
Steph Wills

>  <submitter_email>  (674) 
stephanie.wills@dtc.ox.ac.uk

>  <submitter_institution>  (674) 
University of Oxford

>  <generation_date>  (674) 
2020-06-04

>  <method>  (674) 
Fragment network

>  <ref_mols>  (674) 
x0183_0B,x0212_0B

>  <ref_pdb>  (674) 
references/x0183-0B-x0212-0B-244101.holo_minimised_nolig.pdb

>  <original SMILES>  (674) 
CCc1ccccc1NC(=O)NCC(OC)c1ccccc1

>  <synthon>  (674) 
[Xe]c1ccccc1

>  <original_name>  (674) 
x0183-0B-x0212-0B-244101

>  <comRMSD_score>  (674) 
0.8980457177177069

>  <IF_score>  (674) 
0.45

>  <SuCOS_score>  (674) 
0.4286052194977621

>  <compound_ID>  (674) 
REAL:Z410615004

$$$$

     RDKit          3D

 24 25  0  0  0  0  0  0  0  0999 V2000
  -13.4090    5.6700  -72.7590 C   0  0  0  0  0  0  0  0  0  0  0  0
  -12.9460    6.4480  -73.9700 C   0  0  0  0  0  0  0  0  0  0  0  0
  -13.5910    5.9380  -75.2020 N   0  0  0  0  0  0  0  0  0  0  0  0
  -13.5950    4.3570  -75.7910 S   0  0  0  0  0  0  0  0  0  0  0  0
  -13.7720    3.4040  -74.7300 O   0  0  0  0  0  0  0  0  0  0  0  0
  -14.4840    4.3660  -76.9280 O   0  0  0  0  0  0  0  0  0  0  0  0
  -11.9670    4.1500  -76.4550 C   0  0  0  0  0  0  0  0  0  0  0  0
  -11.7020    4.6550  -77.7190 C   0  0  0  0  0  0  0  0  0  0  0  0
  -10.9440    3.4960  -75.7480 C   0  0  0  0  0  0  0  0  0  0  0  0
  -10.4680    4.5500  -78.3210 C   0  0  0  0  0  0  0  0  0  0  0  0
   -9.6580    3.3590  -76.3100 C   0  0  0  0  0  0  0  0  0  0  0  0
   -9.3800    3.8760  -77.5900 C   0  0  0  0  0  0  0  0  0  0  0  0
   -8.1130    3.7800  -78.1770 N   0  0  0  0  0  0  0  0  0  0  0  0
   -7.8260    4.0270  -79.5210 C   0  0  0  0  0  0  0  0  0  0  0  0
   -8.7680    4.0460  -80.5740 O   0  0  0  0  0  0  0  0  0  0  0  0
   -6.4670    4.2740  -79.8150 C   0  0  0  0  0  0  0  0  0  0  0  0
   -5.6930    2.6540  -79.7480 S   0  0  0  0  0  0  0  0  0  0  0  0
   -7.1690    2.0920  -78.8670 C   0  0  0  0  0  0  0  0  0  0  0  0
   -7.9760    1.2100  -79.7910 C   0  0  0  0  0  0  0  0  0  0  0  0
   -8.2380    1.7430  -81.1680 C   0  0  0  0  0  0  0  0  0  0  0  0
   -8.4730   -0.0480  -79.4160 C   0  0  0  0  0  0  0  0  0  0  0  0
   -9.0250    0.9290  -82.1280 C   0  0  0  0  0  0  0  0  0  0  0  0
   -9.2180   -0.8290  -80.3090 C   0  0  0  0  0  0  0  0  0  0  0  0
   -9.5060   -0.4060  -81.6080 C   0  0  0  0  0  0  0  0  0  0  0  0
  1  2  1  0
  2  3  1  0
  4  3  1  0
  4  5  2  0
  4  6  2  0
  4  7  1  0
  7  8  2  0
  7  9  1  0
  8 10  1  0
  9 11  2  0
 10 12  2  0
 11 12  1  0
 12 13  1  0
 13 14  1  0
 14 15  2  0
 14 16  1  0
 16 17  1  0
 17 18  1  0
 18 19  1  0
 19 20  2  0
 19 21  1  0
 20 22  1  0
 21 23  2  0
 22 24  2  0
 23 24  1  0
M  END
>  <ref_url>  (675) 
https://fakepage.com

>  <submitter_name>  (675) 
Steph Wills

>  <submitter_email>  (675) 
stephanie.wills@dtc.ox.ac.uk

>  <submitter_institution>  (675) 
University of Oxford

>  <generation_date>  (675) 
2020-06-04

>  <method>  (675) 
Fragment network

>  <ref_mols>  (675) 
x0183_0B,x0212_0B

>  <ref_pdb>  (675) 
references/x0183-0B-x0212-0B-248387.holo_minimised_nolig.pdb

>  <original SMILES>  (675) 
CCNS(=O)(=O)c1ccc(NC(=O)CSCc2ccccc2)cc1

>  <synthon>  (675) 
[Xe]c1ccccc1

>  <original_name>  (675) 
x0183-0B-x0212-0B-248387

>  <comRMSD_score>  (675) 
0.594741556071641

>  <IF_score>  (675) 
0.55

>  <SuCOS_score>  (675) 
0.5127667089968101

>  <compound_ID>  (675) 
MOLPORT:001-602-493

$$$$

     RDKit          3D

 21 22  0  0  0  0  0  0  0  0999 V2000
  -12.8120    6.3820  -73.8790 C   0  0  0  0  0  0  0  0  0  0  0  0
  -13.2400    5.9550  -75.3180 C   0  0  0  0  0  0  0  0  0  0  0  0
  -13.3000    4.4220  -75.4580 C   0  0  1  0  0  0  0  0  0  0  0  0
  -14.3980    3.9960  -76.4100 C   0  0  0  0  0  0  0  0  0  0  0  0
  -11.9820    3.8330  -75.9160 C   0  0  0  0  0  0  0  0  0  0  0  0
  -11.5950    2.6290  -75.3450 C   0  0  0  0  0  0  0  0  0  0  0  0
  -11.1210    4.4200  -76.8710 C   0  0  0  0  0  0  0  0  0  0  0  0
  -10.4340    1.9690  -75.6390 C   0  0  0  0  0  0  0  0  0  0  0  0
   -9.9110    3.7320  -77.1570 C   0  0  0  0  0  0  0  0  0  0  0  0
   -9.6060    2.5430  -76.5470 C   0  0  0  0  0  0  0  0  0  0  0  0
   -8.8950    4.0780  -77.9850 N   0  0  0  0  0  0  0  0  0  0  0  0
   -7.5970    3.6480  -77.6060 C   0  0  0  0  0  0  0  0  0  0  0  0
   -6.6660    4.3000  -76.7190 O   0  0  0  0  0  0  0  0  0  0  0  0
   -7.2840    2.3690  -78.1690 N   0  0  0  0  0  0  0  0  0  0  0  0
   -6.7450    2.2270  -79.4020 C   0  0  0  0  0  0  0  0  0  0  0  0
   -7.7200    1.3900  -80.1950 C   0  0  0  0  0  0  0  0  0  0  0  0
   -8.0900    0.0540  -79.6210 C   0  0  0  0  0  0  0  0  0  0  0  0
   -8.2550    1.8210  -81.3860 C   0  0  0  0  0  0  0  0  0  0  0  0
   -8.9860   -0.7340  -80.3330 C   0  0  0  0  0  0  0  0  0  0  0  0
   -9.1390    0.9960  -82.0520 C   0  0  0  0  0  0  0  0  0  0  0  0
   -9.5030   -0.2640  -81.5380 C   0  0  0  0  0  0  0  0  0  0  0  0
  1  2  1  0
  2  3  1  0
  3  4  1  6
  3  5  1  0
  5  6  2  0
  5  7  1  0
  6  8  1  0
  7  9  2  0
  8 10  2  0
  9 10  1  0
  9 11  1  0
 11 12  1  0
 12 13  2  0
 12 14  1  0
 14 15  1  0
 15 16  1  0
 16 17  2  0
 16 18  1  0
 17 19  1  0
 18 20  2  0
 19 21  2  0
 20 21  1  0
M  END
>  <ref_url>  (676) 
https://fakepage.com

>  <submitter_name>  (676) 
Steph Wills

>  <submitter_email>  (676) 
stephanie.wills@dtc.ox.ac.uk

>  <submitter_institution>  (676) 
University of Oxford

>  <generation_date>  (676) 
2020-06-04

>  <method>  (676) 
Fragment network

>  <ref_mols>  (676) 
x0183_0B,x0212_0B

>  <ref_pdb>  (676) 
references/x0183-0B-x0212-0B-248515.holo_minimised_nolig.pdb

>  <original SMILES>  (676) 
CCC(C)c1cccc(NC(=O)NCc2ccccc2)c1

>  <synthon>  (676) 
[Xe]c1ccccc1

>  <original_name>  (676) 
x0183-0B-x0212-0B-248515

>  <comRMSD_score>  (676) 
0.9636572119909768

>  <IF_score>  (676) 
0.425

>  <SuCOS_score>  (676) 
0.541059213912839

>  <compound_ID>  (676) 
REAL:PV-001949545856

$$$$

     RDKit          3D

 21 22  0  0  0  0  0  0  0  0999 V2000
  -11.9930    6.2200  -73.7100 C   0  0  0  0  0  0  0  0  0  0  0  0
  -13.3240    5.9810  -74.4340 C   0  0  0  0  0  0  0  0  0  0  0  0
  -13.8740    4.6340  -73.9600 C   0  0  0  0  0  0  0  0  0  0  0  0
  -13.1680    5.8120  -75.8690 O   0  0  0  0  0  0  0  0  0  0  0  0
  -12.1480    5.0240  -76.2930 C   0  0  0  0  0  0  0  0  0  0  0  0
  -11.6950    5.1990  -77.6110 C   0  0  0  0  0  0  0  0  0  0  0  0
  -11.5130    4.0520  -75.5020 C   0  0  0  0  0  0  0  0  0  0  0  0
  -10.5790    4.3830  -78.1330 C   0  0  0  0  0  0  0  0  0  0  0  0
  -10.4670    3.2890  -75.9900 C   0  0  0  0  0  0  0  0  0  0  0  0
  -10.0000    3.4500  -77.3000 C   0  0  0  0  0  0  0  0  0  0  0  0
   -8.9120    2.5520  -77.6210 N   0  0  0  0  0  0  0  0  0  0  0  0
   -8.9870    1.6710  -76.4760 C   0  0  0  0  0  0  0  0  0  0  0  0
   -7.6220    3.0610  -77.8630 C   0  0  0  0  0  0  0  0  0  0  0  0
   -7.0000    3.8020  -77.1310 O   0  0  0  0  0  0  0  0  0  0  0  0
   -7.1240    2.5960  -79.0670 N   0  0  0  0  0  0  0  0  0  0  0  0
   -7.8730    1.6870  -79.8390 C   0  0  0  0  0  0  0  0  0  0  0  0
   -8.2400    2.0690  -81.2370 C   0  0  0  0  0  0  0  0  0  0  0  0
   -8.2990    0.4150  -79.3630 C   0  0  0  0  0  0  0  0  0  0  0  0
   -9.0250    1.1440  -82.0980 C   0  0  0  0  0  0  0  0  0  0  0  0
   -9.0450   -0.4750  -80.1660 C   0  0  0  0  0  0  0  0  0  0  0  0
   -9.4160   -0.1720  -81.4760 C   0  0  0  0  0  0  0  0  0  0  0  0
  1  2  1  0
  2  3  1  0
  2  4  1  0
  4  5  1  0
  5  6  2  0
  5  7  1  0
  6  8  1  0
  7  9  2  0
  8 10  2  0
  9 10  1  0
 10 11  1  0
 11 12  1  0
 11 13  1  0
 13 14  2  0
 13 15  1  0
 15 16  1  0
 16 17  2  0
 16 18  1  0
 17 19  1  0
 18 20  2  0
 19 21  2  0
 20 21  1  0
M  END
>  <ref_url>  (677) 
https://fakepage.com

>  <submitter_name>  (677) 
Steph Wills

>  <submitter_email>  (677) 
stephanie.wills@dtc.ox.ac.uk

>  <submitter_institution>  (677) 
University of Oxford

>  <generation_date>  (677) 
2020-06-04

>  <method>  (677) 
Fragment network

>  <ref_mols>  (677) 
x0183_0B,x0212_0B

>  <ref_pdb>  (677) 
references/x0183-0B-x0212-0B-248969.holo_minimised_nolig.pdb

>  <original SMILES>  (677) 
CC(C)Oc1ccc(N(C)C(=O)Nc2ccccc2)cc1

>  <synthon>  (677) 
[Xe]c1ccccc1

>  <original_name>  (677) 
x0183-0B-x0212-0B-248969

>  <comRMSD_score>  (677) 
0.8155183934161137

>  <IF_score>  (677) 
0.65

>  <SuCOS_score>  (677) 
0.4189248013832111

>  <compound_ID>  (677) 
REAL:Z2179357680

$$$$

     RDKit          3D

 20 21  0  0  0  0  0  0  0  0999 V2000
  -12.7990    6.4800  -73.7690 C   0  0  0  0  0  0  0  0  0  0  0  0
  -13.3700    5.9810  -75.0610 C   0  0  0  0  0  0  0  0  0  0  0  0
  -13.3700    4.6110  -75.3290 C   0  0  0  0  0  0  0  0  0  0  0  0
  -13.4210    3.7750  -74.2180 C   0  0  0  0  0  0  0  0  0  0  0  0
  -14.6460    4.2560  -76.1160 C   0  0  0  0  0  0  0  0  0  0  0  0
  -12.1240    4.2450  -76.0940 C   0  0  0  0  0  0  0  0  0  0  0  0
  -11.8390    4.6770  -77.4070 C   0  0  0  0  0  0  0  0  0  0  0  0
  -11.2300    3.4300  -75.4520 C   0  0  0  0  0  0  0  0  0  0  0  0
  -10.5360    4.1950  -78.0620 C   0  0  0  0  0  0  0  0  0  0  0  0
  -10.0960    3.0280  -76.0540 C   0  0  0  0  0  0  0  0  0  0  0  0
   -9.7000    3.3560  -77.3180 C   0  0  0  0  0  0  0  0  0  0  0  0
   -8.5140    2.7600  -77.6370 C   0  0  0  0  0  0  0  0  0  0  0  0
   -7.4630    3.3610  -78.2200 N   0  0  0  0  0  0  0  0  0  0  0  0
   -6.8310    2.8680  -79.3610 C   0  0  0  0  0  0  0  0  0  0  0  0
   -7.6400    1.7760  -80.0670 C   0  0  0  0  0  0  0  0  0  0  0  0
   -8.2160    2.0470  -81.4260 C   0  0  0  0  0  0  0  0  0  0  0  0
   -7.9030    0.4980  -79.5270 C   0  0  0  0  0  0  0  0  0  0  0  0
   -8.9440    1.1010  -82.0890 C   0  0  0  0  0  0  0  0  0  0  0  0
   -8.6650   -0.4460  -80.2520 C   0  0  0  0  0  0  0  0  0  0  0  0
   -9.1830   -0.1500  -81.5280 C   0  0  0  0  0  0  0  0  0  0  0  0
  1  2  1  0
  3  2  1  0
  3  4  1  0
  3  5  1  0
  3  6  1  0
  6  7  2  0
  6  8  1  0
  7  9  1  0
  8 10  2  0
  9 11  2  0
 10 11  1  0
 11 12  1  0
 12 13  1  0
 13 14  1  0
 14 15  1  0
 15 16  2  0
 15 17  1  0
 16 18  1  0
 17 19  2  0
 18 20  2  0
 19 20  1  0
M  END
>  <ref_url>  (678) 
https://fakepage.com

>  <submitter_name>  (678) 
Steph Wills

>  <submitter_email>  (678) 
stephanie.wills@dtc.ox.ac.uk

>  <submitter_institution>  (678) 
University of Oxford

>  <generation_date>  (678) 
2020-06-04

>  <method>  (678) 
Fragment network

>  <ref_mols>  (678) 
x0183_0B,x0212_0B

>  <ref_pdb>  (678) 
references/x0183-0B-x0212-0B-252544.holo_minimised_nolig.pdb

>  <original SMILES>  (678) 
CCC(C)(C)c1ccc(CNCc2ccccc2)cc1

>  <synthon>  (678) 
[Xe]c1ccccc1

>  <original_name>  (678) 
x0183-0B-x0212-0B-252544

>  <comRMSD_score>  (678) 
0.7972668125354081

>  <IF_score>  (678) 
0.55

>  <SuCOS_score>  (678) 
0.564464654770502

>  <compound_ID>  (678) 
REAL:PV-001925092356

$$$$

     RDKit          3D

 25 28  0  0  0  0  0  0  0  0999 V2000
  -13.0700    7.2560  -73.1420 O   0  0  0  0  0  0  0  0  0  0  0  0
  -13.3990    6.5430  -74.0480 C   0  0  0  0  0  0  0  0  0  0  0  0
  -12.3530    5.8900  -74.8910 C   0  0  0  0  0  0  0  0  0  0  0  0
  -14.6840    6.3050  -74.3650 N   0  0  0  0  0  0  0  0  0  0  0  0
  -12.7190    4.4570  -75.2430 C   0  0  2  0  0  0  0  0  0  0  0  0
  -15.0060    5.2600  -75.2170 C   0  0  0  0  0  0  0  0  0  0  0  0
  -11.7330    4.0540  -76.1190 C   0  0  0  0  0  0  0  0  0  0  0  0
  -14.0420    4.3240  -75.6710 C   0  0  0  0  0  0  0  0  0  0  0  0
  -16.2270    5.0160  -75.7000 N   0  0  0  0  0  0  0  0  0  0  0  0
  -11.7100    4.6020  -77.4080 C   0  0  0  0  0  0  0  0  0  0  0  0
  -10.7510    3.1310  -75.7290 C   0  0  0  0  0  0  0  0  0  0  0  0
  -14.7760    3.4710  -76.4860 C   0  0  0  0  0  0  0  0  0  0  0  0
  -16.0660    3.9170  -76.4750 N   0  0  0  0  0  0  0  0  0  0  0  0
  -10.7170    4.2380  -78.2980 C   0  0  0  0  0  0  0  0  0  0  0  0
   -9.7500    2.7630  -76.6220 C   0  0  0  0  0  0  0  0  0  0  0  0
   -9.7590    3.3270  -77.8890 C   0  0  0  0  0  0  0  0  0  0  0  0
   -8.9220    3.0460  -78.7080 O   0  0  0  0  0  0  0  0  0  0  0  0
   -7.5830    2.9180  -78.2380 C   0  0  0  0  0  0  0  0  0  0  0  0
   -6.8510    2.2130  -79.1750 C   0  0  0  0  0  0  0  0  0  0  0  0
   -7.6910    1.4330  -79.9710 C   0  0  0  0  0  0  0  0  0  0  0  0
   -8.1140    0.1710  -79.4980 C   0  0  0  0  0  0  0  0  0  0  0  0
   -8.1200    1.8980  -81.2350 C   0  0  0  0  0  0  0  0  0  0  0  0
   -8.9510   -0.6250  -80.2680 C   0  0  0  0  0  0  0  0  0  0  0  0
   -8.9560    1.1220  -82.0280 C   0  0  0  0  0  0  0  0  0  0  0  0
   -9.3660   -0.1140  -81.5550 C   0  0  0  0  0  0  0  0  0  0  0  0
  1  2  2  0
  2  3  1  0
  2  4  1  0
  3  5  1  0
  4  6  1  0
  5  7  1  6
  5  8  1  0
  6  8  1  0
  6  9  2  0
  7 10  2  0
  7 11  1  0
  8 12  2  0
  9 13  1  0
 12 13  1  0
 10 14  1  0
 11 15  2  0
 14 16  2  0
 15 16  1  0
 16 17  1  0
 17 18  1  0
 18 19  1  0
 19 20  1  0
 20 21  2  0
 20 22  1  0
 21 23  1  0
 22 24  2  0
 23 25  2  0
 24 25  1  0
M  END
>  <ref_url>  (679) 
https://fakepage.com

>  <submitter_name>  (679) 
Steph Wills

>  <submitter_email>  (679) 
stephanie.wills@dtc.ox.ac.uk

>  <submitter_institution>  (679) 
University of Oxford

>  <generation_date>  (679) 
2020-06-04

>  <method>  (679) 
Fragment network

>  <ref_mols>  (679) 
x0183_0B,x0212_0B

>  <ref_pdb>  (679) 
references/x0183-0B-x0212-0B-254851.holo_minimised_nolig.pdb

>  <original SMILES>  (679) 
O=C1CC(c2ccc(OCCc3ccccc3)cc2)c2c[nH]nc2N1

>  <synthon>  (679) 
[Xe]c1ccccc1

>  <original_name>  (679) 
x0183-0B-x0212-0B-254851

>  <comRMSD_score>  (679) 
0.8090091517976217

>  <IF_score>  (679) 
0.55

>  <SuCOS_score>  (679) 
0.5484318566079621

>  <compound_ID>  (679) 
MOLPORT:008-351-024

$$$$

     RDKit          3D

 22 23  0  0  0  0  0  0  0  0999 V2000
  -13.2760    7.0420  -75.9820 C   0  0  0  0  0  0  0  0  0  0  0  0
  -13.2820    5.9230  -75.0440 N   0  0  0  0  0  0  0  0  0  0  0  0
  -12.8040    6.3170  -73.6960 C   0  0  0  0  0  0  0  0  0  0  0  0
  -13.1060    4.6160  -75.4880 C   0  0  0  0  0  0  0  0  0  0  0  0
  -13.8300    3.6360  -75.3120 O   0  0  0  0  0  0  0  0  0  0  0  0
  -11.9880    4.3520  -76.2680 C   0  0  0  0  0  0  0  0  0  0  0  0
  -11.9390    4.7800  -77.5950 C   0  0  0  0  0  0  0  0  0  0  0  0
  -10.9060    3.6670  -75.7230 C   0  0  0  0  0  0  0  0  0  0  0  0
  -10.8220    4.5290  -78.3690 C   0  0  0  0  0  0  0  0  0  0  0  0
   -9.7750    3.4180  -76.5040 C   0  0  0  0  0  0  0  0  0  0  0  0
   -9.7510    3.8530  -77.8210 C   0  0  0  0  0  0  0  0  0  0  0  0
   -8.6580    2.7470  -76.0310 N   0  0  0  0  0  0  0  0  0  0  0  0
   -8.2430    1.7150  -76.9680 C   0  0  0  0  0  0  0  0  0  0  0  0
   -8.8880    0.4340  -77.0740 O   0  0  0  0  0  0  0  0  0  0  0  0
   -7.0780    2.1430  -77.7740 N   0  0  0  0  0  0  0  0  0  0  0  0
   -7.1230    2.5710  -79.1650 C   0  0  0  0  0  0  0  0  0  0  0  0
   -7.8110    1.6450  -79.9490 C   0  0  0  0  0  0  0  0  0  0  0  0
   -8.0870    0.3590  -79.4810 C   0  0  0  0  0  0  0  0  0  0  0  0
   -8.2420    1.9940  -81.2430 C   0  0  0  0  0  0  0  0  0  0  0  0
   -8.7700   -0.5270  -80.2850 C   0  0  0  0  0  0  0  0  0  0  0  0
   -8.9340    1.0690  -82.0360 C   0  0  0  0  0  0  0  0  0  0  0  0
   -9.2080   -0.2130  -81.5600 C   0  0  0  0  0  0  0  0  0  0  0  0
  1  2  1  0
  2  3  1  0
  2  4  1  0
  4  5  2  0
  4  6  1  0
  6  7  2  0
  6  8  1  0
  7  9  1  0
  8 10  2  0
  9 11  2  0
 10 11  1  0
 10 12  1  0
 12 13  1  0
 13 14  2  0
 13 15  1  0
 15 16  1  0
 16 17  1  0
 17 18  2  0
 17 19  1  0
 18 20  1  0
 19 21  2  0
 20 22  2  0
 21 22  1  0
M  END
>  <ref_url>  (680) 
https://fakepage.com

>  <submitter_name>  (680) 
Steph Wills

>  <submitter_email>  (680) 
stephanie.wills@dtc.ox.ac.uk

>  <submitter_institution>  (680) 
University of Oxford

>  <generation_date>  (680) 
2020-06-04

>  <method>  (680) 
Fragment network

>  <ref_mols>  (680) 
x0183_0B,x0212_0B

>  <ref_pdb>  (680) 
references/x0183-0B-x0212-0B-255751.holo_minimised_nolig.pdb

>  <original SMILES>  (680) 
CN(C)C(=O)c1cccc(NC(=O)NCc2ccccc2)c1

>  <synthon>  (680) 
[Xe]c1ccccc1

>  <original_name>  (680) 
x0183-0B-x0212-0B-255751

>  <comRMSD_score>  (680) 
0.5340516690220009

>  <IF_score>  (680) 
0.55

>  <SuCOS_score>  (680) 
0.51669921010231

>  <compound_ID>  (680) 
REAL:Z412813252

$$$$

     RDKit          3D

 22 23  0  0  0  0  0  0  0  0999 V2000
  -11.7550    6.2500  -73.6470 C   0  0  0  0  0  0  0  0  0  0  0  0
  -13.2170    6.2930  -73.8540 C   0  0  0  0  0  0  0  0  0  0  0  0
  -13.7240    5.9720  -74.9450 O   0  0  0  0  0  0  0  0  0  0  0  0
  -13.4670    4.6350  -75.4170 C   0  0  0  0  0  0  0  0  0  0  0  0
  -14.2900    3.7310  -75.2750 O   0  0  0  0  0  0  0  0  0  0  0  0
  -12.2670    4.3800  -76.0580 C   0  0  0  0  0  0  0  0  0  0  0  0
  -11.9900    4.8800  -77.3350 C   0  0  0  0  0  0  0  0  0  0  0  0
  -11.3090    3.6030  -75.4060 C   0  0  0  0  0  0  0  0  0  0  0  0
  -10.7710    4.5910  -77.9220 C   0  0  0  0  0  0  0  0  0  0  0  0
  -10.1040    3.3320  -76.0060 C   0  0  0  0  0  0  0  0  0  0  0  0
   -9.8160    3.8190  -77.2710 C   0  0  0  0  0  0  0  0  0  0  0  0
   -8.5920    3.5110  -77.8040 N   0  0  0  0  0  0  0  0  0  0  0  0
   -7.8520    2.4430  -77.3870 C   0  0  0  0  0  0  0  0  0  0  0  0
   -8.1980    1.7790  -76.4180 O   0  0  0  0  0  0  0  0  0  0  0  0
   -6.6600    2.1080  -78.1360 N   0  0  0  0  0  0  0  0  0  0  0  0
   -6.8220    2.5240  -79.5280 C   0  0  0  0  0  0  0  0  0  0  0  0
   -7.6860    1.6200  -80.1510 C   0  0  0  0  0  0  0  0  0  0  0  0
   -8.0010    0.4030  -79.5580 C   0  0  0  0  0  0  0  0  0  0  0  0
   -8.2510    1.9350  -81.4000 C   0  0  0  0  0  0  0  0  0  0  0  0
   -8.9280   -0.5720  -80.2350 C   0  0  0  0  0  0  0  0  0  0  0  0
   -9.1180    1.0730  -82.0840 C   0  0  0  0  0  0  0  0  0  0  0  0
   -9.4870   -0.1630  -81.5740 C   0  0  0  0  0  0  0  0  0  0  0  0
  1  2  1  0
  2  3  1  0
  3  4  1  0
  4  5  2  0
  4  6  1  0
  6  7  2  0
  6  8  1  0
  7  9  1  0
  8 10  2  0
  9 11  2  0
 10 11  1  0
 11 12  1  0
 12 13  1  0
 13 14  2  0
 13 15  1  0
 15 16  1  0
 16 17  1  0
 17 18  2  0
 17 19  1  0
 18 20  1  0
 19 21  2  0
 20 22  2  0
 21 22  1  0
M  END
>  <ref_url>  (681) 
https://fakepage.com

>  <submitter_name>  (681) 
Steph Wills

>  <submitter_email>  (681) 
stephanie.wills@dtc.ox.ac.uk

>  <submitter_institution>  (681) 
University of Oxford

>  <generation_date>  (681) 
2020-06-04

>  <method>  (681) 
Fragment network

>  <ref_mols>  (681) 
x0183_0B,x0212_0B

>  <ref_pdb>  (681) 
references/x0183-0B-x0212-0B-256206.holo_minimised_nolig.pdb

>  <original SMILES>  (681) 
CCOC(=O)c1ccc(NC(=O)NCc2ccccc2)cc1

>  <synthon>  (681) 
[Xe]c1ccccc1

>  <original_name>  (681) 
x0183-0B-x0212-0B-256206

>  <comRMSD_score>  (681) 
0.6181907592441126

>  <IF_score>  (681) 
0.65

>  <SuCOS_score>  (681) 
0.5178926864400234

>  <compound_ID>  (681) 
MOLPORT:002-305-731, REAL:Z123850836

$$$$

     RDKit          3D

 28 29  0  0  0  0  0  0  0  0999 V2000
  -14.0280    5.5980  -72.9850 C   0  0  0  0  0  0  0  0  0  0  0  0
  -13.1070    6.2530  -73.9390 C   0  0  0  0  0  0  0  0  0  0  0  0
  -11.7980    6.1590  -73.7350 C   0  0  0  0  0  0  0  0  0  0  0  0
  -13.3920    7.7590  -73.7310 C   0  0  0  0  0  0  0  0  0  0  0  0
  -13.2200    5.9970  -75.1550 O   0  0  0  0  0  0  0  0  0  0  0  0
  -13.3170    4.7330  -75.6950 C   0  0  0  0  0  0  0  0  0  0  0  0
  -14.3410    4.0720  -75.8630 O   0  0  0  0  0  0  0  0  0  0  0  0
  -12.0640    4.2250  -76.0370 C   0  0  0  0  0  0  0  0  0  0  0  0
  -11.5550    3.2550  -75.1720 C   0  0  0  0  0  0  0  0  0  0  0  0
  -11.3360    4.6710  -77.2030 C   0  0  0  0  0  0  0  0  0  0  0  0
  -10.3280    2.7090  -75.4260 C   0  0  0  0  0  0  0  0  0  0  0  0
  -10.0610    4.1040  -77.4570 C   0  0  0  0  0  0  0  0  0  0  0  0
   -9.5770    3.1780  -76.6180 C   0  0  0  0  0  0  0  0  0  0  0  0
   -9.1550    4.3320  -78.4450 N   0  0  0  0  0  0  0  0  0  0  0  0
   -7.9450    3.7520  -77.9150 C   0  0  0  0  0  0  0  0  0  0  0  0
   -7.0430    4.3050  -77.2970 O   0  0  0  0  0  0  0  0  0  0  0  0
   -7.8140    2.3700  -78.1160 N   0  0  0  0  0  0  0  0  0  0  0  0
   -7.9610    1.5350  -77.0390 C   0  0  0  0  0  0  0  0  0  0  0  0
   -6.9810    1.8970  -79.2300 C   0  0  0  0  0  0  0  0  0  0  0  0
   -9.2920    1.1080  -76.9140 C   0  0  0  0  0  0  0  0  0  0  0  0
   -7.8700    1.1670  -80.1060 C   0  0  0  0  0  0  0  0  0  0  0  0
   -9.3920    0.0790  -75.9650 C   0  0  0  0  0  0  0  0  0  0  0  0
   -8.2670    1.7050  -81.3210 C   0  0  0  0  0  0  0  0  0  0  0  0
   -8.3270   -0.0830  -79.6950 C   0  0  0  0  0  0  0  0  0  0  0  0
  -10.1410   -0.9920  -76.3190 O   0  0  0  0  0  0  0  0  0  0  0  0
   -9.1300    0.9690  -82.1260 C   0  0  0  0  0  0  0  0  0  0  0  0
   -9.1870   -0.8110  -80.4980 C   0  0  0  0  0  0  0  0  0  0  0  0
   -9.5880   -0.2830  -81.7140 C   0  0  0  0  0  0  0  0  0  0  0  0
  1  2  1  0
  2  3  1  0
  2  4  1  0
  2  5  1  0
  5  6  1  0
  6  7  2  0
  6  8  1  0
  8  9  2  0
  8 10  1  0
  9 11  1  0
 10 12  2  0
 11 13  2  0
 12 13  1  0
 12 14  1  0
 14 15  1  0
 15 16  2  0
 15 17  1  0
 17 18  1  0
 17 19  1  0
 18 20  1  0
 19 21  1  0
 20 22  1  0
 21 23  2  0
 21 24  1  0
 22 25  1  0
 23 26  1  0
 24 27  2  0
 26 28  2  0
 27 28  1  0
M  END
>  <ref_url>  (682) 
https://fakepage.com

>  <submitter_name>  (682) 
Steph Wills

>  <submitter_email>  (682) 
stephanie.wills@dtc.ox.ac.uk

>  <submitter_institution>  (682) 
University of Oxford

>  <generation_date>  (682) 
2020-06-04

>  <method>  (682) 
Fragment network

>  <ref_mols>  (682) 
x0183_0B,x0212_0B

>  <ref_pdb>  (682) 
references/x0183-0B-x0212-0B-257765.holo_minimised_nolig.pdb

>  <original SMILES>  (682) 
CC(C)(C)OC(=O)c1cccc(NC(=O)N(CCCO)Cc2ccccc2)c1

>  <synthon>  (682) 
[Xe]c1ccccc1

>  <original_name>  (682) 
x0183-0B-x0212-0B-257765

>  <comRMSD_score>  (682) 
0.8955317476846422

>  <IF_score>  (682) 
0.65

>  <SuCOS_score>  (682) 
0.549298649590252

>  <compound_ID>  (682) 
REAL:PV-001949129393

$$$$

     RDKit          3D

 21 22  0  0  0  0  0  0  0  0999 V2000
  -12.8530    6.2530  -73.8180 C   0  0  0  0  0  0  0  0  0  0  0  0
  -13.6500    5.9020  -75.0930 C   0  0  0  0  0  0  0  0  0  0  0  0
  -13.4760    4.5120  -75.8190 C   0  0  0  0  0  0  0  0  0  0  0  0
  -14.0490    3.3440  -74.9930 C   0  0  0  0  0  0  0  0  0  0  0  0
  -14.3900    4.5830  -77.0680 C   0  0  0  0  0  0  0  0  0  0  0  0
  -12.0770    4.2710  -76.3940 C   0  0  0  0  0  0  0  0  0  0  0  0
  -11.7610    4.7460  -77.6690 C   0  0  0  0  0  0  0  0  0  0  0  0
  -11.0750    3.5780  -75.6880 C   0  0  0  0  0  0  0  0  0  0  0  0
  -10.5060    4.5530  -78.2250 C   0  0  0  0  0  0  0  0  0  0  0  0
   -9.8080    3.3870  -76.2520 C   0  0  0  0  0  0  0  0  0  0  0  0
   -9.5250    3.8830  -77.5240 C   0  0  0  0  0  0  0  0  0  0  0  0
   -8.2450    3.6870  -78.0310 N   0  0  0  0  0  0  0  0  0  0  0  0
   -7.4310    2.6120  -77.8390 C   0  0  0  0  0  0  0  0  0  0  0  0
   -7.2510    1.9870  -76.7970 O   0  0  0  0  0  0  0  0  0  0  0  0
   -6.7320    2.2420  -79.1230 C   0  0  0  0  0  0  0  0  0  0  0  0
   -7.5920    1.3840  -80.0020 C   0  0  0  0  0  0  0  0  0  0  0  0
   -7.9320    0.0980  -79.5610 C   0  0  0  0  0  0  0  0  0  0  0  0
   -8.0530    1.8440  -81.2400 C   0  0  0  0  0  0  0  0  0  0  0  0
   -8.7200   -0.7220  -80.3470 C   0  0  0  0  0  0  0  0  0  0  0  0
   -8.8370    1.0160  -82.0210 C   0  0  0  0  0  0  0  0  0  0  0  0
   -9.1670   -0.2670  -81.5700 C   0  0  0  0  0  0  0  0  0  0  0  0
  1  2  1  0
  3  2  1  0
  3  4  1  0
  3  5  1  0
  3  6  1  0
  6  7  2  0
  6  8  1  0
  7  9  1  0
  8 10  2  0
  9 11  2  0
 10 11  1  0
 11 12  1  0
 12 13  1  0
 13 14  2  0
 13 15  1  0
 15 16  1  0
 16 17  2  0
 16 18  1  0
 17 19  1  0
 18 20  2  0
 19 21  2  0
 20 21  1  0
M  END
>  <ref_url>  (683) 
https://fakepage.com

>  <submitter_name>  (683) 
Steph Wills

>  <submitter_email>  (683) 
stephanie.wills@dtc.ox.ac.uk

>  <submitter_institution>  (683) 
University of Oxford

>  <generation_date>  (683) 
2020-06-04

>  <method>  (683) 
Fragment network

>  <ref_mols>  (683) 
x0183_0B,x0212_0B

>  <ref_pdb>  (683) 
references/x0183-0B-x0212-0B-258435.holo_minimised_nolig.pdb

>  <original SMILES>  (683) 
CCC(C)(C)c1ccc(NC(=O)Cc2ccccc2)cc1

>  <synthon>  (683) 
[Xe]c1ccccc1

>  <original_name>  (683) 
x0183-0B-x0212-0B-258435

>  <comRMSD_score>  (683) 
0.5460564344732413

>  <IF_score>  (683) 
0.55

>  <SuCOS_score>  (683) 
0.5335719486163399

>  <compound_ID>  (683) 
REAL:PV-001805723066

$$$$

     RDKit          3D

 20 21  0  0  0  0  0  0  0  0999 V2000
  -12.7620    6.1280  -73.7540 C   0  0  0  0  0  0  0  0  0  0  0  0
  -13.3740    5.4720  -75.0280 C   0  0  0  0  0  0  0  0  0  0  0  0
  -12.9530    3.9900  -75.2380 C   0  0  0  0  0  0  0  0  0  0  0  0
  -11.8640    3.9370  -76.3060 C   0  0  0  0  0  0  0  0  0  0  0  0
  -11.7320    4.9930  -77.1940 C   0  0  0  0  0  0  0  0  0  0  0  0
  -10.9400    2.8950  -76.4950 C   0  0  0  0  0  0  0  0  0  0  0  0
  -10.7400    4.9780  -78.1640 C   0  0  0  0  0  0  0  0  0  0  0  0
   -9.9960    2.9370  -77.4610 C   0  0  0  0  0  0  0  0  0  0  0  0
  -10.9090    1.9190  -75.8410 O   0  0  0  0  0  0  0  0  0  0  0  0
   -9.8580    3.9560  -78.3110 C   0  0  0  0  0  0  0  0  0  0  0  0
   -9.5190    1.5280  -75.7780 C   0  0  0  0  0  0  0  0  0  0  0  0
   -8.9310    1.1590  -77.1690 C   0  0  0  0  0  0  0  0  0  0  0  0
   -8.3100    2.3600  -77.7190 O   0  0  0  0  0  0  0  0  0  0  0  0
   -7.3700    2.1780  -78.7890 C   0  0  0  0  0  0  0  0  0  0  0  0
   -8.0700    1.3610  -79.8380 C   0  0  0  0  0  0  0  0  0  0  0  0
   -8.4940    0.0710  -79.5140 C   0  0  0  0  0  0  0  0  0  0  0  0
   -8.3090    1.8640  -81.1290 C   0  0  0  0  0  0  0  0  0  0  0  0
   -9.1490   -0.7120  -80.4470 C   0  0  0  0  0  0  0  0  0  0  0  0
   -8.9660    1.0670  -82.0600 C   0  0  0  0  0  0  0  0  0  0  0  0
   -9.3850   -0.2140  -81.7130 C   0  0  0  0  0  0  0  0  0  0  0  0
  1  2  1  0
  2  3  1  0
  3  4  1  0
  4  5  2  0
  4  6  1  0
  5  7  1  0
  6  8  2  0
  6  9  1  0
  7 10  2  0
  8 10  1  0
  9 11  1  0
 11 12  1  0
 12 13  1  0
 13 14  1  0
 14 15  1  0
 15 16  2  0
 15 17  1  0
 16 18  1  0
 17 19  2  0
 18 20  2  0
 19 20  1  0
M  END
>  <ref_url>  (684) 
https://fakepage.com

>  <submitter_name>  (684) 
Steph Wills

>  <submitter_email>  (684) 
stephanie.wills@dtc.ox.ac.uk

>  <submitter_institution>  (684) 
University of Oxford

>  <generation_date>  (684) 
2020-06-04

>  <method>  (684) 
Fragment network

>  <ref_mols>  (684) 
x0183_0B,x0212_0B

>  <ref_pdb>  (684) 
references/x0183-0B-x0212-0B-259630.holo_minimised_nolig.pdb

>  <original SMILES>  (684) 
CCCc1ccccc1OCCOCc1ccccc1

>  <synthon>  (684) 
[Xe]c1ccccc1

>  <original_name>  (684) 
x0183-0B-x0212-0B-259630

>  <comRMSD_score>  (684) 
0.8585875136050608

>  <IF_score>  (684) 
0.425

>  <SuCOS_score>  (684) 
0.5227635802807864

>  <compound_ID>  (684) 
CHEMSPACE-BB:CSMB00022689892

$$$$

     RDKit          3D

 23 24  0  0  0  0  0  0  0  0999 V2000
  -11.7270    6.1860  -73.5890 C   0  0  0  0  0  0  0  0  0  0  0  0
  -13.1580    6.3170  -73.9960 C   0  0  0  0  0  0  0  0  0  0  0  0
  -13.2790    5.9020  -75.3750 O   0  0  0  0  0  0  0  0  0  0  0  0
  -13.3460    4.5640  -75.6640 C   0  0  0  0  0  0  0  0  0  0  0  0
  -14.3730    3.8970  -75.6860 O   0  0  0  0  0  0  0  0  0  0  0  0
  -12.0160    3.9430  -75.9580 C   0  0  0  0  0  0  0  0  0  0  0  0
  -11.6800    2.7680  -75.2940 C   0  0  0  0  0  0  0  0  0  0  0  0
  -11.0960    4.5040  -76.8890 C   0  0  0  0  0  0  0  0  0  0  0  0
  -10.4780    2.1430  -75.5210 C   0  0  0  0  0  0  0  0  0  0  0  0
   -9.8630    3.8400  -77.0940 C   0  0  0  0  0  0  0  0  0  0  0  0
   -9.5960    2.6840  -76.4090 C   0  0  0  0  0  0  0  0  0  0  0  0
   -8.7360    4.0760  -77.8700 N   0  0  0  0  0  0  0  0  0  0  0  0
   -7.4620    3.6060  -77.5780 C   0  0  0  0  0  0  0  0  0  0  0  0
   -6.1860    4.2190  -76.6760 S   0  0  0  0  0  0  0  0  0  0  0  0
   -7.1720    2.3750  -78.0990 N   0  0  0  0  0  0  0  0  0  0  0  0
   -6.8140    2.0680  -79.3850 C   0  0  0  0  0  0  0  0  0  0  0  0
   -5.7430    2.3670  -79.9110 O   0  0  0  0  0  0  0  0  0  0  0  0
   -7.8430    1.3150  -80.1120 C   0  0  0  0  0  0  0  0  0  0  0  0
   -8.3370    0.1110  -79.6050 C   0  0  0  0  0  0  0  0  0  0  0  0
   -8.3200    1.8250  -81.3130 C   0  0  0  0  0  0  0  0  0  0  0  0
   -9.3130   -0.5830  -80.3060 C   0  0  0  0  0  0  0  0  0  0  0  0
   -9.2900    1.1260  -82.0020 C   0  0  0  0  0  0  0  0  0  0  0  0
   -9.7890   -0.0740  -81.5040 C   0  0  0  0  0  0  0  0  0  0  0  0
  1  2  1  0
  2  3  1  0
  3  4  1  0
  4  5  2  0
  4  6  1  0
  6  7  2  0
  6  8  1  0
  7  9  1  0
  8 10  2  0
  9 11  2  0
 10 11  1  0
 10 12  1  0
 12 13  1  0
 13 14  2  0
 13 15  1  0
 15 16  1  0
 16 17  2  0
 16 18  1  0
 18 19  2  0
 18 20  1  0
 19 21  1  0
 20 22  2  0
 21 23  2  0
 22 23  1  0
M  END
>  <ref_url>  (685) 
https://fakepage.com

>  <submitter_name>  (685) 
Steph Wills

>  <submitter_email>  (685) 
stephanie.wills@dtc.ox.ac.uk

>  <submitter_institution>  (685) 
University of Oxford

>  <generation_date>  (685) 
2020-06-04

>  <method>  (685) 
Fragment network

>  <ref_mols>  (685) 
x0183_0B,x0212_0B

>  <ref_pdb>  (685) 
references/x0183-0B-x0212-0B-260726.holo_minimised_nolig.pdb

>  <original SMILES>  (685) 
CCOC(=O)c1cccc(NC(=S)NC(=O)c2ccccc2)c1

>  <synthon>  (685) 
[Xe]c1ccccc1

>  <original_name>  (685) 
x0183-0B-x0212-0B-260726

>  <comRMSD_score>  (685) 
0.9785042629404284

>  <IF_score>  (685) 
0.5

>  <SuCOS_score>  (685) 
0.5029000553234434

>  <compound_ID>  (685) 
MOLPORT:000-649-121

$$$$

     RDKit          3D

 27 28  0  0  0  0  0  0  0  0999 V2000
  -12.8410    6.2330  -73.6750 C   0  0  0  0  0  0  0  0  0  0  0  0
  -13.3200    5.0110  -74.1570 N   0  0  0  0  0  0  0  0  0  0  0  0
  -13.7130    4.7910  -75.7810 S   0  0  0  0  0  0  0  0  0  0  0  0
  -14.2320    6.0510  -76.2710 O   0  0  0  0  0  0  0  0  0  0  0  0
  -14.5010    3.5770  -75.8630 O   0  0  0  0  0  0  0  0  0  0  0  0
  -12.1610    4.4630  -76.5880 C   0  0  0  0  0  0  0  0  0  0  0  0
  -11.1350    3.6720  -75.8070 C   0  0  0  0  0  0  0  0  0  0  0  0
  -11.8390    4.8770  -77.8650 C   0  0  0  0  0  0  0  0  0  0  0  0
   -9.9120    3.3760  -76.3530 C   0  0  0  0  0  0  0  0  0  0  0  0
  -10.5800    4.5570  -78.3930 C   0  0  0  0  0  0  0  0  0  0  0  0
   -9.6310    3.8240  -77.6550 C   0  0  0  0  0  0  0  0  0  0  0  0
   -8.3950    3.5340  -78.1890 C   0  0  0  0  0  0  0  0  0  0  0  0
   -7.5690    3.3160  -77.0910 C   0  0  0  0  0  0  0  0  0  0  0  0
   -6.1870    3.6420  -77.2210 C   0  0  0  0  0  0  0  0  0  0  0  0
   -5.7220    4.6480  -76.6940 O   0  0  0  0  0  0  0  0  0  0  0  0
   -5.4150    2.7350  -77.9440 N   0  0  0  0  0  0  0  0  0  0  0  0
   -5.9250    2.1380  -79.0750 C   0  0  0  0  0  0  0  0  0  0  0  0
   -7.2930    1.9900  -78.9350 C   0  0  1  0  0  0  0  0  0  0  0  0
   -7.9770    1.2590  -79.8830 C   0  0  0  0  0  0  0  0  0  0  0  0
   -7.4970    1.4500  -77.6740 N   0  0  0  0  0  0  0  0  0  0  0  0
   -8.3530   -0.0260  -79.5550 C   0  0  0  0  0  0  0  0  0  0  0  0
   -8.3090    1.7590  -81.1480 C   0  0  0  0  0  0  0  0  0  0  0  0
   -8.8960    1.0430  -77.3970 C   0  0  0  0  0  0  0  0  0  0  0  0
   -6.4980    0.4810  -77.1800 C   0  0  0  0  0  0  0  0  0  0  0  0
   -9.0790   -0.8020  -80.5170 C   0  0  0  0  0  0  0  0  0  0  0  0
   -9.0150    0.9770  -82.0640 C   0  0  0  0  0  0  0  0  0  0  0  0
   -9.4370   -0.3360  -81.7950 C   0  0  0  0  0  0  0  0  0  0  0  0
  1  2  1  0
  3  2  1  0
  3  4  2  0
  3  5  2  0
  3  6  1  0
  6  7  2  0
  6  8  1  0
  7  9  1  0
  8 10  2  0
  9 11  2  0
 10 11  1  0
 11 12  1  0
 12 13  1  0
 13 14  1  0
 14 15  2  0
 14 16  1  0
 16 17  1  0
 18 17  1  6
 18 19  1  0
 18 20  1  0
 19 21  2  0
 19 22  1  0
 20 23  1  0
 20 24  1  0
 21 25  1  0
 22 26  2  0
 25 27  2  0
 26 27  1  0
M  END
>  <ref_url>  (686) 
https://fakepage.com

>  <submitter_name>  (686) 
Steph Wills

>  <submitter_email>  (686) 
stephanie.wills@dtc.ox.ac.uk

>  <submitter_institution>  (686) 
University of Oxford

>  <generation_date>  (686) 
2020-06-04

>  <method>  (686) 
Fragment network

>  <ref_mols>  (686) 
x0183_0B,x0212_0B

>  <ref_pdb>  (686) 
references/x0183-0B-x0212-0B-261257.holo_minimised_nolig.pdb

>  <original SMILES>  (686) 
CNS(=O)(=O)c1ccc(CCC(=O)NCC(c2ccccc2)N(C)C)cc1

>  <synthon>  (686) 
[Xe]c1ccccc1

>  <original_name>  (686) 
x0183-0B-x0212-0B-261257

>  <comRMSD_score>  (686) 
0.7808309201907451

>  <IF_score>  (686) 
0.55

>  <SuCOS_score>  (686) 
0.5148024824037899

>  <compound_ID>  (686) 
MOLPORT:009-120-697

$$$$

     RDKit          3D

 22 23  0  0  0  0  0  0  0  0999 V2000
  -12.7840    6.2410  -73.6230 C   0  0  0  0  0  0  0  0  0  0  0  0
  -13.4470    5.0180  -74.2760 C   0  0  0  0  0  0  0  0  0  0  0  0
  -13.4080    5.0190  -75.8060 C   0  0  0  0  0  0  0  0  0  0  0  0
  -13.4720    6.2280  -76.5160 C   0  0  0  0  0  0  0  0  0  0  0  0
  -14.5510    4.0650  -76.3080 C   0  0  0  0  0  0  0  0  0  0  0  0
  -12.0670    4.3530  -76.2630 C   0  0  0  0  0  0  0  0  0  0  0  0
  -11.5610    4.6620  -77.5280 C   0  0  0  0  0  0  0  0  0  0  0  0
  -11.3800    3.4580  -75.4420 C   0  0  0  0  0  0  0  0  0  0  0  0
  -10.3810    4.0670  -77.9550 C   0  0  0  0  0  0  0  0  0  0  0  0
  -10.2110    2.8720  -75.8690 C   0  0  0  0  0  0  0  0  0  0  0  0
   -9.7240    3.1740  -77.1110 C   0  0  0  0  0  0  0  0  0  0  0  0
   -8.5930    2.6270  -77.5910 N   0  0  0  0  0  0  0  0  0  0  0  0
   -7.3350    3.3080  -77.4770 C   0  0  0  0  0  0  0  0  0  0  0  0
   -6.8060    3.7950  -76.4890 O   0  0  0  0  0  0  0  0  0  0  0  0
   -6.7730    3.3180  -78.7320 C   0  0  0  0  0  0  0  0  0  0  0  0
   -6.5210    2.0780  -79.3120 C   0  0  0  0  0  0  0  0  0  0  0  0
   -7.5420    1.4290  -80.1550 C   0  0  0  0  0  0  0  0  0  0  0  0
   -8.0800    1.9380  -81.3840 C   0  0  0  0  0  0  0  0  0  0  0  0
   -7.9840    0.1850  -79.6550 C   0  0  0  0  0  0  0  0  0  0  0  0
   -9.0110    1.1350  -82.0100 C   0  0  0  0  0  0  0  0  0  0  0  0
   -8.9230   -0.5720  -80.3240 C   0  0  0  0  0  0  0  0  0  0  0  0
   -9.4360   -0.0940  -81.5120 C   0  0  0  0  0  0  0  0  0  0  0  0
  1  2  1  0
  3  2  1  0
  3  4  1  0
  3  5  1  0
  3  6  1  0
  6  7  2  0
  6  8  1  0
  7  9  1  0
  8 10  2  0
  9 11  2  0
 10 11  1  0
 11 12  1  0
 12 13  1  0
 13 14  2  0
 13 15  1  0
 15 16  1  0
 16 17  1  0
 17 18  2  0
 17 19  1  0
 18 20  1  0
 19 21  2  0
 20 22  2  0
 21 22  1  0
M  END
>  <ref_url>  (687) 
https://fakepage.com

>  <submitter_name>  (687) 
Steph Wills

>  <submitter_email>  (687) 
stephanie.wills@dtc.ox.ac.uk

>  <submitter_institution>  (687) 
University of Oxford

>  <generation_date>  (687) 
2020-06-04

>  <method>  (687) 
Fragment network

>  <ref_mols>  (687) 
x0183_0B,x0212_0B

>  <ref_pdb>  (687) 
references/x0183-0B-x0212-0B-261521.holo_minimised_nolig.pdb

>  <original SMILES>  (687) 
CCC(C)(C)c1ccc(NC(=O)CCc2ccccc2)cc1

>  <synthon>  (687) 
[Xe]c1ccccc1

>  <original_name>  (687) 
x0183-0B-x0212-0B-261521

>  <comRMSD_score>  (687) 
0.7511945548652883

>  <IF_score>  (687) 
0.55

>  <SuCOS_score>  (687) 
0.523477509679163

>  <compound_ID>  (687) 
REAL:PV-001805722406

$$$$

     RDKit          3D

 23 24  0  0  0  0  0  0  0  0999 V2000
  -12.7420    6.3360  -73.5660 C   0  0  0  0  0  0  0  0  0  0  0  0
  -13.3430    5.5540  -74.7420 C   0  0  0  0  0  0  0  0  0  0  0  0
  -12.8830    4.1510  -74.9750 C   0  0  1  0  0  0  0  0  0  0  0  0
  -13.9010    3.2130  -75.2200 C   0  0  0  0  0  0  0  0  0  0  0  0
  -11.9880    4.1090  -76.1930 C   0  0  0  0  0  0  0  0  0  0  0  0
  -12.4260    4.7760  -77.3080 C   0  0  0  0  0  0  0  0  0  0  0  0
  -10.7180    3.4320  -76.3060 C   0  0  0  0  0  0  0  0  0  0  0  0
  -11.7170    4.8080  -78.4700 C   0  0  0  0  0  0  0  0  0  0  0  0
  -10.0410    3.4900  -77.4910 C   0  0  0  0  0  0  0  0  0  0  0  0
  -10.1690    2.8000  -75.4500 O   0  0  0  0  0  0  0  0  0  0  0  0
  -10.4980    4.1610  -78.5840 C   0  0  0  0  0  0  0  0  0  0  0  0
   -9.1950    1.9750  -76.1260 C   0  0  0  0  0  0  0  0  0  0  0  0
   -8.4250    2.7960  -76.9980 C   0  0  0  0  0  0  0  0  0  0  0  0
   -8.8380    3.9240  -77.2300 O   0  0  0  0  0  0  0  0  0  0  0  0
   -7.2110    2.2420  -77.5790 N   0  0  0  0  0  0  0  0  0  0  0  0
   -6.7690    1.0080  -76.9290 C   0  0  0  0  0  0  0  0  0  0  0  0
   -7.0160    2.4000  -78.9510 C   0  0  0  0  0  0  0  0  0  0  0  0
   -7.8300    1.5100  -79.8540 C   0  0  0  0  0  0  0  0  0  0  0  0
   -8.1950    1.9120  -81.1440 C   0  0  0  0  0  0  0  0  0  0  0  0
   -8.2470    0.2410  -79.4180 C   0  0  0  0  0  0  0  0  0  0  0  0
   -8.9370    1.1010  -81.9820 C   0  0  0  0  0  0  0  0  0  0  0  0
   -8.9970   -0.5830  -80.2550 C   0  0  0  0  0  0  0  0  0  0  0  0
   -9.3410   -0.1560  -81.5320 C   0  0  0  0  0  0  0  0  0  0  0  0
  1  2  1  0
  2  3  1  0
  3  4  1  6
  3  5  1  0
  5  6  2  0
  5  7  1  0
  6  8  1  0
  7  9  2  0
  7 10  1  0
  8 11  2  0
  9 11  1  0
 10 12  1  0
 12 13  1  0
 13 14  2  0
 13 15  1  0
 15 16  1  0
 15 17  1  0
 17 18  1  0
 18 19  2  0
 18 20  1  0
 19 21  1  0
 20 22  2  0
 21 23  2  0
 22 23  1  0
M  END
>  <ref_url>  (688) 
https://fakepage.com

>  <submitter_name>  (688) 
Steph Wills

>  <submitter_email>  (688) 
stephanie.wills@dtc.ox.ac.uk

>  <submitter_institution>  (688) 
University of Oxford

>  <generation_date>  (688) 
2020-06-04

>  <method>  (688) 
Fragment network

>  <ref_mols>  (688) 
x0183_0B,x0212_0B

>  <ref_pdb>  (688) 
references/x0183-0B-x0212-0B-262086.holo_minimised_nolig.pdb

>  <original SMILES>  (688) 
CCC(C)c1ccccc1OCC(=O)N(C)Cc1ccccc1

>  <synthon>  (688) 
[Xe]c1ccccc1

>  <original_name>  (688) 
x0183-0B-x0212-0B-262086

>  <comRMSD_score>  (688) 
0.7080590580097319

>  <IF_score>  (688) 
0.425

>  <SuCOS_score>  (688) 
0.5795374241187227

>  <compound_ID>  (688) 
REAL:Z25071650

$$$$

     RDKit          3D

 23 24  0  0  0  0  0  0  0  0999 V2000
  -13.3060    5.6150  -72.9580 C   0  0  0  0  0  0  0  0  0  0  0  0
  -12.7990    6.6550  -73.8820 C   0  0  0  0  0  0  0  0  0  0  0  0
  -13.1750    6.3420  -75.2650 N   0  0  0  0  0  0  0  0  0  0  0  0
  -13.4700    4.9240  -75.5350 C   0  0  0  0  0  0  0  0  0  0  0  0
  -14.5400    4.3850  -75.2800 O   0  0  0  0  0  0  0  0  0  0  0  0
  -12.4640    4.1960  -76.1180 C   0  0  0  0  0  0  0  0  0  0  0  0
  -11.9120    3.1920  -75.3500 C   0  0  0  0  0  0  0  0  0  0  0  0
  -11.9960    4.4020  -77.4220 C   0  0  0  0  0  0  0  0  0  0  0  0
  -10.9400    2.3900  -75.8600 C   0  0  0  0  0  0  0  0  0  0  0  0
  -11.0020    3.5800  -77.9350 C   0  0  0  0  0  0  0  0  0  0  0  0
  -10.4840    2.5510  -77.1360 C   0  0  0  0  0  0  0  0  0  0  0  0
   -9.6550    1.7640  -77.4500 O   0  0  0  0  0  0  0  0  0  0  0  0
   -8.4690    2.0590  -76.8200 C   0  0  0  0  0  0  0  0  0  0  0  0
   -7.8940    2.9580  -77.6430 C   0  0  0  0  0  0  0  0  0  0  0  0
   -8.6460    4.1340  -77.9550 O   0  0  0  0  0  0  0  0  0  0  0  0
   -6.6440    2.6810  -78.2570 N   0  0  0  0  0  0  0  0  0  0  0  0
   -6.6970    2.9020  -79.7140 C   0  0  0  0  0  0  0  0  0  0  0  0
   -7.4120    1.8260  -80.2620 C   0  0  0  0  0  0  0  0  0  0  0  0
   -7.5680    0.4570  -79.6160 C   0  0  0  0  0  0  0  0  0  0  0  0
   -8.0250    2.0070  -81.4960 C   0  0  0  0  0  0  0  0  0  0  0  0
   -8.3560   -0.6240  -80.3410 C   0  0  0  0  0  0  0  0  0  0  0  0
   -8.7390    0.9820  -82.1340 C   0  0  0  0  0  0  0  0  0  0  0  0
   -8.9040   -0.3010  -81.5820 C   0  0  0  0  0  0  0  0  0  0  0  0
  1  2  1  0
  2  3  1  0
  3  4  1  0
  4  5  2  0
  4  6  1  0
  6  7  2  0
  6  8  1  0
  7  9  1  0
  8 10  2  0
  9 11  2  0
 10 11  1  0
 11 12  1  0
 12 13  1  0
 13 14  1  0
 14 15  2  0
 14 16  1  0
 16 17  1  0
 17 18  1  0
 18 19  2  0
 18 20  1  0
 19 21  1  0
 20 22  2  0
 21 23  2  0
 22 23  1  0
M  END
>  <ref_url>  (689) 
https://fakepage.com

>  <submitter_name>  (689) 
Steph Wills

>  <submitter_email>  (689) 
stephanie.wills@dtc.ox.ac.uk

>  <submitter_institution>  (689) 
University of Oxford

>  <generation_date>  (689) 
2020-06-04

>  <method>  (689) 
Fragment network

>  <ref_mols>  (689) 
x0183_0B,x0212_0B

>  <ref_pdb>  (689) 
references/x0183-0B-x0212-0B-264171.holo_minimised_nolig.pdb

>  <original SMILES>  (689) 
CCNC(=O)c1ccc(OCC(=O)NCc2ccccc2)cc1

>  <synthon>  (689) 
[Xe]c1ccccc1

>  <original_name>  (689) 
x0183-0B-x0212-0B-264171

>  <comRMSD_score>  (689) 
0.9471286822500627

>  <IF_score>  (689) 
0.525

>  <SuCOS_score>  (689) 
0.4522685094163524

>  <compound_ID>  (689) 
MOLPORT:046-808-803

$$$$

     RDKit          3D

 28 29  0  0  0  0  0  0  0  0999 V2000
  -11.8210    1.4300  -73.2520 C   0  0  0  0  0  0  0  0  0  0  0  0
  -12.6040    2.4430  -72.5020 C   0  0  0  0  0  0  0  0  0  0  0  0
  -12.0050    3.3500  -71.9290 O   0  0  0  0  0  0  0  0  0  0  0  0
  -12.4780    4.6770  -72.1690 C   0  0  0  0  0  0  0  0  0  0  0  0
  -12.1850    5.5080  -73.2630 C   0  0  0  0  0  0  0  0  0  0  0  0
  -13.2540    6.1660  -73.8340 C   0  0  0  0  0  0  0  0  0  0  0  0
  -13.5980    5.6620  -75.1580 N   0  0  0  0  0  0  0  0  0  0  0  0
  -13.3070    4.2260  -75.2580 C   0  0  0  0  0  0  0  0  0  0  0  0
  -12.3930    3.8880  -76.2300 C   0  0  0  0  0  0  0  0  0  0  0  0
  -12.1590    4.7860  -77.4160 C   0  0  0  0  0  0  0  0  0  0  0  0
  -11.6470    2.7000  -76.1820 C   0  0  0  0  0  0  0  0  0  0  0  0
  -11.2790    4.4450  -78.4020 C   0  0  0  0  0  0  0  0  0  0  0  0
  -10.7560    2.3890  -77.2190 C   0  0  0  0  0  0  0  0  0  0  0  0
  -10.6010    3.2590  -78.3080 C   0  0  0  0  0  0  0  0  0  0  0  0
   -9.8620    3.0410  -79.2530 O   0  0  0  0  0  0  0  0  0  0  0  0
   -8.7880    3.8060  -79.1500 C   0  0  0  0  0  0  0  0  0  0  0  0
   -8.4380    3.6840  -77.6930 C   0  0  2  0  0  0  0  0  0  0  0  0
   -7.3470    4.1350  -77.3550 O   0  0  0  0  0  0  0  0  0  0  0  0
   -8.2770    2.2290  -77.3290 C   0  0  0  0  0  0  0  0  0  0  0  0
   -7.0430    1.8160  -77.7610 N   0  0  0  0  0  0  0  0  0  0  0  0
   -5.8550    2.1810  -76.9980 C   0  0  0  0  0  0  0  0  0  0  0  0
   -6.8620    2.1710  -79.1790 C   0  0  0  0  0  0  0  0  0  0  0  0
   -7.6950    1.3810  -79.9810 C   0  0  0  0  0  0  0  0  0  0  0  0
   -8.0850    0.1220  -79.5000 C   0  0  0  0  0  0  0  0  0  0  0  0
   -8.1240    1.8480  -81.2450 C   0  0  0  0  0  0  0  0  0  0  0  0
   -8.9020   -0.7120  -80.2530 C   0  0  0  0  0  0  0  0  0  0  0  0
   -8.9390    1.0710  -82.0570 C   0  0  0  0  0  0  0  0  0  0  0  0
   -9.3610   -0.2360  -81.5990 C   0  0  0  0  0  0  0  0  0  0  0  0
  1  2  1  0
  2  3  1  0
  3  4  1  0
  4  5  1  0
  5  6  1  0
  6  7  1  0
  7  8  1  0
  8  9  1  0
  9 10  2  0
  9 11  1  0
 10 12  1  0
 11 13  2  0
 12 14  2  0
 13 14  1  0
 14 15  1  0
 15 16  1  0
 16 17  1  0
 17 18  1  6
 17 19  1  0
 19 20  1  0
 20 21  1  0
 20 22  1  0
 22 23  1  0
 23 24  2  0
 23 25  1  0
 24 26  1  0
 25 27  2  0
 26 28  2  0
 27 28  1  0
M  END
>  <ref_url>  (690) 
https://fakepage.com

>  <submitter_name>  (690) 
Steph Wills

>  <submitter_email>  (690) 
stephanie.wills@dtc.ox.ac.uk

>  <submitter_institution>  (690) 
University of Oxford

>  <generation_date>  (690) 
2020-06-04

>  <method>  (690) 
Fragment network

>  <ref_mols>  (690) 
x0183_0B,x0212_0B

>  <ref_pdb>  (690) 
references/x0183-0B-x0212-0B-265693.holo_minimised_nolig.pdb

>  <original SMILES>  (690) 
CCOCCCNCc1ccc(OCC(O)CN(C)Cc2ccccc2)cc1

>  <synthon>  (690) 
[Xe]c1ccccc1

>  <original_name>  (690) 
x0183-0B-x0212-0B-265693

>  <comRMSD_score>  (690) 
0.8633224581039618

>  <IF_score>  (690) 
0.55

>  <SuCOS_score>  (690) 
0.4980667933003003

>  <compound_ID>  (690) 
MOLPORT:005-079-760

$$$$

     RDKit          3D

 22 23  0  0  0  0  0  0  0  0999 V2000
  -12.7190    6.2080  -73.5950 C   0  0  0  0  0  0  0  0  0  0  0  0
  -13.2060    5.4700  -74.7950 C   0  0  0  0  0  0  0  0  0  0  0  0
  -12.9600    4.0880  -74.9790 C   0  0  1  0  0  0  0  0  0  0  0  0
  -14.0460    3.2650  -75.2980 C   0  0  0  0  0  0  0  0  0  0  0  0
  -12.1070    4.0270  -76.2460 C   0  0  0  0  0  0  0  0  0  0  0  0
  -12.5050    4.8540  -77.2740 C   0  0  0  0  0  0  0  0  0  0  0  0
  -10.9500    3.1900  -76.4510 C   0  0  0  0  0  0  0  0  0  0  0  0
  -11.8410    4.9010  -78.4530 C   0  0  0  0  0  0  0  0  0  0  0  0
  -10.2600    3.2260  -77.6410 C   0  0  0  0  0  0  0  0  0  0  0  0
  -10.5110    2.4440  -75.6580 O   0  0  0  0  0  0  0  0  0  0  0  0
  -10.6250    4.0350  -78.6620 C   0  0  0  0  0  0  0  0  0  0  0  0
   -9.0930    2.6000  -75.8100 C   0  0  0  0  0  0  0  0  0  0  0  0
   -8.5390    2.9590  -77.1980 C   0  0  0  0  0  0  0  0  0  0  0  0
   -9.1050    3.9300  -77.6800 O   0  0  0  0  0  0  0  0  0  0  0  0
   -7.4710    2.2770  -77.8180 N   0  0  0  0  0  0  0  0  0  0  0  0
   -7.1360    2.3510  -79.1440 C   0  0  0  0  0  0  0  0  0  0  0  0
   -7.8800    1.5060  -79.9610 C   0  0  0  0  0  0  0  0  0  0  0  0
   -8.2710    0.2460  -79.4880 C   0  0  0  0  0  0  0  0  0  0  0  0
   -8.2320    1.9240  -81.2450 C   0  0  0  0  0  0  0  0  0  0  0  0
   -9.0130   -0.6000  -80.3020 C   0  0  0  0  0  0  0  0  0  0  0  0
   -8.9710    1.0810  -82.0560 C   0  0  0  0  0  0  0  0  0  0  0  0
   -9.3510   -0.1710  -81.5720 C   0  0  0  0  0  0  0  0  0  0  0  0
  1  2  1  0
  2  3  1  0
  3  4  1  6
  3  5  1  0
  5  6  2  0
  5  7  1  0
  6  8  1  0
  7  9  2  0
  7 10  1  0
  8 11  2  0
  9 11  1  0
 10 12  1  0
 12 13  1  0
 13 14  2  0
 13 15  1  0
 15 16  1  0
 16 17  1  0
 17 18  2  0
 17 19  1  0
 18 20  1  0
 19 21  2  0
 20 22  2  0
 21 22  1  0
M  END
>  <ref_url>  (691) 
https://fakepage.com

>  <submitter_name>  (691) 
Steph Wills

>  <submitter_email>  (691) 
stephanie.wills@dtc.ox.ac.uk

>  <submitter_institution>  (691) 
University of Oxford

>  <generation_date>  (691) 
2020-06-04

>  <method>  (691) 
Fragment network

>  <ref_mols>  (691) 
x0183_0B,x0212_0B

>  <ref_pdb>  (691) 
references/x0183-0B-x0212-0B-267101.holo_minimised_nolig.pdb

>  <original SMILES>  (691) 
CCC(C)c1ccccc1OCC(=O)NCc1ccccc1

>  <synthon>  (691) 
[Xe]c1ccccc1

>  <original_name>  (691) 
x0183-0B-x0212-0B-267101

>  <comRMSD_score>  (691) 
0.7712536931900291

>  <IF_score>  (691) 
0.425

>  <SuCOS_score>  (691) 
0.5840883634598169

>  <compound_ID>  (691) 
REAL:Z25071738

$$$$

     RDKit          3D

 23 24  0  0  0  0  0  0  0  0999 V2000
  -13.1750    6.9290  -76.2440 C   0  0  0  0  0  0  0  0  0  0  0  0
  -13.5250    5.9450  -75.1160 C   0  0  0  0  0  0  0  0  0  0  0  0
  -12.9150    6.2620  -73.7700 C   0  0  0  0  0  0  0  0  0  0  0  0
  -15.0540    6.2560  -74.9570 C   0  0  0  0  0  0  0  0  0  0  0  0
  -13.3260    4.4150  -75.4770 C   0  0  0  0  0  0  0  0  0  0  0  0
  -14.1370    3.5170  -75.2580 O   0  0  0  0  0  0  0  0  0  0  0  0
  -12.1150    4.2290  -76.1080 C   0  0  0  0  0  0  0  0  0  0  0  0
  -11.0890    3.5220  -75.4950 C   0  0  0  0  0  0  0  0  0  0  0  0
  -11.9360    4.7810  -77.3790 C   0  0  0  0  0  0  0  0  0  0  0  0
   -9.8770    3.3900  -76.1530 C   0  0  0  0  0  0  0  0  0  0  0  0
  -10.7260    4.6410  -78.0290 C   0  0  0  0  0  0  0  0  0  0  0  0
   -9.6960    3.9490  -77.3980 C   0  0  0  0  0  0  0  0  0  0  0  0
   -8.4710    3.8300  -78.0080 N   0  0  0  0  0  0  0  0  0  0  0  0
   -7.4360    3.3430  -77.3190 C   0  0  0  0  0  0  0  0  0  0  0  0
   -6.7570    3.9100  -76.1950 O   0  0  0  0  0  0  0  0  0  0  0  0
   -7.0110    1.9910  -77.8670 C   0  0  0  0  0  0  0  0  0  0  0  0
   -6.7590    2.0780  -79.2360 C   0  0  0  0  0  0  0  0  0  0  0  0
   -7.6470    1.3370  -80.0060 C   0  0  0  0  0  0  0  0  0  0  0  0
   -8.1000   -0.0300  -79.4970 C   0  0  0  0  0  0  0  0  0  0  0  0
   -8.1340    1.8090  -81.2330 C   0  0  0  0  0  0  0  0  0  0  0  0
   -9.0540   -0.7580  -80.3970 C   0  0  0  0  0  0  0  0  0  0  0  0
   -9.0140    1.0690  -82.0070 C   0  0  0  0  0  0  0  0  0  0  0  0
   -9.4690   -0.1930  -81.5990 C   0  0  0  0  0  0  0  0  0  0  0  0
  1  2  1  0
  2  3  1  0
  2  4  1  0
  2  5  1  0
  5  6  2  0
  5  7  1  0
  7  8  2  0
  7  9  1  0
  8 10  1  0
  9 11  2  0
 10 12  2  0
 11 12  1  0
 12 13  1  0
 13 14  1  0
 14 15  2  0
 14 16  1  0
 16 17  1  0
 17 18  1  0
 18 19  2  0
 18 20  1  0
 19 21  1  0
 20 22  2  0
 21 23  2  0
 22 23  1  0
M  END
>  <ref_url>  (692) 
https://fakepage.com

>  <submitter_name>  (692) 
Steph Wills

>  <submitter_email>  (692) 
stephanie.wills@dtc.ox.ac.uk

>  <submitter_institution>  (692) 
University of Oxford

>  <generation_date>  (692) 
2020-06-04

>  <method>  (692) 
Fragment network

>  <ref_mols>  (692) 
x0183_0B,x0212_0B

>  <ref_pdb>  (692) 
references/x0183-0B-x0212-0B-269486.holo_minimised_nolig.pdb

>  <original SMILES>  (692) 
CC(C)(C)C(=O)c1ccc(NC(=O)CCc2ccccc2)cc1

>  <synthon>  (692) 
[Xe]c1ccccc1

>  <original_name>  (692) 
x0183-0B-x0212-0B-269486

>  <comRMSD_score>  (692) 
0.6201185967813523

>  <IF_score>  (692) 
0.55

>  <SuCOS_score>  (692) 
0.5122698993049515

>  <compound_ID>  (692) 
REAL:Z1344384604

$$$$

     RDKit          3D

 19 20  0  0  0  0  0  0  0  0999 V2000
  -13.1470    4.4120  -75.0890 C   0  0  0  0  0  0  0  0  0  0  0  0
  -12.0320    4.1870  -76.0330 C   0  0  0  0  0  0  0  0  0  0  0  0
  -10.9310    3.4050  -75.7170 C   0  0  0  0  0  0  0  0  0  0  0  0
  -12.0720    4.7780  -77.3000 C   0  0  0  0  0  0  0  0  0  0  0  0
   -9.8820    3.1880  -76.5830 C   0  0  0  0  0  0  0  0  0  0  0  0
  -11.0360    4.5750  -78.1960 C   0  0  0  0  0  0  0  0  0  0  0  0
   -9.9470    3.7880  -77.8420 C   0  0  0  0  0  0  0  0  0  0  0  0
   -8.8390    3.5620  -78.7530 N   0  0  0  0  0  0  0  0  0  0  0  0
   -7.5750    3.7210  -78.0600 C   0  0  0  0  0  0  0  0  0  0  0  0
   -7.3300    3.6160  -76.7170 O   0  0  0  0  0  0  0  0  0  0  0  0
   -6.5740    4.0210  -79.0160 N   0  0  0  0  0  0  0  0  0  0  0  0
   -5.9310    2.9110  -79.4800 O   0  0  0  0  0  0  0  0  0  0  0  0
   -6.7260    1.8370  -79.0100 C   0  0  0  0  0  0  0  0  0  0  0  0
   -7.7270    1.1860  -79.9570 C   0  0  0  0  0  0  0  0  0  0  0  0
   -8.2640   -0.0700  -79.6200 C   0  0  0  0  0  0  0  0  0  0  0  0
   -8.1240    1.8050  -81.1640 C   0  0  0  0  0  0  0  0  0  0  0  0
   -9.1720   -0.7030  -80.4560 C   0  0  0  0  0  0  0  0  0  0  0  0
   -9.0350    1.1470  -81.9870 C   0  0  0  0  0  0  0  0  0  0  0  0
   -9.5400   -0.0850  -81.6230 C   0  0  0  0  0  0  0  0  0  0  0  0
  1  2  1  0
  2  3  2  0
  2  4  1  0
  3  5  1  0
  4  6  2  0
  5  7  2  0
  6  7  1  0
  7  8  1  0
  8  9  1  0
  9 10  2  0
  9 11  1  0
 11 12  1  0
 12 13  1  0
 13 14  1  0
 14 15  2  0
 14 16  1  0
 15 17  1  0
 16 18  2  0
 17 19  2  0
 18 19  1  0
M  END
>  <ref_url>  (693) 
https://fakepage.com

>  <submitter_name>  (693) 
Steph Wills

>  <submitter_email>  (693) 
stephanie.wills@dtc.ox.ac.uk

>  <submitter_institution>  (693) 
University of Oxford

>  <generation_date>  (693) 
2020-06-04

>  <method>  (693) 
Fragment network

>  <ref_mols>  (693) 
x0183_0B,x0212_0B

>  <ref_pdb>  (693) 
references/x0183-0B-x0212-0B-273523.holo_minimised_nolig.pdb

>  <original SMILES>  (693) 
Cc1ccc(NC(=O)NOCc2ccccc2)cc1

>  <synthon>  (693) 
[Xe]c1ccccc1

>  <original_name>  (693) 
x0183-0B-x0212-0B-273523

>  <comRMSD_score>  (693) 
0.6564953061191845

>  <IF_score>  (693) 
0.55

>  <SuCOS_score>  (693) 
0.436921942042313

>  <compound_ID>  (693) 
MOLPORT:000-182-382, CHEMSPACE-BB:CSMB00000222871

$$$$

     RDKit          3D

 20 21  0  0  0  0  0  0  0  0999 V2000
  -14.1740    5.2450  -73.9410 C   0  0  0  0  0  0  0  0  0  0  0  0
  -13.6940    4.0010  -74.6980 C   0  0  0  0  0  0  0  0  0  0  0  0
  -14.7810    2.9130  -74.6970 C   0  0  0  0  0  0  0  0  0  0  0  0
  -13.4400    4.3270  -76.0650 O   0  0  0  0  0  0  0  0  0  0  0  0
  -12.1780    4.1340  -76.4950 C   0  0  0  0  0  0  0  0  0  0  0  0
  -11.7840    4.5200  -77.7900 C   0  0  0  0  0  0  0  0  0  0  0  0
  -11.2480    3.5470  -75.6530 C   0  0  0  0  0  0  0  0  0  0  0  0
  -10.4690    4.3070  -78.2010 C   0  0  0  0  0  0  0  0  0  0  0  0
   -9.9740    3.3510  -76.0730 C   0  0  0  0  0  0  0  0  0  0  0  0
   -9.5670    3.7180  -77.3170 C   0  0  0  0  0  0  0  0  0  0  0  0
   -8.2260    3.4560  -77.5510 N   0  0  0  0  0  0  0  0  0  0  0  0
   -7.6780    2.3110  -78.0430 C   0  0  0  0  0  0  0  0  0  0  0  0
   -7.6790    1.1740  -77.3000 O   0  0  0  0  0  0  0  0  0  0  0  0
   -7.1840    2.2860  -79.1460 O   0  0  0  0  0  0  0  0  0  0  0  0
   -7.8840    1.4590  -79.9970 C   0  0  0  0  0  0  0  0  0  0  0  0
   -8.2560    1.8400  -81.2790 C   0  0  0  0  0  0  0  0  0  0  0  0
   -8.2450    0.1700  -79.5640 C   0  0  0  0  0  0  0  0  0  0  0  0
   -8.9600    1.0270  -82.1510 C   0  0  0  0  0  0  0  0  0  0  0  0
   -8.9540   -0.6670  -80.4190 C   0  0  0  0  0  0  0  0  0  0  0  0
   -9.3020   -0.2420  -81.6860 C   0  0  0  0  0  0  0  0  0  0  0  0
  1  2  1  0
  2  3  1  0
  2  4  1  0
  4  5  1  0
  5  6  2  0
  5  7  1  0
  6  8  1  0
  7  9  2  0
  8 10  2  0
  9 10  1  0
 10 11  1  0
 11 12  1  0
 12 13  2  0
 12 14  1  0
 14 15  1  0
 15 16  2  0
 15 17  1  0
 16 18  1  0
 17 19  2  0
 18 20  2  0
 19 20  1  0
M  END
>  <ref_url>  (694) 
https://fakepage.com

>  <submitter_name>  (694) 
Steph Wills

>  <submitter_email>  (694) 
stephanie.wills@dtc.ox.ac.uk

>  <submitter_institution>  (694) 
University of Oxford

>  <generation_date>  (694) 
2020-06-04

>  <method>  (694) 
Fragment network

>  <ref_mols>  (694) 
x0183_0B,x0212_0B

>  <ref_pdb>  (694) 
references/x0183-0B-x0212-0B-273540.holo_minimised_nolig.pdb

>  <original SMILES>  (694) 
CC(C)Oc1ccc(NC(=O)Oc2ccccc2)cc1

>  <synthon>  (694) 
[Xe]c1ccccc1

>  <original_name>  (694) 
x0183-0B-x0212-0B-273540

>  <comRMSD_score>  (694) 
0.9448849251306376

>  <IF_score>  (694) 
0.65

>  <SuCOS_score>  (694) 
0.3999498555663341

>  <compound_ID>  (694) 
MOLPORT:000-664-839

$$$$

     RDKit          3D

 23 24  0  0  0  0  0  0  0  0999 V2000
  -12.8290    6.4390  -73.7300 C   0  0  0  0  0  0  0  0  0  0  0  0
  -13.3630    5.8890  -74.8940 N   0  0  0  0  0  0  0  0  0  0  0  0
  -13.0400    6.6990  -76.0860 C   0  0  0  0  0  0  0  0  0  0  0  0
  -13.3270    4.2100  -75.0530 S   0  0  0  0  0  0  0  0  0  0  0  0
  -14.5140    3.8020  -75.7650 O   0  0  0  0  0  0  0  0  0  0  0  0
  -12.9420    3.6460  -73.7790 O   0  0  0  0  0  0  0  0  0  0  0  0
  -11.9430    4.0550  -76.1440 C   0  0  0  0  0  0  0  0  0  0  0  0
  -11.9890    4.6130  -77.4810 C   0  0  0  0  0  0  0  0  0  0  0  0
  -10.7860    3.4040  -75.7550 C   0  0  0  0  0  0  0  0  0  0  0  0
  -10.9220    4.5070  -78.3490 C   0  0  0  0  0  0  0  0  0  0  0  0
   -9.7080    3.3050  -76.6460 C   0  0  0  0  0  0  0  0  0  0  0  0
   -9.7810    3.8520  -77.9260 C   0  0  0  0  0  0  0  0  0  0  0  0
   -8.5770    2.6480  -76.2000 N   0  0  0  0  0  0  0  0  0  0  0  0
   -7.3140    2.9200  -76.6600 C   0  0  0  0  0  0  0  0  0  0  0  0
   -6.5900    3.7870  -76.1910 O   0  0  0  0  0  0  0  0  0  0  0  0
   -6.9680    2.1240  -77.6880 N   0  0  0  0  0  0  0  0  0  0  0  0
   -7.0900    2.5990  -79.0600 C   0  0  0  0  0  0  0  0  0  0  0  0
   -7.8070    1.6560  -80.0230 C   0  0  0  0  0  0  0  0  0  0  0  0
   -8.1270    0.2660  -79.5130 C   0  0  0  0  0  0  0  0  0  0  0  0
   -8.1840    1.9790  -81.3230 C   0  0  0  0  0  0  0  0  0  0  0  0
   -8.7660   -0.6390  -80.3170 C   0  0  0  0  0  0  0  0  0  0  0  0
   -8.8340    1.0110  -82.1050 C   0  0  0  0  0  0  0  0  0  0  0  0
   -9.1240   -0.2850  -81.6120 C   0  0  0  0  0  0  0  0  0  0  0  0
  1  2  1  0
  2  3  1  0
  4  2  1  0
  4  5  2  0
  4  6  2  0
  4  7  1  0
  7  8  2  0
  7  9  1  0
  8 10  1  0
  9 11  2  0
 10 12  2  0
 11 12  1  0
 11 13  1  0
 13 14  1  0
 14 15  2  0
 14 16  1  0
 16 17  1  0
 17 18  1  0
 18 19  2  0
 18 20  1  0
 19 21  1  0
 20 22  2  0
 21 23  2  0
 22 23  1  0
M  END
>  <ref_url>  (695) 
https://fakepage.com

>  <submitter_name>  (695) 
Steph Wills

>  <submitter_email>  (695) 
stephanie.wills@dtc.ox.ac.uk

>  <submitter_institution>  (695) 
University of Oxford

>  <generation_date>  (695) 
2020-06-04

>  <method>  (695) 
Fragment network

>  <ref_mols>  (695) 
x0183_0B,x0212_0B

>  <ref_pdb>  (695) 
references/x0183-0B-x0212-0B-274473.holo_minimised_nolig.pdb

>  <original SMILES>  (695) 
CN(C)S(=O)(=O)c1cccc(NC(=O)NCc2ccccc2)c1

>  <synthon>  (695) 
[Xe]c1ccccc1

>  <original_name>  (695) 
x0183-0B-x0212-0B-274473

>  <comRMSD_score>  (695) 
0.5250412682193021

>  <IF_score>  (695) 
0.55

>  <SuCOS_score>  (695) 
0.5260685806275632

>  <compound_ID>  (695) 
REAL:Z134899958

$$$$

     RDKit          3D

 27 28  0  0  0  0  0  0  0  0999 V2000
   -7.1150    2.4770  -78.9190 C   0  0  0  0  0  0  0  0  0  0  0  0
   -8.0890    1.7230  -79.5710 C   0  0  0  0  0  0  0  0  0  0  0  0
   -8.1630    1.7330  -80.9540 C   0  0  0  0  0  0  0  0  0  0  0  0
   -9.0070    0.9510  -78.8310 C   0  0  0  0  0  0  0  0  0  0  0  0
   -9.1260    0.9680  -81.5720 C   0  0  0  0  0  0  0  0  0  0  0  0
  -10.0010    0.1870  -79.4550 C   0  0  0  0  0  0  0  0  0  0  0  0
  -10.0380    0.1940  -80.8510 C   0  0  0  0  0  0  0  0  0  0  0  0
  -10.8820   -0.5070  -78.8980 O   0  0  0  0  0  0  0  0  0  0  0  0
  -11.7380    0.0630  -77.8440 C   0  0  0  0  0  0  0  0  0  0  0  0
  -13.0210    0.5610  -78.2390 C   0  0  1  0  0  0  0  0  0  0  0  0
  -13.4510   -0.3360  -79.2990 O   0  0  0  0  0  0  0  0  0  0  0  0
  -13.9260    0.9620  -77.2280 C   0  0  0  0  0  0  0  0  0  0  0  0
  -14.4410    2.3780  -77.4220 N   0  0  0  0  0  0  0  0  0  0  0  0
  -14.6650    3.0860  -76.2400 C   0  0  0  0  0  0  0  0  0  0  0  0
  -15.2550    2.6700  -78.6330 C   0  0  0  0  0  0  0  0  0  0  0  0
  -14.9260    2.5060  -75.1840 O   0  0  0  0  0  0  0  0  0  0  0  0
  -14.6000    4.4670  -76.2950 N   0  0  0  0  0  0  0  0  0  0  0  0
  -14.8320    3.9760  -79.3250 C   0  0  0  0  0  0  0  0  0  0  0  0
  -15.5100    1.5090  -79.5970 C   0  0  0  0  0  0  0  0  0  0  0  0
  -13.6710    5.1250  -75.3850 C   0  0  0  0  0  0  0  0  0  0  0  0
  -12.6310    4.0940  -75.0910 C   0  0  0  0  0  0  0  0  0  0  0  0
  -11.5520    3.9890  -76.0520 C   0  0  0  0  0  0  0  0  0  0  0  0
  -11.6240    4.6340  -77.2890 C   0  0  0  0  0  0  0  0  0  0  0  0
  -10.4160    3.2270  -75.7390 C   0  0  0  0  0  0  0  0  0  0  0  0
  -10.5700    4.5130  -78.1900 C   0  0  0  0  0  0  0  0  0  0  0  0
   -9.3720    3.1140  -76.6380 C   0  0  0  0  0  0  0  0  0  0  0  0
   -9.4470    3.7590  -77.8670 C   0  0  0  0  0  0  0  0  0  0  0  0
  1  2  1  0
  2  3  2  0
  2  4  1  0
  3  5  1  0
  4  6  2  0
  5  7  2  0
  6  7  1  0
  6  8  1  0
  8  9  1  0
  9 10  1  0
 10 11  1  1
 10 12  1  0
 12 13  1  0
 13 14  1  0
 13 15  1  0
 14 16  2  0
 14 17  1  0
 15 18  1  0
 15 19  1  0
 17 20  1  0
 20 21  1  0
 21 22  1  0
 22 23  2  0
 22 24  1  0
 23 25  1  0
 24 26  2  0
 25 27  2  0
 26 27  1  0
M  END
>  <ref_url>  (696) 
https://fakepage.com

>  <submitter_name>  (696) 
Steph Wills

>  <submitter_email>  (696) 
stephanie.wills@dtc.ox.ac.uk

>  <submitter_institution>  (696) 
University of Oxford

>  <generation_date>  (696) 
2020-06-04

>  <method>  (696) 
Fragment network

>  <ref_mols>  (696) 
x0183_0B,x0212_0B

>  <ref_pdb>  (696) 
references/x0183-0B-x0212-0B-274789.holo_minimised_nolig.pdb

>  <original SMILES>  (696) 
Cc1cccc(OCC(O)CN(C(=O)NCCc2ccccc2)C(C)C)c1

>  <synthon>  (696) 
[Xe]c1ccccc1

>  <original_name>  (696) 
x0183-0B-x0212-0B-274789

>  <comRMSD_score>  (696) 
0.9471656243762232

>  <IF_score>  (696) 
0.5

>  <SuCOS_score>  (696) 
0.461751135268778

>  <compound_ID>  (696) 
REAL:PV-001952547901

$$$$

     RDKit          3D

 27 30  0  0  0  0  0  0  0  0999 V2000
   -9.1160    1.5820  -77.3670 O   0  0  0  0  0  0  0  0  0  0  0  0
   -8.0690    2.1590  -77.5270 C   0  0  0  0  0  0  0  0  0  0  0  0
   -7.9130    3.5360  -77.2480 C   0  0  0  0  0  0  0  0  0  0  0  0
   -7.0060    1.5380  -78.0590 N   0  0  0  0  0  0  0  0  0  0  0  0
   -8.7010    4.0970  -77.9350 O   0  0  0  0  0  0  0  0  0  0  0  0
   -6.6560    1.9300  -79.3120 C   0  0  0  0  0  0  0  0  0  0  0  0
   -9.8840    4.1010  -77.3590 C   0  0  0  0  0  0  0  0  0  0  0  0
   -7.6220    1.2240  -80.1560 C   0  0  0  0  0  0  0  0  0  0  0  0
  -10.1450    3.4610  -76.0880 C   0  0  0  0  0  0  0  0  0  0  0  0
  -10.8710    4.7650  -78.0160 C   0  0  0  0  0  0  0  0  0  0  0  0
   -8.1150    1.7600  -81.3480 C   0  0  0  0  0  0  0  0  0  0  0  0
   -8.0730   -0.0450  -79.7540 C   0  0  0  0  0  0  0  0  0  0  0  0
  -11.4140    3.5570  -75.5560 C   0  0  0  0  0  0  0  0  0  0  0  0
  -12.1190    4.8430  -77.4600 C   0  0  0  0  0  0  0  0  0  0  0  0
   -9.0280    1.0330  -82.1160 C   0  0  0  0  0  0  0  0  0  0  0  0
   -8.9810   -0.7470  -80.5280 C   0  0  0  0  0  0  0  0  0  0  0  0
  -12.4350    4.2540  -76.2200 C   0  0  0  0  0  0  0  0  0  0  0  0
   -9.4650   -0.2270  -81.7090 C   0  0  0  0  0  0  0  0  0  0  0  0
  -13.6960    4.3720  -75.7050 C   0  0  0  0  0  0  0  0  0  0  0  0
  -14.9000    3.7290  -76.0440 N   0  0  0  0  0  0  0  0  0  0  0  0
  -14.0050    5.2740  -74.6230 N   0  0  0  0  0  0  0  0  0  0  0  0
  -15.8470    4.2460  -75.2030 N   0  0  0  0  0  0  0  0  0  0  0  0
  -15.3300    5.1940  -74.3240 C   0  0  0  0  0  0  0  0  0  0  0  0
  -13.2070    6.1850  -73.8250 C   0  0  0  0  0  0  0  0  0  0  0  0
  -13.6440    5.7790  -72.4410 C   0  0  0  0  0  0  0  0  0  0  0  0
  -15.9530    6.0660  -73.1930 C   0  0  0  0  0  0  0  0  0  0  0  0
  -14.9690    6.5170  -72.2870 C   0  0  0  0  0  0  0  0  0  0  0  0
  1  2  2  0
  2  3  1  0
  2  4  1  0
  3  5  1  0
  4  6  1  0
  5  7  1  0
  6  8  1  0
  7  9  2  0
  7 10  1  0
  8 11  2  0
  8 12  1  0
  9 13  1  0
 10 14  2  0
 11 15  1  0
 12 16  2  0
 13 17  2  0
 14 17  1  0
 15 18  2  0
 16 18  1  0
 17 19  1  0
 19 20  2  0
 19 21  1  0
 20 22  1  0
 21 23  1  0
 22 23  2  0
 21 24  1  0
 24 25  1  0
 23 26  1  0
 25 27  1  0
 26 27  1  0
M  END
>  <ref_url>  (697) 
https://fakepage.com

>  <submitter_name>  (697) 
Steph Wills

>  <submitter_email>  (697) 
stephanie.wills@dtc.ox.ac.uk

>  <submitter_institution>  (697) 
University of Oxford

>  <generation_date>  (697) 
2020-06-04

>  <method>  (697) 
Fragment network

>  <ref_mols>  (697) 
x0183_0B,x0212_0B

>  <ref_pdb>  (697) 
references/x0183-0B-x0212-0B-274934.holo_minimised_nolig.pdb

>  <original SMILES>  (697) 
O=C(COc1ccc(-c2nnc3n2CCCC3)cc1)NCc1ccccc1

>  <synthon>  (697) 
[Xe]c1ccccc1

>  <original_name>  (697) 
x0183-0B-x0212-0B-274934

>  <comRMSD_score>  (697) 
0.9168151798885494

>  <IF_score>  (697) 
0.75

>  <SuCOS_score>  (697) 
0.492714892278615

>  <compound_ID>  (697) 
MOLPORT:039-021-807

$$$$

     RDKit          3D

 23 25  0  0  0  0  0  0  0  0999 V2000
  -11.7680    6.9640  -73.6480 O   0  0  0  0  0  0  0  0  0  0  0  0
  -12.6340    6.2830  -74.1840 C   0  0  0  0  0  0  0  0  0  0  0  0
  -12.9510    6.2210  -75.5090 C   0  0  0  0  0  0  0  0  0  0  0  0
  -13.4920    5.3910  -73.6790 N   0  0  0  0  0  0  0  0  0  0  0  0
  -13.1500    4.8840  -75.8830 C   0  0  2  0  0  0  0  0  0  0  0  0
  -13.4700    4.2810  -74.6360 C   0  0  0  0  0  0  0  0  0  0  0  0
  -12.0080    4.3890  -76.5270 C   0  0  0  0  0  0  0  0  0  0  0  0
  -11.7660    4.9200  -77.7950 C   0  0  0  0  0  0  0  0  0  0  0  0
  -11.0920    3.4230  -76.0180 C   0  0  0  0  0  0  0  0  0  0  0  0
  -10.5860    4.5210  -78.6490 C   0  0  0  0  0  0  0  0  0  0  0  0
   -9.9640    2.9980  -76.7630 C   0  0  0  0  0  0  0  0  0  0  0  0
   -9.6900    3.5020  -78.0260 C   0  0  0  0  0  0  0  0  0  0  0  0
   -9.1040    2.0470  -76.2190 N   0  0  0  0  0  0  0  0  0  0  0  0
   -7.9440    1.6200  -76.8340 C   0  0  0  0  0  0  0  0  0  0  0  0
   -7.4610    0.5090  -76.6590 O   0  0  0  0  0  0  0  0  0  0  0  0
   -7.2890    2.5690  -77.7240 N   0  0  0  0  0  0  0  0  0  0  0  0
   -6.8940    2.3070  -79.0310 C   0  0  0  0  0  0  0  0  0  0  0  0
   -7.7160    1.4980  -79.8300 C   0  0  0  0  0  0  0  0  0  0  0  0
   -8.1440    1.9700  -81.2010 C   0  0  0  0  0  0  0  0  0  0  0  0
   -8.1630    0.2400  -79.4160 C   0  0  0  0  0  0  0  0  0  0  0  0
   -8.9750    1.1140  -82.0060 C   0  0  0  0  0  0  0  0  0  0  0  0
   -8.9740   -0.5510  -80.2390 C   0  0  0  0  0  0  0  0  0  0  0  0
   -9.3730   -0.1250  -81.5130 C   0  0  0  0  0  0  0  0  0  0  0  0
  1  2  2  0
  2  3  1  0
  2  4  1  0
  3  5  1  0
  4  6  1  0
  5  6  1  0
  5  7  1  1
  7  8  2  0
  7  9  1  0
  8 10  1  0
  9 11  2  0
 10 12  2  0
 11 12  1  0
 11 13  1  0
 13 14  1  0
 14 15  2  0
 14 16  1  0
 16 17  1  0
 17 18  1  0
 18 19  2  0
 18 20  1  0
 19 21  1  0
 20 22  2  0
 21 23  2  0
 22 23  1  0
M  END
>  <ref_url>  (698) 
https://fakepage.com

>  <submitter_name>  (698) 
Steph Wills

>  <submitter_email>  (698) 
stephanie.wills@dtc.ox.ac.uk

>  <submitter_institution>  (698) 
University of Oxford

>  <generation_date>  (698) 
2020-06-04

>  <method>  (698) 
Fragment network

>  <ref_mols>  (698) 
x0183_0B,x0212_0B

>  <ref_pdb>  (698) 
references/x0183-0B-x0212-0B-277702.holo_minimised_nolig.pdb

>  <original SMILES>  (698) 
O=C1CC(c2cccc(NC(=O)NCc3ccccc3)c2)CN1

>  <synthon>  (698) 
[Xe]c1ccccc1

>  <original_name>  (698) 
x0183-0B-x0212-0B-277702

>  <comRMSD_score>  (698) 
0.8430220820175659

>  <IF_score>  (698) 
0.675

>  <SuCOS_score>  (698) 
0.5701812100781094

>  <compound_ID>  (698) 
REAL:Z1472564222

$$$$

     RDKit          3D

 22 23  0  0  0  0  0  0  0  0999 V2000
  -12.8400    6.4210  -73.6560 C   0  0  0  0  0  0  0  0  0  0  0  0
  -13.4730    5.8810  -74.8960 C   0  0  0  0  0  0  0  0  0  0  0  0
  -13.2950    4.0740  -74.9920 S   0  0  0  0  0  0  0  0  0  0  0  0
  -14.4280    3.5260  -75.7060 O   0  0  0  0  0  0  0  0  0  0  0  0
  -12.8730    3.5820  -73.7010 O   0  0  0  0  0  0  0  0  0  0  0  0
  -11.9310    4.0360  -76.1110 C   0  0  0  0  0  0  0  0  0  0  0  0
  -12.0370    4.5670  -77.3810 C   0  0  0  0  0  0  0  0  0  0  0  0
  -10.7170    3.4660  -75.7330 C   0  0  0  0  0  0  0  0  0  0  0  0
  -11.0160    4.5690  -78.3040 C   0  0  0  0  0  0  0  0  0  0  0  0
   -9.6770    3.4680  -76.6600 C   0  0  0  0  0  0  0  0  0  0  0  0
   -9.8100    4.0100  -77.9390 C   0  0  0  0  0  0  0  0  0  0  0  0
   -8.4550    2.9150  -76.3230 N   0  0  0  0  0  0  0  0  0  0  0  0
   -7.9660    1.8300  -76.9740 C   0  0  0  0  0  0  0  0  0  0  0  0
   -8.4980    0.7360  -76.8150 O   0  0  0  0  0  0  0  0  0  0  0  0
   -6.8070    2.0030  -77.8550 N   0  0  0  0  0  0  0  0  0  0  0  0
   -7.1280    2.6170  -79.1540 C   0  0  0  0  0  0  0  0  0  0  0  0
   -7.7980    1.6710  -79.9300 C   0  0  0  0  0  0  0  0  0  0  0  0
   -8.0530    0.4060  -79.4230 C   0  0  0  0  0  0  0  0  0  0  0  0
   -8.2260    1.9780  -81.2410 C   0  0  0  0  0  0  0  0  0  0  0  0
   -8.7690   -0.6260  -80.2400 C   0  0  0  0  0  0  0  0  0  0  0  0
   -8.8990    1.0590  -82.0630 C   0  0  0  0  0  0  0  0  0  0  0  0
   -9.1930   -0.2290  -81.6280 C   0  0  0  0  0  0  0  0  0  0  0  0
  1  2  1  0
  3  2  1  0
  3  4  2  0
  3  5  2  0
  3  6  1  0
  6  7  2  0
  6  8  1  0
  7  9  1  0
  8 10  2  0
  9 11  2  0
 10 11  1  0
 10 12  1  0
 12 13  1  0
 13 14  2  0
 13 15  1  0
 15 16  1  0
 16 17  1  0
 17 18  2  0
 17 19  1  0
 18 20  1  0
 19 21  2  0
 20 22  2  0
 21 22  1  0
M  END
>  <ref_url>  (699) 
https://fakepage.com

>  <submitter_name>  (699) 
Steph Wills

>  <submitter_email>  (699) 
stephanie.wills@dtc.ox.ac.uk

>  <submitter_institution>  (699) 
University of Oxford

>  <generation_date>  (699) 
2020-06-04

>  <method>  (699) 
Fragment network

>  <ref_mols>  (699) 
x0183_0B,x0212_0B

>  <ref_pdb>  (699) 
references/x0183-0B-x0212-0B-278192.holo_minimised_nolig.pdb

>  <original SMILES>  (699) 
CCS(=O)(=O)c1cccc(NC(=O)NCc2ccccc2)c1

>  <synthon>  (699) 
[Xe]c1ccccc1

>  <original_name>  (699) 
x0183-0B-x0212-0B-278192

>  <comRMSD_score>  (699) 
0.5303762466051453

>  <IF_score>  (699) 
0.55

>  <SuCOS_score>  (699) 
0.5472171056564603

>  <compound_ID>  (699) 
REAL:Z1229271465

$$$$

     RDKit          3D

 23 24  0  0  0  0  0  0  0  0999 V2000
  -12.7300    1.0130  -76.2130 C   0  0  0  0  0  0  0  0  0  0  0  0
  -13.9630    1.6210  -76.0450 N   0  0  0  0  0  0  0  0  0  0  0  0
  -13.8710    2.9380  -75.3840 C   0  0  0  0  0  0  0  0  0  0  0  0
  -14.8280    3.6220  -75.0390 O   0  0  0  0  0  0  0  0  0  0  0  0
  -12.6820    3.5040  -75.0880 C   0  0  0  0  0  0  0  0  0  0  0  0
  -11.6370    3.7200  -76.0890 C   0  0  0  0  0  0  0  0  0  0  0  0
  -11.8790    4.7740  -76.9590 C   0  0  0  0  0  0  0  0  0  0  0  0
  -10.4220    2.9970  -76.2830 C   0  0  0  0  0  0  0  0  0  0  0  0
  -10.9740    5.0770  -77.9540 C   0  0  0  0  0  0  0  0  0  0  0  0
   -9.5550    3.3330  -77.2860 C   0  0  0  0  0  0  0  0  0  0  0  0
   -9.8490    1.9240  -75.6250 N   0  0  0  0  0  0  0  0  0  0  0  0
   -9.8130    4.3480  -78.1160 C   0  0  0  0  0  0  0  0  0  0  0  0
   -8.4270    1.9150  -76.0370 C   0  0  0  0  0  0  0  0  0  0  0  0
   -7.6720    2.8410  -75.7410 O   0  0  0  0  0  0  0  0  0  0  0  0
   -7.9960    0.7760  -76.8860 N   0  0  0  0  0  0  0  0  0  0  0  0
   -6.8400    0.9320  -77.7710 C   0  0  0  0  0  0  0  0  0  0  0  0
   -7.1040    1.8270  -78.8250 C   0  0  0  0  0  0  0  0  0  0  0  0
   -7.9870    1.2790  -79.7590 C   0  0  0  0  0  0  0  0  0  0  0  0
   -8.6150    0.0820  -79.4150 C   0  0  0  0  0  0  0  0  0  0  0  0
   -8.2500    1.8900  -81.0060 C   0  0  0  0  0  0  0  0  0  0  0  0
   -9.4970   -0.5120  -80.2870 C   0  0  0  0  0  0  0  0  0  0  0  0
   -9.1460    1.2960  -81.9110 C   0  0  0  0  0  0  0  0  0  0  0  0
   -9.7810    0.1040  -81.5750 C   0  0  0  0  0  0  0  0  0  0  0  0
  1  2  1  0
  2  3  1  0
  3  4  2  0
  3  5  1  0
  5  6  1  0
  6  7  2  0
  6  8  1  0
  7  9  1  0
  8 10  2  0
  8 11  1  0
  9 12  2  0
 10 12  1  0
 11 13  1  0
 13 14  2  0
 13 15  1  0
 15 16  1  0
 16 17  1  0
 17 18  1  0
 18 19  2  0
 18 20  1  0
 19 21  1  0
 20 22  2  0
 21 23  2  0
 22 23  1  0
M  END
>  <ref_url>  (700) 
https://fakepage.com

>  <submitter_name>  (700) 
Steph Wills

>  <submitter_email>  (700) 
stephanie.wills@dtc.ox.ac.uk

>  <submitter_institution>  (700) 
University of Oxford

>  <generation_date>  (700) 
2020-06-04

>  <method>  (700) 
Fragment network

>  <ref_mols>  (700) 
x0183_0B,x0212_0B

>  <ref_pdb>  (700) 
references/x0183-0B-x0212-0B-278989.holo_minimised_nolig.pdb

>  <original SMILES>  (700) 
CNC(=O)Cc1ccccc1NC(=O)NCCc1ccccc1

>  <synthon>  (700) 
[Xe]c1ccccc1

>  <original_name>  (700) 
x0183-0B-x0212-0B-278989

>  <comRMSD_score>  (700) 
0.8052130152947108

>  <IF_score>  (700) 
0.4166666666666666

>  <SuCOS_score>  (700) 
0.4628223186366536

>  <compound_ID>  (700) 
MOLPORT:009-052-682, REAL:Z413214478

$$$$

     RDKit          3D

 24 25  0  0  0  0  0  0  0  0999 V2000
   -7.0430    2.5040  -79.0170 C   0  0  0  0  0  0  0  0  0  0  0  0
   -7.9630    1.7630  -79.6440 C   0  0  0  0  0  0  0  0  0  0  0  0
   -8.1800    1.7990  -81.1130 C   0  0  0  0  0  0  0  0  0  0  0  0
   -8.7580    0.9260  -78.8580 C   0  0  0  0  0  0  0  0  0  0  0  0
   -9.2390    0.9050  -81.6040 C   0  0  0  0  0  0  0  0  0  0  0  0
   -9.7660    0.1070  -79.3850 C   0  0  0  0  0  0  0  0  0  0  0  0
   -9.9880    0.0990  -80.7600 C   0  0  0  0  0  0  0  0  0  0  0  0
  -10.4850   -0.6460  -78.3820 O   0  0  0  0  0  0  0  0  0  0  0  0
  -10.7630    0.1270  -77.1780 C   0  0  0  0  0  0  0  0  0  0  0  0
  -12.1090    0.4230  -77.0370 C   0  0  2  0  0  0  0  0  0  0  0  0
  -12.6840   -0.6650  -76.9640 O   0  0  0  0  0  0  0  0  0  0  0  0
  -12.7470    1.4580  -77.9880 C   0  0  0  0  0  0  0  0  0  0  0  0
  -13.4680    2.6010  -77.6510 N   0  0  0  0  0  0  0  0  0  0  0  0
  -14.0480    3.8220  -77.7790 C   0  0  0  0  0  0  0  0  0  0  0  0
  -14.1550    4.4900  -79.0420 O   0  0  0  0  0  0  0  0  0  0  0  0
  -14.5580    4.4080  -76.5460 N   0  0  0  0  0  0  0  0  0  0  0  0
  -13.7280    4.7980  -75.5160 C   0  0  0  0  0  0  0  0  0  0  0  0
  -12.7750    3.8150  -75.3400 C   0  0  0  0  0  0  0  0  0  0  0  0
  -11.6320    3.8200  -76.1420 C   0  0  0  0  0  0  0  0  0  0  0  0
  -11.6090    4.5200  -77.3500 C   0  0  0  0  0  0  0  0  0  0  0  0
  -10.4890    3.1100  -75.7420 C   0  0  0  0  0  0  0  0  0  0  0  0
  -10.4690    4.4980  -78.1320 C   0  0  0  0  0  0  0  0  0  0  0  0
   -9.3370    3.0800  -76.5110 C   0  0  0  0  0  0  0  0  0  0  0  0
   -9.3500    3.7870  -77.7180 C   0  0  0  0  0  0  0  0  0  0  0  0
  1  2  1  0
  2  3  2  0
  2  4  1  0
  3  5  1  0
  4  6  2  0
  5  7  2  0
  6  7  1  0
  6  8  1  0
  8  9  1  0
  9 10  1  0
 10 11  1  6
 10 12  1  0
 12 13  1  0
 13 14  1  0
 14 15  2  0
 14 16  1  0
 16 17  1  0
 17 18  1  0
 18 19  1  0
 19 20  2  0
 19 21  1  0
 20 22  1  0
 21 23  2  0
 22 24  2  0
 23 24  1  0
M  END
>  <ref_url>  (701) 
https://fakepage.com

>  <submitter_name>  (701) 
Steph Wills

>  <submitter_email>  (701) 
stephanie.wills@dtc.ox.ac.uk

>  <submitter_institution>  (701) 
University of Oxford

>  <generation_date>  (701) 
2020-06-04

>  <method>  (701) 
Fragment network

>  <ref_mols>  (701) 
x0183_0B,x0212_0B

>  <ref_pdb>  (701) 
references/x0183-0B-x0212-0B-279190.holo_minimised_nolig.pdb

>  <original SMILES>  (701) 
Cc1cccc(OCC(O)CNC(=O)NCCc2ccccc2)c1

>  <synthon>  (701) 
[Xe]c1ccccc1

>  <original_name>  (701) 
x0183-0B-x0212-0B-279190

>  <comRMSD_score>  (701) 
0.921576751189684

>  <IF_score>  (701) 
0.45

>  <SuCOS_score>  (701) 
0.4541448510451304

>  <compound_ID>  (701) 
REAL:Z819787124

$$$$

     RDKit          3D

 25 26  0  0  0  0  0  0  0  0999 V2000
  -12.8170    6.2060  -73.6550 C   0  0  0  0  0  0  0  0  0  0  0  0
  -12.9450    4.8010  -73.8830 O   0  0  0  0  0  0  0  0  0  0  0  0
  -13.2790    4.3220  -75.1940 C   0  0  0  0  0  0  0  0  0  0  0  0
  -14.5750    3.9060  -75.6130 O   0  0  0  0  0  0  0  0  0  0  0  0
  -12.1900    4.2520  -76.0600 C   0  0  0  0  0  0  0  0  0  0  0  0
  -12.3730    4.7350  -77.3460 C   0  0  0  0  0  0  0  0  0  0  0  0
  -10.9440    3.7150  -75.6890 C   0  0  0  0  0  0  0  0  0  0  0  0
  -11.3390    4.6810  -78.2530 C   0  0  0  0  0  0  0  0  0  0  0  0
   -9.8670    3.6530  -76.6020 C   0  0  0  0  0  0  0  0  0  0  0  0
   -9.9980    4.1160  -77.9060 C   0  0  0  0  0  0  0  0  0  0  0  0
   -9.0680    4.1390  -78.9520 N   0  0  0  0  0  0  0  0  0  0  0  0
   -7.7560    3.7710  -78.9790 C   0  0  0  0  0  0  0  0  0  0  0  0
   -6.8810    4.2900  -79.6740 O   0  0  0  0  0  0  0  0  0  0  0  0
   -7.4470    2.7050  -78.1860 N   0  0  0  0  0  0  0  0  0  0  0  0
   -6.8900    1.5400  -78.8240 C   0  0  0  0  0  0  0  0  0  0  0  0
   -8.1180    2.5640  -76.8880 C   0  0  0  0  0  0  0  0  0  0  0  0
   -7.7390    1.0050  -79.7860 C   0  0  0  0  0  0  0  0  0  0  0  0
   -9.2290    1.7040  -76.9540 C   0  0  0  0  0  0  0  0  0  0  0  0
   -8.2850   -0.2450  -79.5100 C   0  0  0  0  0  0  0  0  0  0  0  0
   -8.0640    1.6680  -81.0140 C   0  0  0  0  0  0  0  0  0  0  0  0
  -10.4410    2.1250  -76.4000 C   0  0  0  0  0  0  0  0  0  0  0  0
   -8.8360    0.4230  -76.2080 C   0  0  0  0  0  0  0  0  0  0  0  0
   -9.1290   -0.8640  -80.3930 C   0  0  0  0  0  0  0  0  0  0  0  0
   -8.9200    1.0690  -81.9470 C   0  0  0  0  0  0  0  0  0  0  0  0
   -9.4670   -0.1810  -81.6760 C   0  0  0  0  0  0  0  0  0  0  0  0
  1  2  1  0
  2  3  1  0
  3  4  2  0
  3  5  1  0
  5  6  2  0
  5  7  1  0
  6  8  1  0
  7  9  2  0
  8 10  2  0
  9 10  1  0
 10 11  1  0
 11 12  1  0
 12 13  2  0
 12 14  1  0
 14 15  1  0
 14 16  1  0
 15 17  1  0
 16 18  1  0
 17 19  2  0
 17 20  1  0
 18 21  1  0
 18 22  1  0
 19 23  1  0
 20 24  2  0
 23 25  2  0
 24 25  1  0
M  END
>  <ref_url>  (702) 
https://fakepage.com

>  <submitter_name>  (702) 
Steph Wills

>  <submitter_email>  (702) 
stephanie.wills@dtc.ox.ac.uk

>  <submitter_institution>  (702) 
University of Oxford

>  <generation_date>  (702) 
2020-06-04

>  <method>  (702) 
Fragment network

>  <ref_mols>  (702) 
x0183_0B,x0212_0B

>  <ref_pdb>  (702) 
references/x0183-0B-x0212-0B-279198.holo_minimised_nolig.pdb

>  <original SMILES>  (702) 
COC(=O)c1ccc(NC(=O)N(Cc2ccccc2)CC(C)C)cc1

>  <synthon>  (702) 
[Xe]c1ccccc1

>  <original_name>  (702) 
x0183-0B-x0212-0B-279198

>  <comRMSD_score>  (702) 
0.8065262504051508

>  <IF_score>  (702) 
0.55

>  <SuCOS_score>  (702) 
0.512108904226614

>  <compound_ID>  (702) 
REAL:Z939910662

$$$$

     RDKit          3D

 22 23  0  0  0  0  0  0  0  0999 V2000
  -12.8370    6.3340  -73.7330 C   0  0  0  0  0  0  0  0  0  0  0  0
  -13.4530    5.9330  -74.9630 O   0  0  0  0  0  0  0  0  0  0  0  0
  -13.3380    4.6320  -75.3970 C   0  0  0  0  0  0  0  0  0  0  0  0
  -14.4390    3.7390  -75.3480 O   0  0  0  0  0  0  0  0  0  0  0  0
  -12.0710    4.0910  -75.9530 C   0  0  0  0  0  0  0  0  0  0  0  0
  -11.7750    4.6160  -77.3030 C   0  0  0  0  0  0  0  0  0  0  0  0
  -11.2260    3.2000  -75.3350 C   0  0  0  0  0  0  0  0  0  0  0  0
  -10.6130    4.1690  -77.9210 C   0  0  0  0  0  0  0  0  0  0  0  0
  -10.1030    2.8000  -75.9910 C   0  0  0  0  0  0  0  0  0  0  0  0
   -9.7790    3.2540  -77.2540 C   0  0  0  0  0  0  0  0  0  0  0  0
   -8.6350    2.7290  -77.7060 O   0  0  0  0  0  0  0  0  0  0  0  0
   -7.7610    3.7020  -78.2130 C   0  0  0  0  0  0  0  0  0  0  0  0
   -6.5310    3.7870  -77.6120 C   0  0  0  0  0  0  0  0  0  0  0  0
   -5.3210    3.6870  -78.5400 C   0  0  0  0  0  0  0  0  0  0  0  0
   -5.6090    2.6970  -79.5230 O   0  0  0  0  0  0  0  0  0  0  0  0
   -6.5890    1.8180  -79.1600 C   0  0  0  0  0  0  0  0  0  0  0  0
   -7.6200    1.1680  -80.0550 C   0  0  0  0  0  0  0  0  0  0  0  0
   -8.1280   -0.0730  -79.6570 C   0  0  0  0  0  0  0  0  0  0  0  0
   -8.0700    1.7530  -81.2390 C   0  0  0  0  0  0  0  0  0  0  0  0
   -9.0700   -0.7320  -80.4240 C   0  0  0  0  0  0  0  0  0  0  0  0
   -9.0090    1.0830  -81.9990 C   0  0  0  0  0  0  0  0  0  0  0  0
   -9.5100   -0.1550  -81.5980 C   0  0  0  0  0  0  0  0  0  0  0  0
  1  2  1  0
  2  3  1  0
  3  4  2  0
  3  5  1  0
  5  6  2  0
  5  7  1  0
  6  8  1  0
  7  9  2  0
  8 10  2  0
  9 10  1  0
 10 11  1  0
 11 12  1  0
 12 13  1  0
 13 14  1  0
 14 15  1  0
 15 16  1  0
 16 17  1  0
 17 18  2  0
 17 19  1  0
 18 20  1  0
 19 21  2  0
 20 22  2  0
 21 22  1  0
M  END
>  <ref_url>  (703) 
https://fakepage.com

>  <submitter_name>  (703) 
Steph Wills

>  <submitter_email>  (703) 
stephanie.wills@dtc.ox.ac.uk

>  <submitter_institution>  (703) 
University of Oxford

>  <generation_date>  (703) 
2020-06-04

>  <method>  (703) 
Fragment network

>  <ref_mols>  (703) 
x0183_0B,x0212_0B

>  <ref_pdb>  (703) 
references/x0183-0B-x0212-0B-282449.holo_minimised_nolig.pdb

>  <original SMILES>  (703) 
COC(=O)c1ccc(OCCCOCc2ccccc2)cc1

>  <synthon>  (703) 
[Xe]c1ccccc1

>  <original_name>  (703) 
x0183-0B-x0212-0B-282449

>  <comRMSD_score>  (703) 
0.5955836539806042

>  <IF_score>  (703) 
0.55

>  <SuCOS_score>  (703) 
0.4714777718039552

>  <compound_ID>  (703) 
CHEMSPACE-BB:CSMB00013374838

$$$$

     RDKit          3D

 21 22  0  0  0  0  0  0  0  0999 V2000
  -12.8270    6.3660  -73.8870 C   0  0  0  0  0  0  0  0  0  0  0  0
  -13.2410    5.8840  -75.2180 N   0  0  0  0  0  0  0  0  0  0  0  0
  -13.2930    4.4360  -75.4450 C   0  0  1  0  0  0  0  0  0  0  0  0
  -14.4030    4.0020  -76.4030 C   0  0  0  0  0  0  0  0  0  0  0  0
  -11.9810    3.8190  -75.9250 C   0  0  0  0  0  0  0  0  0  0  0  0
  -11.6480    2.5830  -75.4030 C   0  0  0  0  0  0  0  0  0  0  0  0
  -11.0700    4.3960  -76.8470 C   0  0  0  0  0  0  0  0  0  0  0  0
  -10.5080    1.9150  -75.7280 C   0  0  0  0  0  0  0  0  0  0  0  0
   -9.8790    3.6700  -77.1530 C   0  0  0  0  0  0  0  0  0  0  0  0
   -9.6230    2.4430  -76.5940 C   0  0  0  0  0  0  0  0  0  0  0  0
   -8.8730    4.0900  -77.9810 N   0  0  0  0  0  0  0  0  0  0  0  0
   -7.5910    3.6950  -77.6010 C   0  0  0  0  0  0  0  0  0  0  0  0
   -6.8010    4.2160  -76.8160 O   0  0  0  0  0  0  0  0  0  0  0  0
   -7.1950    2.5280  -78.1470 N   0  0  0  0  0  0  0  0  0  0  0  0
   -6.7840    2.3420  -79.4510 C   0  0  0  0  0  0  0  0  0  0  0  0
   -7.7290    1.4170  -80.1690 C   0  0  0  0  0  0  0  0  0  0  0  0
   -8.0800    0.0730  -79.5390 C   0  0  0  0  0  0  0  0  0  0  0  0
   -8.2630    1.8050  -81.3830 C   0  0  0  0  0  0  0  0  0  0  0  0
   -9.0310   -0.7620  -80.3410 C   0  0  0  0  0  0  0  0  0  0  0  0
   -9.1350    0.9650  -82.0520 C   0  0  0  0  0  0  0  0  0  0  0  0
   -9.5110   -0.2820  -81.5510 C   0  0  0  0  0  0  0  0  0  0  0  0
  1  2  1  0
  2  3  1  0
  3  4  1  6
  3  5  1  0
  5  6  2  0
  5  7  1  0
  6  8  1  0
  7  9  2  0
  8 10  2  0
  9 10  1  0
  9 11  1  0
 11 12  1  0
 12 13  2  0
 12 14  1  0
 14 15  1  0
 15 16  1  0
 16 17  2  0
 16 18  1  0
 17 19  1  0
 18 20  2  0
 19 21  2  0
 20 21  1  0
M  END
>  <ref_url>  (704) 
https://fakepage.com

>  <submitter_name>  (704) 
Steph Wills

>  <submitter_email>  (704) 
stephanie.wills@dtc.ox.ac.uk

>  <submitter_institution>  (704) 
University of Oxford

>  <generation_date>  (704) 
2020-06-04

>  <method>  (704) 
Fragment network

>  <ref_mols>  (704) 
x0183_0B,x0212_0B

>  <ref_pdb>  (704) 
references/x0183-0B-x0212-0B-283172.holo_minimised_nolig.pdb

>  <original SMILES>  (704) 
CNC(C)c1cccc(NC(=O)NCc2ccccc2)c1

>  <synthon>  (704) 
[Xe]c1ccccc1

>  <original_name>  (704) 
x0183-0B-x0212-0B-283172

>  <comRMSD_score>  (704) 
0.9845813172970376

>  <IF_score>  (704) 
0.425

>  <SuCOS_score>  (704) 
0.4830022487087843

>  <compound_ID>  (704) 
CHEMSPACE-BB:CSMB00011458249

$$$$

     RDKit          3D

 22 24  0  0  0  0  0  0  0  0999 V2000
   -5.5950    4.5150  -77.7580 O   0  0  0  0  0  0  0  0  0  0  0  0
   -6.5300    3.8130  -78.1320 C   0  0  0  0  0  0  0  0  0  0  0  0
   -7.7120    3.5520  -77.4430 N   0  0  0  0  0  0  0  0  0  0  0  0
   -6.6180    3.1250  -79.2760 O   0  0  0  0  0  0  0  0  0  0  0  0
   -8.8400    4.0660  -77.9800 N   0  0  0  0  0  0  0  0  0  0  0  0
   -7.2690    1.9890  -78.9480 C   0  0  0  0  0  0  0  0  0  0  0  0
   -9.9640    3.9550  -77.3400 C   0  0  0  0  0  0  0  0  0  0  0  0
   -7.9880    1.3070  -79.8970 C   0  0  0  0  0  0  0  0  0  0  0  0
  -10.1060    3.3590  -76.1610 C   0  0  0  0  0  0  0  0  0  0  0  0
  -11.2140    4.5670  -77.9670 C   0  0  0  0  0  0  0  0  0  0  0  0
   -8.2740    1.8170  -81.1640 C   0  0  0  0  0  0  0  0  0  0  0  0
   -8.4530    0.0320  -79.5480 C   0  0  0  0  0  0  0  0  0  0  0  0
  -11.4450    3.3240  -75.5510 C   0  0  0  0  0  0  0  0  0  0  0  0
  -12.0390    5.2580  -77.0850 C   0  0  0  0  0  0  0  0  0  0  0  0
   -9.0120    1.1070  -82.0830 C   0  0  0  0  0  0  0  0  0  0  0  0
   -9.1970   -0.7110  -80.4520 C   0  0  0  0  0  0  0  0  0  0  0  0
  -12.1780    4.5360  -75.7110 C   0  0  0  0  0  0  0  0  0  0  0  0
   -9.4500   -0.1470  -81.6880 C   0  0  0  0  0  0  0  0  0  0  0  0
  -13.5590    4.4250  -75.5180 C   0  0  0  0  0  0  0  0  0  0  0  0
  -11.8360    5.3880  -74.8230 O   0  0  0  0  0  0  0  0  0  0  0  0
  -13.9820    5.2970  -74.5290 C   0  0  0  0  0  0  0  0  0  0  0  0
  -12.8920    6.0390  -74.1190 C   0  0  0  0  0  0  0  0  0  0  0  0
  1  2  2  0
  2  3  1  0
  2  4  1  0
  3  5  1  0
  4  6  1  0
  5  7  2  3
  6  8  1  0
  7  9  1  0
  7 10  1  0
  8 11  2  0
  8 12  1  0
  9 13  1  0
 10 14  1  0
 11 15  1  0
 12 16  2  0
 13 17  1  0
 14 17  1  0
 15 18  2  0
 16 18  1  0
 17 19  1  0
 17 20  1  0
 19 21  1  0
 20 22  1  0
 21 22  1  0
M  END
>  <ref_url>  (705) 
https://fakepage.com

>  <submitter_name>  (705) 
Steph Wills

>  <submitter_email>  (705) 
stephanie.wills@dtc.ox.ac.uk

>  <submitter_institution>  (705) 
University of Oxford

>  <generation_date>  (705) 
2020-06-04

>  <method>  (705) 
Fragment network

>  <ref_mols>  (705) 
x0183_0B,x0212_0B

>  <ref_pdb>  (705) 
references/x0183-0B-x0212-0B-287026.holo_minimised_nolig.pdb

>  <original SMILES>  (705) 
O=C(NN=C1CCC2(CCCO2)CC1)OCc1ccccc1

>  <synthon>  (705) 
[Xe]c1ccccc1

>  <original_name>  (705) 
x0183-0B-x0212-0B-287026

>  <comRMSD_score>  (705) 
0.9455299709294908

>  <IF_score>  (705) 
0.55

>  <SuCOS_score>  (705) 
0.4270352936783169

>  <compound_ID>  (705) 
CHEMSPACE-BB:CSMB00114011526

$$$$

     RDKit          3D

 26 27  0  0  0  0  0  0  0  0999 V2000
  -12.3710    3.0880  -70.9500 C   0  0  0  0  0  0  0  0  0  0  0  0
  -13.4480    3.0960  -71.8730 O   0  0  0  0  0  0  0  0  0  0  0  0
  -13.0880    3.7680  -73.0780 C   0  0  0  0  0  0  0  0  0  0  0  0
  -13.2310    5.1430  -72.9090 C   0  0  0  0  0  0  0  0  0  0  0  0
  -12.9220    6.0630  -73.9170 C   0  0  0  0  0  0  0  0  0  0  0  0
  -13.7820    5.9210  -75.1000 N   0  0  0  0  0  0  0  0  0  0  0  0
  -13.9260    4.5360  -76.0420 S   0  0  0  0  0  0  0  0  0  0  0  0
  -14.5580    4.9400  -77.2840 O   0  0  0  0  0  0  0  0  0  0  0  0
  -14.4620    3.4380  -75.2720 O   0  0  0  0  0  0  0  0  0  0  0  0
  -12.2490    4.1750  -76.4360 C   0  0  0  0  0  0  0  0  0  0  0  0
  -11.4350    3.3180  -75.4890 C   0  0  0  0  0  0  0  0  0  0  0  0
  -11.7040    4.6880  -77.6150 C   0  0  0  0  0  0  0  0  0  0  0  0
  -10.0270    3.0900  -75.9180 C   0  0  0  0  0  0  0  0  0  0  0  0
  -10.3730    4.4220  -77.9440 C   0  0  0  0  0  0  0  0  0  0  0  0
   -9.5840    3.6430  -77.0860 C   0  0  0  0  0  0  0  0  0  0  0  0
   -8.2910    3.3600  -77.3120 N   0  0  0  0  0  0  0  0  0  0  0  0
   -7.8620    3.0370  -78.6200 C   0  0  0  0  0  0  0  0  0  0  0  0
   -8.3730    3.3360  -79.6930 O   0  0  0  0  0  0  0  0  0  0  0  0
   -6.7210    2.2810  -78.5170 C   0  0  0  0  0  0  0  0  0  0  0  0
   -6.3470    1.7160  -79.6910 C   0  0  0  0  0  0  0  0  0  0  0  0
   -7.4980    1.0470  -80.3610 C   0  0  0  0  0  0  0  0  0  0  0  0
   -8.1640    1.6470  -81.4880 C   0  0  0  0  0  0  0  0  0  0  0  0
   -7.9470   -0.1940  -79.8790 C   0  0  0  0  0  0  0  0  0  0  0  0
   -9.2090    0.9650  -82.0530 C   0  0  0  0  0  0  0  0  0  0  0  0
   -9.0140   -0.8480  -80.4820 C   0  0  0  0  0  0  0  0  0  0  0  0
   -9.6430   -0.2700  -81.5700 C   0  0  0  0  0  0  0  0  0  0  0  0
  1  2  1  0
  2  3  1  0
  3  4  1  0
  4  5  1  0
  5  6  1  0
  7  6  1  0
  7  8  2  0
  7  9  2  0
  7 10  1  0
 10 11  2  0
 10 12  1  0
 11 13  1  0
 12 14  2  0
 13 15  2  0
 14 15  1  0
 15 16  1  0
 16 17  1  0
 17 18  2  0
 17 19  1  0
 19 20  1  0
 20 21  1  0
 21 22  2  0
 21 23  1  0
 22 24  1  0
 23 25  2  0
 24 26  2  0
 25 26  1  0
M  END
>  <ref_url>  (706) 
https://fakepage.com

>  <submitter_name>  (706) 
Steph Wills

>  <submitter_email>  (706) 
stephanie.wills@dtc.ox.ac.uk

>  <submitter_institution>  (706) 
University of Oxford

>  <generation_date>  (706) 
2020-06-04

>  <method>  (706) 
Fragment network

>  <ref_mols>  (706) 
x0183_0B,x0212_0B

>  <ref_pdb>  (706) 
references/x0183-0B-x0212-0B-287159.holo_minimised_nolig.pdb

>  <original SMILES>  (706) 
COCCCNS(=O)(=O)c1ccc(NC(=O)CCc2ccccc2)cc1

>  <synthon>  (706) 
[Xe]c1ccccc1

>  <original_name>  (706) 
x0183-0B-x0212-0B-287159

>  <comRMSD_score>  (706) 
0.768999397967302

>  <IF_score>  (706) 
0.55

>  <SuCOS_score>  (706) 
0.4892864181093336

>  <compound_ID>  (706) 
MOLPORT:002-788-250

$$$$

     RDKit          3D

 26 27  0  0  0  0  0  0  0  0999 V2000
  -12.9260    6.4900  -73.6750 C   0  0  0  0  0  0  0  0  0  0  0  0
  -13.5700    6.0240  -74.9020 N   0  0  0  0  0  0  0  0  0  0  0  0
  -13.3840    6.9200  -76.0440 C   0  0  0  0  0  0  0  0  0  0  0  0
  -13.6790    4.3640  -74.9730 S   0  0  0  0  0  0  0  0  0  0  0  0
  -13.4660    3.8060  -73.6550 O   0  0  0  0  0  0  0  0  0  0  0  0
  -14.8260    3.9980  -75.7720 O   0  0  0  0  0  0  0  0  0  0  0  0
  -12.2780    4.0660  -75.9810 C   0  0  0  0  0  0  0  0  0  0  0  0
  -12.1820    4.6030  -77.3860 C   0  0  0  0  0  0  0  0  0  0  0  0
  -11.2270    3.3360  -75.4950 C   0  0  0  0  0  0  0  0  0  0  0  0
  -11.0870    4.3820  -78.1840 C   0  0  0  0  0  0  0  0  0  0  0  0
  -10.1530    3.1420  -76.3220 C   0  0  0  0  0  0  0  0  0  0  0  0
  -10.0550    3.6360  -77.6420 C   0  0  0  0  0  0  0  0  0  0  0  0
   -9.0940    2.4400  -75.8540 N   0  0  0  0  0  0  0  0  0  0  0  0
   -7.8730    3.1170  -76.0610 C   0  0  0  0  0  0  0  0  0  0  0  0
   -6.6160    3.3520  -75.3990 O   0  0  0  0  0  0  0  0  0  0  0  0
   -7.9360    3.7580  -77.3470 C   0  0  0  0  0  0  0  0  0  0  0  0
   -7.7560    2.7860  -78.4380 C   0  0  0  0  0  0  0  0  0  0  0  0
   -6.5760    2.1500  -78.5310 N   0  0  0  0  0  0  0  0  0  0  0  0
   -6.2410    1.7870  -79.8470 C   0  0  0  0  0  0  0  0  0  0  0  0
   -5.0130    1.9700  -80.5440 O   0  0  0  0  0  0  0  0  0  0  0  0
   -7.4040    1.1230  -80.5330 C   0  0  0  0  0  0  0  0  0  0  0  0
   -7.7990   -0.2210  -80.0110 C   0  0  0  0  0  0  0  0  0  0  0  0
   -8.0870    1.6910  -81.5780 C   0  0  0  0  0  0  0  0  0  0  0  0
   -8.8520   -0.8970  -80.5930 C   0  0  0  0  0  0  0  0  0  0  0  0
   -9.1310    0.9840  -82.1370 C   0  0  0  0  0  0  0  0  0  0  0  0
   -9.5090   -0.2930  -81.6550 C   0  0  0  0  0  0  0  0  0  0  0  0
  1  2  1  0
  2  3  1  0
  4  2  1  0
  4  5  2  0
  4  6  2  0
  4  7  1  0
  7  8  2  0
  7  9  1  0
  8 10  1  0
  9 11  2  0
 10 12  2  0
 11 12  1  0
 11 13  1  0
 13 14  1  0
 14 15  2  0
 14 16  1  0
 16 17  1  0
 17 18  1  0
 18 19  1  0
 19 20  2  0
 19 21  1  0
 21 22  2  0
 21 23  1  0
 22 24  1  0
 23 25  2  0
 24 26  2  0
 25 26  1  0
M  END
>  <ref_url>  (707) 
https://fakepage.com

>  <submitter_name>  (707) 
Steph Wills

>  <submitter_email>  (707) 
stephanie.wills@dtc.ox.ac.uk

>  <submitter_institution>  (707) 
University of Oxford

>  <generation_date>  (707) 
2020-06-04

>  <method>  (707) 
Fragment network

>  <ref_mols>  (707) 
x0183_0B,x0212_0B

>  <ref_pdb>  (707) 
references/x0183-0B-x0212-0B-288929.holo_minimised_nolig.pdb

>  <original SMILES>  (707) 
CN(C)S(=O)(=O)c1cccc(NC(=O)CCNC(=O)c2ccccc2)c1

>  <synthon>  (707) 
[Xe]c1ccccc1

>  <original_name>  (707) 
x0183-0B-x0212-0B-288929

>  <comRMSD_score>  (707) 
0.8396467070099137

>  <IF_score>  (707) 
0.65

>  <SuCOS_score>  (707) 
0.4753899379845026

>  <compound_ID>  (707) 
MOLPORT:009-506-101

$$$$

     RDKit          3D

 22 23  0  0  0  0  0  0  0  0999 V2000
  -12.8220    6.2460  -74.0090 C   0  0  0  0  0  0  0  0  0  0  0  0
  -13.1380    5.9150  -75.3820 O   0  0  0  0  0  0  0  0  0  0  0  0
  -13.0620    4.5290  -75.8090 C   0  0  0  0  0  0  0  0  0  0  0  0
  -14.1560    3.6090  -75.8240 O   0  0  0  0  0  0  0  0  0  0  0  0
  -11.7660    4.1610  -76.2110 C   0  0  0  0  0  0  0  0  0  0  0  0
  -11.1520    4.6410  -77.3950 C   0  0  0  0  0  0  0  0  0  0  0  0
  -11.0580    3.2810  -75.3960 C   0  0  0  0  0  0  0  0  0  0  0  0
   -9.8230    4.2400  -77.7080 C   0  0  0  0  0  0  0  0  0  0  0  0
   -9.7680    2.8780  -75.6830 C   0  0  0  0  0  0  0  0  0  0  0  0
   -9.0670    3.2960  -76.7620 C   0  0  0  0  0  0  0  0  0  0  0  0
   -7.7220    2.7850  -76.8440 N   0  0  0  0  0  0  0  0  0  0  0  0
   -6.2480    3.5230  -77.2290 S   0  0  0  0  0  0  0  0  0  0  0  0
   -5.1940    2.6070  -76.8380 O   0  0  0  0  0  0  0  0  0  0  0  0
   -6.2000    4.8870  -76.7970 O   0  0  0  0  0  0  0  0  0  0  0  0
   -6.6330    3.2140  -78.9420 C   0  0  0  0  0  0  0  0  0  0  0  0
   -7.4280    2.1120  -79.0640 C   0  0  0  0  0  0  0  0  0  0  0  0
   -8.0430    1.4170  -80.0530 C   0  0  0  0  0  0  0  0  0  0  0  0
   -8.4500    0.1430  -79.6570 C   0  0  0  0  0  0  0  0  0  0  0  0
   -8.2770    1.8950  -81.3430 C   0  0  0  0  0  0  0  0  0  0  0  0
   -9.1000   -0.6880  -80.5200 C   0  0  0  0  0  0  0  0  0  0  0  0
   -8.9370    1.0830  -82.2620 C   0  0  0  0  0  0  0  0  0  0  0  0
   -9.3600   -0.1960  -81.8930 C   0  0  0  0  0  0  0  0  0  0  0  0
  1  2  1  0
  2  3  1  0
  3  4  2  0
  3  5  1  0
  5  6  2  0
  5  7  1  0
  6  8  1  0
  7  9  2  0
  8 10  2  0
  9 10  1  0
 10 11  1  0
 11 12  1  0
 12 13  2  0
 12 14  2  0
 12 15  1  0
 15 16  2  3
 16 17  1  0
 17 18  2  0
 17 19  1  0
 18 20  1  0
 19 21  2  0
 20 22  2  0
 21 22  1  0
M  END
>  <ref_url>  (708) 
https://fakepage.com

>  <submitter_name>  (708) 
Steph Wills

>  <submitter_email>  (708) 
stephanie.wills@dtc.ox.ac.uk

>  <submitter_institution>  (708) 
University of Oxford

>  <generation_date>  (708) 
2020-06-04

>  <method>  (708) 
Fragment network

>  <ref_mols>  (708) 
x0183_0B,x0212_0B

>  <ref_pdb>  (708) 
references/x0183-0B-x0212-0B-292378.holo_minimised_nolig.pdb

>  <original SMILES>  (708) 
COC(=O)c1ccc(NS(=O)(=O)C=Cc2ccccc2)cc1

>  <synthon>  (708) 
[Xe]c1ccccc1

>  <original_name>  (708) 
x0183-0B-x0212-0B-292378

>  <comRMSD_score>  (708) 
0.8369506600794367

>  <IF_score>  (708) 
0.65

>  <SuCOS_score>  (708) 
0.4967660273722341

>  <compound_ID>  (708) 
MOLPORT:000-706-972

$$$$

     RDKit          3D

 22 23  0  0  0  0  0  0  0  0999 V2000
  -12.7720    6.1480  -73.7610 C   0  0  0  0  0  0  0  0  0  0  0  0
  -13.3900    5.3470  -74.8750 C   0  0  0  0  0  0  0  0  0  0  0  0
  -12.9010    4.1870  -75.4090 C   0  0  0  0  0  0  0  0  0  0  0  0
  -13.5870    3.1950  -75.1590 O   0  0  0  0  0  0  0  0  0  0  0  0
  -11.7460    3.9600  -76.3020 C   0  0  0  0  0  0  0  0  0  0  0  0
  -11.6430    4.8610  -77.3620 C   0  0  0  0  0  0  0  0  0  0  0  0
  -10.7260    2.9600  -76.2440 C   0  0  0  0  0  0  0  0  0  0  0  0
  -10.5990    4.7700  -78.2800 C   0  0  0  0  0  0  0  0  0  0  0  0
   -9.7290    2.9280  -77.1720 C   0  0  0  0  0  0  0  0  0  0  0  0
  -10.4940    1.8460  -75.3160 N   0  0  0  0  0  0  0  0  0  0  0  0
   -9.6360    3.8120  -78.1920 C   0  0  0  0  0  0  0  0  0  0  0  0
  -11.6190    1.2990  -74.7240 C   0  0  0  0  0  0  0  0  0  0  0  0
   -9.6110    0.7850  -75.7600 C   0  0  0  0  0  0  0  0  0  0  0  0
   -8.4110    1.1210  -76.4510 C   0  0  0  0  0  0  0  0  0  0  0  0
   -8.3620    2.0910  -77.2330 O   0  0  0  0  0  0  0  0  0  0  0  0
   -7.6120    2.1280  -78.5030 C   0  0  0  0  0  0  0  0  0  0  0  0
   -8.1520    1.3950  -79.5710 C   0  0  0  0  0  0  0  0  0  0  0  0
   -8.2870    1.9120  -80.8680 C   0  0  0  0  0  0  0  0  0  0  0  0
   -8.5780    0.0860  -79.3150 C   0  0  0  0  0  0  0  0  0  0  0  0
   -8.8700    1.0860  -81.9360 C   0  0  0  0  0  0  0  0  0  0  0  0
   -9.1310   -0.6960  -80.3240 C   0  0  0  0  0  0  0  0  0  0  0  0
   -9.2770   -0.2060  -81.6160 C   0  0  0  0  0  0  0  0  0  0  0  0
  1  2  1  0
  2  3  1  0
  3  4  2  0
  3  5  1  0
  5  6  2  0
  5  7  1  0
  6  8  1  0
  7  9  2  0
  7 10  1  0
  8 11  2  0
  9 11  1  0
 10 12  1  0
 10 13  1  0
 13 14  1  0
 14 15  1  0
 15 16  1  0
 16 17  1  0
 17 18  2  0
 17 19  1  0
 18 20  1  0
 19 21  2  0
 20 22  2  0
 21 22  1  0
M  END
>  <ref_url>  (709) 
https://fakepage.com

>  <submitter_name>  (709) 
Steph Wills

>  <submitter_email>  (709) 
stephanie.wills@dtc.ox.ac.uk

>  <submitter_institution>  (709) 
University of Oxford

>  <generation_date>  (709) 
2020-06-04

>  <method>  (709) 
Fragment network

>  <ref_mols>  (709) 
x0183_0B,x0212_0B

>  <ref_pdb>  (709) 
references/x0183-0B-x0212-0B-294012.holo_minimised_nolig.pdb

>  <original SMILES>  (709) 
CCC(=O)c1ccccc1N(C)CCOCc1ccccc1

>  <synthon>  (709) 
[Xe]c1ccccc1

>  <original_name>  (709) 
x0183-0B-x0212-0B-294012

>  <comRMSD_score>  (709) 
0.6607490418428894

>  <IF_score>  (709) 
0.425

>  <SuCOS_score>  (709) 
0.4906309703039843

>  <compound_ID>  (709) 
CHEMSPACE-BB:CSMB00016931643

$$$$

     RDKit          3D

 17 18  0  0  0  0  0  0  0  0999 V2000
  -13.1440    5.0880  -76.2860 N   0  0  0  0  0  0  0  0  0  0  0  0
  -12.2040    4.4430  -76.2360 C   0  0  0  0  0  0  0  0  0  0  0  0
  -11.2340    3.5200  -75.5000 C   0  0  0  0  0  0  0  0  0  0  0  0
  -11.7520    4.6480  -77.5900 C   0  0  0  0  0  0  0  0  0  0  0  0
  -10.0670    3.0120  -76.2700 C   0  0  0  0  0  0  0  0  0  0  0  0
  -10.6060    4.1080  -78.2300 C   0  0  0  0  0  0  0  0  0  0  0  0
   -9.7630    3.2700  -77.5420 C   0  0  0  0  0  0  0  0  0  0  0  0
   -8.5760    2.5520  -77.8820 N   0  0  0  0  0  0  0  0  0  0  0  0
   -7.3860    3.0940  -78.2110 C   0  0  0  0  0  0  0  0  0  0  0  0
   -6.7250    3.8430  -77.5100 O   0  0  0  0  0  0  0  0  0  0  0  0
   -7.0310    2.7140  -79.3240 O   0  0  0  0  0  0  0  0  0  0  0  0
   -7.8060    1.6900  -79.9710 C   0  0  0  0  0  0  0  0  0  0  0  0
   -8.1870    2.0490  -81.2680 C   0  0  0  0  0  0  0  0  0  0  0  0
   -8.1690    0.4340  -79.4030 C   0  0  0  0  0  0  0  0  0  0  0  0
   -8.9310    1.1320  -81.9930 C   0  0  0  0  0  0  0  0  0  0  0  0
   -8.9290   -0.4800  -80.1680 C   0  0  0  0  0  0  0  0  0  0  0  0
   -9.2850   -0.0920  -81.4490 C   0  0  0  0  0  0  0  0  0  0  0  0
  1  2  1  0
  2  3  2  0
  2  4  1  0
  3  5  1  0
  4  6  2  0
  5  7  2  0
  6  7  1  0
  7  8  1  0
  8  9  1  0
  9 10  2  0
  9 11  1  0
 11 12  1  0
 12 13  2  0
 12 14  1  0
 13 15  1  0
 14 16  2  0
 15 17  2  0
 16 17  1  0
M  END
>  <ref_url>  (710) 
https://fakepage.com

>  <submitter_name>  (710) 
Steph Wills

>  <submitter_email>  (710) 
stephanie.wills@dtc.ox.ac.uk

>  <submitter_institution>  (710) 
University of Oxford

>  <generation_date>  (710) 
2020-06-04

>  <method>  (710) 
Fragment network

>  <ref_mols>  (710) 
x0183_0B,x0212_0B

>  <ref_pdb>  (710) 
references/x0183-0B-x0212-0B-295116.holo_minimised_nolig.pdb

>  <original SMILES>  (710) 
Nc1ccc(NC(=O)Oc2ccccc2)cc1

>  <synthon>  (710) 
[Xe]c1ccccc1

>  <original_name>  (710) 
x0183-0B-x0212-0B-295116

>  <comRMSD_score>  (710) 
0.9072539736629828

>  <IF_score>  (710) 
0.55

>  <SuCOS_score>  (710) 
0.3702184029375808

>  <compound_ID>  (710) 
MOLPORT:009-321-959

$$$$

     RDKit          3D

 25 26  0  0  0  0  0  0  0  0999 V2000
   -9.2930    4.0600  -79.4020 C   0  0  0  0  0  0  0  0  0  0  0  0
  -10.3870    3.8850  -78.3530 C   0  0  0  0  0  0  0  0  0  0  0  0
  -11.2010    5.0470  -78.0050 C   0  0  0  0  0  0  0  0  0  0  0  0
  -10.6720    2.6880  -77.7030 C   0  0  0  0  0  0  0  0  0  0  0  0
  -12.2200    4.9900  -77.0860 C   0  0  0  0  0  0  0  0  0  0  0  0
  -11.7180    2.6500  -76.7640 C   0  0  0  0  0  0  0  0  0  0  0  0
  -12.4830    3.7870  -76.4620 C   0  0  0  0  0  0  0  0  0  0  0  0
  -13.5180    3.7080  -75.5270 C   0  0  0  0  0  0  0  0  0  0  0  0
  -14.1130    5.2510  -75.2860 S   0  0  0  0  0  0  0  0  0  0  0  0
  -13.0230    5.7970  -74.0810 C   0  0  0  0  0  0  0  0  0  0  0  0
  -11.6590    5.4860  -74.1840 C   0  0  0  0  0  0  0  0  0  0  0  0
  -10.9170    6.2750  -73.6020 O   0  0  0  0  0  0  0  0  0  0  0  0
  -11.2760    4.1860  -74.9790 N   0  0  0  0  0  0  0  0  0  0  0  0
  -10.0630    4.0410  -75.9070 N   0  0  0  0  0  0  0  0  0  0  0  0
   -9.3400    2.7170  -76.2360 C   0  0  0  0  0  0  0  0  0  0  0  0
  -10.0240    1.1420  -75.6000 S   0  0  0  0  0  0  0  0  0  0  0  0
   -8.1110    2.6150  -76.9820 N   0  0  0  0  0  0  0  0  0  0  0  0
   -7.8160    2.9120  -78.4150 C   0  0  1  0  0  0  0  0  0  0  0  0
   -6.3080    3.2760  -78.6150 C   0  0  0  0  0  0  0  0  0  0  0  0
   -8.2340    1.7920  -79.4410 C   0  0  0  0  0  0  0  0  0  0  0  0
   -8.2850    2.1390  -80.8120 C   0  0  0  0  0  0  0  0  0  0  0  0
   -8.5610    0.4750  -79.0600 C   0  0  0  0  0  0  0  0  0  0  0  0
   -8.6890    1.1360  -81.8820 C   0  0  0  0  0  0  0  0  0  0  0  0
   -8.9450   -0.5070  -80.0030 C   0  0  0  0  0  0  0  0  0  0  0  0
   -9.0240   -0.2340  -81.3750 C   0  0  0  0  0  0  0  0  0  0  0  0
  1  2  1  0
  2  3  2  0
  2  4  1  0
  3  5  1  0
  4  6  2  0
  5  7  2  0
  6  7  1  0
  7  8  1  0
  8  9  1  0
  9 10  1  0
 10 11  1  0
 11 12  2  0
 11 13  1  0
 13 14  1  0
 14 15  1  0
 15 16  2  0
 15 17  1  0
 17 18  1  0
 18 19  1  1
 18 20  1  0
 20 21  2  0
 20 22  1  0
 21 23  1  0
 22 24  2  0
 23 25  2  0
 24 25  1  0
M  END
>  <ref_url>  (711) 
https://fakepage.com

>  <submitter_name>  (711) 
Steph Wills

>  <submitter_email>  (711) 
stephanie.wills@dtc.ox.ac.uk

>  <submitter_institution>  (711) 
University of Oxford

>  <generation_date>  (711) 
2020-06-04

>  <method>  (711) 
Fragment network

>  <ref_mols>  (711) 
x0183_0B,x0212_0B

>  <ref_pdb>  (711) 
references/x0183-0B-x0212-0B-299824.holo_minimised_nolig.pdb

>  <original SMILES>  (711) 
Cc1ccc(CSCC(=O)NNC(=S)NC(C)c2ccccc2)cc1

>  <synthon>  (711) 
[Xe]c1ccccc1

>  <original_name>  (711) 
x0183-0B-x0212-0B-299824

>  <comRMSD_score>  (711) 
0.979538553492295

>  <IF_score>  (711) 
0.675

>  <SuCOS_score>  (711) 
0.5458767446391064

>  <compound_ID>  (711) 
MOLPORT:001-587-112

$$$$

     RDKit          3D

 25 26  0  0  0  0  0  0  0  0999 V2000
  -13.0610    7.9220  -73.8720 C   0  0  0  0  0  0  0  0  0  0  0  0
  -12.6200    6.4980  -74.2360 C   0  0  0  0  0  0  0  0  0  0  0  0
  -11.3490    6.0880  -73.6550 O   0  0  0  0  0  0  0  0  0  0  0  0
  -13.6420    5.7930  -75.1610 C   0  0  0  0  0  0  0  0  0  0  0  0
  -13.2480    4.3400  -75.4240 C   0  0  0  0  0  0  0  0  0  0  0  0
  -12.0040    4.1680  -76.0280 C   0  0  0  0  0  0  0  0  0  0  0  0
  -11.7150    4.7470  -77.2640 C   0  0  0  0  0  0  0  0  0  0  0  0
  -11.0210    3.4140  -75.3900 C   0  0  0  0  0  0  0  0  0  0  0  0
  -10.4630    4.5770  -77.8150 C   0  0  0  0  0  0  0  0  0  0  0  0
   -9.7580    3.2520  -75.9630 C   0  0  0  0  0  0  0  0  0  0  0  0
   -9.4550    3.8430  -77.1870 C   0  0  0  0  0  0  0  0  0  0  0  0
   -8.3980    3.8170  -77.7900 O   0  0  0  0  0  0  0  0  0  0  0  0
   -8.4790    3.4670  -79.0720 C   0  0  0  0  0  0  0  0  0  0  0  0
   -9.2090    2.1590  -79.2760 C   0  0  0  0  0  0  0  0  0  0  0  0
   -8.8580    1.2330  -78.1100 C   0  0  0  0  0  0  0  0  0  0  0  0
   -9.7880    0.5920  -77.6400 O   0  0  0  0  0  0  0  0  0  0  0  0
   -7.5530    1.1670  -77.6480 N   0  0  0  0  0  0  0  0  0  0  0  0
   -6.4770    1.9570  -78.0410 C   0  0  0  0  0  0  0  0  0  0  0  0
   -6.0870    1.8120  -79.4970 C   0  0  0  0  0  0  0  0  0  0  0  0
   -7.1020    1.1700  -80.2280 C   0  0  0  0  0  0  0  0  0  0  0  0
   -7.6930    1.7910  -81.3360 C   0  0  0  0  0  0  0  0  0  0  0  0
   -7.5320   -0.1120  -79.8470 C   0  0  0  0  0  0  0  0  0  0  0  0
   -8.6920    1.1420  -82.0420 C   0  0  0  0  0  0  0  0  0  0  0  0
   -8.5400   -0.7580  -80.5620 C   0  0  0  0  0  0  0  0  0  0  0  0
   -9.1130   -0.1270  -81.6540 C   0  0  0  0  0  0  0  0  0  0  0  0
  1  2  1  0
  2  3  2  0
  2  4  1  0
  4  5  1  0
  5  6  1  0
  6  7  2  0
  6  8  1  0
  7  9  1  0
  8 10  2  0
  9 11  2  0
 10 11  1  0
 11 12  1  0
 12 13  1  0
 13 14  1  0
 14 15  1  0
 15 16  2  0
 15 17  1  0
 17 18  1  0
 18 19  1  0
 19 20  1  0
 20 21  2  0
 20 22  1  0
 21 23  1  0
 22 24  2  0
 23 25  2  0
 24 25  1  0
M  END
>  <ref_url>  (712) 
https://fakepage.com

>  <submitter_name>  (712) 
Steph Wills

>  <submitter_email>  (712) 
stephanie.wills@dtc.ox.ac.uk

>  <submitter_institution>  (712) 
University of Oxford

>  <generation_date>  (712) 
2020-06-04

>  <method>  (712) 
Fragment network

>  <ref_mols>  (712) 
x0183_0B,x0212_0B

>  <ref_pdb>  (712) 
references/x0183-0B-x0212-0B-301032.holo_minimised_nolig.pdb

>  <original SMILES>  (712) 
CC(=O)CCc1ccc(OCCC(=O)NCCc2ccccc2)cc1

>  <synthon>  (712) 
[Xe]c1ccccc1

>  <original_name>  (712) 
x0183-0B-x0212-0B-301032

>  <comRMSD_score>  (712) 
0.8021350356296719

>  <IF_score>  (712) 
0.575

>  <SuCOS_score>  (712) 
0.564462217007214

>  <compound_ID>  (712) 
REAL:Z940927730

$$$$

     RDKit          3D

 23 24  0  0  0  0  0  0  0  0999 V2000
  -12.9180    5.8700  -74.1650 C   0  0  0  0  0  0  0  0  0  0  0  0
  -13.3330    5.1840  -75.2900 C   0  0  0  0  0  0  0  0  0  0  0  0
  -12.8350    3.9350  -75.7020 N   0  0  0  0  0  0  0  0  0  0  0  0
  -13.6130    2.8310  -76.1560 C   0  0  0  0  0  0  0  0  0  0  0  0
  -11.5820    3.9100  -76.4040 C   0  0  0  0  0  0  0  0  0  0  0  0
  -15.4320    2.6280  -76.0780 S   0  0  0  0  0  0  0  0  0  0  0  0
  -12.7410    1.7240  -76.7680 N   0  0  0  0  0  0  0  0  0  0  0  0
  -11.4630    4.5150  -77.6560 C   0  0  0  0  0  0  0  0  0  0  0  0
  -10.4720    3.2600  -75.8520 C   0  0  0  0  0  0  0  0  0  0  0  0
  -13.0280    0.8990  -77.9790 C   0  0  0  0  0  0  0  0  0  0  0  0
  -10.2520    4.4560  -78.3370 C   0  0  0  0  0  0  0  0  0  0  0  0
   -9.2640    3.1990  -76.5220 C   0  0  0  0  0  0  0  0  0  0  0  0
  -14.0320    1.0320  -78.6800 O   0  0  0  0  0  0  0  0  0  0  0  0
  -12.0050   -0.0960  -78.2180 C   0  0  0  0  0  0  0  0  0  0  0  0
   -9.1670    3.8020  -77.7740 C   0  0  0  0  0  0  0  0  0  0  0  0
  -11.4550   -0.1860  -79.5990 O   0  0  0  0  0  0  0  0  0  0  0  0
  -10.1840    0.3480  -79.8140 C   0  0  0  0  0  0  0  0  0  0  0  0
   -9.6540    0.7970  -81.0540 C   0  0  0  0  0  0  0  0  0  0  0  0
   -9.4350    0.4370  -78.6630 C   0  0  0  0  0  0  0  0  0  0  0  0
   -8.4210    1.3590  -81.0650 C   0  0  0  0  0  0  0  0  0  0  0  0
   -8.1760    0.9870  -78.6600 C   0  0  0  0  0  0  0  0  0  0  0  0
   -7.5960    1.4860  -79.8030 C   0  0  0  0  0  0  0  0  0  0  0  0
   -6.2090    2.1190  -79.7440 C   0  0  0  0  0  0  0  0  0  0  0  0
  1  2  1  0
  2  3  1  0
  3  4  1  0
  3  5  1  0
  4  6  2  0
  4  7  1  0
  5  8  2  0
  5  9  1  0
  7 10  1  0
  8 11  1  0
  9 12  2  0
 10 13  2  0
 10 14  1  0
 11 15  2  0
 12 15  1  0
 14 16  1  0
 16 17  1  0
 17 18  2  0
 17 19  1  0
 18 20  1  0
 19 21  2  0
 20 22  2  0
 21 22  1  0
 22 23  1  0
M  END
>  <ref_url>  (713) 
https://fakepage.com

>  <submitter_name>  (713) 
Steph Wills

>  <submitter_email>  (713) 
stephanie.wills@dtc.ox.ac.uk

>  <submitter_institution>  (713) 
University of Oxford

>  <generation_date>  (713) 
2020-06-04

>  <method>  (713) 
Fragment network

>  <ref_mols>  (713) 
x0183_0B,x0212_0B

>  <ref_pdb>  (713) 
references/x0183-0B-x0212-0B-301592.holo_minimised_nolig.pdb

>  <original SMILES>  (713) 
CCN(C(=S)NC(=O)COc1ccc(C)cc1)c1ccccc1

>  <synthon>  (713) 
[Xe]c1ccccc1

>  <original_name>  (713) 
x0183-0B-x0212-0B-301592

>  <comRMSD_score>  (713) 
0.9871090036997872

>  <IF_score>  (713) 
0.5

>  <SuCOS_score>  (713) 
0.4069416121250429

>  <compound_ID>  (713) 
MOLPORT:001-559-354

$$$$

     RDKit          3D

 22 23  0  0  0  0  0  0  0  0999 V2000
  -12.7900    6.3380  -73.6060 C   0  0  0  0  0  0  0  0  0  0  0  0
  -13.3650    5.5500  -74.7580 C   0  0  0  0  0  0  0  0  0  0  0  0
  -12.8180    4.1820  -75.0600 C   0  0  1  0  0  0  0  0  0  0  0  0
  -13.6520    3.2870  -75.2120 O   0  0  0  0  0  0  0  0  0  0  0  0
  -12.0350    4.0940  -76.2000 C   0  0  0  0  0  0  0  0  0  0  0  0
  -12.4330    4.8060  -77.3070 C   0  0  0  0  0  0  0  0  0  0  0  0
  -10.8630    3.3370  -76.3270 C   0  0  0  0  0  0  0  0  0  0  0  0
  -11.7060    4.7640  -78.4640 C   0  0  0  0  0  0  0  0  0  0  0  0
  -10.1230    3.2870  -77.4870 C   0  0  0  0  0  0  0  0  0  0  0  0
  -10.2440    2.5260  -75.3590 O   0  0  0  0  0  0  0  0  0  0  0  0
  -10.5430    4.0110  -78.5700 C   0  0  0  0  0  0  0  0  0  0  0  0
   -9.1290    1.9920  -76.0840 C   0  0  0  0  0  0  0  0  0  0  0  0
   -8.4530    2.7970  -77.0330 C   0  0  0  0  0  0  0  0  0  0  0  0
   -8.7750    3.9470  -77.2750 O   0  0  0  0  0  0  0  0  0  0  0  0
   -7.3500    2.1280  -77.7200 N   0  0  0  0  0  0  0  0  0  0  0  0
   -7.0870    2.3490  -79.0390 C   0  0  0  0  0  0  0  0  0  0  0  0
   -7.7870    1.5150  -79.9030 C   0  0  0  0  0  0  0  0  0  0  0  0
   -8.1290    0.2240  -79.4810 C   0  0  0  0  0  0  0  0  0  0  0  0
   -8.1570    1.9390  -81.1890 C   0  0  0  0  0  0  0  0  0  0  0  0
   -8.8240   -0.6330  -80.3190 C   0  0  0  0  0  0  0  0  0  0  0  0
   -8.8500    1.0790  -82.0250 C   0  0  0  0  0  0  0  0  0  0  0  0
   -9.1850   -0.2100  -81.5890 C   0  0  0  0  0  0  0  0  0  0  0  0
  1  2  1  0
  2  3  1  0
  3  4  1  6
  3  5  1  0
  5  6  2  0
  5  7  1  0
  6  8  1  0
  7  9  2  0
  7 10  1  0
  8 11  2  0
  9 11  1  0
 10 12  1  0
 12 13  1  0
 13 14  2  0
 13 15  1  0
 15 16  1  0
 16 17  1  0
 17 18  2  0
 17 19  1  0
 18 20  1  0
 19 21  2  0
 20 22  2  0
 21 22  1  0
M  END
>  <ref_url>  (714) 
https://fakepage.com

>  <submitter_name>  (714) 
Steph Wills

>  <submitter_email>  (714) 
stephanie.wills@dtc.ox.ac.uk

>  <submitter_institution>  (714) 
University of Oxford

>  <generation_date>  (714) 
2020-06-04

>  <method>  (714) 
Fragment network

>  <ref_mols>  (714) 
x0183_0B,x0212_0B

>  <ref_pdb>  (714) 
references/x0183-0B-x0212-0B-301802.holo_minimised_nolig.pdb

>  <original SMILES>  (714) 
CCC(O)c1ccccc1OCC(=O)NCc1ccccc1

>  <synthon>  (714) 
[Xe]c1ccccc1

>  <original_name>  (714) 
x0183-0B-x0212-0B-301802

>  <comRMSD_score>  (714) 
0.673187085327586

>  <IF_score>  (714) 
0.55

>  <SuCOS_score>  (714) 
0.5426942036063287

>  <compound_ID>  (714) 
CHEMSPACE-BB:CSMB00017274334, CHEMSPACE-BB:CSMB00019855001

$$$$

     RDKit          3D

 24 26  0  0  0  0  0  0  0  0999 V2000
  -11.2250    6.4290  -73.3410 O   0  0  0  0  0  0  0  0  0  0  0  0
  -12.2160    5.7930  -73.6910 C   0  0  0  0  0  0  0  0  0  0  0  0
  -13.3810    6.2810  -73.9520 C   0  0  0  0  0  0  0  0  0  0  0  0
  -12.4440    4.4420  -73.9550 N   0  0  0  0  0  0  0  0  0  0  0  0
  -13.9250    5.6180  -75.1710 C   0  0  0  0  0  0  0  0  0  0  0  0
  -13.1500    4.3220  -75.1960 C   0  0  1  0  0  0  0  0  0  0  0  0
  -12.1430    4.2340  -76.1400 C   0  0  0  0  0  0  0  0  0  0  0  0
  -12.2980    4.7260  -77.4160 C   0  0  0  0  0  0  0  0  0  0  0  0
  -10.8920    3.6360  -75.8390 C   0  0  0  0  0  0  0  0  0  0  0  0
  -11.3140    4.6540  -78.3620 C   0  0  0  0  0  0  0  0  0  0  0  0
   -9.8850    3.5710  -76.8160 C   0  0  0  0  0  0  0  0  0  0  0  0
  -10.1400    4.0910  -78.0680 C   0  0  0  0  0  0  0  0  0  0  0  0
   -8.6950    3.0210  -76.5320 N   0  0  0  0  0  0  0  0  0  0  0  0
   -7.4050    2.8310  -76.4490 C   0  0  0  0  0  0  0  0  0  0  0  0
   -6.8210    3.6980  -75.8140 O   0  0  0  0  0  0  0  0  0  0  0  0
   -6.8990    1.6770  -77.1160 N   0  0  0  0  0  0  0  0  0  0  0  0
   -6.3420    1.8480  -78.3490 C   0  0  0  0  0  0  0  0  0  0  0  0
   -7.2130    2.5430  -79.1820 C   0  0  0  0  0  0  0  0  0  0  0  0
   -7.9270    1.6470  -79.9690 C   0  0  0  0  0  0  0  0  0  0  0  0
   -8.2580    1.9850  -81.2690 C   0  0  0  0  0  0  0  0  0  0  0  0
   -8.3180    0.3980  -79.4570 C   0  0  0  0  0  0  0  0  0  0  0  0
   -8.9640    1.0910  -82.0430 C   0  0  0  0  0  0  0  0  0  0  0  0
   -9.0280   -0.5100  -80.2220 C   0  0  0  0  0  0  0  0  0  0  0  0
   -9.3470   -0.1450  -81.5240 C   0  0  0  0  0  0  0  0  0  0  0  0
  1  2  2  0
  2  3  1  0
  2  4  1  0
  3  5  1  0
  4  6  1  0
  5  6  1  0
  6  7  1  6
  7  8  2  0
  7  9  1  0
  8 10  1  0
  9 11  2  0
 10 12  2  0
 11 12  1  0
 11 13  1  0
 13 14  1  0
 14 15  2  0
 14 16  1  0
 16 17  1  0
 17 18  1  0
 18 19  1  0
 19 20  2  0
 19 21  1  0
 20 22  1  0
 21 23  2  0
 22 24  2  0
 23 24  1  0
M  END
>  <ref_url>  (715) 
https://fakepage.com

>  <submitter_name>  (715) 
Steph Wills

>  <submitter_email>  (715) 
stephanie.wills@dtc.ox.ac.uk

>  <submitter_institution>  (715) 
University of Oxford

>  <generation_date>  (715) 
2020-06-04

>  <method>  (715) 
Fragment network

>  <ref_mols>  (715) 
x0183_0B,x0212_0B

>  <ref_pdb>  (715) 
references/x0183-0B-x0212-0B-301889.holo_minimised_nolig.pdb

>  <original SMILES>  (715) 
O=C1CCC(c2cccc(NC(=O)NCCc3ccccc3)c2)N1

>  <synthon>  (715) 
[Xe]c1ccccc1

>  <original_name>  (715) 
x0183-0B-x0212-0B-301889

>  <comRMSD_score>  (715) 
0.903984677025167

>  <IF_score>  (715) 
0.8

>  <SuCOS_score>  (715) 
0.5285573060859433

>  <compound_ID>  (715) 
REAL:Z2361414566

$$$$

     RDKit          3D

 19 20  0  0  0  0  0  0  0  0999 V2000
  -10.6050   -2.3520  -82.0450 C   0  0  0  0  0  0  0  0  0  0  0  0
   -9.7320   -1.4670  -82.6580 N   0  0  0  0  0  0  0  0  0  0  0  0
   -9.1620   -0.5330  -81.7050 C   0  0  0  0  0  0  0  0  0  0  0  0
   -8.9180   -0.9040  -80.4740 C   0  0  0  0  0  0  0  0  0  0  0  0
   -8.8750    0.7780  -82.1310 C   0  0  0  0  0  0  0  0  0  0  0  0
   -8.3590   -0.0660  -79.4750 C   0  0  0  0  0  0  0  0  0  0  0  0
   -8.3140    1.6880  -81.2020 C   0  0  0  0  0  0  0  0  0  0  0  0
   -8.0730    1.2220  -79.8870 C   0  0  0  0  0  0  0  0  0  0  0  0
   -7.5350    1.8940  -78.7620 N   0  0  0  0  0  0  0  0  0  0  0  0
   -8.2580    1.8050  -77.5930 C   0  0  0  0  0  0  0  0  0  0  0  0
   -8.5810    0.5890  -76.9170 O   0  0  0  0  0  0  0  0  0  0  0  0
   -8.6340    3.0070  -77.1750 N   0  0  0  0  0  0  0  0  0  0  0  0
   -8.0310    3.9140  -77.9200 C   0  0  0  0  0  0  0  0  0  0  0  0
   -9.8860    3.4440  -77.1040 C   0  0  0  0  0  0  0  0  0  0  0  0
  -10.7260    3.2830  -75.8490 C   0  0  0  0  0  0  0  0  0  0  0  0
  -10.4340    4.1060  -78.2340 C   0  0  0  0  0  0  0  0  0  0  0  0
  -12.1310    3.8410  -75.8270 C   0  0  0  0  0  0  0  0  0  0  0  0
  -11.7240    4.6180  -78.2110 C   0  0  0  0  0  0  0  0  0  0  0  0
  -12.5560    4.5230  -77.1140 C   0  0  0  0  0  0  0  0  0  0  0  0
  1  2  1  0
  2  3  1  0
  3  4  2  0
  3  5  1  0
  4  6  1  0
  5  7  2  0
  6  8  2  0
  7  8  1  0
  8  9  1  0
  9 10  1  0
 10 11  2  0
 10 12  1  0
 12 13  1  0
 12 14  1  0
 14 15  2  0
 14 16  1  0
 15 17  1  0
 16 18  2  0
 17 19  2  0
 18 19  1  0
M  END
>  <ref_url>  (716) 
https://fakepage.com

>  <submitter_name>  (716) 
Steph Wills

>  <submitter_email>  (716) 
stephanie.wills@dtc.ox.ac.uk

>  <submitter_institution>  (716) 
University of Oxford

>  <generation_date>  (716) 
2020-06-04

>  <method>  (716) 
Fragment network

>  <ref_mols>  (716) 
x0183_0B,x0212_0B

>  <ref_pdb>  (716) 
references/x0183-0B-x0212-0B-302213.holo_minimised_nolig.pdb

>  <original SMILES>  (716) 
CNc1ccc(NC(=O)N(C)c2ccccc2)cc1

>  <synthon>  (716) 
[Xe]c1ccccc1

>  <original_name>  (716) 
x0183-0B-x0212-0B-302213

>  <comRMSD_score>  (716) 
0.870849311769564

>  <IF_score>  (716) 
0.55

>  <SuCOS_score>  (716) 
0.3512502873313976

>  <compound_ID>  (716) 
CHEMSPACE-BB:CSMB00133964296

$$$$

     RDKit          3D

 25 26  0  0  0  0  0  0  0  0999 V2000
  -12.8220    6.3440  -73.6880 C   0  0  0  0  0  0  0  0  0  0  0  0
  -13.3890    5.7730  -75.0050 C   0  0  0  0  0  0  0  0  0  0  0  0
  -14.0840    6.7420  -75.8050 O   0  0  0  0  0  0  0  0  0  0  0  0
  -13.1300    4.3400  -75.2460 N   0  0  0  0  0  0  0  0  0  0  0  0
  -11.9700    4.0350  -76.1070 C   0  0  0  0  0  0  0  0  0  0  0  0
  -11.8570    4.7140  -77.3170 C   0  0  0  0  0  0  0  0  0  0  0  0
  -11.0250    3.0940  -75.7130 C   0  0  0  0  0  0  0  0  0  0  0  0
  -10.7790    4.4400  -78.1410 C   0  0  0  0  0  0  0  0  0  0  0  0
   -9.9330    2.8090  -76.5380 C   0  0  0  0  0  0  0  0  0  0  0  0
   -9.8300    3.5000  -77.7560 C   0  0  0  0  0  0  0  0  0  0  0  0
   -8.9710    1.8570  -76.1500 N   0  0  0  0  0  0  0  0  0  0  0  0
   -9.0830    0.4950  -76.1170 C   0  0  0  0  0  0  0  0  0  0  0  0
  -10.3270   -0.0100  -75.8960 O   0  0  0  0  0  0  0  0  0  0  0  0
   -7.9570   -0.3200  -76.3040 C   0  0  0  0  0  0  0  0  0  0  0  0
   -6.7440    0.3880  -76.3620 C   0  0  0  0  0  0  0  0  0  0  0  0
   -6.5310    0.9890  -77.5800 N   0  0  0  0  0  0  0  0  0  0  0  0
   -7.1430    2.2620  -77.8860 C   0  0  0  0  0  0  0  0  0  0  0  0
   -7.7340    3.1810  -76.9710 O   0  0  0  0  0  0  0  0  0  0  0  0
   -7.1440    2.5840  -79.2440 C   0  0  0  0  0  0  0  0  0  0  0  0
   -7.9140    1.5850  -79.9840 C   0  0  0  0  0  0  0  0  0  0  0  0
   -8.3340    0.3080  -79.4670 C   0  0  0  0  0  0  0  0  0  0  0  0
   -8.2390    1.9570  -81.2930 C   0  0  0  0  0  0  0  0  0  0  0  0
   -9.0570   -0.4910  -80.3270 C   0  0  0  0  0  0  0  0  0  0  0  0
   -8.9570    1.1220  -82.1030 C   0  0  0  0  0  0  0  0  0  0  0  0
   -9.3720   -0.1110  -81.6210 C   0  0  0  0  0  0  0  0  0  0  0  0
  1  2  1  0
  2  3  2  0
  2  4  1  0
  4  5  1  0
  5  6  2  0
  5  7  1  0
  6  8  1  0
  7  9  2  0
  8 10  2  0
  9 10  1  0
  9 11  1  0
 11 12  1  0
 12 13  2  0
 12 14  1  0
 14 15  1  0
 15 16  1  0
 16 17  1  0
 17 18  2  0
 17 19  1  0
 19 20  1  0
 20 21  2  0
 20 22  1  0
 21 23  1  0
 22 24  2  0
 23 25  2  0
 24 25  1  0
M  END
>  <ref_url>  (717) 
https://fakepage.com

>  <submitter_name>  (717) 
Steph Wills

>  <submitter_email>  (717) 
stephanie.wills@dtc.ox.ac.uk

>  <submitter_institution>  (717) 
University of Oxford

>  <generation_date>  (717) 
2020-06-04

>  <method>  (717) 
Fragment network

>  <ref_mols>  (717) 
x0183_0B,x0212_0B

>  <ref_pdb>  (717) 
references/x0183-0B-x0212-0B-304205.holo_minimised_nolig.pdb

>  <original SMILES>  (717) 
CC(=O)Nc1cccc(NC(=O)CCNC(=O)Cc2ccccc2)c1

>  <synthon>  (717) 
[Xe]c1ccccc1

>  <original_name>  (717) 
x0183-0B-x0212-0B-304205

>  <comRMSD_score>  (717) 
0.451271947245084

>  <IF_score>  (717) 
0.55

>  <SuCOS_score>  (717) 
0.4648523876747331

>  <compound_ID>  (717) 
REAL:Z223883936, MOLPORT:005-654-252

$$$$

     RDKit          3D

 22 23  0  0  0  0  0  0  0  0999 V2000
  -13.2950    2.5760  -74.9530 C   0  0  0  0  0  0  0  0  0  0  0  0
  -13.0470    4.0060  -75.2410 C   0  0  0  0  0  0  0  0  0  0  0  0
  -12.7800    5.0140  -74.3880 C   0  0  0  0  0  0  0  0  0  0  0  0
  -11.9850    4.0480  -76.3490 C   0  0  0  0  0  0  0  0  0  0  0  0
  -12.4930    4.7070  -77.4300 C   0  0  0  0  0  0  0  0  0  0  0  0
  -10.6550    3.5620  -76.4740 C   0  0  0  0  0  0  0  0  0  0  0  0
  -11.7660    4.8870  -78.5590 C   0  0  0  0  0  0  0  0  0  0  0  0
   -9.9360    3.7650  -77.6310 C   0  0  0  0  0  0  0  0  0  0  0  0
   -9.7910    2.8250  -75.5640 N   0  0  0  0  0  0  0  0  0  0  0  0
  -10.4700    4.4240  -78.6860 C   0  0  0  0  0  0  0  0  0  0  0  0
   -8.4810    2.8630  -76.0740 C   0  0  0  0  0  0  0  0  0  0  0  0
   -7.5370    3.6690  -75.5370 O   0  0  0  0  0  0  0  0  0  0  0  0
   -8.1690    2.0900  -77.1630 N   0  0  0  0  0  0  0  0  0  0  0  0
   -6.9970    2.0760  -77.9410 C   0  0  0  0  0  0  0  0  0  0  0  0
   -6.9790    2.4120  -79.2800 C   0  0  2  0  0  0  0  0  0  0  0  0
   -7.5360    3.4580  -79.5850 O   0  0  0  0  0  0  0  0  0  0  0  0
   -7.7060    1.5040  -80.0330 C   0  0  0  0  0  0  0  0  0  0  0  0
   -7.9870    0.2270  -79.5300 C   0  0  0  0  0  0  0  0  0  0  0  0
   -8.1550    1.8770  -81.2980 C   0  0  0  0  0  0  0  0  0  0  0  0
   -8.7110   -0.6680  -80.2940 C   0  0  0  0  0  0  0  0  0  0  0  0
   -8.8830    0.9990  -82.0890 C   0  0  0  0  0  0  0  0  0  0  0  0
   -9.1810   -0.2830  -81.6230 C   0  0  0  0  0  0  0  0  0  0  0  0
  1  2  1  0
  2  3  1  0
  2  4  1  0
  4  5  2  0
  4  6  1  0
  5  7  1  0
  6  8  2  0
  6  9  1  0
  7 10  2  0
  8 10  1  0
  9 11  1  0
 11 12  2  0
 11 13  1  0
 13 14  1  0
 14 15  1  0
 15 16  1  1
 15 17  1  0
 17 18  2  0
 17 19  1  0
 18 20  1  0
 19 21  2  0
 20 22  2  0
 21 22  1  0
M  END
>  <ref_url>  (718) 
https://fakepage.com

>  <submitter_name>  (718) 
Steph Wills

>  <submitter_email>  (718) 
stephanie.wills@dtc.ox.ac.uk

>  <submitter_institution>  (718) 
University of Oxford

>  <generation_date>  (718) 
2020-06-04

>  <method>  (718) 
Fragment network

>  <ref_mols>  (718) 
x0183_0B,x0212_0B

>  <ref_pdb>  (718) 
references/x0183-0B-x0212-0B-307006.holo_minimised_nolig.pdb

>  <original SMILES>  (718) 
CC(C)c1ccccc1NC(=O)NCC(O)c1ccccc1

>  <synthon>  (718) 
[Xe]c1ccccc1

>  <original_name>  (718) 
x0183-0B-x0212-0B-307006

>  <comRMSD_score>  (718) 
0.9795105282741996

>  <IF_score>  (718) 
0.425

>  <SuCOS_score>  (718) 
0.4989222104794335

>  <compound_ID>  (718) 
MOLPORT:019-654-157

$$$$

     RDKit          3D

 27 28  0  0  0  0  0  0  0  0999 V2000
  -14.9530    7.1620  -70.9750 C   0  0  0  0  0  0  0  0  0  0  0  0
  -14.9720    6.3620  -72.2860 C   0  0  0  0  0  0  0  0  0  0  0  0
  -13.6940    5.7400  -72.7640 C   0  0  0  0  0  0  0  0  0  0  0  0
  -12.9960    6.4050  -73.7810 C   0  0  0  0  0  0  0  0  0  0  0  0
  -13.5180    6.1080  -75.1300 N   0  0  0  0  0  0  0  0  0  0  0  0
  -13.2540    7.0210  -76.1430 C   0  0  0  0  0  0  0  0  0  0  0  0
  -13.6700    4.5450  -75.6460 S   0  0  0  0  0  0  0  0  0  0  0  0
  -13.8930    3.4640  -74.4210 O   0  0  0  0  0  0  0  0  0  0  0  0
  -14.5870    4.5580  -76.7590 O   0  0  0  0  0  0  0  0  0  0  0  0
  -12.0870    4.2190  -76.3500 C   0  0  0  0  0  0  0  0  0  0  0  0
  -11.8180    4.6950  -77.6230 C   0  0  0  0  0  0  0  0  0  0  0  0
  -11.0860    3.4990  -75.6840 C   0  0  0  0  0  0  0  0  0  0  0  0
  -10.6040    4.4760  -78.2300 C   0  0  0  0  0  0  0  0  0  0  0  0
   -9.8650    3.2880  -76.3120 C   0  0  0  0  0  0  0  0  0  0  0  0
   -9.6090    3.7740  -77.5890 C   0  0  0  0  0  0  0  0  0  0  0  0
   -8.3770    3.5400  -78.1660 N   0  0  0  0  0  0  0  0  0  0  0  0
   -8.0100    3.9550  -79.4320 C   0  0  0  0  0  0  0  0  0  0  0  0
   -8.7640    4.1980  -80.3590 O   0  0  0  0  0  0  0  0  0  0  0  0
   -6.4970    4.1400  -79.7940 C   0  0  0  0  0  0  0  0  0  0  0  0
   -5.9120    2.8840  -79.7910 C   0  0  0  0  0  0  0  0  0  0  0  0
   -6.6900    1.9520  -79.1130 C   0  0  0  0  0  0  0  0  0  0  0  0
   -7.7060    1.1510  -79.9220 C   0  0  0  0  0  0  0  0  0  0  0  0
   -8.1690    1.7080  -81.2290 C   0  0  0  0  0  0  0  0  0  0  0  0
   -8.2330   -0.0720  -79.5260 C   0  0  0  0  0  0  0  0  0  0  0  0
   -9.0740    1.0430  -82.0270 C   0  0  0  0  0  0  0  0  0  0  0  0
   -9.1540   -0.7310  -80.3480 C   0  0  0  0  0  0  0  0  0  0  0  0
   -9.5670   -0.1850  -81.5780 C   0  0  0  0  0  0  0  0  0  0  0  0
  1  2  1  0
  2  3  1  0
  3  4  1  0
  4  5  1  0
  5  6  1  0
  7  5  1  0
  7  8  2  0
  7  9  2  0
  7 10  1  0
 10 11  2  0
 10 12  1  0
 11 13  1  0
 12 14  2  0
 13 15  2  0
 14 15  1  0
 15 16  1  0
 16 17  1  0
 17 18  2  0
 17 19  1  0
 19 20  1  0
 20 21  1  0
 21 22  1  0
 22 23  2  0
 22 24  1  0
 23 25  1  0
 24 26  2  0
 25 27  2  0
 26 27  1  0
M  END
>  <ref_url>  (719) 
https://fakepage.com

>  <submitter_name>  (719) 
Steph Wills

>  <submitter_email>  (719) 
stephanie.wills@dtc.ox.ac.uk

>  <submitter_institution>  (719) 
University of Oxford

>  <generation_date>  (719) 
2020-06-04

>  <method>  (719) 
Fragment network

>  <ref_mols>  (719) 
x0183_0B,x0212_0B

>  <ref_pdb>  (719) 
references/x0183-0B-x0212-0B-308467.holo_minimised_nolig.pdb

>  <original SMILES>  (719) 
CCCCN(C)S(=O)(=O)c1ccc(NC(=O)CCCc2ccccc2)cc1

>  <synthon>  (719) 
[Xe]c1ccccc1

>  <original_name>  (719) 
x0183-0B-x0212-0B-308467

>  <comRMSD_score>  (719) 
0.5992258895163538

>  <IF_score>  (719) 
0.55

>  <SuCOS_score>  (719) 
0.505968151493972

>  <compound_ID>  (719) 
REAL:Z442336474

$$$$

     RDKit          3D

 32 33  0  0  0  0  0  0  0  0999 V2000
  -14.0550    5.7720  -72.7960 C   0  0  0  0  0  0  0  0  0  0  0  0
  -13.1960    6.3570  -73.8500 C   0  0  0  0  0  0  0  0  0  0  0  0
  -11.8320    6.2300  -73.7220 C   0  0  0  0  0  0  0  0  0  0  0  0
  -13.4440    7.8780  -73.7240 C   0  0  0  0  0  0  0  0  0  0  0  0
  -13.3840    6.0130  -75.0230 O   0  0  0  0  0  0  0  0  0  0  0  0
  -13.4220    4.7110  -75.4280 C   0  0  0  0  0  0  0  0  0  0  0  0
  -14.3480    3.7920  -75.0250 O   0  0  0  0  0  0  0  0  0  0  0  0
  -12.4580    4.3120  -76.3460 C   0  0  0  0  0  0  0  0  0  0  0  0
  -11.9350    5.1820  -77.2820 C   0  0  0  0  0  0  0  0  0  0  0  0
  -12.0140    2.9730  -76.3170 C   0  0  0  0  0  0  0  0  0  0  0  0
  -10.9090    4.6410  -78.2350 C   0  0  0  0  0  0  0  0  0  0  0  0
  -11.0440    2.4960  -77.2340 C   0  0  0  0  0  0  0  0  0  0  0  0
  -10.4830    3.3360  -78.2060 C   0  0  0  0  0  0  0  0  0  0  0  0
  -10.6620    1.1780  -77.1490 N   0  0  0  0  0  0  0  0  0  0  0  0
  -10.9070    0.2030  -76.1520 C   0  0  0  0  0  0  0  0  0  0  0  0
  -11.8670    0.2410  -75.1850 O   0  0  0  0  0  0  0  0  0  0  0  0
   -9.9900   -0.9420  -76.2650 N   0  0  0  0  0  0  0  0  0  0  0  0
   -8.6310   -0.6950  -75.7480 C   0  0  0  0  0  0  0  0  0  0  0  0
   -8.2310    0.7900  -75.8500 C   0  0  0  0  0  0  0  0  0  0  0  0
   -6.8350    1.0200  -76.0630 O   0  0  0  0  0  0  0  0  0  0  0  0
   -9.1100    1.8630  -75.7520 N   0  0  0  0  0  0  0  0  0  0  0  0
   -8.8240    3.1590  -76.1750 C   0  0  0  0  0  0  0  0  0  0  0  0
   -8.3340    3.3140  -77.4680 C   0  0  0  0  0  0  0  0  0  0  0  0
   -8.8050    4.1630  -78.2040 O   0  0  0  0  0  0  0  0  0  0  0  0
   -7.2510    2.4440  -77.9170 N   0  0  0  0  0  0  0  0  0  0  0  0
   -6.8290    2.4720  -79.2950 C   0  0  0  0  0  0  0  0  0  0  0  0
   -7.6600    1.6100  -80.0180 C   0  0  0  0  0  0  0  0  0  0  0  0
   -8.1290    2.0050  -81.2540 C   0  0  0  0  0  0  0  0  0  0  0  0
   -8.0360    0.3390  -79.5190 C   0  0  0  0  0  0  0  0  0  0  0  0
   -9.0100    1.1220  -82.0670 C   0  0  0  0  0  0  0  0  0  0  0  0
   -8.8700   -0.5450  -80.2380 C   0  0  0  0  0  0  0  0  0  0  0  0
   -9.3690   -0.2050  -81.4910 C   0  0  0  0  0  0  0  0  0  0  0  0
  1  2  1  0
  2  3  1  0
  2  4  1  0
  2  5  1  0
  5  6  1  0
  6  7  2  0
  6  8  1  0
  8  9  2  0
  8 10  1  0
  9 11  1  0
 10 12  2  0
 11 13  2  0
 12 13  1  0
 12 14  1  0
 14 15  1  0
 15 16  2  0
 15 17  1  0
 17 18  1  0
 18 19  1  0
 19 20  2  0
 19 21  1  0
 21 22  1  0
 22 23  1  0
 23 24  2  0
 23 25  1  0
 25 26  1  0
 26 27  1  0
 27 28  2  0
 27 29  1  0
 28 30  1  0
 29 31  2  0
 30 32  2  0
 31 32  1  0
M  END
>  <ref_url>  (720) 
https://fakepage.com

>  <submitter_name>  (720) 
Steph Wills

>  <submitter_email>  (720) 
stephanie.wills@dtc.ox.ac.uk

>  <submitter_institution>  (720) 
University of Oxford

>  <generation_date>  (720) 
2020-06-04

>  <method>  (720) 
Fragment network

>  <ref_mols>  (720) 
x0183_0B,x0212_0B

>  <ref_pdb>  (720) 
references/x0183-0B-x0212-0B-310385.holo_minimised_nolig.pdb

>  <original SMILES>  (720) 
CC(C)(C)OC(=O)c1cccc(NC(=O)NCC(=O)NCC(=O)NCc2ccccc2)c1

>  <synthon>  (720) 
[Xe]c1ccccc1

>  <original_name>  (720) 
x0183-0B-x0212-0B-310385

>  <comRMSD_score>  (720) 
0.8902293919942043

>  <IF_score>  (720) 
0.65

>  <SuCOS_score>  (720) 
0.546487211874814

>  <compound_ID>  (720) 
REAL:PV-001949131342

$$$$

     RDKit          3D

 23 24  0  0  0  0  0  0  0  0999 V2000
  -12.9610    5.4730  -72.9030 C   0  0  0  0  0  0  0  0  0  0  0  0
  -12.9200    6.3820  -74.1140 C   0  0  0  0  0  0  0  0  0  0  0  0
  -13.6670    5.7810  -75.2090 O   0  0  0  0  0  0  0  0  0  0  0  0
  -13.4040    4.4510  -75.4700 C   0  0  0  0  0  0  0  0  0  0  0  0
  -14.1780    3.5470  -75.1780 O   0  0  0  0  0  0  0  0  0  0  0  0
  -12.0900    4.2310  -76.1740 C   0  0  0  0  0  0  0  0  0  0  0  0
  -11.0330    3.5180  -75.5930 C   0  0  0  0  0  0  0  0  0  0  0  0
  -11.9670    4.7790  -77.4520 C   0  0  0  0  0  0  0  0  0  0  0  0
   -9.8590    3.3820  -76.3230 C   0  0  0  0  0  0  0  0  0  0  0  0
  -10.7890    4.6260  -78.1530 C   0  0  0  0  0  0  0  0  0  0  0  0
   -9.7400    3.9340  -77.5880 C   0  0  0  0  0  0  0  0  0  0  0  0
   -8.4710    3.7360  -78.2310 N   0  0  0  0  0  0  0  0  0  0  0  0
   -7.3730    3.2750  -77.4040 C   0  0  0  0  0  0  0  0  0  0  0  0
   -6.4820    3.8980  -75.9430 S   0  0  0  0  0  0  0  0  0  0  0  0
   -6.9070    2.1030  -77.9490 N   0  0  0  0  0  0  0  0  0  0  0  0
   -6.5380    1.9850  -79.2620 C   0  0  0  0  0  0  0  0  0  0  0  0
   -5.4850    2.4070  -79.7200 O   0  0  0  0  0  0  0  0  0  0  0  0
   -7.5660    1.2660  -80.1370 C   0  0  0  0  0  0  0  0  0  0  0  0
   -7.9890   -0.0850  -79.5900 C   0  0  0  0  0  0  0  0  0  0  0  0
   -8.0860    1.7670  -81.3320 C   0  0  0  0  0  0  0  0  0  0  0  0
   -8.9960   -0.8970  -80.3790 C   0  0  0  0  0  0  0  0  0  0  0  0
   -9.0080    1.0270  -82.0630 C   0  0  0  0  0  0  0  0  0  0  0  0
   -9.4630   -0.2370  -81.6460 C   0  0  0  0  0  0  0  0  0  0  0  0
  1  2  1  0
  2  3  1  0
  3  4  1  0
  4  5  2  0
  4  6  1  0
  6  7  2  0
  6  8  1  0
  7  9  1  0
  8 10  2  0
  9 11  2  0
 10 11  1  0
 11 12  1  0
 12 13  1  0
 13 14  2  0
 13 15  1  0
 15 16  1  0
 16 17  2  0
 16 18  1  0
 18 19  2  0
 18 20  1  0
 19 21  1  0
 20 22  2  0
 21 23  2  0
 22 23  1  0
M  END
>  <ref_url>  (721) 
https://fakepage.com

>  <submitter_name>  (721) 
Steph Wills

>  <submitter_email>  (721) 
stephanie.wills@dtc.ox.ac.uk

>  <submitter_institution>  (721) 
University of Oxford

>  <generation_date>  (721) 
2020-06-04

>  <method>  (721) 
Fragment network

>  <ref_mols>  (721) 
x0183_0B,x0212_0B

>  <ref_pdb>  (721) 
references/x0183-0B-x0212-0B-311826.holo_minimised_nolig.pdb

>  <original SMILES>  (721) 
CCOC(=O)c1ccc(NC(=S)NC(=O)c2ccccc2)cc1

>  <synthon>  (721) 
[Xe]c1ccccc1

>  <original_name>  (721) 
x0183-0B-x0212-0B-311826

>  <comRMSD_score>  (721) 
0.5909508032415657

>  <IF_score>  (721) 
0.55

>  <SuCOS_score>  (721) 
0.5137956900388483

>  <compound_ID>  (721) 
MOLPORT:001-557-250

$$$$

     RDKit          3D

 23 24  0  0  0  0  0  0  0  0999 V2000
  -13.1910    7.7370  -73.5410 C   0  0  0  0  0  0  0  0  0  0  0  0
  -13.2570    6.2890  -73.8500 C   0  0  0  0  0  0  0  0  0  0  0  0
  -13.0250    5.4140  -73.0230 O   0  0  0  0  0  0  0  0  0  0  0  0
  -13.5990    5.7860  -75.0440 C   0  0  0  0  0  0  0  0  0  0  0  0
  -13.5840    4.3540  -75.3630 C   0  0  0  0  0  0  0  0  0  0  0  0
  -12.5730    4.0320  -76.2460 C   0  0  0  0  0  0  0  0  0  0  0  0
  -12.4660    4.7710  -77.4160 C   0  0  0  0  0  0  0  0  0  0  0  0
  -11.6670    2.9850  -75.9950 C   0  0  0  0  0  0  0  0  0  0  0  0
  -11.4900    4.4690  -78.3130 C   0  0  0  0  0  0  0  0  0  0  0  0
  -10.6800    2.6910  -76.9220 C   0  0  0  0  0  0  0  0  0  0  0  0
  -10.6100    3.4510  -78.0920 C   0  0  0  0  0  0  0  0  0  0  0  0
   -9.6390    3.1260  -78.9340 O   0  0  0  0  0  0  0  0  0  0  0  0
   -8.5750    3.8450  -78.4150 C   0  0  0  0  0  0  0  0  0  0  0  0
   -7.9760    2.8940  -77.3970 C   0  0  0  0  0  0  0  0  0  0  0  0
   -8.5450    2.9450  -76.0790 O   0  0  0  0  0  0  0  0  0  0  0  0
   -6.9850    2.0730  -77.8470 N   0  0  0  0  0  0  0  0  0  0  0  0
   -6.8460    2.2150  -79.2540 C   0  0  0  0  0  0  0  0  0  0  0  0
   -7.7170    1.4400  -80.0210 C   0  0  0  0  0  0  0  0  0  0  0  0
   -8.1380    0.1850  -79.5580 C   0  0  0  0  0  0  0  0  0  0  0  0
   -8.1700    1.9040  -81.2620 C   0  0  0  0  0  0  0  0  0  0  0  0
   -9.0010   -0.5950  -80.3260 C   0  0  0  0  0  0  0  0  0  0  0  0
   -9.0270    1.1250  -82.0310 C   0  0  0  0  0  0  0  0  0  0  0  0
   -9.4330   -0.1220  -81.5520 C   0  0  0  0  0  0  0  0  0  0  0  0
  1  2  1  0
  2  3  2  0
  2  4  1  0
  4  5  1  0
  5  6  1  0
  6  7  2  0
  6  8  1  0
  7  9  1  0
  8 10  2  0
  9 11  2  0
 10 11  1  0
 11 12  1  0
 12 13  1  0
 13 14  1  0
 14 15  2  0
 14 16  1  0
 16 17  1  0
 17 18  1  0
 18 19  2  0
 18 20  1  0
 19 21  1  0
 20 22  2  0
 21 23  2  0
 22 23  1  0
M  END
>  <ref_url>  (722) 
https://fakepage.com

>  <submitter_name>  (722) 
Steph Wills

>  <submitter_email>  (722) 
stephanie.wills@dtc.ox.ac.uk

>  <submitter_institution>  (722) 
University of Oxford

>  <generation_date>  (722) 
2020-06-04

>  <method>  (722) 
Fragment network

>  <ref_mols>  (722) 
x0183_0B,x0212_0B

>  <ref_pdb>  (722) 
references/x0183-0B-x0212-0B-311835.holo_minimised_nolig.pdb

>  <original SMILES>  (722) 
CC(=O)CCc1ccc(OCC(=O)NCc2ccccc2)cc1

>  <synthon>  (722) 
[Xe]c1ccccc1

>  <original_name>  (722) 
x0183-0B-x0212-0B-311835

>  <comRMSD_score>  (722) 
0.7991729619280937

>  <IF_score>  (722) 
0.425

>  <SuCOS_score>  (722) 
0.5771566152938263

>  <compound_ID>  (722) 
REAL:Z16163859

$$$$

     RDKit          3D

 22 23  0  0  0  0  0  0  0  0999 V2000
  -13.2760    6.5230  -74.0880 C   0  0  0  0  0  0  0  0  0  0  0  0
  -13.6460    5.7300  -75.2610 O   0  0  0  0  0  0  0  0  0  0  0  0
  -13.2020    4.4220  -75.6130 C   0  0  0  0  0  0  0  0  0  0  0  0
  -13.9780    3.2880  -75.2640 O   0  0  0  0  0  0  0  0  0  0  0  0
  -11.9680    4.2180  -76.4900 C   0  0  0  0  0  0  0  0  0  0  0  0
  -12.5710    4.8680  -77.5950 C   0  0  0  0  0  0  0  0  0  0  0  0
  -10.5950    3.6730  -76.5950 C   0  0  0  0  0  0  0  0  0  0  0  0
  -11.8870    4.9780  -78.7060 C   0  0  0  0  0  0  0  0  0  0  0  0
   -9.9780    3.8580  -77.7960 C   0  0  0  0  0  0  0  0  0  0  0  0
   -9.7170    2.9850  -75.7490 N   0  0  0  0  0  0  0  0  0  0  0  0
  -10.6020    4.4850  -78.8020 C   0  0  0  0  0  0  0  0  0  0  0  0
   -8.3640    2.7950  -76.1850 C   0  0  0  0  0  0  0  0  0  0  0  0
   -7.0710    3.5060  -75.4100 S   0  0  0  0  0  0  0  0  0  0  0  0
   -8.2300    1.9720  -77.2940 N   0  0  0  0  0  0  0  0  0  0  0  0
   -7.5710    2.3450  -78.5520 C   0  0  0  0  0  0  0  0  0  0  0  0
   -6.5350    3.3330  -78.6320 O   0  0  0  0  0  0  0  0  0  0  0  0
   -8.1640    1.5080  -79.6730 C   0  0  0  0  0  0  0  0  0  0  0  0
   -8.5900    0.2220  -79.3340 C   0  0  0  0  0  0  0  0  0  0  0  0
   -8.3070    1.9540  -80.9990 C   0  0  0  0  0  0  0  0  0  0  0  0
   -9.1500   -0.6020  -80.2840 C   0  0  0  0  0  0  0  0  0  0  0  0
   -8.8740    1.1010  -81.9370 C   0  0  0  0  0  0  0  0  0  0  0  0
   -9.3000   -0.1780  -81.5870 C   0  0  0  0  0  0  0  0  0  0  0  0
  1  2  1  0
  2  3  1  0
  3  4  2  0
  3  5  1  0
  5  6  2  0
  5  7  1  0
  6  8  1  0
  7  9  2  0
  7 10  1  0
  8 11  2  0
  9 11  1  0
 10 12  1  0
 12 13  2  0
 12 14  1  0
 14 15  1  0
 15 16  2  0
 15 17  1  0
 17 18  2  0
 17 19  1  0
 18 20  1  0
 19 21  2  0
 20 22  2  0
 21 22  1  0
M  END
>  <ref_url>  (723) 
https://fakepage.com

>  <submitter_name>  (723) 
Steph Wills

>  <submitter_email>  (723) 
stephanie.wills@dtc.ox.ac.uk

>  <submitter_institution>  (723) 
University of Oxford

>  <generation_date>  (723) 
2020-06-04

>  <method>  (723) 
Fragment network

>  <ref_mols>  (723) 
x0183_0B,x0212_0B

>  <ref_pdb>  (723) 
references/x0183-0B-x0212-0B-311998.holo_minimised_nolig.pdb

>  <original SMILES>  (723) 
COC(=O)c1ccccc1NC(=S)NC(=O)c1ccccc1

>  <synthon>  (723) 
[Xe]c1ccccc1

>  <original_name>  (723) 
x0183-0B-x0212-0B-311998

>  <comRMSD_score>  (723) 
0.9656921524654408

>  <IF_score>  (723) 
0.5

>  <SuCOS_score>  (723) 
0.4780515873248622

>  <compound_ID>  (723) 
MOLPORT:002-196-930

$$$$

     RDKit          3D

 25 28  0  0  0  0  0  0  0  0999 V2000
  -11.4040    6.8300  -73.5250 O   0  0  0  0  0  0  0  0  0  0  0  0
  -12.4870    6.3940  -73.9470 C   0  0  0  0  0  0  0  0  0  0  0  0
  -12.9160    4.9370  -73.8920 C   0  0  0  0  0  0  0  0  0  0  0  0
  -13.4110    7.2140  -74.5350 N   0  0  0  0  0  0  0  0  0  0  0  0
  -13.2140    4.3540  -75.2740 C   0  0  2  0  0  0  0  0  0  0  0  0
  -14.0600    6.6690  -75.6280 C   0  0  0  0  0  0  0  0  0  0  0  0
  -11.9620    4.0960  -76.0720 C   0  0  0  0  0  0  0  0  0  0  0  0
  -14.0150    5.3400  -76.0340 C   0  0  0  0  0  0  0  0  0  0  0  0
  -14.8580    7.3240  -76.5080 N   0  0  0  0  0  0  0  0  0  0  0  0
  -11.8250    4.6660  -77.3460 C   0  0  0  0  0  0  0  0  0  0  0  0
  -10.9210    3.3020  -75.5710 C   0  0  0  0  0  0  0  0  0  0  0  0
  -14.8310    5.3070  -77.1800 C   0  0  0  0  0  0  0  0  0  0  0  0
  -15.3440    6.5150  -77.4700 N   0  0  0  0  0  0  0  0  0  0  0  0
  -10.6760    4.4430  -78.0880 C   0  0  0  0  0  0  0  0  0  0  0  0
   -9.7720    3.0870  -76.3220 C   0  0  0  0  0  0  0  0  0  0  0  0
   -9.6510    3.6590  -77.5780 C   0  0  0  0  0  0  0  0  0  0  0  0
   -8.5960    3.5330  -78.3980 O   0  0  0  0  0  0  0  0  0  0  0  0
   -7.5560    2.6730  -77.9760 C   0  0  0  0  0  0  0  0  0  0  0  0
   -6.7860    2.2410  -79.2060 C   0  0  0  0  0  0  0  0  0  0  0  0
   -7.6720    1.4000  -80.0680 C   0  0  0  0  0  0  0  0  0  0  0  0
   -8.0600    0.1300  -79.6320 C   0  0  0  0  0  0  0  0  0  0  0  0
   -8.1210    1.8700  -81.3080 C   0  0  0  0  0  0  0  0  0  0  0  0
   -8.8810   -0.6670  -80.4190 C   0  0  0  0  0  0  0  0  0  0  0  0
   -8.9370    1.0700  -82.0890 C   0  0  0  0  0  0  0  0  0  0  0  0
   -9.3170   -0.1960  -81.6480 C   0  0  0  0  0  0  0  0  0  0  0  0
  1  2  2  0
  2  3  1  0
  2  4  1  0
  3  5  1  0
  4  6  1  0
  5  7  1  6
  5  8  1  0
  6  8  2  0
  6  9  1  0
  7 10  2  0
  7 11  1  0
  8 12  1  0
  9 13  1  0
 12 13  2  0
 10 14  1  0
 11 15  2  0
 14 16  2  0
 15 16  1  0
 16 17  1  0
 17 18  1  0
 18 19  1  0
 19 20  1  0
 20 21  2  0
 20 22  1  0
 21 23  1  0
 22 24  2  0
 23 25  2  0
 24 25  1  0
M  END
>  <ref_url>  (724) 
https://fakepage.com

>  <submitter_name>  (724) 
Steph Wills

>  <submitter_email>  (724) 
stephanie.wills@dtc.ox.ac.uk

>  <submitter_institution>  (724) 
University of Oxford

>  <generation_date>  (724) 
2020-06-04

>  <method>  (724) 
Fragment network

>  <ref_mols>  (724) 
x0183_0B,x0212_0B

>  <ref_pdb>  (724) 
references/x0183-0B-x0212-0B-316125.holo_minimised_nolig.pdb

>  <original SMILES>  (724) 
O=C1CC(c2ccc(OCCc3ccccc3)cc2)c2cn[nH]c2N1

>  <synthon>  (724) 
[Xe]c1ccccc1

>  <original_name>  (724) 
x0183-0B-x0212-0B-316125

>  <comRMSD_score>  (724) 
0.7228837548851967

>  <IF_score>  (724) 
0.8

>  <SuCOS_score>  (724) 
0.5813751009694235

>  <compound_ID>  (724) 
MOLPORT:042-646-721

$$$$

     RDKit          3D

 21 23  0  0  0  0  0  0  0  0999 V2000
   -8.2730    2.8700  -77.8600 C   0  0  0  0  0  0  0  0  0  0  0  0
   -9.3680    3.1130  -78.4600 C   0  0  0  0  0  0  0  0  0  0  0  0
  -10.3900    3.5590  -77.5620 C   0  0  0  0  0  0  0  0  0  0  0  0
   -7.0730    2.5410  -77.1750 C   0  0  0  0  0  0  0  0  0  0  0  0
   -6.2940    1.8450  -78.1530 N   0  0  0  0  0  0  0  0  0  0  0  0
  -10.4810    2.9070  -76.2580 C   0  0  0  0  0  0  0  0  0  0  0  0
  -11.2600    4.6280  -77.9900 C   0  0  0  0  0  0  0  0  0  0  0  0
   -6.6420    2.3660  -79.4780 C   0  0  0  0  0  0  0  0  0  0  0  0
  -11.4740    3.3620  -75.4150 C   0  0  0  0  0  0  0  0  0  0  0  0
  -12.2180    5.0180  -77.1030 C   0  0  0  0  0  0  0  0  0  0  0  0
   -7.5750    1.5150  -80.0850 C   0  0  0  0  0  0  0  0  0  0  0  0
  -12.3270    4.3960  -75.8330 C   0  0  0  0  0  0  0  0  0  0  0  0
   -7.9650    0.2940  -79.5210 C   0  0  0  0  0  0  0  0  0  0  0  0
   -8.1330    1.9040  -81.3120 C   0  0  0  0  0  0  0  0  0  0  0  0
  -13.3220    4.8470  -74.9850 C   0  0  0  0  0  0  0  0  0  0  0  0
   -8.8890   -0.5200  -80.1790 C   0  0  0  0  0  0  0  0  0  0  0  0
   -9.0510    1.0870  -81.9610 C   0  0  0  0  0  0  0  0  0  0  0  0
  -13.5640    6.1690  -75.0680 C   0  0  0  0  0  0  0  0  0  0  0  0
  -13.0180    5.1820  -73.3900 C   0  0  0  0  0  0  0  0  0  0  0  0
   -9.4310   -0.1300  -81.3960 C   0  0  0  0  0  0  0  0  0  0  0  0
  -12.9870    6.5040  -73.7880 C   0  0  0  0  0  0  0  0  0  0  0  0
  1  2  3  0
  2  3  1  0
  1  4  1  0
  4  5  1  0
  3  6  2  0
  3  7  1  0
  5  8  1  0
  6  9  1  0
  7 10  2  0
  8 11  1  0
  9 12  2  0
 10 12  1  0
 11 13  2  0
 11 14  1  0
 12 15  1  0
 13 16  1  0
 14 17  2  0
 15 18  1  0
 15 19  1  0
 16 20  2  0
 17 20  1  0
 18 21  1  0
 19 21  1  0
M  END
>  <ref_url>  (725) 
https://fakepage.com

>  <submitter_name>  (725) 
Steph Wills

>  <submitter_email>  (725) 
stephanie.wills@dtc.ox.ac.uk

>  <submitter_institution>  (725) 
University of Oxford

>  <generation_date>  (725) 
2020-06-04

>  <method>  (725) 
Fragment network

>  <ref_mols>  (725) 
x0183_0B,x0212_0B

>  <ref_pdb>  (725) 
references/x0183-0B-x0212-0B-317647.holo_minimised_nolig.pdb

>  <original SMILES>  (725) 
C(#Cc1ccc(C2CCC2)cc1)CNCc1ccccc1

>  <synthon>  (725) 
[Xe]c1ccccc1

>  <original_name>  (725) 
x0183-0B-x0212-0B-317647

>  <comRMSD_score>  (725) 
0.9638492851293934

>  <IF_score>  (725) 
0.55

>  <SuCOS_score>  (725) 
0.5013690332754799

>  <compound_ID>  (725) 
CHEMSPACE-BB:CSMB00109399471

$$$$

     RDKit          3D

 21 22  0  0  0  0  0  0  0  0999 V2000
  -12.7420    6.2900  -73.8040 C   0  0  0  0  0  0  0  0  0  0  0  0
  -13.1380    5.8040  -75.2240 C   0  0  0  0  0  0  0  0  0  0  0  0
  -13.0690    4.2600  -75.3090 C   0  0  0  0  0  0  0  0  0  0  0  0
  -11.9510    3.5960  -75.8400 C   0  0  0  0  0  0  0  0  0  0  0  0
  -11.2300    2.6990  -75.0420 C   0  0  0  0  0  0  0  0  0  0  0  0
  -11.4510    3.7310  -77.1390 C   0  0  0  0  0  0  0  0  0  0  0  0
  -10.1090    2.0170  -75.5410 C   0  0  0  0  0  0  0  0  0  0  0  0
  -10.3550    3.0510  -77.5980 C   0  0  0  0  0  0  0  0  0  0  0  0
  -11.8280    4.4680  -78.1660 N   0  0  0  0  0  0  0  0  0  0  0  0
   -9.6500    2.1830  -76.8290 C   0  0  0  0  0  0  0  0  0  0  0  0
  -10.5450    4.7790  -78.7860 C   0  0  0  0  0  0  0  0  0  0  0  0
   -9.5050    3.9930  -78.2330 C   0  0  0  0  0  0  0  0  0  0  0  0
   -8.3020    4.0000  -79.0790 N   0  0  0  0  0  0  0  0  0  0  0  0
   -7.4070    3.1460  -78.3900 O   0  0  0  0  0  0  0  0  0  0  0  0
   -6.7960    2.3160  -79.3590 C   0  0  0  0  0  0  0  0  0  0  0  0
   -7.6760    1.3700  -80.0410 C   0  0  0  0  0  0  0  0  0  0  0  0
   -8.0730    0.0830  -79.5350 C   0  0  0  0  0  0  0  0  0  0  0  0
   -8.1390    1.8130  -81.2900 C   0  0  0  0  0  0  0  0  0  0  0  0
   -8.9070   -0.6570  -80.3470 C   0  0  0  0  0  0  0  0  0  0  0  0
   -8.9650    1.0360  -82.0540 C   0  0  0  0  0  0  0  0  0  0  0  0
   -9.3540   -0.2100  -81.5820 C   0  0  0  0  0  0  0  0  0  0  0  0
  1  2  1  0
  2  3  1  0
  3  4  1  0
  4  5  2  0
  4  6  1  0
  5  7  1  0
  6  8  2  0
  6  9  1  0
  7 10  2  0
  8 10  1  0
  9 11  1  0
 11 12  1  0
 12 13  1  0
 13 14  1  0
 14 15  1  0
 15 16  1  0
 16 17  2  0
 16 18  1  0
 17 19  1  0
 18 20  2  0
 19 21  2  0
 20 21  1  0
M  END
>  <ref_url>  (726) 
https://fakepage.com

>  <submitter_name>  (726) 
Steph Wills

>  <submitter_email>  (726) 
stephanie.wills@dtc.ox.ac.uk

>  <submitter_institution>  (726) 
University of Oxford

>  <generation_date>  (726) 
2020-06-04

>  <method>  (726) 
Fragment network

>  <ref_mols>  (726) 
x0183_0B,x0212_0B

>  <ref_pdb>  (726) 
references/x0183-0B-x0212-0B-318458.holo_minimised_nolig.pdb

>  <original SMILES>  (726) 
CCCc1ccccc1NCCNOCc1ccccc1

>  <synthon>  (726) 
[Xe]c1ccccc1

>  <original_name>  (726) 
x0183-0B-x0212-0B-318458

>  <comRMSD_score>  (726) 
0.9965605294656664

>  <IF_score>  (726) 
0.55

>  <SuCOS_score>  (726) 
0.500492673328359

>  <compound_ID>  (726) 
CHEMSPACE-BB:CSMB00155146112

$$$$

     RDKit          3D

 22 23  0  0  0  0  0  0  0  0999 V2000
  -14.2870    3.1720  -75.6560 C   0  0  0  0  0  0  0  0  0  0  0  0
  -13.2910    4.0590  -74.9950 C   0  0  0  0  0  0  0  0  0  0  0  0
  -13.5570    5.4180  -74.7770 C   0  0  0  0  0  0  0  0  0  0  0  0
  -13.0270    3.4660  -73.5920 C   0  0  0  0  0  0  0  0  0  0  0  0
  -12.0350    3.9860  -75.8360 C   0  0  0  0  0  0  0  0  0  0  0  0
  -11.9120    4.8470  -76.9230 C   0  0  0  0  0  0  0  0  0  0  0  0
  -11.0110    3.0570  -75.5050 C   0  0  0  0  0  0  0  0  0  0  0  0
  -10.7870    4.8130  -77.6930 C   0  0  0  0  0  0  0  0  0  0  0  0
   -9.8500    2.9810  -76.2460 C   0  0  0  0  0  0  0  0  0  0  0  0
   -9.7100    3.8300  -77.3180 C   0  0  0  0  0  0  0  0  0  0  0  0
   -8.2730    3.9050  -78.3640 S   0  0  0  0  0  0  0  0  0  0  0  0
   -7.1570    4.2000  -77.4940 O   0  0  0  0  0  0  0  0  0  0  0  0
   -8.6740    4.6160  -79.5510 O   0  0  0  0  0  0  0  0  0  0  0  0
   -7.9070    2.3510  -78.8650 C   0  0  0  0  0  0  0  0  0  0  0  0
   -6.6350    2.1350  -79.2760 C   0  0  0  0  0  0  0  0  0  0  0  0
   -6.3680    0.9460  -79.6840 C   0  0  0  0  0  0  0  0  0  0  0  0
   -7.6600    0.5970  -80.3670 C   0  0  0  0  0  0  0  0  0  0  0  0
   -8.4290   -0.6190  -79.9340 C   0  0  0  0  0  0  0  0  0  0  0  0
   -8.1780    1.3990  -81.3910 C   0  0  0  0  0  0  0  0  0  0  0  0
   -9.6210   -0.9230  -80.5520 C   0  0  0  0  0  0  0  0  0  0  0  0
   -9.3760    1.0440  -81.9800 C   0  0  0  0  0  0  0  0  0  0  0  0
  -10.0900   -0.0970  -81.5670 C   0  0  0  0  0  0  0  0  0  0  0  0
  2  1  1  0
  2  3  1  0
  2  4  1  0
  2  5  1  0
  5  6  2  0
  5  7  1  0
  6  8  1  0
  7  9  2  0
  8 10  2  0
  9 10  1  0
 10 11  1  0
 11 12  2  0
 11 13  2  0
 11 14  1  0
 14 15  2  3
 15 16  1  0
 16 17  1  0
 17 18  2  0
 17 19  1  0
 18 20  1  0
 19 21  2  0
 20 22  2  0
 21 22  1  0
M  END
>  <ref_url>  (727) 
https://fakepage.com

>  <submitter_name>  (727) 
Steph Wills

>  <submitter_email>  (727) 
stephanie.wills@dtc.ox.ac.uk

>  <submitter_institution>  (727) 
University of Oxford

>  <generation_date>  (727) 
2020-06-04

>  <method>  (727) 
Fragment network

>  <ref_mols>  (727) 
x0183_0B,x0212_0B

>  <ref_pdb>  (727) 
references/x0183-0B-x0212-0B-318833.holo_minimised_nolig.pdb

>  <original SMILES>  (727) 
CC(C)(C)c1ccc(S(=O)(=O)C=CCc2ccccc2)cc1

>  <synthon>  (727) 
[Xe]c1ccccc1

>  <original_name>  (727) 
x0183-0B-x0212-0B-318833

>  <comRMSD_score>  (727) 
0.9932055376406236

>  <IF_score>  (727) 
0.5

>  <SuCOS_score>  (727) 
0.4795273151589974

>  <compound_ID>  (727) 
MOLPORT:002-846-354

$$$$

     RDKit          3D

 21 23  0  0  0  0  0  0  0  0999 V2000
   -6.8220    3.7790  -77.4560 O   0  0  0  0  0  0  0  0  0  0  0  0
   -7.4310    3.0420  -78.2150 C   0  0  0  0  0  0  0  0  0  0  0  0
   -6.9620    2.4320  -79.3490 N   0  0  0  0  0  0  0  0  0  0  0  0
   -8.7380    2.6250  -78.1050 N   0  0  0  0  0  0  0  0  0  0  0  0
   -7.7580    1.5330  -80.0700 C   0  0  0  0  0  0  0  0  0  0  0  0
   -9.7730    3.2940  -77.5230 C   0  0  0  0  0  0  0  0  0  0  0  0
   -8.1970    1.9350  -81.3280 C   0  0  0  0  0  0  0  0  0  0  0  0
   -8.1310    0.2750  -79.5870 C   0  0  0  0  0  0  0  0  0  0  0  0
  -10.5870    4.2270  -78.1810 C   0  0  0  0  0  0  0  0  0  0  0  0
   -9.9870    2.9910  -76.2260 C   0  0  0  0  0  0  0  0  0  0  0  0
   -8.9930    1.0910  -82.0890 C   0  0  0  0  0  0  0  0  0  0  0  0
   -8.9330   -0.5690  -80.3520 C   0  0  0  0  0  0  0  0  0  0  0  0
  -11.6200    4.8430  -77.4570 C   0  0  0  0  0  0  0  0  0  0  0  0
  -10.9720    3.5730  -75.5270 C   0  0  0  0  0  0  0  0  0  0  0  0
   -9.3620   -0.1600  -81.6020 C   0  0  0  0  0  0  0  0  0  0  0  0
  -11.7910    4.4980  -76.1060 C   0  0  0  0  0  0  0  0  0  0  0  0
  -12.7840    5.0670  -75.1840 C   0  0  1  0  0  0  0  0  0  0  0  0
  -13.1940    6.4870  -75.3140 C   0  0  0  0  0  0  0  0  0  0  0  0
  -14.0930    4.4650  -74.7820 C   0  0  0  0  0  0  0  0  0  0  0  0
  -13.5010    6.5460  -73.8440 C   0  0  0  0  0  0  0  0  0  0  0  0
  -14.3140    5.3400  -73.6170 O   0  0  0  0  0  0  0  0  0  0  0  0
  1  2  2  0
  2  3  1  0
  2  4  1  0
  3  5  1  0
  4  6  1  0
  5  7  2  0
  5  8  1  0
  6  9  2  0
  6 10  1  0
  7 11  1  0
  8 12  2  0
  9 13  1  0
 10 14  2  0
 11 15  2  0
 12 15  1  0
 13 16  2  0
 14 16  1  0
 17 16  1  6
 17 18  1  0
 17 19  1  0
 18 20  1  0
 19 21  1  0
 20 21  1  0
M  END
>  <ref_url>  (728) 
https://fakepage.com

>  <submitter_name>  (728) 
Steph Wills

>  <submitter_email>  (728) 
stephanie.wills@dtc.ox.ac.uk

>  <submitter_institution>  (728) 
University of Oxford

>  <generation_date>  (728) 
2020-06-04

>  <method>  (728) 
Fragment network

>  <ref_mols>  (728) 
x0183_0B,x0212_0B

>  <ref_pdb>  (728) 
references/x0183-0B-x0212-0B-319474.holo_minimised_nolig.pdb

>  <original SMILES>  (728) 
O=C(Nc1ccccc1)Nc1ccc(C2CCOC2)cc1

>  <synthon>  (728) 
[Xe]c1ccccc1

>  <original_name>  (728) 
x0183-0B-x0212-0B-319474

>  <comRMSD_score>  (728) 
0.9640841172766964

>  <IF_score>  (728) 
0.55

>  <SuCOS_score>  (728) 
0.4716689271806394

>  <compound_ID>  (728) 
REAL:PV-001941540261

$$$$

     RDKit          3D

 19 20  0  0  0  0  0  0  0  0999 V2000
  -14.4520    3.4860  -76.0210 C   0  0  0  0  0  0  0  0  0  0  0  0
  -13.4640    4.3440  -75.3120 C   0  0  0  0  0  0  0  0  0  0  0  0
  -13.5780    5.7330  -75.2390 C   0  0  0  0  0  0  0  0  0  0  0  0
  -12.1340    4.0820  -76.0170 C   0  0  0  0  0  0  0  0  0  0  0  0
  -11.8230    4.6180  -77.2650 C   0  0  0  0  0  0  0  0  0  0  0  0
  -11.1780    3.2790  -75.4120 C   0  0  0  0  0  0  0  0  0  0  0  0
  -10.6250    4.3890  -77.9150 C   0  0  0  0  0  0  0  0  0  0  0  0
   -9.9760    3.0380  -76.0410 C   0  0  0  0  0  0  0  0  0  0  0  0
   -9.6730    3.5800  -77.2910 C   0  0  0  0  0  0  0  0  0  0  0  0
   -8.3320    3.2410  -77.8600 C   0  0  0  0  0  0  0  0  0  0  0  0
   -7.6570    2.1550  -77.3870 N   0  0  0  0  0  0  0  0  0  0  0  0
   -6.4820    2.0920  -78.0710 N   0  0  0  0  0  0  0  0  0  0  0  0
   -6.7870    2.4960  -79.4500 C   0  0  0  0  0  0  0  0  0  0  0  0
   -7.6610    1.5900  -80.0560 C   0  0  0  0  0  0  0  0  0  0  0  0
   -8.0090    0.3920  -79.4400 C   0  0  0  0  0  0  0  0  0  0  0  0
   -8.2040    1.8870  -81.3230 C   0  0  0  0  0  0  0  0  0  0  0  0
   -8.9460   -0.5800  -80.1080 C   0  0  0  0  0  0  0  0  0  0  0  0
   -9.0790    1.0280  -82.0030 C   0  0  0  0  0  0  0  0  0  0  0  0
   -9.4710   -0.1810  -81.4600 C   0  0  0  0  0  0  0  0  0  0  0  0
  1  2  1  0
  2  3  1  0
  2  4  1  0
  4  5  2  0
  4  6  1  0
  5  7  1  0
  6  8  2  0
  7  9  2  0
  8  9  1  0
  9 10  1  0
 10 11  2  3
 11 12  1  0
 12 13  1  0
 13 14  1  0
 14 15  2  0
 14 16  1  0
 15 17  1  0
 16 18  2  0
 17 19  2  0
 18 19  1  0
M  END
>  <ref_url>  (729) 
https://fakepage.com

>  <submitter_name>  (729) 
Steph Wills

>  <submitter_email>  (729) 
stephanie.wills@dtc.ox.ac.uk

>  <submitter_institution>  (729) 
University of Oxford

>  <generation_date>  (729) 
2020-06-04

>  <method>  (729) 
Fragment network

>  <ref_mols>  (729) 
x0183_0B,x0212_0B

>  <ref_pdb>  (729) 
references/x0183-0B-x0212-0B-320185.holo_minimised_nolig.pdb

>  <original SMILES>  (729) 
CC(C)c1ccc(C=NNCc2ccccc2)cc1

>  <synthon>  (729) 
[Xe]c1ccccc1

>  <original_name>  (729) 
x0183-0B-x0212-0B-320185

>  <comRMSD_score>  (729) 
0.5458912935263076

>  <IF_score>  (729) 
0.55

>  <SuCOS_score>  (729) 
0.5146585286856079

>  <compound_ID>  (729) 
CHEMSPACE-BB:CSMB00103776319

$$$$

     RDKit          3D

 25 26  0  0  0  0  0  0  0  0999 V2000
  -13.5500    7.9390  -73.5000 C   0  0  0  0  0  0  0  0  0  0  0  0
  -13.1120    6.5490  -73.7940 C   0  0  0  0  0  0  0  0  0  0  0  0
  -11.7810    6.2090  -73.6570 C   0  0  0  0  0  0  0  0  0  0  0  0
  -13.8190    5.6570  -72.7710 C   0  0  0  0  0  0  0  0  0  0  0  0
  -13.6920    6.0900  -75.4500 S   0  0  0  0  0  0  0  0  0  0  0  0
  -15.1320    6.1460  -75.3880 O   0  0  0  0  0  0  0  0  0  0  0  0
  -12.9560    6.9160  -76.3810 O   0  0  0  0  0  0  0  0  0  0  0  0
  -13.2560    4.4150  -75.8550 C   0  0  0  0  0  0  0  0  0  0  0  0
  -12.0540    4.2280  -76.5260 C   0  0  0  0  0  0  0  0  0  0  0  0
  -11.9620    4.7430  -77.8150 C   0  0  0  0  0  0  0  0  0  0  0  0
  -10.9520    3.5500  -75.9520 C   0  0  0  0  0  0  0  0  0  0  0  0
  -10.6740    4.5580  -78.5790 C   0  0  0  0  0  0  0  0  0  0  0  0
   -9.7630    3.3980  -76.6980 C   0  0  0  0  0  0  0  0  0  0  0  0
   -9.6520    3.9000  -77.9810 C   0  0  0  0  0  0  0  0  0  0  0  0
   -8.6940    2.7570  -76.2030 N   0  0  0  0  0  0  0  0  0  0  0  0
   -8.1520    1.6640  -76.8620 C   0  0  0  0  0  0  0  0  0  0  0  0
   -8.6490    0.3970  -76.8240 O   0  0  0  0  0  0  0  0  0  0  0  0
   -6.9390    1.9920  -77.6360 N   0  0  0  0  0  0  0  0  0  0  0  0
   -7.1480    2.6070  -78.9680 C   0  0  0  0  0  0  0  0  0  0  0  0
   -7.8720    1.6110  -79.8860 C   0  0  0  0  0  0  0  0  0  0  0  0
   -8.1840    0.3130  -79.4400 C   0  0  0  0  0  0  0  0  0  0  0  0
   -8.2260    1.9930  -81.1810 C   0  0  0  0  0  0  0  0  0  0  0  0
   -8.8450   -0.5870  -80.2840 C   0  0  0  0  0  0  0  0  0  0  0  0
   -8.8770    1.0800  -81.9910 C   0  0  0  0  0  0  0  0  0  0  0  0
   -9.1940   -0.2010  -81.5680 C   0  0  0  0  0  0  0  0  0  0  0  0
  2  1  1  0
  2  3  1  0
  2  4  1  0
  2  5  1  0
  5  6  2  0
  5  7  2  0
  5  8  1  0
  8  9  1  0
  9 10  2  0
  9 11  1  0
 10 12  1  0
 11 13  2  0
 12 14  2  0
 13 14  1  0
 13 15  1  0
 15 16  1  0
 16 17  2  0
 16 18  1  0
 18 19  1  0
 19 20  1  0
 20 21  2  0
 20 22  1  0
 21 23  1  0
 22 24  2  0
 23 25  2  0
 24 25  1  0
M  END
>  <ref_url>  (730) 
https://fakepage.com

>  <submitter_name>  (730) 
Steph Wills

>  <submitter_email>  (730) 
stephanie.wills@dtc.ox.ac.uk

>  <submitter_institution>  (730) 
University of Oxford

>  <generation_date>  (730) 
2020-06-04

>  <method>  (730) 
Fragment network

>  <ref_mols>  (730) 
x0183_0B,x0212_0B

>  <ref_pdb>  (730) 
references/x0183-0B-x0212-0B-320381.holo_minimised_nolig.pdb

>  <original SMILES>  (730) 
CC(C)(C)S(=O)(=O)Cc1cccc(NC(=O)NCc2ccccc2)c1

>  <synthon>  (730) 
[Xe]c1ccccc1

>  <original_name>  (730) 
x0183-0B-x0212-0B-320381

>  <comRMSD_score>  (730) 
0.6203076297737722

>  <IF_score>  (730) 
0.55

>  <SuCOS_score>  (730) 
0.56644205679351

>  <compound_ID>  (730) 
REAL:Z1186091875

$$$$

     RDKit          3D

 23 24  0  0  0  0  0  0  0  0999 V2000
  -14.2850    3.0930  -75.6070 C   0  0  0  0  0  0  0  0  0  0  0  0
  -13.5940    4.3780  -76.0570 C   0  0  0  0  0  0  0  0  0  0  0  0
  -13.7460    5.5320  -75.0530 C   0  0  0  0  0  0  0  0  0  0  0  0
  -12.1530    4.1260  -76.4310 C   0  0  0  0  0  0  0  0  0  0  0  0
  -11.6600    4.6460  -77.6320 C   0  0  0  0  0  0  0  0  0  0  0  0
  -11.2960    3.3870  -75.6120 C   0  0  0  0  0  0  0  0  0  0  0  0
  -10.3350    4.4310  -77.9940 C   0  0  0  0  0  0  0  0  0  0  0  0
   -9.9760    3.1780  -75.9780 C   0  0  0  0  0  0  0  0  0  0  0  0
   -9.4910    3.7000  -77.1580 C   0  0  0  0  0  0  0  0  0  0  0  0
   -8.1680    3.5250  -77.5360 N   0  0  0  0  0  0  0  0  0  0  0  0
   -7.0860    3.4520  -76.6820 C   0  0  0  0  0  0  0  0  0  0  0  0
   -6.7910    4.1590  -75.7270 O   0  0  0  0  0  0  0  0  0  0  0  0
   -6.2530    2.4470  -76.9640 N   0  0  0  0  0  0  0  0  0  0  0  0
   -6.5610    1.4650  -77.9660 C   0  0  0  0  0  0  0  0  0  0  0  0
   -6.5860    2.0140  -79.4030 C   0  0  0  0  0  0  0  0  0  0  0  0
   -6.7780    3.3640  -79.3840 F   0  0  0  0  0  0  0  0  0  0  0  0
   -5.3330    1.8460  -79.9330 F   0  0  0  0  0  0  0  0  0  0  0  0
   -7.6240    1.2770  -80.1890 C   0  0  0  0  0  0  0  0  0  0  0  0
   -8.1490    1.8040  -81.3680 C   0  0  0  0  0  0  0  0  0  0  0  0
   -8.0650    0.0280  -79.7260 C   0  0  0  0  0  0  0  0  0  0  0  0
   -9.0930    1.0800  -82.0660 C   0  0  0  0  0  0  0  0  0  0  0  0
   -9.0150   -0.6920  -80.4300 C   0  0  0  0  0  0  0  0  0  0  0  0
   -9.5250   -0.1640  -81.6010 C   0  0  0  0  0  0  0  0  0  0  0  0
  1  2  1  0
  2  3  1  0
  2  4  1  0
  4  5  2  0
  4  6  1  0
  5  7  1  0
  6  8  2  0
  7  9  2  0
  8  9  1  0
  9 10  1  0
 10 11  1  0
 11 12  2  0
 11 13  1  0
 13 14  1  0
 14 15  1  0
 15 16  1  0
 15 17  1  0
 15 18  1  0
 18 19  2  0
 18 20  1  0
 19 21  1  0
 20 22  2  0
 21 23  2  0
 22 23  1  0
M  END
>  <ref_url>  (731) 
https://fakepage.com

>  <submitter_name>  (731) 
Steph Wills

>  <submitter_email>  (731) 
stephanie.wills@dtc.ox.ac.uk

>  <submitter_institution>  (731) 
University of Oxford

>  <generation_date>  (731) 
2020-06-04

>  <method>  (731) 
Fragment network

>  <ref_mols>  (731) 
x0183_0B,x0212_0B

>  <ref_pdb>  (731) 
references/x0183-0B-x0212-0B-320397.holo_minimised_nolig.pdb

>  <original SMILES>  (731) 
CC(C)c1ccc(NC(=O)NCC(F)(F)c2ccccc2)cc1

>  <synthon>  (731) 
[Xe]c1ccccc1

>  <original_name>  (731) 
x0183-0B-x0212-0B-320397

>  <comRMSD_score>  (731) 
0.6638702810037512

>  <IF_score>  (731) 
0.55

>  <SuCOS_score>  (731) 
0.4866584886264026

>  <compound_ID>  (731) 
REAL:PV-001940566165

$$$$

     RDKit          3D

 19 20  0  0  0  0  0  0  0  0999 V2000
  -12.6880    6.3920  -73.8430 C   0  0  0  0  0  0  0  0  0  0  0  0
  -13.2030    6.1190  -75.2690 C   0  0  0  0  0  0  0  0  0  0  0  0
  -13.2140    4.7340  -75.8430 C   0  0  0  0  0  0  0  0  0  0  0  0
  -12.0040    4.1820  -76.2680 C   0  0  0  0  0  0  0  0  0  0  0  0
  -11.2740    3.2970  -75.4980 C   0  0  0  0  0  0  0  0  0  0  0  0
  -11.5480    4.5590  -77.5430 C   0  0  0  0  0  0  0  0  0  0  0  0
  -10.0910    2.7750  -76.0020 C   0  0  0  0  0  0  0  0  0  0  0  0
  -10.3520    4.0280  -78.0420 C   0  0  0  0  0  0  0  0  0  0  0  0
   -9.6280    3.1230  -77.2600 C   0  0  0  0  0  0  0  0  0  0  0  0
   -8.4350    2.4840  -77.6110 N   0  0  0  0  0  0  0  0  0  0  0  0
   -7.2580    2.9940  -78.0500 C   0  0  0  0  0  0  0  0  0  0  0  0
   -6.4170    3.6800  -77.4870 O   0  0  0  0  0  0  0  0  0  0  0  0
   -6.9540    2.6730  -79.3630 C   0  0  0  0  0  0  0  0  0  0  0  0
   -7.7490    1.7140  -79.9980 C   0  0  0  0  0  0  0  0  0  0  0  0
   -8.2560    2.0690  -81.4090 C   0  0  0  0  0  0  0  0  0  0  0  0
   -8.1200    0.4620  -79.4730 C   0  0  0  0  0  0  0  0  0  0  0  0
   -9.0340    1.1380  -82.0650 C   0  0  0  0  0  0  0  0  0  0  0  0
   -8.9230   -0.4240  -80.2200 C   0  0  0  0  0  0  0  0  0  0  0  0
   -9.3780   -0.0930  -81.5080 C   0  0  0  0  0  0  0  0  0  0  0  0
  1  2  1  0
  2  3  1  0
  3  4  1  0
  4  5  2  0
  4  6  1  0
  5  7  1  0
  6  8  2  0
  7  9  2  0
  8  9  1  0
  9 10  1  0
 10 11  1  0
 11 12  2  0
 11 13  1  0
 13 14  1  0
 14 15  2  0
 14 16  1  0
 15 17  1  0
 16 18  2  0
 17 19  2  0
 18 19  1  0
M  END
>  <ref_url>  (732) 
https://fakepage.com

>  <submitter_name>  (732) 
Steph Wills

>  <submitter_email>  (732) 
stephanie.wills@dtc.ox.ac.uk

>  <submitter_institution>  (732) 
University of Oxford

>  <generation_date>  (732) 
2020-06-04

>  <method>  (732) 
Fragment network

>  <ref_mols>  (732) 
x0183_0B,x0212_0B

>  <ref_pdb>  (732) 
references/x0183-0B-x0212-0B-321819.holo_minimised_nolig.pdb

>  <original SMILES>  (732) 
CCCc1ccc(NC(=O)Cc2ccccc2)cc1

>  <synthon>  (732) 
[Xe]c1ccccc1

>  <original_name>  (732) 
x0183-0B-x0212-0B-321819

>  <comRMSD_score>  (732) 
0.6319190055929863

>  <IF_score>  (732) 
0.55

>  <SuCOS_score>  (732) 
0.531655800801925

>  <compound_ID>  (732) 
REAL:Z28806791

$$$$

     RDKit          3D

 21 22  0  0  0  0  0  0  0  0999 V2000
  -15.0750    6.4600  -75.1770 C   0  0  0  0  0  0  0  0  0  0  0  0
  -13.6330    6.1220  -75.0470 C   0  0  0  0  0  0  0  0  0  0  0  0
  -12.9450    6.2660  -73.8810 C   0  0  0  0  0  0  0  0  0  0  0  0
  -13.5040    4.6870  -75.6460 C   0  0  0  0  0  0  0  0  0  0  0  0
  -12.2700    4.3160  -76.1750 C   0  0  0  0  0  0  0  0  0  0  0  0
  -11.8700    4.7820  -77.4340 C   0  0  0  0  0  0  0  0  0  0  0  0
  -11.4210    3.4730  -75.4520 C   0  0  0  0  0  0  0  0  0  0  0  0
  -10.6410    4.4110  -77.9580 C   0  0  0  0  0  0  0  0  0  0  0  0
  -10.2010    3.1030  -75.9670 C   0  0  0  0  0  0  0  0  0  0  0  0
   -9.8220    3.5740  -77.2110 C   0  0  0  0  0  0  0  0  0  0  0  0
   -8.5950    3.1750  -77.6770 N   0  0  0  0  0  0  0  0  0  0  0  0
   -7.7250    2.2410  -77.1750 C   0  0  0  0  0  0  0  0  0  0  0  0
   -7.9360    1.4670  -76.2460 O   0  0  0  0  0  0  0  0  0  0  0  0
   -6.4410    2.2830  -77.9610 C   0  0  0  0  0  0  0  0  0  0  0  0
   -6.8150    2.5750  -79.4100 C   0  0  0  0  0  0  0  0  0  0  0  0
   -7.5480    1.6380  -80.1270 C   0  0  0  0  0  0  0  0  0  0  0  0
   -7.8110    0.3600  -79.6020 C   0  0  0  0  0  0  0  0  0  0  0  0
   -8.0220    1.9780  -81.3890 C   0  0  0  0  0  0  0  0  0  0  0  0
   -8.5360   -0.5700  -80.3450 C   0  0  0  0  0  0  0  0  0  0  0  0
   -8.7380    1.0560  -82.1280 C   0  0  0  0  0  0  0  0  0  0  0  0
   -8.9880   -0.2150  -81.6010 C   0  0  0  0  0  0  0  0  0  0  0  0
  1  2  1  0
  2  3  1  0
  2  4  1  0
  4  5  1  0
  5  6  2  0
  5  7  1  0
  6  8  1  0
  7  9  2  0
  8 10  2  0
  9 10  1  0
 10 11  1  0
 11 12  1  0
 12 13  2  0
 12 14  1  0
 14 15  1  0
 15 16  1  0
 16 17  2  0
 16 18  1  0
 17 19  1  0
 18 20  2  0
 19 21  2  0
 20 21  1  0
M  END
>  <ref_url>  (733) 
https://fakepage.com

>  <submitter_name>  (733) 
Steph Wills

>  <submitter_email>  (733) 
stephanie.wills@dtc.ox.ac.uk

>  <submitter_institution>  (733) 
University of Oxford

>  <generation_date>  (733) 
2020-06-04

>  <method>  (733) 
Fragment network

>  <ref_mols>  (733) 
x0183_0B,x0212_0B

>  <ref_pdb>  (733) 
references/x0183-0B-x0212-0B-323614.holo_minimised_nolig.pdb

>  <original SMILES>  (733) 
CC(C)Cc1ccc(NC(=O)CCc2ccccc2)cc1

>  <synthon>  (733) 
[Xe]c1ccccc1

>  <original_name>  (733) 
x0183-0B-x0212-0B-323614

>  <comRMSD_score>  (733) 
0.6798457886140763

>  <IF_score>  (733) 
0.35

>  <SuCOS_score>  (733) 
0.5129569810200186

>  <compound_ID>  (733) 
REAL:PV-001800653988

$$$$

     RDKit          3D

 22 23  0  0  0  0  0  0  0  0999 V2000
  -12.7170    6.1960  -73.7340 C   0  0  0  0  0  0  0  0  0  0  0  0
  -13.1320    5.7850  -75.1130 C   0  0  1  0  0  0  0  0  0  0  0  0
  -12.6560    6.7790  -75.9620 N   0  0  0  0  0  0  0  0  0  0  0  0
  -12.9690    4.5340  -75.6280 C   0  0  0  0  0  0  0  0  0  0  0  0
  -11.6730    3.8590  -75.8550 C   0  0  0  0  0  0  0  0  0  0  0  0
  -12.0240    4.5750  -77.0370 C   0  0  0  0  0  0  0  0  0  0  0  0
  -10.4180    3.3270  -76.3580 C   0  0  0  0  0  0  0  0  0  0  0  0
  -11.4550    4.7700  -78.2740 C   0  0  0  0  0  0  0  0  0  0  0  0
   -9.7670    3.4680  -77.5770 C   0  0  0  0  0  0  0  0  0  0  0  0
   -9.7780    2.6180  -75.6120 O   0  0  0  0  0  0  0  0  0  0  0  0
  -10.2770    4.2010  -78.5630 C   0  0  0  0  0  0  0  0  0  0  0  0
   -8.3570    2.6040  -75.8740 C   0  0  0  0  0  0  0  0  0  0  0  0
   -7.7750    2.8750  -77.2470 C   0  0  0  0  0  0  0  0  0  0  0  0
   -6.4130    2.6860  -77.4070 C   0  0  0  0  0  0  0  0  0  0  0  0
   -6.0060    2.3060  -78.4840 O   0  0  0  0  0  0  0  0  0  0  0  0
   -6.7960    2.6550  -79.6390 C   0  0  0  0  0  0  0  0  0  0  0  0
   -7.6230    1.6830  -80.1960 C   0  0  0  0  0  0  0  0  0  0  0  0
   -8.2100    1.9680  -81.4010 C   0  0  0  0  0  0  0  0  0  0  0  0
   -7.8740    0.4390  -79.5820 C   0  0  0  0  0  0  0  0  0  0  0  0
   -9.0760    1.0040  -82.0540 C   0  0  0  0  0  0  0  0  0  0  0  0
   -8.7120   -0.4960  -80.2100 C   0  0  0  0  0  0  0  0  0  0  0  0
   -9.3110   -0.2180  -81.4430 C   0  0  0  0  0  0  0  0  0  0  0  0
  2  1  1  1
  2  3  1  0
  2  4  1  0
  4  5  1  0
  5  6  2  0
  5  7  1  0
  6  8  1  0
  7  9  2  0
  7 10  1  0
  8 11  2  0
  9 11  1  0
 10 12  1  0
 12 13  1  0
 13 14  1  0
 14 15  1  0
 15 16  1  0
 16 17  1  0
 17 18  2  0
 17 19  1  0
 18 20  1  0
 19 21  2  0
 20 22  2  0
 21 22  1  0
M  END
>  <ref_url>  (734) 
https://fakepage.com

>  <submitter_name>  (734) 
Steph Wills

>  <submitter_email>  (734) 
stephanie.wills@dtc.ox.ac.uk

>  <submitter_institution>  (734) 
University of Oxford

>  <generation_date>  (734) 
2020-06-04

>  <method>  (734) 
Fragment network

>  <ref_mols>  (734) 
x0183_0B,x0212_0B

>  <ref_pdb>  (734) 
references/x0183-0B-x0212-0B-326577.holo_minimised_nolig.pdb

>  <original SMILES>  (734) 
CC(N)Cc1ccccc1OCCCOCc1ccccc1

>  <synthon>  (734) 
[Xe]c1ccccc1

>  <original_name>  (734) 
x0183-0B-x0212-0B-326577

>  <comRMSD_score>  (734) 
0.7319709314203975

>  <IF_score>  (734) 
0.425

>  <SuCOS_score>  (734) 
0.4961585781291339

>  <compound_ID>  (734) 
CHEMSPACE-BB:CSMB00015070081

$$$$

     RDKit          3D

 18 19  0  0  0  0  0  0  0  0999 V2000
  -13.5480    6.1930  -73.7830 O   0  0  0  0  0  0  0  0  0  0  0  0
  -13.5120    5.7590  -74.9340 C   0  0  0  0  0  0  0  0  0  0  0  0
  -13.3660    4.2480  -75.2190 C   0  0  0  0  0  0  0  0  0  0  0  0
  -12.0600    3.9470  -75.9480 C   0  0  0  0  0  0  0  0  0  0  0  0
  -11.8960    4.5960  -77.2960 C   0  0  0  0  0  0  0  0  0  0  0  0
  -11.0580    3.1340  -75.4460 C   0  0  0  0  0  0  0  0  0  0  0  0
  -10.7360    4.3590  -78.0170 C   0  0  0  0  0  0  0  0  0  0  0  0
   -9.9090    2.9260  -76.2080 C   0  0  0  0  0  0  0  0  0  0  0  0
   -9.7530    3.5220  -77.4660 C   0  0  0  0  0  0  0  0  0  0  0  0
   -8.8020    3.3870  -78.1800 O   0  0  0  0  0  0  0  0  0  0  0  0
   -7.7720    2.4800  -77.8550 C   0  0  0  0  0  0  0  0  0  0  0  0
   -7.0490    2.0480  -78.9490 C   0  0  0  0  0  0  0  0  0  0  0  0
   -7.8630    1.2940  -79.9370 C   0  0  0  0  0  0  0  0  0  0  0  0
   -8.2020    1.9080  -81.2930 C   0  0  0  0  0  0  0  0  0  0  0  0
   -8.3110    0.0190  -79.5840 C   0  0  0  0  0  0  0  0  0  0  0  0
   -9.0390    1.0100  -82.1720 C   0  0  0  0  0  0  0  0  0  0  0  0
   -9.0850   -0.7780  -80.4250 C   0  0  0  0  0  0  0  0  0  0  0  0
   -9.4810   -0.3740  -81.6940 C   0  0  0  0  0  0  0  0  0  0  0  0
  1  2  1  0
  2  3  1  0
  3  4  1  0
  4  5  2  0
  4  6  1  0
  5  7  1  0
  6  8  2  0
  7  9  2  0
  8  9  1  0
  9 10  1  0
 10 11  1  0
 11 12  1  0
 12 13  1  0
 13 14  2  0
 13 15  1  0
 14 16  1  0
 15 17  2  0
 16 18  2  0
 17 18  1  0
M  END
>  <ref_url>  (735) 
https://fakepage.com

>  <submitter_name>  (735) 
Steph Wills

>  <submitter_email>  (735) 
stephanie.wills@dtc.ox.ac.uk

>  <submitter_institution>  (735) 
University of Oxford

>  <generation_date>  (735) 
2020-06-04

>  <method>  (735) 
Fragment network

>  <ref_mols>  (735) 
x0183_0B,x0212_0B

>  <ref_pdb>  (735) 
references/x0183-0B-x0212-0B-329148.holo_minimised_nolig.pdb

>  <original SMILES>  (735) 
OCCc1ccc(OCCc2ccccc2)cc1

>  <synthon>  (735) 
[Xe]c1ccccc1

>  <original_name>  (735) 
x0183-0B-x0212-0B-329148

>  <comRMSD_score>  (735) 
0.5024226109561553

>  <IF_score>  (735) 
0.65

>  <SuCOS_score>  (735) 
0.5189675393163684

>  <compound_ID>  (735) 
REAL:Z1560611306

$$$$

     RDKit          3D

 21 22  0  0  0  0  0  0  0  0999 V2000
  -12.8210    6.3890  -73.7210 C   0  0  0  0  0  0  0  0  0  0  0  0
  -13.3760    5.9230  -75.0550 C   0  0  0  0  0  0  0  0  0  0  0  0
  -13.1360    4.5190  -75.5210 C   0  0  0  0  0  0  0  0  0  0  0  0
  -13.9960    3.6400  -75.5240 O   0  0  0  0  0  0  0  0  0  0  0  0
  -11.9290    4.0200  -76.0180 C   0  0  0  0  0  0  0  0  0  0  0  0
  -11.1760    3.0730  -75.2960 C   0  0  0  0  0  0  0  0  0  0  0  0
  -11.4290    4.4550  -77.2630 C   0  0  0  0  0  0  0  0  0  0  0  0
   -9.9740    2.5760  -75.7980 C   0  0  0  0  0  0  0  0  0  0  0  0
  -10.2330    3.9590  -77.7600 C   0  0  0  0  0  0  0  0  0  0  0  0
   -9.5470    3.0430  -77.0180 C   0  0  0  0  0  0  0  0  0  0  0  0
   -9.6940    4.3280  -78.9430 N   0  0  0  0  0  0  0  0  0  0  0  0
   -8.3570    3.9220  -79.3230 C   0  0  0  0  0  0  0  0  0  0  0  0
   -7.6780    4.1520  -80.5480 O   0  0  0  0  0  0  0  0  0  0  0  0
   -7.5710    3.1920  -78.4300 C   0  0  0  0  0  0  0  0  0  0  0  0
   -7.0050    2.0900  -79.0570 C   0  0  0  0  0  0  0  0  0  0  0  0
   -7.8510    1.3690  -79.9040 C   0  0  0  0  0  0  0  0  0  0  0  0
   -8.3680    0.1500  -79.4770 C   0  0  0  0  0  0  0  0  0  0  0  0
   -8.2130    1.8300  -81.1920 C   0  0  0  0  0  0  0  0  0  0  0  0
   -9.2150   -0.6370  -80.2430 C   0  0  0  0  0  0  0  0  0  0  0  0
   -9.0650    1.0560  -81.9870 C   0  0  0  0  0  0  0  0  0  0  0  0
   -9.5470   -0.1590  -81.4920 C   0  0  0  0  0  0  0  0  0  0  0  0
  1  2  1  0
  2  3  1  0
  3  4  2  0
  3  5  1  0
  5  6  2  0
  5  7  1  0
  6  8  1  0
  7  9  2  0
  8 10  2  0
  9 10  1  0
  9 11  1  0
 11 12  1  0
 12 13  2  0
 12 14  1  0
 14 15  1  0
 15 16  1  0
 16 17  2  0
 16 18  1  0
 17 19  1  0
 18 20  2  0
 19 21  2  0
 20 21  1  0
M  END
>  <ref_url>  (736) 
https://fakepage.com

>  <submitter_name>  (736) 
Steph Wills

>  <submitter_email>  (736) 
stephanie.wills@dtc.ox.ac.uk

>  <submitter_institution>  (736) 
University of Oxford

>  <generation_date>  (736) 
2020-06-04

>  <method>  (736) 
Fragment network

>  <ref_mols>  (736) 
x0183_0B,x0212_0B

>  <ref_pdb>  (736) 
references/x0183-0B-x0212-0B-329493.holo_minimised_nolig.pdb

>  <original SMILES>  (736) 
CCC(=O)c1cccc(NC(=O)CCc2ccccc2)c1

>  <synthon>  (736) 
[Xe]c1ccccc1

>  <original_name>  (736) 
x0183-0B-x0212-0B-329493

>  <comRMSD_score>  (736) 
0.7611750662505176

>  <IF_score>  (736) 
0.55

>  <SuCOS_score>  (736) 
0.5242481625136282

>  <compound_ID>  (736) 
REAL:Z1465725574

$$$$

     RDKit          3D

 22 23  0  0  0  0  0  0  0  0999 V2000
  -12.7990    6.2660  -73.6930 C   0  0  0  0  0  0  0  0  0  0  0  0
  -13.5010    5.7950  -74.8450 O   0  0  0  0  0  0  0  0  0  0  0  0
  -13.3230    4.4070  -75.1620 C   0  0  0  0  0  0  0  0  0  0  0  0
  -14.1350    3.3230  -74.7500 O   0  0  0  0  0  0  0  0  0  0  0  0
  -12.1370    4.2500  -76.0890 C   0  0  0  0  0  0  0  0  0  0  0  0
  -12.2260    4.8700  -77.3170 C   0  0  0  0  0  0  0  0  0  0  0  0
  -10.9890    3.5000  -75.7240 C   0  0  0  0  0  0  0  0  0  0  0  0
  -11.1080    4.7290  -78.2220 C   0  0  0  0  0  0  0  0  0  0  0  0
   -9.9100    3.3790  -76.6240 C   0  0  0  0  0  0  0  0  0  0  0  0
  -10.0220    4.0110  -77.8480 C   0  0  0  0  0  0  0  0  0  0  0  0
   -8.7340    2.6790  -76.4070 N   0  0  0  0  0  0  0  0  0  0  0  0
   -7.8420    2.6670  -77.5940 C   0  0  0  0  0  0  0  0  0  0  0  0
   -8.0760    3.7210  -78.8670 S   0  0  0  0  0  0  0  0  0  0  0  0
   -6.7280    1.7810  -77.8050 N   0  0  0  0  0  0  0  0  0  0  0  0
   -6.2190    1.9380  -79.1920 C   0  0  0  0  0  0  0  0  0  0  0  0
   -5.3350    2.6830  -79.6000 O   0  0  0  0  0  0  0  0  0  0  0  0
   -6.9230    1.0390  -80.1410 C   0  0  0  0  0  0  0  0  0  0  0  0
   -7.3620   -0.1880  -79.7850 C   0  0  0  0  0  0  0  0  0  0  0  0
   -7.1590    1.4650  -81.4740 C   0  0  0  0  0  0  0  0  0  0  0  0
   -8.0630   -1.0640  -80.7270 C   0  0  0  0  0  0  0  0  0  0  0  0
   -7.8200    0.6630  -82.4250 C   0  0  0  0  0  0  0  0  0  0  0  0
   -8.2810   -0.6230  -82.0400 C   0  0  0  0  0  0  0  0  0  0  0  0
  1  2  1  0
  2  3  1  0
  3  4  2  0
  3  5  1  0
  5  6  2  0
  5  7  1  0
  6  8  1  0
  7  9  2  0
  8 10  2  0
  9 10  1  0
  9 11  1  0
 11 12  1  0
 12 13  2  0
 12 14  1  0
 14 15  1  0
 15 16  2  0
 15 17  1  0
 17 18  2  0
 17 19  1  0
 18 20  1  0
 19 21  2  0
 20 22  2  0
 21 22  1  0
M  END
>  <ref_url>  (737) 
https://fakepage.com

>  <submitter_name>  (737) 
Steph Wills

>  <submitter_email>  (737) 
stephanie.wills@dtc.ox.ac.uk

>  <submitter_institution>  (737) 
University of Oxford

>  <generation_date>  (737) 
2020-06-04

>  <method>  (737) 
Fragment network

>  <ref_mols>  (737) 
x0183_0B,x0212_0B

>  <ref_pdb>  (737) 
references/x0183-0B-x0212-0B-330210.holo_minimised_nolig.pdb

>  <original SMILES>  (737) 
COC(=O)c1cccc(NC(=S)NC(=O)c2ccccc2)c1

>  <synthon>  (737) 
[Xe]c1ccccc1

>  <original_name>  (737) 
x0183-0B-x0212-0B-330210

>  <comRMSD_score>  (737) 
0.8940918214507858

>  <IF_score>  (737) 
0.5

>  <SuCOS_score>  (737) 
0.4319782962462017

>  <compound_ID>  (737) 
MOLPORT:002-897-472

$$$$

     RDKit          3D

 22 23  0  0  0  0  0  0  0  0999 V2000
  -12.6950    6.2070  -73.8140 C   0  0  0  0  0  0  0  0  0  0  0  0
  -13.2000    5.7960  -75.0540 N   0  0  0  0  0  0  0  0  0  0  0  0
  -12.7380    4.4820  -75.5850 C   0  0  0  0  0  0  0  0  0  0  0  0
  -13.3020    3.4050  -75.3800 O   0  0  0  0  0  0  0  0  0  0  0  0
  -11.6630    4.4060  -76.4230 C   0  0  0  0  0  0  0  0  0  0  0  0
  -11.5030    5.2120  -77.6120 C   0  0  0  0  0  0  0  0  0  0  0  0
  -10.5690    3.5210  -76.2450 C   0  0  0  0  0  0  0  0  0  0  0  0
  -10.3550    5.0170  -78.3960 C   0  0  0  0  0  0  0  0  0  0  0  0
   -9.4790    3.4060  -77.0480 C   0  0  0  0  0  0  0  0  0  0  0  0
  -10.4530    2.6630  -75.2880 N   0  0  0  0  0  0  0  0  0  0  0  0
   -9.3590    4.1450  -78.1310 C   0  0  0  0  0  0  0  0  0  0  0  0
   -9.7380    1.5070  -75.6920 C   0  0  0  0  0  0  0  0  0  0  0  0
   -9.5980    0.4670  -75.0650 O   0  0  0  0  0  0  0  0  0  0  0  0
   -9.0370    1.3260  -77.0820 C   0  0  0  0  0  0  0  0  0  0  0  0
   -7.7840    2.1020  -77.4180 N   0  0  0  0  0  0  0  0  0  0  0  0
   -7.2660    2.2800  -78.7820 C   0  0  0  0  0  0  0  0  0  0  0  0
   -8.0130    1.5410  -79.7120 C   0  0  0  0  0  0  0  0  0  0  0  0
   -8.3270    2.0450  -80.9900 C   0  0  0  0  0  0  0  0  0  0  0  0
   -8.4570    0.2630  -79.3580 C   0  0  0  0  0  0  0  0  0  0  0  0
   -9.0770    1.2730  -81.8740 C   0  0  0  0  0  0  0  0  0  0  0  0
   -9.2070   -0.5060  -80.2380 C   0  0  0  0  0  0  0  0  0  0  0  0
   -9.5110    0.0130  -81.4880 C   0  0  0  0  0  0  0  0  0  0  0  0
  1  2  1  0
  2  3  1  0
  3  4  2  0
  3  5  1  0
  5  6  2  0
  5  7  1  0
  6  8  1  0
  7  9  2  0
  7 10  1  0
  8 11  2  0
  9 11  1  0
 10 12  1  0
 12 13  2  0
 12 14  1  0
 14 15  1  0
 15 16  1  0
 16 17  1  0
 17 18  2  0
 17 19  1  0
 18 20  1  0
 19 21  2  0
 20 22  2  0
 21 22  1  0
M  END
>  <ref_url>  (738) 
https://fakepage.com

>  <submitter_name>  (738) 
Steph Wills

>  <submitter_email>  (738) 
stephanie.wills@dtc.ox.ac.uk

>  <submitter_institution>  (738) 
University of Oxford

>  <generation_date>  (738) 
2020-06-04

>  <method>  (738) 
Fragment network

>  <ref_mols>  (738) 
x0183_0B,x0212_0B

>  <ref_pdb>  (738) 
references/x0183-0B-x0212-0B-330935.holo_minimised_nolig.pdb

>  <original SMILES>  (738) 
CNC(=O)c1ccccc1NC(=O)CNCc1ccccc1

>  <synthon>  (738) 
[Xe]c1ccccc1

>  <original_name>  (738) 
x0183-0B-x0212-0B-330935

>  <comRMSD_score>  (738) 
0.9941726133751552

>  <IF_score>  (738) 
0.5

>  <SuCOS_score>  (738) 
0.5372344325184206

>  <compound_ID>  (738) 
CHEMSPACE-BB:CSMB00022155477

$$$$

     RDKit          3D

 27 28  0  0  0  0  0  0  0  0999 V2000
  -13.0970    8.2010  -73.9110 C   0  0  0  0  0  0  0  0  0  0  0  0
  -13.1580    6.6720  -73.9620 C   0  0  0  0  0  0  0  0  0  0  0  0
  -11.7580    6.1360  -73.6900 C   0  0  0  0  0  0  0  0  0  0  0  0
  -14.0340    6.1670  -72.8350 C   0  0  0  0  0  0  0  0  0  0  0  0
  -13.6340    6.1790  -75.2670 N   0  0  0  0  0  0  0  0  0  0  0  0
  -13.7880    4.5310  -75.6500 S   0  0  0  0  0  0  0  0  0  0  0  0
  -13.8820    3.7010  -74.4810 O   0  0  0  0  0  0  0  0  0  0  0  0
  -14.7750    4.4130  -76.7030 O   0  0  0  0  0  0  0  0  0  0  0  0
  -12.2480    4.2120  -76.4220 C   0  0  0  0  0  0  0  0  0  0  0  0
  -12.0290    4.7440  -77.6820 C   0  0  0  0  0  0  0  0  0  0  0  0
  -11.2850    3.4400  -75.7740 C   0  0  0  0  0  0  0  0  0  0  0  0
  -10.8340    4.5000  -78.3160 C   0  0  0  0  0  0  0  0  0  0  0  0
  -10.0910    3.2020  -76.4180 C   0  0  0  0  0  0  0  0  0  0  0  0
   -9.8710    3.7330  -77.6950 C   0  0  0  0  0  0  0  0  0  0  0  0
   -8.6910    3.4950  -78.3480 C   0  0  0  0  0  0  0  0  0  0  0  0
   -7.7890    2.9910  -77.4340 C   0  0  0  0  0  0  0  0  0  0  0  0
   -7.8040    1.5990  -77.3440 C   0  0  0  0  0  0  0  0  0  0  0  0
   -9.1060    1.0260  -77.1660 O   0  0  0  0  0  0  0  0  0  0  0  0
   -6.4870    0.9570  -77.4480 N   0  0  0  0  0  0  0  0  0  0  0  0
   -5.7260    1.5610  -78.5560 C   0  0  0  0  0  0  0  0  0  0  0  0
   -6.5930    2.2090  -79.5470 C   0  0  0  0  0  0  0  0  0  0  0  0
   -7.5660    1.4630  -80.2720 C   0  0  0  0  0  0  0  0  0  0  0  0
   -7.8560    0.2380  -79.7160 C   0  0  0  0  0  0  0  0  0  0  0  0
   -8.1790    1.9000  -81.4340 C   0  0  0  0  0  0  0  0  0  0  0  0
   -8.7890   -0.5920  -80.3430 C   0  0  0  0  0  0  0  0  0  0  0  0
   -9.1010    1.0730  -82.0530 C   0  0  0  0  0  0  0  0  0  0  0  0
   -9.4080   -0.1720  -81.5140 C   0  0  0  0  0  0  0  0  0  0  0  0
  1  2  1  0
  2  3  1  0
  2  4  1  0
  2  5  1  0
  6  5  1  0
  6  7  2  0
  6  8  2  0
  6  9  1  0
  9 10  2  0
  9 11  1  0
 10 12  1  0
 11 13  2  0
 12 14  2  0
 13 14  1  0
 14 15  1  0
 15 16  1  0
 16 17  1  0
 17 18  2  0
 17 19  1  0
 19 20  1  0
 20 21  1  0
 21 22  1  0
 22 23  2  0
 22 24  1  0
 23 25  1  0
 24 26  2  0
 25 27  2  0
 26 27  1  0
M  END
>  <ref_url>  (739) 
https://fakepage.com

>  <submitter_name>  (739) 
Steph Wills

>  <submitter_email>  (739) 
stephanie.wills@dtc.ox.ac.uk

>  <submitter_institution>  (739) 
University of Oxford

>  <generation_date>  (739) 
2020-06-04

>  <method>  (739) 
Fragment network

>  <ref_mols>  (739) 
x0183_0B,x0212_0B

>  <ref_pdb>  (739) 
references/x0183-0B-x0212-0B-331924.holo_minimised_nolig.pdb

>  <original SMILES>  (739) 
CC(C)(C)NS(=O)(=O)c1ccc(CCC(=O)NCCc2ccccc2)cc1

>  <synthon>  (739) 
[Xe]c1ccccc1

>  <original_name>  (739) 
x0183-0B-x0212-0B-331924

>  <comRMSD_score>  (739) 
0.6744906994938508

>  <IF_score>  (739) 
0.55

>  <SuCOS_score>  (739) 
0.519391527539582

>  <compound_ID>  (739) 
MOLPORT:002-955-966

$$$$

     RDKit          3D

 19 20  0  0  0  0  0  0  0  0999 V2000
  -12.5630    5.9530  -74.2140 C   0  0  0  0  0  0  0  0  0  0  0  0
  -12.9460    5.1980  -75.4020 N   0  0  0  0  0  0  0  0  0  0  0  0
  -14.3570    4.9320  -75.5840 C   0  0  0  0  0  0  0  0  0  0  0  0
  -11.9390    4.6370  -76.1570 C   0  0  0  0  0  0  0  0  0  0  0  0
  -11.0710    3.6910  -75.5000 C   0  0  0  0  0  0  0  0  0  0  0  0
  -11.6480    4.8850  -77.5180 C   0  0  0  0  0  0  0  0  0  0  0  0
  -10.0450    3.0670  -76.1040 C   0  0  0  0  0  0  0  0  0  0  0  0
  -10.5720    4.2290  -78.1530 C   0  0  0  0  0  0  0  0  0  0  0  0
   -9.7860    3.3220  -77.4190 C   0  0  0  0  0  0  0  0  0  0  0  0
   -8.7100    2.5920  -77.8980 N   0  0  0  0  0  0  0  0  0  0  0  0
   -7.4600    3.0260  -78.2770 C   0  0  0  0  0  0  0  0  0  0  0  0
   -6.7840    3.7560  -77.5620 O   0  0  0  0  0  0  0  0  0  0  0  0
   -7.0110    2.6490  -79.3530 O   0  0  0  0  0  0  0  0  0  0  0  0
   -7.7390    1.7190  -80.0280 C   0  0  0  0  0  0  0  0  0  0  0  0
   -8.0810    0.3510  -79.4550 C   0  0  0  0  0  0  0  0  0  0  0  0
   -8.1940    2.0390  -81.3230 C   0  0  0  0  0  0  0  0  0  0  0  0
   -8.8930   -0.6460  -80.2610 C   0  0  0  0  0  0  0  0  0  0  0  0
   -8.9450    1.1300  -82.0910 C   0  0  0  0  0  0  0  0  0  0  0  0
   -9.2970   -0.1500  -81.6260 C   0  0  0  0  0  0  0  0  0  0  0  0
  1  2  1  0
  2  3  1  0
  2  4  1  0
  4  5  2  0
  4  6  1  0
  5  7  1  0
  6  8  2  0
  7  9  2  0
  8  9  1  0
  9 10  1  0
 10 11  1  0
 11 12  2  0
 11 13  1  0
 13 14  1  0
 14 15  2  0
 14 16  1  0
 15 17  1  0
 16 18  2  0
 17 19  2  0
 18 19  1  0
M  END
>  <ref_url>  (740) 
https://fakepage.com

>  <submitter_name>  (740) 
Steph Wills

>  <submitter_email>  (740) 
stephanie.wills@dtc.ox.ac.uk

>  <submitter_institution>  (740) 
University of Oxford

>  <generation_date>  (740) 
2020-06-04

>  <method>  (740) 
Fragment network

>  <ref_mols>  (740) 
x0183_0B,x0212_0B

>  <ref_pdb>  (740) 
references/x0183-0B-x0212-0B-332033.holo_minimised_nolig.pdb

>  <original SMILES>  (740) 
CN(C)c1ccc(NC(=O)Oc2ccccc2)cc1

>  <synthon>  (740) 
[Xe]c1ccccc1

>  <original_name>  (740) 
x0183-0B-x0212-0B-332033

>  <comRMSD_score>  (740) 
0.929657814560774

>  <IF_score>  (740) 
0.55

>  <SuCOS_score>  (740) 
0.4076831620700144

>  <compound_ID>  (740) 
MOLPORT:002-089-911

$$$$

     RDKit          3D

 18 19  0  0  0  0  0  0  0  0999 V2000
  -13.1430    4.4070  -75.3800 C   0  0  0  0  0  0  0  0  0  0  0  0
  -11.8520    4.0970  -76.1550 C   0  0  0  0  0  0  0  0  0  0  0  0
  -10.9670    3.0930  -75.4290 C   0  0  0  0  0  0  0  0  0  0  0  0
  -11.4860    4.6500  -77.3910 C   0  0  0  0  0  0  0  0  0  0  0  0
   -9.6730    2.7240  -76.1020 C   0  0  0  0  0  0  0  0  0  0  0  0
  -10.2720    4.2880  -77.9950 C   0  0  0  0  0  0  0  0  0  0  0  0
   -9.3570    3.3040  -77.3230 C   0  0  0  0  0  0  0  0  0  0  0  0
   -9.8670    4.7130  -79.0530 O   0  0  0  0  0  0  0  0  0  0  0  0
   -8.7110    4.0960  -79.6410 C   0  0  0  0  0  0  0  0  0  0  0  0
   -8.6030    3.9320  -80.8410 O   0  0  0  0  0  0  0  0  0  0  0  0
   -7.6400    3.6090  -78.8750 C   0  0  0  0  0  0  0  0  0  0  0  0
   -7.2150    2.1880  -78.8880 C   0  0  0  0  0  0  0  0  0  0  0  0
   -7.9890    1.2210  -79.7640 C   0  0  0  0  0  0  0  0  0  0  0  0
   -8.2540    1.7550  -81.1530 C   0  0  0  0  0  0  0  0  0  0  0  0
   -8.4240   -0.0340  -79.3260 C   0  0  0  0  0  0  0  0  0  0  0  0
   -9.0240    0.8880  -82.0930 C   0  0  0  0  0  0  0  0  0  0  0  0
   -9.1420   -0.8320  -80.2170 C   0  0  0  0  0  0  0  0  0  0  0  0
   -9.4490   -0.4420  -81.5250 C   0  0  0  0  0  0  0  0  0  0  0  0
  1  2  1  0
  2  3  2  0
  2  4  1  0
  3  5  1  0
  4  6  2  0
  5  7  2  0
  6  7  1  0
  6  8  1  0
  8  9  1  0
  9 10  2  0
  9 11  1  0
 11 12  2  3
 12 13  1  0
 13 14  2  0
 13 15  1  0
 14 16  1  0
 15 17  2  0
 16 18  2  0
 17 18  1  0
M  END
>  <ref_url>  (741) 
https://fakepage.com

>  <submitter_name>  (741) 
Steph Wills

>  <submitter_email>  (741) 
stephanie.wills@dtc.ox.ac.uk

>  <submitter_institution>  (741) 
University of Oxford

>  <generation_date>  (741) 
2020-06-04

>  <method>  (741) 
Fragment network

>  <ref_mols>  (741) 
x0183_0B,x0212_0B

>  <ref_pdb>  (741) 
references/x0183-0B-x0212-0B-332226.holo_minimised_nolig.pdb

>  <original SMILES>  (741) 
Cc1cccc(OC(=O)C=Cc2ccccc2)c1

>  <synthon>  (741) 
[Xe]c1ccccc1

>  <original_name>  (741) 
x0183-0B-x0212-0B-332226

>  <comRMSD_score>  (741) 
0.6997416293362055

>  <IF_score>  (741) 
0.65

>  <SuCOS_score>  (741) 
0.4542222555960296

>  <compound_ID>  (741) 
MOLPORT:016-806-748

$$$$

     RDKit          3D

 27 28  0  0  0  0  0  0  0  0999 V2000
  -12.3550    4.9520  -72.5540 C   0  0  0  0  0  0  0  0  0  0  0  0
  -11.7810    5.7540  -73.6780 C   0  0  0  0  0  0  0  0  0  0  0  0
  -12.5110    6.7350  -74.2310 C   0  0  0  0  0  0  0  0  0  0  0  0
  -13.8300    6.4210  -74.2500 C   0  0  0  0  0  0  0  0  0  0  0  0
  -14.1140    5.8350  -75.3010 O   0  0  0  0  0  0  0  0  0  0  0  0
  -13.7270    4.5400  -75.5580 C   0  0  0  0  0  0  0  0  0  0  0  0
  -14.4950    3.4420  -75.2890 O   0  0  0  0  0  0  0  0  0  0  0  0
  -12.4830    4.3450  -76.1590 C   0  0  0  0  0  0  0  0  0  0  0  0
  -12.2360    4.8950  -77.4130 C   0  0  0  0  0  0  0  0  0  0  0  0
  -11.4530    3.6030  -75.5310 C   0  0  0  0  0  0  0  0  0  0  0  0
  -10.8890    4.6810  -78.0370 C   0  0  0  0  0  0  0  0  0  0  0  0
  -10.1490    3.4100  -76.1570 C   0  0  0  0  0  0  0  0  0  0  0  0
   -9.8990    3.9690  -77.4120 C   0  0  0  0  0  0  0  0  0  0  0  0
   -8.7010    3.8200  -77.9910 N   0  0  0  0  0  0  0  0  0  0  0  0
   -7.6330    3.2990  -77.1560 C   0  0  0  0  0  0  0  0  0  0  0  0
   -7.6670    2.3580  -76.3670 O   0  0  0  0  0  0  0  0  0  0  0  0
   -6.3560    3.9050  -77.1850 C   0  0  0  0  0  0  0  0  0  0  0  0
   -5.7490    3.9780  -78.4070 O   0  0  0  0  0  0  0  0  0  0  0  0
   -6.5520    3.4360  -79.4160 N   0  0  0  0  0  0  0  0  0  0  0  0
   -6.9920    2.0930  -79.0490 C   0  0  0  0  0  0  0  0  0  0  0  0
   -6.6090    1.5670  -77.8650 N   0  0  0  0  0  0  0  0  0  0  0  0
   -7.8620    1.3170  -80.0070 C   0  0  0  0  0  0  0  0  0  0  0  0
   -8.3070    0.0600  -79.6020 C   0  0  0  0  0  0  0  0  0  0  0  0
   -8.2170    1.8220  -81.2560 C   0  0  0  0  0  0  0  0  0  0  0  0
   -9.1030   -0.7040  -80.4330 C   0  0  0  0  0  0  0  0  0  0  0  0
   -9.0120    1.0510  -82.0860 C   0  0  0  0  0  0  0  0  0  0  0  0
   -9.4550   -0.2100  -81.6760 C   0  0  0  0  0  0  0  0  0  0  0  0
  1  2  1  0
  2  3  1  0
  3  4  1  0
  4  5  1  0
  5  6  1  0
  6  7  2  0
  6  8  1  0
  8  9  2  0
  8 10  1  0
  9 11  1  0
 10 12  2  0
 11 13  2  0
 12 13  1  0
 13 14  1  0
 14 15  1  0
 15 16  2  0
 15 17  1  0
 17 18  1  0
 18 19  1  0
 19 20  2  3
 20 21  1  0
 20 22  1  0
 22 23  2  0
 22 24  1  0
 23 25  1  0
 24 26  2  0
 25 27  2  0
 26 27  1  0
M  END
>  <ref_url>  (742) 
https://fakepage.com

>  <submitter_name>  (742) 
Steph Wills

>  <submitter_email>  (742) 
stephanie.wills@dtc.ox.ac.uk

>  <submitter_institution>  (742) 
University of Oxford

>  <generation_date>  (742) 
2020-06-04

>  <method>  (742) 
Fragment network

>  <ref_mols>  (742) 
x0183_0B,x0212_0B

>  <ref_pdb>  (742) 
references/x0183-0B-x0212-0B-333111.holo_minimised_nolig.pdb

>  <original SMILES>  (742) 
CCCCOC(=O)c1ccc(NC(=O)CON=C(N)c2ccccc2)cc1

>  <synthon>  (742) 
[Xe]c1ccccc1

>  <original_name>  (742) 
x0183-0B-x0212-0B-333111

>  <comRMSD_score>  (742) 
0.8537871406161371

>  <IF_score>  (742) 
0.55

>  <SuCOS_score>  (742) 
0.5152634869620839

>  <compound_ID>  (742) 
MOLPORT:044-276-701

$$$$

     RDKit          3D

 29 30  0  0  0  0  0  0  0  0999 V2000
  -14.2420    6.7140  -73.2340 C   0  0  0  0  0  0  0  0  0  0  0  0
  -12.9880    6.7460  -74.1090 C   0  0  0  0  0  0  0  0  0  0  0  0
  -11.7760    6.0640  -73.6280 C   0  0  0  0  0  0  0  0  0  0  0  0
  -12.6260    8.2740  -74.1290 C   0  0  0  0  0  0  0  0  0  0  0  0
  -13.3160    6.3870  -75.4900 N   0  0  0  0  0  0  0  0  0  0  0  0
  -13.6080    4.8330  -75.9280 S   0  0  0  0  0  0  0  0  0  0  0  0
  -14.0710    3.9770  -74.5840 O   0  0  0  0  0  0  0  0  0  0  0  0
  -14.4280    4.8580  -77.1120 O   0  0  0  0  0  0  0  0  0  0  0  0
  -12.0140    4.2280  -76.4390 C   0  0  0  0  0  0  0  0  0  0  0  0
  -11.2470    3.4360  -75.5960 C   0  0  0  0  0  0  0  0  0  0  0  0
  -11.4660    4.5210  -77.7110 C   0  0  0  0  0  0  0  0  0  0  0  0
  -10.0130    2.9350  -75.9330 C   0  0  0  0  0  0  0  0  0  0  0  0
  -10.2060    4.0160  -78.0720 C   0  0  0  0  0  0  0  0  0  0  0  0
   -9.4780    3.2240  -77.1850 C   0  0  0  0  0  0  0  0  0  0  0  0
   -9.7190    4.3400  -79.3520 N   0  0  0  0  0  0  0  0  0  0  0  0
   -8.5630    3.9030  -79.9820 C   0  0  0  0  0  0  0  0  0  0  0  0
   -8.4360    3.5860  -81.1540 O   0  0  0  0  0  0  0  0  0  0  0  0
   -7.2060    3.7770  -79.2140 C   0  0  0  0  0  0  0  0  0  0  0  0
   -6.7130    2.4600  -79.1560 C   0  0  1  0  0  0  0  0  0  0  0  0
   -6.6550    2.1150  -77.8520 N   0  0  0  0  0  0  0  0  0  0  0  0
   -7.6510    1.4530  -79.8550 C   0  0  0  0  0  0  0  0  0  0  0  0
   -6.0600    3.0040  -76.9860 C   0  0  0  0  0  0  0  0  0  0  0  0
   -8.0080    1.6850  -81.2740 C   0  0  0  0  0  0  0  0  0  0  0  0
   -8.1920    0.3170  -79.2350 C   0  0  0  0  0  0  0  0  0  0  0  0
   -6.9080    3.4050  -75.9890 N   0  0  0  0  0  0  0  0  0  0  0  0
   -4.9090    3.4250  -77.0600 O   0  0  0  0  0  0  0  0  0  0  0  0
   -8.8330    0.8320  -81.9570 C   0  0  0  0  0  0  0  0  0  0  0  0
   -9.0330   -0.5440  -79.9670 C   0  0  0  0  0  0  0  0  0  0  0  0
   -9.3550   -0.2940  -81.3200 C   0  0  0  0  0  0  0  0  0  0  0  0
  1  2  1  0
  2  3  1  0
  2  4  1  0
  2  5  1  0
  6  5  1  0
  6  7  2  0
  6  8  2  0
  6  9  1  0
  9 10  2  0
  9 11  1  0
 10 12  1  0
 11 13  2  0
 12 14  2  0
 13 14  1  0
 13 15  1  0
 15 16  1  0
 16 17  2  0
 16 18  1  0
 19 18  1  1
 19 20  1  0
 19 21  1  0
 20 22  1  0
 21 23  2  0
 21 24  1  0
 22 25  1  0
 22 26  2  0
 23 27  1  0
 24 28  2  0
 27 29  2  0
 28 29  1  0
M  END
>  <ref_url>  (743) 
https://fakepage.com

>  <submitter_name>  (743) 
Steph Wills

>  <submitter_email>  (743) 
stephanie.wills@dtc.ox.ac.uk

>  <submitter_institution>  (743) 
University of Oxford

>  <generation_date>  (743) 
2020-06-04

>  <method>  (743) 
Fragment network

>  <ref_mols>  (743) 
x0183_0B,x0212_0B

>  <ref_pdb>  (743) 
references/x0183-0B-x0212-0B-336046.holo_minimised_nolig.pdb

>  <original SMILES>  (743) 
CC(C)(C)NS(=O)(=O)c1cccc(NC(=O)CC(NC(N)=O)c2ccccc2)c1

>  <synthon>  (743) 
[Xe]c1ccccc1

>  <original_name>  (743) 
x0183-0B-x0212-0B-336046

>  <comRMSD_score>  (743) 
0.95747847862865

>  <IF_score>  (743) 
0.55

>  <SuCOS_score>  (743) 
0.5538224896702708

>  <compound_ID>  (743) 
MOLPORT:009-450-900

$$$$

     RDKit          3D

 21 22  0  0  0  0  0  0  0  0999 V2000
  -12.8360    6.3880  -73.8780 C   0  0  0  0  0  0  0  0  0  0  0  0
  -13.2480    5.9710  -75.2150 N   0  0  0  0  0  0  0  0  0  0  0  0
  -13.1010    6.8260  -76.2970 C   0  0  0  0  0  0  0  0  0  0  0  0
  -13.3180    4.6080  -75.3500 C   0  0  0  0  0  0  0  0  0  0  0  0
  -12.1820    4.0500  -75.9320 C   0  0  0  0  0  0  0  0  0  0  0  0
  -11.6130    2.8250  -75.3340 C   0  0  0  0  0  0  0  0  0  0  0  0
  -11.5140    4.5710  -77.0640 C   0  0  0  0  0  0  0  0  0  0  0  0
  -10.4930    2.1890  -75.8220 C   0  0  0  0  0  0  0  0  0  0  0  0
  -10.3770    3.8780  -77.5050 C   0  0  0  0  0  0  0  0  0  0  0  0
   -9.8790    2.7290  -76.9210 C   0  0  0  0  0  0  0  0  0  0  0  0
   -9.5040    4.1860  -78.5780 N   0  0  0  0  0  0  0  0  0  0  0  0
   -8.2700    3.6230  -77.9950 C   0  0  0  0  0  0  0  0  0  0  0  0
   -8.1060    3.3690  -76.7930 O   0  0  0  0  0  0  0  0  0  0  0  0
   -7.3020    3.3890  -78.9220 N   0  0  0  0  0  0  0  0  0  0  0  0
   -6.8010    2.0630  -79.1280 C   0  0  0  0  0  0  0  0  0  0  0  0
   -7.6420    1.3760  -79.9070 C   0  0  0  0  0  0  0  0  0  0  0  0
   -8.1480    1.8230  -81.2040 C   0  0  0  0  0  0  0  0  0  0  0  0
   -8.0940    0.1140  -79.4780 C   0  0  0  0  0  0  0  0  0  0  0  0
   -9.0060    1.1010  -82.0070 C   0  0  0  0  0  0  0  0  0  0  0  0
   -8.9670   -0.6230  -80.2850 C   0  0  0  0  0  0  0  0  0  0  0  0
   -9.3990   -0.1340  -81.5090 C   0  0  0  0  0  0  0  0  0  0  0  0
  1  2  1  0
  2  3  1  0
  2  4  1  0
  4  5  1  0
  5  6  2  0
  5  7  1  0
  6  8  1  0
  7  9  2  0
  8 10  2  0
  9 10  1  0
  9 11  1  0
 11 12  1  0
 12 13  2  0
 12 14  1  0
 14 15  1  0
 15 16  1  0
 16 17  2  0
 16 18  1  0
 17 19  1  0
 18 20  2  0
 19 21  2  0
 20 21  1  0
M  END
>  <ref_url>  (744) 
https://fakepage.com

>  <submitter_name>  (744) 
Steph Wills

>  <submitter_email>  (744) 
stephanie.wills@dtc.ox.ac.uk

>  <submitter_institution>  (744) 
University of Oxford

>  <generation_date>  (744) 
2020-06-04

>  <method>  (744) 
Fragment network

>  <ref_mols>  (744) 
x0183_0B,x0212_0B

>  <ref_pdb>  (744) 
references/x0183-0B-x0212-0B-336542.holo_minimised_nolig.pdb

>  <original SMILES>  (744) 
CN(C)Cc1cccc(NC(=O)NCc2ccccc2)c1

>  <synthon>  (744) 
[Xe]c1ccccc1

>  <original_name>  (744) 
x0183-0B-x0212-0B-336542

>  <comRMSD_score>  (744) 
0.8923214833397363

>  <IF_score>  (744) 
0.425

>  <SuCOS_score>  (744) 
0.4632577643012469

>  <compound_ID>  (744) 
REAL:Z413427166, CHEMSPACE-BB:CSMB00020264388

$$$$

     RDKit          3D

 28 30  0  0  0  0  0  0  0  0999 V2000
   -5.3890   -0.1760  -76.6990 C   0  0  0  0  0  0  0  0  0  0  0  0
   -5.3740    1.0580  -76.1650 C   0  0  0  0  0  0  0  0  0  0  0  0
   -4.9730    2.3080  -76.9090 C   0  0  0  0  0  0  0  0  0  0  0  0
   -4.5390    1.0180  -74.8980 C   0  0  0  0  0  0  0  0  0  0  0  0
   -6.7110    1.2460  -75.8250 O   0  0  0  0  0  0  0  0  0  0  0  0
   -7.5320    1.2520  -76.8950 C   0  0  0  0  0  0  0  0  0  0  0  0
   -8.6100    0.3220  -77.0030 O   0  0  0  0  0  0  0  0  0  0  0  0
   -7.2760    2.1900  -77.8820 N   0  0  0  0  0  0  0  0  0  0  0  0
   -8.1850    3.2440  -78.0590 C   0  0  0  0  0  0  0  0  0  0  0  0
   -6.5160    1.8270  -79.1020 C   0  0  0  0  0  0  0  0  0  0  0  0
   -9.3920    2.6300  -77.9960 C   0  0  0  0  0  0  0  0  0  0  0  0
   -7.5160    1.3240  -80.1610 C   0  0  0  0  0  0  0  0  0  0  0  0
   -9.5870    1.5340  -78.5080 O   0  0  0  0  0  0  0  0  0  0  0  0
  -10.3320    3.2440  -77.3700 C   0  0  0  0  0  0  0  0  0  0  0  0
   -7.7910    0.0620  -79.6700 C   0  0  0  0  0  0  0  0  0  0  0  0
   -8.0700    1.8640  -81.3280 C   0  0  0  0  0  0  0  0  0  0  0  0
  -11.1300    4.4130  -77.9660 C   0  0  0  0  0  0  0  0  0  0  0  0
  -10.6790    2.7790  -75.9320 C   0  0  0  0  0  0  0  0  0  0  0  0
   -8.7600   -0.7670  -80.4870 C   0  0  0  0  0  0  0  0  0  0  0  0
   -8.9590    1.0760  -82.0670 C   0  0  0  0  0  0  0  0  0  0  0  0
  -12.2570    5.1250  -77.1990 C   0  0  0  0  0  0  0  0  0  0  0  0
  -11.6780    3.5610  -75.5180 C   0  0  0  0  0  0  0  0  0  0  0  0
   -9.3020   -0.2300  -81.6510 C   0  0  0  0  0  0  0  0  0  0  0  0
  -12.5290    4.5920  -75.7990 C   0  0  0  0  0  0  0  0  0  0  0  0
  -13.5060    5.1140  -74.9910 C   0  0  0  0  0  0  0  0  0  0  0  0
  -13.6540    6.4800  -75.1600 C   0  0  0  0  0  0  0  0  0  0  0  0
  -13.0680    5.5770  -73.4930 C   0  0  0  0  0  0  0  0  0  0  0  0
  -13.0410    6.8370  -74.0220 C   0  0  0  0  0  0  0  0  0  0  0  0
  1  2  1  0
  2  3  1  0
  2  4  1  0
  2  5  1  0
  5  6  1  0
  6  7  2  0
  6  8  1  0
  8  9  1  0
  8 10  1  0
  9 11  1  0
 10 12  1  0
 11 13  2  0
 11 14  1  0
 12 15  2  0
 12 16  1  0
 14 17  2  0
 14 18  1  0
 15 19  1  0
 16 20  2  0
 17 21  1  0
 18 22  2  0
 19 23  2  0
 20 23  1  0
 21 24  2  0
 22 24  1  0
 24 25  1  0
 25 26  1  0
 25 27  1  0
 26 28  1  0
 27 28  1  0
M  END
>  <ref_url>  (745) 
https://fakepage.com

>  <submitter_name>  (745) 
Steph Wills

>  <submitter_email>  (745) 
stephanie.wills@dtc.ox.ac.uk

>  <submitter_institution>  (745) 
University of Oxford

>  <generation_date>  (745) 
2020-06-04

>  <method>  (745) 
Fragment network

>  <ref_mols>  (745) 
x0183_0B,x0212_0B

>  <ref_pdb>  (745) 
references/x0183-0B-x0212-0B-338438.holo_minimised_nolig.pdb

>  <original SMILES>  (745) 
CC(C)(C)OC(=O)N(CC(=O)c1ccc(C2CCC2)cc1)Cc1ccccc1

>  <synthon>  (745) 
[Xe]c1ccccc1

>  <original_name>  (745) 
x0183-0B-x0212-0B-338438

>  <comRMSD_score>  (745) 
0.925336555389842

>  <IF_score>  (745) 
0.675

>  <SuCOS_score>  (745) 
0.510563489907008

>  <compound_ID>  (745) 
CHEMSPACE-BB:CSMB00022156040

$$$$

     RDKit          3D

 23 24  0  0  0  0  0  0  0  0999 V2000
  -11.5950    6.4310  -73.8910 O   0  0  0  0  0  0  0  0  0  0  0  0
  -12.7920    6.4730  -74.1150 C   0  0  0  0  0  0  0  0  0  0  0  0
  -13.5460    7.5950  -73.9580 O   0  0  0  0  0  0  0  0  0  0  0  0
  -13.6050    5.3090  -74.5800 C   0  0  0  0  0  0  0  0  0  0  0  0
  -13.3140    4.2810  -75.5060 C   0  0  0  0  0  0  0  0  0  0  0  0
  -12.1170    4.1540  -76.2220 C   0  0  0  0  0  0  0  0  0  0  0  0
  -11.9600    4.7210  -77.4890 C   0  0  0  0  0  0  0  0  0  0  0  0
  -11.0290    3.4350  -75.7010 C   0  0  0  0  0  0  0  0  0  0  0  0
  -10.7910    4.5910  -78.2250 C   0  0  0  0  0  0  0  0  0  0  0  0
   -9.8450    3.3010  -76.4380 C   0  0  0  0  0  0  0  0  0  0  0  0
   -9.7290    3.8780  -77.6980 C   0  0  0  0  0  0  0  0  0  0  0  0
   -8.7420    2.6240  -76.0240 N   0  0  0  0  0  0  0  0  0  0  0  0
   -7.4670    2.8910  -76.6440 C   0  0  0  0  0  0  0  0  0  0  0  0
   -6.1510    4.1070  -76.2450 S   0  0  0  0  0  0  0  0  0  0  0  0
   -7.2250    1.9740  -77.7400 N   0  0  0  0  0  0  0  0  0  0  0  0
   -7.1160    2.5060  -79.1210 C   0  0  0  0  0  0  0  0  0  0  0  0
   -6.5560    3.4730  -79.6340 O   0  0  0  0  0  0  0  0  0  0  0  0
   -7.8180    1.6330  -79.9370 C   0  0  0  0  0  0  0  0  0  0  0  0
   -8.1740    0.2520  -79.4100 C   0  0  0  0  0  0  0  0  0  0  0  0
   -8.2090    1.9800  -81.2290 C   0  0  0  0  0  0  0  0  0  0  0  0
   -8.9390   -0.6700  -80.3310 C   0  0  0  0  0  0  0  0  0  0  0  0
   -8.9150    1.0780  -82.0340 C   0  0  0  0  0  0  0  0  0  0  0  0
   -9.2700   -0.2090  -81.5970 C   0  0  0  0  0  0  0  0  0  0  0  0
  1  2  2  0
  2  3  1  0
  2  4  1  0
  4  5  2  3
  5  6  1  0
  6  7  2  0
  6  8  1  0
  7  9  1  0
  8 10  2  0
  9 11  2  0
 10 11  1  0
 10 12  1  0
 12 13  1  0
 13 14  2  0
 13 15  1  0
 15 16  1  0
 16 17  2  0
 16 18  1  0
 18 19  2  0
 18 20  1  0
 19 21  1  0
 20 22  2  0
 21 23  2  0
 22 23  1  0
M  END
>  <ref_url>  (746) 
https://fakepage.com

>  <submitter_name>  (746) 
Steph Wills

>  <submitter_email>  (746) 
stephanie.wills@dtc.ox.ac.uk

>  <submitter_institution>  (746) 
University of Oxford

>  <generation_date>  (746) 
2020-06-04

>  <method>  (746) 
Fragment network

>  <ref_mols>  (746) 
x0183_0B,x0212_0B

>  <ref_pdb>  (746) 
references/x0183-0B-x0212-0B-338559.holo_minimised_nolig.pdb

>  <original SMILES>  (746) 
O=C(O)C=Cc1cccc(NC(=S)NC(=O)c2ccccc2)c1

>  <synthon>  (746) 
[Xe]c1ccccc1

>  <original_name>  (746) 
x0183-0B-x0212-0B-338559

>  <comRMSD_score>  (746) 
0.5060461365406235

>  <IF_score>  (746) 
0.675

>  <SuCOS_score>  (746) 
0.6378158850677331

>  <compound_ID>  (746) 
MOLPORT:035-805-331

$$$$

     RDKit          3D

 25 26  0  0  0  0  0  0  0  0999 V2000
  -13.4720    5.7640  -72.6770 C   0  0  0  0  0  0  0  0  0  0  0  0
  -13.2520    6.5990  -73.8110 C   0  0  0  0  0  0  0  0  0  0  0  0
  -11.8760    7.2010  -74.0020 C   0  0  0  0  0  0  0  0  0  0  0  0
  -13.5800    5.8450  -75.0190 N   0  0  0  0  0  0  0  0  0  0  0  0
  -13.4200    4.1790  -75.0750 S   0  0  0  0  0  0  0  0  0  0  0  0
  -13.2990    3.6720  -73.7230 O   0  0  0  0  0  0  0  0  0  0  0  0
  -14.4340    3.6730  -75.9590 O   0  0  0  0  0  0  0  0  0  0  0  0
  -11.8590    3.9370  -75.8830 C   0  0  0  0  0  0  0  0  0  0  0  0
  -10.9550    2.8920  -75.4040 C   0  0  0  0  0  0  0  0  0  0  0  0
  -11.4480    4.7020  -76.9740 C   0  0  0  0  0  0  0  0  0  0  0  0
   -9.7370    2.6460  -75.9860 C   0  0  0  0  0  0  0  0  0  0  0  0
  -10.1960    4.4330  -77.5630 C   0  0  0  0  0  0  0  0  0  0  0  0
   -9.3490    3.4160  -77.0690 C   0  0  0  0  0  0  0  0  0  0  0  0
   -8.1180    3.0740  -77.5480 N   0  0  0  0  0  0  0  0  0  0  0  0
   -7.2460    2.1210  -77.0230 C   0  0  0  0  0  0  0  0  0  0  0  0
   -7.5180    1.2690  -76.1950 O   0  0  0  0  0  0  0  0  0  0  0  0
   -5.9050    2.2250  -77.6060 N   0  0  0  0  0  0  0  0  0  0  0  0
   -5.7350    2.1050  -78.9590 C   0  0  0  0  0  0  0  0  0  0  0  0
   -6.8790    2.6260  -79.7220 C   0  0  0  0  0  0  0  0  0  0  0  0
   -7.7550    1.7440  -80.2160 C   0  0  0  0  0  0  0  0  0  0  0  0
   -8.4300    1.9890  -81.4590 C   0  0  0  0  0  0  0  0  0  0  0  0
   -8.0640    0.5360  -79.5610 C   0  0  0  0  0  0  0  0  0  0  0  0
   -9.3330    1.1040  -81.9960 C   0  0  0  0  0  0  0  0  0  0  0  0
   -8.9880   -0.3640  -80.1190 C   0  0  0  0  0  0  0  0  0  0  0  0
   -9.6200   -0.0820  -81.3330 C   0  0  0  0  0  0  0  0  0  0  0  0
  1  2  1  0
  2  3  1  0
  2  4  1  0
  5  4  1  0
  5  6  2  0
  5  7  2  0
  5  8  1  0
  8  9  2  0
  8 10  1  0
  9 11  1  0
 10 12  2  0
 11 13  2  0
 12 13  1  0
 13 14  1  0
 14 15  1  0
 15 16  2  0
 15 17  1  0
 17 18  1  0
 18 19  1  0
 19 20  1  0
 20 21  2  0
 20 22  1  0
 21 23  1  0
 22 24  2  0
 23 25  2  0
 24 25  1  0
M  END
>  <ref_url>  (747) 
https://fakepage.com

>  <submitter_name>  (747) 
Steph Wills

>  <submitter_email>  (747) 
stephanie.wills@dtc.ox.ac.uk

>  <submitter_institution>  (747) 
University of Oxford

>  <generation_date>  (747) 
2020-06-04

>  <method>  (747) 
Fragment network

>  <ref_mols>  (747) 
x0183_0B,x0212_0B

>  <ref_pdb>  (747) 
references/x0183-0B-x0212-0B-340339.holo_minimised_nolig.pdb

>  <original SMILES>  (747) 
CC(C)NS(=O)(=O)c1ccc(NC(=O)NCCc2ccccc2)cc1

>  <synthon>  (747) 
[Xe]c1ccccc1

>  <original_name>  (747) 
x0183-0B-x0212-0B-340339

>  <comRMSD_score>  (747) 
0.5966346049734713

>  <IF_score>  (747) 
0.5833333333333334

>  <SuCOS_score>  (747) 
0.5339475919633565

>  <compound_ID>  (747) 
REAL:Z402418682

$$$$

     RDKit          3D

 20 21  0  0  0  0  0  0  0  0999 V2000
  -14.2680    3.2990  -75.7950 C   0  0  0  0  0  0  0  0  0  0  0  0
  -13.2370    4.1990  -75.2060 C   0  0  0  0  0  0  0  0  0  0  0  0
  -13.4760    5.5660  -75.0090 C   0  0  0  0  0  0  0  0  0  0  0  0
  -12.0500    4.1220  -76.1670 C   0  0  0  0  0  0  0  0  0  0  0  0
  -10.8480    3.5200  -75.8410 C   0  0  0  0  0  0  0  0  0  0  0  0
  -12.1530    4.6710  -77.4360 C   0  0  0  0  0  0  0  0  0  0  0  0
   -9.7710    3.4380  -76.7040 C   0  0  0  0  0  0  0  0  0  0  0  0
  -11.0920    4.5950  -78.3080 C   0  0  0  0  0  0  0  0  0  0  0  0
   -9.8880    3.9910  -77.9880 C   0  0  0  0  0  0  0  0  0  0  0  0
   -8.6700    3.9460  -79.1150 S   0  0  0  0  0  0  0  0  0  0  0  0
   -8.0990    2.3590  -78.5170 C   0  0  2  0  0  0  0  0  0  0  0  0
   -6.7900    2.4160  -78.1030 C   0  0  0  0  0  0  0  0  0  0  0  0
   -8.3990    1.3950  -79.6290 C   0  0  0  0  0  0  0  0  0  0  0  0
   -5.8950    1.9930  -78.8220 O   0  0  0  0  0  0  0  0  0  0  0  0
   -6.6400    2.9150  -76.9950 O   0  0  0  0  0  0  0  0  0  0  0  0
   -8.6760    0.1210  -79.2120 C   0  0  0  0  0  0  0  0  0  0  0  0
   -8.4190    1.7640  -80.9950 C   0  0  0  0  0  0  0  0  0  0  0  0
   -9.0230   -0.9250  -80.2010 C   0  0  0  0  0  0  0  0  0  0  0  0
   -8.7400    0.8220  -81.9810 C   0  0  0  0  0  0  0  0  0  0  0  0
   -9.0420   -0.4950  -81.6360 C   0  0  0  0  0  0  0  0  0  0  0  0
  1  2  1  0
  2  3  1  0
  2  4  1  0
  4  5  2  0
  4  6  1  0
  5  7  1  0
  6  8  2  0
  7  9  2  0
  8  9  1  0
  9 10  1  0
 11 10  1  6
 11 12  1  0
 11 13  1  0
 12 14  2  0
 12 15  1  0
 13 16  2  0
 13 17  1  0
 16 18  1  0
 17 19  2  0
 18 20  2  0
 19 20  1  0
M  END
>  <ref_url>  (748) 
https://fakepage.com

>  <submitter_name>  (748) 
Steph Wills

>  <submitter_email>  (748) 
stephanie.wills@dtc.ox.ac.uk

>  <submitter_institution>  (748) 
University of Oxford

>  <generation_date>  (748) 
2020-06-04

>  <method>  (748) 
Fragment network

>  <ref_mols>  (748) 
x0183_0B,x0212_0B

>  <ref_pdb>  (748) 
references/x0183-0B-x0212-0B-340428.holo_minimised_nolig.pdb

>  <original SMILES>  (748) 
CC(C)c1ccc(SC(C(=O)O)c2ccccc2)cc1

>  <synthon>  (748) 
[Xe]c1ccccc1

>  <original_name>  (748) 
x0183-0B-x0212-0B-340428

>  <comRMSD_score>  (748) 
0.7510444949091452

>  <IF_score>  (748) 
0.55

>  <SuCOS_score>  (748) 
0.4941846666408913

>  <compound_ID>  (748) 
MOLPORT:003-778-303

$$$$

     RDKit          3D

 22 23  0  0  0  0  0  0  0  0999 V2000
  -12.7040    6.2320  -73.6490 C   0  0  0  0  0  0  0  0  0  0  0  0
  -13.3330    5.6790  -74.9490 C   0  0  0  0  0  0  0  0  0  0  0  0
  -13.1160    4.1610  -75.1630 C   0  0  2  0  0  0  0  0  0  0  0  0
  -12.9410    3.3750  -73.9810 N   0  0  0  0  0  0  0  0  0  0  0  0
  -12.0940    4.0460  -76.2680 C   0  0  0  0  0  0  0  0  0  0  0  0
  -12.3890    4.7190  -77.4190 C   0  0  0  0  0  0  0  0  0  0  0  0
  -10.8740    3.3310  -76.2880 C   0  0  0  0  0  0  0  0  0  0  0  0
  -11.5850    4.7080  -78.5050 C   0  0  0  0  0  0  0  0  0  0  0  0
  -10.0630    3.3360  -77.4160 C   0  0  0  0  0  0  0  0  0  0  0  0
  -10.4420    2.6800  -75.3820 O   0  0  0  0  0  0  0  0  0  0  0  0
  -10.4010    4.0300  -78.5550 C   0  0  0  0  0  0  0  0  0  0  0  0
   -9.3880    1.9080  -75.9960 C   0  0  0  0  0  0  0  0  0  0  0  0
   -8.5390    2.7240  -77.0180 C   0  0  0  0  0  0  0  0  0  0  0  0
   -9.0450    4.0110  -77.3560 O   0  0  0  0  0  0  0  0  0  0  0  0
   -7.3950    2.1800  -77.5640 N   0  0  0  0  0  0  0  0  0  0  0  0
   -7.1100    2.4330  -78.9030 C   0  0  0  0  0  0  0  0  0  0  0  0
   -7.8640    1.5280  -79.8500 C   0  0  0  0  0  0  0  0  0  0  0  0
   -8.2430    0.2510  -79.4230 C   0  0  0  0  0  0  0  0  0  0  0  0
   -8.1910    1.9450  -81.1490 C   0  0  0  0  0  0  0  0  0  0  0  0
   -8.9360   -0.6030  -80.2710 C   0  0  0  0  0  0  0  0  0  0  0  0
   -8.8820    1.0840  -81.9910 C   0  0  0  0  0  0  0  0  0  0  0  0
   -9.2520   -0.1850  -81.5510 C   0  0  0  0  0  0  0  0  0  0  0  0
  1  2  1  0
  2  3  1  0
  3  4  1  1
  3  5  1  0
  5  6  2  0
  5  7  1  0
  6  8  1  0
  7  9  2  0
  7 10  1  0
  8 11  2  0
  9 11  1  0
 10 12  1  0
 12 13  1  0
 13 14  2  0
 13 15  1  0
 15 16  1  0
 16 17  1  0
 17 18  2  0
 17 19  1  0
 18 20  1  0
 19 21  2  0
 20 22  2  0
 21 22  1  0
M  END
>  <ref_url>  (749) 
https://fakepage.com

>  <submitter_name>  (749) 
Steph Wills

>  <submitter_email>  (749) 
stephanie.wills@dtc.ox.ac.uk

>  <submitter_institution>  (749) 
University of Oxford

>  <generation_date>  (749) 
2020-06-04

>  <method>  (749) 
Fragment network

>  <ref_mols>  (749) 
x0183_0B,x0212_0B

>  <ref_pdb>  (749) 
references/x0183-0B-x0212-0B-342197.holo_minimised_nolig.pdb

>  <original SMILES>  (749) 
CCC(N)c1ccccc1OCC(=O)NCc1ccccc1

>  <synthon>  (749) 
[Xe]c1ccccc1

>  <original_name>  (749) 
x0183-0B-x0212-0B-342197

>  <comRMSD_score>  (749) 
0.7524315152790889

>  <IF_score>  (749) 
0.525

>  <SuCOS_score>  (749) 
0.5420261817463053

>  <compound_ID>  (749) 
CHEMSPACE-BB:CSMB00018707834, CHEMSPACE-BB:CSMB00018924316

$$$$

     RDKit          3D

 23 26  0  0  0  0  0  0  0  0999 V2000
  -15.0280    5.8410  -73.3640 C   0  0  0  0  0  0  0  0  0  0  0  0
  -15.3390    4.5030  -74.0540 C   0  0  0  0  0  0  0  0  0  0  0  0
  -14.1970    4.0000  -74.9500 C   0  0  0  0  0  0  0  0  0  0  0  0
  -13.8260    6.5090  -73.5610 C   0  0  0  0  0  0  0  0  0  0  0  0
  -12.8700    5.9620  -74.3900 C   0  0  0  0  0  0  0  0  0  0  0  0
  -13.0270    4.7440  -75.0700 C   0  0  0  0  0  0  0  0  0  0  0  0
  -11.9500    4.3890  -75.8140 C   0  0  0  0  0  0  0  0  0  0  0  0
  -11.6970    4.8990  -77.0690 C   0  0  0  0  0  0  0  0  0  0  0  0
  -11.0520    3.4880  -75.2610 C   0  0  0  0  0  0  0  0  0  0  0  0
  -10.5820    4.5390  -77.7670 C   0  0  0  0  0  0  0  0  0  0  0  0
   -9.9210    3.1190  -75.9490 C   0  0  0  0  0  0  0  0  0  0  0  0
   -9.6860    3.6460  -77.1970 C   0  0  0  0  0  0  0  0  0  0  0  0
   -8.6090    3.2630  -77.8740 C   0  0  0  0  0  0  0  0  0  0  0  0
   -7.2680    3.6280  -77.8100 N   0  0  0  0  0  0  0  0  0  0  0  0
   -8.8830    2.4720  -78.6620 O   0  0  0  0  0  0  0  0  0  0  0  0
   -6.6020    2.8600  -78.8190 N   0  0  0  0  0  0  0  0  0  0  0  0
   -7.7240    2.1930  -79.2670 C   0  0  0  0  0  0  0  0  0  0  0  0
   -7.9470    1.2830  -80.2170 C   0  0  0  0  0  0  0  0  0  0  0  0
   -8.0440    1.6580  -81.5270 C   0  0  0  0  0  0  0  0  0  0  0  0
   -8.1320   -0.0360  -79.8350 C   0  0  0  0  0  0  0  0  0  0  0  0
   -8.3460    0.6120  -82.4620 C   0  0  0  0  0  0  0  0  0  0  0  0
   -8.4240   -1.0230  -80.7510 C   0  0  0  0  0  0  0  0  0  0  0  0
   -8.5470   -0.7590  -82.1090 C   0  0  0  0  0  0  0  0  0  0  0  0
  1  2  2  0
  2  3  1  0
  1  4  1  0
  4  5  2  0
  3  6  2  0
  5  6  1  0
  6  7  1  0
  7  8  2  0
  7  9  1  0
  8 10  1  0
  9 11  2  0
 10 12  2  0
 11 12  1  0
 12 13  1  0
 13 14  2  0
 13 15  1  0
 14 16  1  0
 15 17  1  0
 16 17  2  0
 17 18  1  0
 18 19  2  0
 18 20  1  0
 19 21  1  0
 20 22  2  0
 21 23  2  0
 22 23  1  0
M  END
>  <ref_url>  (750) 
https://fakepage.com

>  <submitter_name>  (750) 
Steph Wills

>  <submitter_email>  (750) 
stephanie.wills@dtc.ox.ac.uk

>  <submitter_institution>  (750) 
University of Oxford

>  <generation_date>  (750) 
2020-06-04

>  <method>  (750) 
Fragment network

>  <ref_mols>  (750) 
x0183_0B,x0212_0B

>  <ref_pdb>  (750) 
references/x0183-0B-x0212-0B-342713.holo_minimised_nolig.pdb

>  <original SMILES>  (750) 
c1ccc(-c2ccc(-c3nnc(-c4ccccc4)o3)cc2)cc1

>  <synthon>  (750) 
[Xe]c1ccccc1

>  <original_name>  (750) 
x0183-0B-x0212-0B-342713

>  <comRMSD_score>  (750) 
0.8769023715504297

>  <IF_score>  (750) 
0.125

>  <SuCOS_score>  (750) 
0.4797297077280647

>  <compound_ID>  (750) 
MOLPORT:001-789-050

$$$$

     RDKit          3D

 20 21  0  0  0  0  0  0  0  0999 V2000
  -12.6710    6.0640  -73.6920 C   0  0  0  0  0  0  0  0  0  0  0  0
  -13.2620    5.2360  -74.8680 C   0  0  0  0  0  0  0  0  0  0  0  0
  -12.6850    3.7940  -74.9920 C   0  0  0  0  0  0  0  0  0  0  0  0
  -11.6380    3.8000  -76.1020 C   0  0  0  0  0  0  0  0  0  0  0  0
  -11.7740    4.8170  -77.0360 C   0  0  0  0  0  0  0  0  0  0  0  0
  -10.5420    2.9070  -76.3200 C   0  0  0  0  0  0  0  0  0  0  0  0
  -10.8990    4.9490  -78.0890 C   0  0  0  0  0  0  0  0  0  0  0  0
   -9.7140    3.0980  -77.3780 C   0  0  0  0  0  0  0  0  0  0  0  0
  -10.0860    1.7940  -75.6600 N   0  0  0  0  0  0  0  0  0  0  0  0
   -9.8470    4.0890  -78.2750 C   0  0  0  0  0  0  0  0  0  0  0  0
   -9.1570    0.8960  -76.2970 C   0  0  0  0  0  0  0  0  0  0  0  0
   -9.3420   -0.5190  -76.4940 O   0  0  0  0  0  0  0  0  0  0  0  0
   -7.7500    1.3520  -76.8550 C   0  0  0  0  0  0  0  0  0  0  0  0
   -7.5490    2.0650  -78.2580 C   0  0  0  0  0  0  0  0  0  0  0  0
   -8.1600    1.2950  -79.4230 C   0  0  0  0  0  0  0  0  0  0  0  0
   -8.6030   -0.0090  -79.2040 C   0  0  0  0  0  0  0  0  0  0  0  0
   -8.2960    1.8480  -80.7300 C   0  0  0  0  0  0  0  0  0  0  0  0
   -9.1650   -0.7510  -80.2310 C   0  0  0  0  0  0  0  0  0  0  0  0
   -8.8620    1.0920  -81.7570 C   0  0  0  0  0  0  0  0  0  0  0  0
   -9.2940   -0.2050  -81.4960 C   0  0  0  0  0  0  0  0  0  0  0  0
  1  2  1  0
  2  3  1  0
  3  4  1  0
  4  5  2  0
  4  6  1  0
  5  7  1  0
  6  8  2  0
  6  9  1  0
  7 10  2  0
  8 10  1  0
  9 11  1  0
 11 12  2  0
 11 13  1  0
 13 14  1  0
 14 15  1  0
 15 16  2  0
 15 17  1  0
 16 18  1  0
 17 19  2  0
 18 20  2  0
 19 20  1  0
M  END
>  <ref_url>  (751) 
https://fakepage.com

>  <submitter_name>  (751) 
Steph Wills

>  <submitter_email>  (751) 
stephanie.wills@dtc.ox.ac.uk

>  <submitter_institution>  (751) 
University of Oxford

>  <generation_date>  (751) 
2020-06-04

>  <method>  (751) 
Fragment network

>  <ref_mols>  (751) 
x0183_0B,x0212_0B

>  <ref_pdb>  (751) 
references/x0183-0B-x0212-0B-344074.holo_minimised_nolig.pdb

>  <original SMILES>  (751) 
CCCc1ccccc1NC(=O)CCc1ccccc1

>  <synthon>  (751) 
[Xe]c1ccccc1

>  <original_name>  (751) 
x0183-0B-x0212-0B-344074

>  <comRMSD_score>  (751) 
0.7743014055693472

>  <IF_score>  (751) 
0.425

>  <SuCOS_score>  (751) 
0.490650038719698

>  <compound_ID>  (751) 
REAL:Z365066502

$$$$

     RDKit          3D

 22 23  0  0  0  0  0  0  0  0999 V2000
  -12.7570    6.2400  -73.8110 C   0  0  0  0  0  0  0  0  0  0  0  0
  -13.2710    5.7130  -75.0640 C   0  0  0  0  0  0  0  0  0  0  0  0
  -12.8520    4.3290  -75.6030 C   0  0  0  0  0  0  0  0  0  0  0  0
  -13.4560    3.2830  -75.3830 O   0  0  0  0  0  0  0  0  0  0  0  0
  -11.7390    4.1560  -76.4590 C   0  0  0  0  0  0  0  0  0  0  0  0
  -11.7100    4.7980  -77.7920 C   0  0  0  0  0  0  0  0  0  0  0  0
  -10.5950    3.3910  -76.1660 C   0  0  0  0  0  0  0  0  0  0  0  0
  -10.5960    4.6110  -78.6180 C   0  0  0  0  0  0  0  0  0  0  0  0
   -9.5490    3.2890  -77.0470 C   0  0  0  0  0  0  0  0  0  0  0  0
  -10.3930    2.7670  -75.1950 O   0  0  0  0  0  0  0  0  0  0  0  0
   -9.5100    3.8720  -78.2590 C   0  0  0  0  0  0  0  0  0  0  0  0
   -9.8820    1.4760  -75.6560 C   0  0  0  0  0  0  0  0  0  0  0  0
   -9.1430    1.6360  -76.8070 C   0  0  0  0  0  0  0  0  0  0  0  0
   -7.7440    1.1710  -76.8810 C   0  0  0  0  0  0  0  0  0  0  0  0
   -6.9180    1.7990  -77.5700 O   0  0  0  0  0  0  0  0  0  0  0  0
   -7.1930    2.2260  -78.8550 C   0  0  0  0  0  0  0  0  0  0  0  0
   -7.9110    1.4620  -79.7840 C   0  0  0  0  0  0  0  0  0  0  0  0
   -8.2050    1.9210  -81.0750 C   0  0  0  0  0  0  0  0  0  0  0  0
   -8.3520    0.1870  -79.4090 C   0  0  0  0  0  0  0  0  0  0  0  0
   -8.9230    1.0990  -81.9470 C   0  0  0  0  0  0  0  0  0  0  0  0
   -9.0670   -0.6310  -80.2720 C   0  0  0  0  0  0  0  0  0  0  0  0
   -9.3490   -0.1670  -81.5420 C   0  0  0  0  0  0  0  0  0  0  0  0
  1  2  1  0
  2  3  1  0
  3  4  2  0
  3  5  1  0
  5  6  2  0
  5  7  1  0
  6  8  1  0
  7  9  2  0
  7 10  1  0
  8 11  2  0
  9 11  1  0
 10 12  1  0
 12 13  1  0
 13 14  1  0
 14 15  1  0
 15 16  1  0
 16 17  1  0
 17 18  2  0
 17 19  1  0
 18 20  1  0
 19 21  2  0
 20 22  2  0
 21 22  1  0
M  END
>  <ref_url>  (752) 
https://fakepage.com

>  <submitter_name>  (752) 
Steph Wills

>  <submitter_email>  (752) 
stephanie.wills@dtc.ox.ac.uk

>  <submitter_institution>  (752) 
University of Oxford

>  <generation_date>  (752) 
2020-06-04

>  <method>  (752) 
Fragment network

>  <ref_mols>  (752) 
x0183_0B,x0212_0B

>  <ref_pdb>  (752) 
references/x0183-0B-x0212-0B-344206.holo_minimised_nolig.pdb

>  <original SMILES>  (752) 
CCC(=O)c1ccccc1OCCCOCc1ccccc1

>  <synthon>  (752) 
[Xe]c1ccccc1

>  <original_name>  (752) 
x0183-0B-x0212-0B-344206

>  <comRMSD_score>  (752) 
0.7949665494942632

>  <IF_score>  (752) 
0.425

>  <SuCOS_score>  (752) 
0.5110133373450565

>  <compound_ID>  (752) 
CHEMSPACE-BB:CSMB00013373577

$$$$

     RDKit          3D

 21 22  0  0  0  0  0  0  0  0999 V2000
  -12.7060    6.3600  -73.8910 C   0  0  0  0  0  0  0  0  0  0  0  0
  -12.9780    5.9070  -75.3550 C   0  0  0  0  0  0  0  0  0  0  0  0
  -12.9850    4.3640  -75.4640 C   0  0  0  0  0  0  0  0  0  0  0  0
  -11.8990    3.6010  -75.9460 C   0  0  0  0  0  0  0  0  0  0  0  0
  -11.4180    2.5640  -75.1370 C   0  0  0  0  0  0  0  0  0  0  0  0
  -11.1990    3.7280  -77.1640 C   0  0  0  0  0  0  0  0  0  0  0  0
  -10.3500    1.7460  -75.5330 C   0  0  0  0  0  0  0  0  0  0  0  0
  -10.1690    2.9070  -77.5180 C   0  0  0  0  0  0  0  0  0  0  0  0
  -11.3080    4.4770  -78.0490 O   0  0  0  0  0  0  0  0  0  0  0  0
   -9.7080    1.9050  -76.7400 C   0  0  0  0  0  0  0  0  0  0  0  0
   -9.9800    4.1990  -78.5700 C   0  0  0  0  0  0  0  0  0  0  0  0
   -9.0130    3.7000  -77.6000 C   0  0  0  0  0  0  0  0  0  0  0  0
   -9.1750    3.6760  -76.3770 O   0  0  0  0  0  0  0  0  0  0  0  0
   -7.7020    3.1510  -78.0560 N   0  0  0  0  0  0  0  0  0  0  0  0
   -7.4310    2.9370  -79.3710 C   0  0  0  0  0  0  0  0  0  0  0  0
   -8.0510    1.7590  -79.9680 C   0  0  0  0  0  0  0  0  0  0  0  0
   -8.3520    0.4960  -79.3410 C   0  0  0  0  0  0  0  0  0  0  0  0
   -8.3550    1.9740  -81.3060 C   0  0  0  0  0  0  0  0  0  0  0  0
   -8.9560   -0.4560  -80.1530 C   0  0  0  0  0  0  0  0  0  0  0  0
   -8.9450    1.0060  -82.0570 C   0  0  0  0  0  0  0  0  0  0  0  0
   -9.2530   -0.2160  -81.4880 C   0  0  0  0  0  0  0  0  0  0  0  0
  1  2  1  0
  2  3  1  0
  3  4  1  0
  4  5  2  0
  4  6  1  0
  5  7  1  0
  6  8  2  0
  6  9  1  0
  7 10  2  0
  8 10  1  0
  9 11  1  0
 11 12  1  0
 12 13  2  0
 12 14  1  0
 14 15  1  0
 15 16  1  0
 16 17  2  0
 16 18  1  0
 17 19  1  0
 18 20  2  0
 19 21  2  0
 20 21  1  0
M  END
>  <ref_url>  (753) 
https://fakepage.com

>  <submitter_name>  (753) 
Steph Wills

>  <submitter_email>  (753) 
stephanie.wills@dtc.ox.ac.uk

>  <submitter_institution>  (753) 
University of Oxford

>  <generation_date>  (753) 
2020-06-04

>  <method>  (753) 
Fragment network

>  <ref_mols>  (753) 
x0183_0B,x0212_0B

>  <ref_pdb>  (753) 
references/x0183-0B-x0212-0B-346658.holo_minimised_nolig.pdb

>  <original SMILES>  (753) 
CCCc1ccccc1OCC(=O)NCc1ccccc1

>  <synthon>  (753) 
[Xe]c1ccccc1

>  <original_name>  (753) 
x0183-0B-x0212-0B-346658

>  <comRMSD_score>  (753) 
0.992633627537632

>  <IF_score>  (753) 
0.55

>  <SuCOS_score>  (753) 
0.5165866754756996

>  <compound_ID>  (753) 
CHEMSPACE-BB:CSMB00022690403

$$$$

     RDKit          3D

 22 23  0  0  0  0  0  0  0  0999 V2000
  -11.8560    6.5220  -73.9790 C   0  0  0  0  0  0  0  0  0  0  0  0
  -13.3180    6.4200  -73.5710 C   0  0  0  0  0  0  0  0  0  0  0  0
  -14.3490    5.9090  -75.0140 S   0  0  0  0  0  0  0  0  0  0  0  0
  -13.7560    4.2940  -75.4920 C   0  0  0  0  0  0  0  0  0  0  0  0
  -12.4340    4.1880  -76.2070 C   0  0  0  0  0  0  0  0  0  0  0  0
  -12.3380    4.7560  -77.4770 C   0  0  0  0  0  0  0  0  0  0  0  0
  -11.3400    3.5340  -75.6210 C   0  0  0  0  0  0  0  0  0  0  0  0
  -11.1600    4.6710  -78.1730 C   0  0  0  0  0  0  0  0  0  0  0  0
  -10.1560    3.4560  -76.3310 C   0  0  0  0  0  0  0  0  0  0  0  0
  -10.1150    4.0320  -77.5950 C   0  0  0  0  0  0  0  0  0  0  0  0
   -8.9510    3.9850  -78.3990 N   0  0  0  0  0  0  0  0  0  0  0  0
   -8.6580    2.5950  -78.4430 C   0  0  0  0  0  0  0  0  0  0  0  0
   -9.4000    1.6770  -78.7470 O   0  0  0  0  0  0  0  0  0  0  0  0
   -7.3620    2.4390  -78.0550 N   0  0  0  0  0  0  0  0  0  0  0  0
   -6.9350    2.7190  -76.7880 C   0  0  0  0  0  0  0  0  0  0  0  0
   -6.6220    2.0860  -79.1410 C   0  0  0  0  0  0  0  0  0  0  0  0
   -7.5950    1.3120  -80.0250 C   0  0  0  0  0  0  0  0  0  0  0  0
   -8.0400   -0.0640  -79.5300 C   0  0  0  0  0  0  0  0  0  0  0  0
   -8.0840    1.8270  -81.2360 C   0  0  0  0  0  0  0  0  0  0  0  0
   -9.0060   -0.7750  -80.4230 C   0  0  0  0  0  0  0  0  0  0  0  0
   -8.9820    1.0820  -82.0010 C   0  0  0  0  0  0  0  0  0  0  0  0
   -9.4270   -0.1780  -81.6010 C   0  0  0  0  0  0  0  0  0  0  0  0
  1  2  1  0
  2  3  1  0
  3  4  1  0
  4  5  1  0
  5  6  2  0
  5  7  1  0
  6  8  1  0
  7  9  2  0
  8 10  2  0
  9 10  1  0
 10 11  1  0
 11 12  1  0
 12 13  2  0
 12 14  1  0
 14 15  1  0
 14 16  1  0
 16 17  1  0
 17 18  2  0
 17 19  1  0
 18 20  1  0
 19 21  2  0
 20 22  2  0
 21 22  1  0
M  END
>  <ref_url>  (754) 
https://fakepage.com

>  <submitter_name>  (754) 
Steph Wills

>  <submitter_email>  (754) 
stephanie.wills@dtc.ox.ac.uk

>  <submitter_institution>  (754) 
University of Oxford

>  <generation_date>  (754) 
2020-06-04

>  <method>  (754) 
Fragment network

>  <ref_mols>  (754) 
x0183_0B,x0212_0B

>  <ref_pdb>  (754) 
references/x0183-0B-x0212-0B-349470.holo_minimised_nolig.pdb

>  <original SMILES>  (754) 
CCSCc1ccc(NC(=O)N(C)Cc2ccccc2)cc1

>  <synthon>  (754) 
[Xe]c1ccccc1

>  <original_name>  (754) 
x0183-0B-x0212-0B-349470

>  <comRMSD_score>  (754) 
0.7470467038798697

>  <IF_score>  (754) 
0.55

>  <SuCOS_score>  (754) 
0.5432200952779076

>  <compound_ID>  (754) 
REAL:Z2295882540

$$$$

     RDKit          3D

 22 23  0  0  0  0  0  0  0  0999 V2000
  -11.7270    6.2130  -73.5800 C   0  0  0  0  0  0  0  0  0  0  0  0
  -13.1550    6.4520  -73.9140 C   0  0  0  0  0  0  0  0  0  0  0  0
  -13.5460    6.2360  -75.3440 C   0  0  0  0  0  0  0  0  0  0  0  0
  -13.9450    7.1830  -76.0100 O   0  0  0  0  0  0  0  0  0  0  0  0
  -13.4130    4.8670  -75.8730 N   0  0  0  0  0  0  0  0  0  0  0  0
  -14.5600    3.9780  -75.7040 C   0  0  0  0  0  0  0  0  0  0  0  0
  -12.2120    4.3900  -76.3810 C   0  0  0  0  0  0  0  0  0  0  0  0
  -11.5190    3.5730  -75.5180 C   0  0  0  0  0  0  0  0  0  0  0  0
  -11.7030    4.6740  -77.6780 C   0  0  0  0  0  0  0  0  0  0  0  0
  -10.3500    3.0150  -75.9050 C   0  0  0  0  0  0  0  0  0  0  0  0
  -10.4850    4.1160  -78.1330 C   0  0  0  0  0  0  0  0  0  0  0  0
   -9.7840    3.2660  -77.2640 C   0  0  0  0  0  0  0  0  0  0  0  0
   -8.6000    2.5770  -77.5050 N   0  0  0  0  0  0  0  0  0  0  0  0
   -7.3930    3.2300  -77.9920 C   0  0  0  0  0  0  0  0  0  0  0  0
   -6.5740    4.1290  -77.2350 O   0  0  0  0  0  0  0  0  0  0  0  0
   -7.1020    2.7850  -79.3660 N   0  0  0  0  0  0  0  0  0  0  0  0
   -7.8450    1.7160  -80.0130 C   0  0  0  0  0  0  0  0  0  0  0  0
   -8.2290    1.9970  -81.3110 C   0  0  0  0  0  0  0  0  0  0  0  0
   -8.1900    0.4680  -79.4460 C   0  0  0  0  0  0  0  0  0  0  0  0
   -8.9380    1.1160  -82.0860 C   0  0  0  0  0  0  0  0  0  0  0  0
   -8.9210   -0.4570  -80.2190 C   0  0  0  0  0  0  0  0  0  0  0  0
   -9.2700   -0.0990  -81.5160 C   0  0  0  0  0  0  0  0  0  0  0  0
  1  2  1  0
  2  3  1  0
  3  4  2  0
  3  5  1  0
  5  6  1  0
  5  7  1  0
  7  8  2  0
  7  9  1  0
  8 10  1  0
  9 11  2  0
 10 12  2  0
 11 12  1  0
 12 13  1  0
 13 14  1  0
 14 15  2  0
 14 16  1  0
 16 17  1  0
 17 18  2  0
 17 19  1  0
 18 20  1  0
 19 21  2  0
 20 22  2  0
 21 22  1  0
M  END
>  <ref_url>  (755) 
https://fakepage.com

>  <submitter_name>  (755) 
Steph Wills

>  <submitter_email>  (755) 
stephanie.wills@dtc.ox.ac.uk

>  <submitter_institution>  (755) 
University of Oxford

>  <generation_date>  (755) 
2020-06-04

>  <method>  (755) 
Fragment network

>  <ref_mols>  (755) 
x0183_0B,x0212_0B

>  <ref_pdb>  (755) 
references/x0183-0B-x0212-0B-351853.holo_minimised_nolig.pdb

>  <original SMILES>  (755) 
CCC(=O)N(C)c1ccc(NC(=O)Nc2ccccc2)cc1

>  <synthon>  (755) 
[Xe]c1ccccc1

>  <original_name>  (755) 
x0183-0B-x0212-0B-351853

>  <comRMSD_score>  (755) 
0.854655226132477

>  <IF_score>  (755) 
0.55

>  <SuCOS_score>  (755) 
0.4413493882832776

>  <compound_ID>  (755) 
REAL:PV-001941541987

$$$$

     RDKit          3D

 21 22  0  0  0  0  0  0  0  0999 V2000
  -14.3740    5.3160  -77.0410 C   0  0  0  0  0  0  0  0  0  0  0  0
  -13.6320    4.6880  -75.9150 C   0  0  0  0  0  0  0  0  0  0  0  0
  -14.1230    3.6220  -75.2610 C   0  0  0  0  0  0  0  0  0  0  0  0
  -13.4730    5.8370  -74.9010 C   0  0  0  0  0  0  0  0  0  0  0  0
  -12.3050    4.2480  -76.5080 C   0  0  0  0  0  0  0  0  0  0  0  0
  -11.9450    4.7370  -77.7660 C   0  0  0  0  0  0  0  0  0  0  0  0
  -11.4280    3.3650  -75.8510 C   0  0  0  0  0  0  0  0  0  0  0  0
  -10.7640    4.3560  -78.3610 C   0  0  0  0  0  0  0  0  0  0  0  0
  -10.2410    2.9830  -76.4500 C   0  0  0  0  0  0  0  0  0  0  0  0
   -9.9280    3.4830  -77.7100 C   0  0  0  0  0  0  0  0  0  0  0  0
   -8.9190    3.1570  -78.2560 O   0  0  0  0  0  0  0  0  0  0  0  0
   -7.7810    3.1820  -77.4400 C   0  0  0  0  0  0  0  0  0  0  0  0
   -7.6710    3.4400  -76.2490 O   0  0  0  0  0  0  0  0  0  0  0  0
   -6.4580    2.8250  -78.0450 C   0  0  0  0  0  0  0  0  0  0  0  0
   -6.4140    1.9220  -79.2740 C   0  0  0  0  0  0  0  0  0  0  0  0
   -7.4270    1.2930  -80.0270 C   0  0  0  0  0  0  0  0  0  0  0  0
   -7.9470    0.0550  -79.5960 C   0  0  0  0  0  0  0  0  0  0  0  0
   -7.9360    1.8400  -81.2190 C   0  0  0  0  0  0  0  0  0  0  0  0
   -8.9330   -0.6200  -80.3310 C   0  0  0  0  0  0  0  0  0  0  0  0
   -8.9060    1.1630  -81.9390 C   0  0  0  0  0  0  0  0  0  0  0  0
   -9.4050   -0.0600  -81.5080 C   0  0  0  0  0  0  0  0  0  0  0  0
  2  1  1  0
  2  3  1  0
  2  4  1  0
  2  5  1  0
  5  6  2  0
  5  7  1  0
  6  8  1  0
  7  9  2  0
  8 10  2  0
  9 10  1  0
 10 11  1  0
 11 12  1  0
 12 13  2  0
 12 14  1  0
 14 15  2  3
 15 16  1  0
 16 17  2  0
 16 18  1  0
 17 19  1  0
 18 20  2  0
 19 21  2  0
 20 21  1  0
M  END
>  <ref_url>  (756) 
https://fakepage.com

>  <submitter_name>  (756) 
Steph Wills

>  <submitter_email>  (756) 
stephanie.wills@dtc.ox.ac.uk

>  <submitter_institution>  (756) 
University of Oxford

>  <generation_date>  (756) 
2020-06-04

>  <method>  (756) 
Fragment network

>  <ref_mols>  (756) 
x0183_0B,x0212_0B

>  <ref_pdb>  (756) 
references/x0183-0B-x0212-0B-354025.holo_minimised_nolig.pdb

>  <original SMILES>  (756) 
CC(C)(C)c1ccc(OC(=O)C=Cc2ccccc2)cc1

>  <synthon>  (756) 
[Xe]c1ccccc1

>  <original_name>  (756) 
x0183-0B-x0212-0B-354025

>  <comRMSD_score>  (756) 
0.9310311702623068

>  <IF_score>  (756) 
0.425

>  <SuCOS_score>  (756) 
0.4579163703476261

>  <compound_ID>  (756) 
MOLPORT:001-016-265

$$$$

     RDKit          3D

 23 24  0  0  0  0  0  0  0  0999 V2000
  -12.6530    6.1990  -73.5810 C   0  0  0  0  0  0  0  0  0  0  0  0
  -13.1420    5.4160  -74.8190 C   0  0  0  0  0  0  0  0  0  0  0  0
  -12.4380    4.0460  -74.9960 C   0  0  1  0  0  0  0  0  0  0  0  0
  -13.5480    3.0300  -75.2390 C   0  0  0  0  0  0  0  0  0  0  0  0
  -11.5960    4.1150  -76.2550 C   0  0  0  0  0  0  0  0  0  0  0  0
  -12.2670    4.6890  -77.3070 C   0  0  0  0  0  0  0  0  0  0  0  0
  -10.2500    3.6900  -76.5220 C   0  0  0  0  0  0  0  0  0  0  0  0
  -11.7490    4.8720  -78.5390 C   0  0  0  0  0  0  0  0  0  0  0  0
   -9.7340    3.8830  -77.7850 C   0  0  0  0  0  0  0  0  0  0  0  0
   -9.3340    3.0930  -75.6730 N   0  0  0  0  0  0  0  0  0  0  0  0
  -10.4550    4.4600  -78.7800 C   0  0  0  0  0  0  0  0  0  0  0  0
   -8.0070    3.0320  -76.1230 C   0  0  0  0  0  0  0  0  0  0  0  0
   -6.4660    3.9270  -75.6450 S   0  0  0  0  0  0  0  0  0  0  0  0
   -7.8670    2.1170  -77.1400 N   0  0  0  0  0  0  0  0  0  0  0  0
   -6.7640    2.1800  -77.9690 C   0  0  0  0  0  0  0  0  0  0  0  0
   -5.6180    1.8900  -77.6160 O   0  0  0  0  0  0  0  0  0  0  0  0
   -7.0700    2.6320  -79.3620 C   0  0  0  0  0  0  0  0  0  0  0  0
   -7.8070    1.6800  -80.0690 C   0  0  0  0  0  0  0  0  0  0  0  0
   -8.1190    0.4290  -79.5140 C   0  0  0  0  0  0  0  0  0  0  0  0
   -8.2370    1.9820  -81.3510 C   0  0  0  0  0  0  0  0  0  0  0  0
   -8.8540   -0.5030  -80.2470 C   0  0  0  0  0  0  0  0  0  0  0  0
   -8.9620    1.0560  -82.0710 C   0  0  0  0  0  0  0  0  0  0  0  0
   -9.2750   -0.1880  -81.5290 C   0  0  0  0  0  0  0  0  0  0  0  0
  1  2  1  0
  2  3  1  0
  3  4  1  6
  3  5  1  0
  5  6  2  0
  5  7  1  0
  6  8  1  0
  7  9  2  0
  7 10  1  0
  8 11  2  0
  9 11  1  0
 10 12  1  0
 12 13  2  0
 12 14  1  0
 14 15  1  0
 15 16  2  0
 15 17  1  0
 17 18  1  0
 18 19  2  0
 18 20  1  0
 19 21  1  0
 20 22  2  0
 21 23  2  0
 22 23  1  0
M  END
>  <ref_url>  (757) 
https://fakepage.com

>  <submitter_name>  (757) 
Steph Wills

>  <submitter_email>  (757) 
stephanie.wills@dtc.ox.ac.uk

>  <submitter_institution>  (757) 
University of Oxford

>  <generation_date>  (757) 
2020-06-04

>  <method>  (757) 
Fragment network

>  <ref_mols>  (757) 
x0183_0B,x0212_0B

>  <ref_pdb>  (757) 
references/x0183-0B-x0212-0B-354328.holo_minimised_nolig.pdb

>  <original SMILES>  (757) 
CCC(C)c1ccccc1NC(=S)NC(=O)Cc1ccccc1

>  <synthon>  (757) 
[Xe]c1ccccc1

>  <original_name>  (757) 
x0183-0B-x0212-0B-354328

>  <comRMSD_score>  (757) 
0.8907935704669095

>  <IF_score>  (757) 
0.425

>  <SuCOS_score>  (757) 
0.5528550991910336

>  <compound_ID>  (757) 
MOLPORT:002-937-858

$$$$

     RDKit          3D

 23 25  0  0  0  0  0  0  0  0999 V2000
   -7.3170    2.4090  -77.0470 C   0  0  0  0  0  0  0  0  0  0  0  0
   -6.9810    2.9290  -78.2900 N   0  0  0  0  0  0  0  0  0  0  0  0
   -6.5280    1.9130  -79.2380 C   0  0  0  0  0  0  0  0  0  0  0  0
   -8.0790    3.4370  -78.9110 C   0  0  0  0  0  0  0  0  0  0  0  0
   -7.4680    1.2530  -79.9530 C   0  0  0  0  0  0  0  0  0  0  0  0
   -8.1430    4.4010  -79.6590 O   0  0  0  0  0  0  0  0  0  0  0  0
   -9.1310    2.6290  -78.5920 N   0  0  0  0  0  0  0  0  0  0  0  0
   -8.0230   -0.0490  -79.5470 C   0  0  0  0  0  0  0  0  0  0  0  0
   -7.9610    1.8160  -81.1670 C   0  0  0  0  0  0  0  0  0  0  0  0
  -10.1530    3.1660  -77.7690 C   0  0  0  0  0  0  0  0  0  0  0  0
   -8.9810   -0.6880  -80.3360 C   0  0  0  0  0  0  0  0  0  0  0  0
   -8.9090    1.1290  -81.9070 C   0  0  0  0  0  0  0  0  0  0  0  0
  -10.8800    4.3500  -78.3660 C   0  0  0  0  0  0  0  0  0  0  0  0
  -10.4700    2.6600  -76.5370 C   0  0  0  0  0  0  0  0  0  0  0  0
   -9.4190   -0.1020  -81.5160 C   0  0  0  0  0  0  0  0  0  0  0  0
  -11.9020    4.9000  -77.6340 C   0  0  0  0  0  0  0  0  0  0  0  0
  -11.4990    3.2520  -75.8480 C   0  0  0  0  0  0  0  0  0  0  0  0
  -12.2190    4.3550  -76.3860 C   0  0  0  0  0  0  0  0  0  0  0  0
  -13.2520    4.8580  -75.6310 C   0  0  2  0  0  0  0  0  0  0  0  0
  -13.4200    6.2190  -75.4320 C   0  0  0  0  0  0  0  0  0  0  0  0
  -12.8070    4.5240  -74.2280 C   0  0  0  0  0  0  0  0  0  0  0  0
  -13.1870    6.4900  -73.9980 C   0  0  0  0  0  0  0  0  0  0  0  0
  -12.3300    5.5180  -73.6700 O   0  0  0  0  0  0  0  0  0  0  0  0
  1  2  1  0
  2  3  1  0
  2  4  1  0
  3  5  1  0
  4  6  2  0
  4  7  1  0
  5  8  2  0
  5  9  1  0
  7 10  1  0
  8 11  1  0
  9 12  2  0
 10 13  2  0
 10 14  1  0
 11 15  2  0
 12 15  1  0
 13 16  1  0
 14 17  2  0
 16 18  2  0
 17 18  1  0
 19 18  1  6
 19 20  1  0
 19 21  1  0
 20 22  1  0
 21 23  1  0
 22 23  1  0
M  END
>  <ref_url>  (758) 
https://fakepage.com

>  <submitter_name>  (758) 
Steph Wills

>  <submitter_email>  (758) 
stephanie.wills@dtc.ox.ac.uk

>  <submitter_institution>  (758) 
University of Oxford

>  <generation_date>  (758) 
2020-06-04

>  <method>  (758) 
Fragment network

>  <ref_mols>  (758) 
x0183_0B,x0212_0B

>  <ref_pdb>  (758) 
references/x0183-0B-x0212-0B-355879.holo_minimised_nolig.pdb

>  <original SMILES>  (758) 
CN(Cc1ccccc1)C(=O)Nc1ccc(C2CCOC2)cc1

>  <synthon>  (758) 
[Xe]c1ccccc1

>  <original_name>  (758) 
x0183-0B-x0212-0B-355879

>  <comRMSD_score>  (758) 
0.8470655009873581

>  <IF_score>  (758) 
0.425

>  <SuCOS_score>  (758) 
0.501148528583377

>  <compound_ID>  (758) 
REAL:Z2232217576

$$$$

     RDKit          3D

 22 23  0  0  0  0  0  0  0  0999 V2000
  -12.8350    6.5280  -73.8200 C   0  0  0  0  0  0  0  0  0  0  0  0
  -13.4960    6.0210  -75.1160 C   0  0  0  0  0  0  0  0  0  0  0  0
  -13.4200    4.4860  -75.1560 C   0  0  1  0  0  0  0  0  0  0  0  0
  -14.4470    3.7310  -75.7350 C   0  0  0  0  0  0  0  0  0  0  0  0
  -12.1130    4.0670  -75.8690 C   0  0  0  0  0  0  0  0  0  0  0  0
  -11.9380    4.6250  -77.1230 C   0  0  0  0  0  0  0  0  0  0  0  0
  -11.1800    3.2030  -75.3250 C   0  0  0  0  0  0  0  0  0  0  0  0
  -10.8150    4.3240  -77.8620 C   0  0  0  0  0  0  0  0  0  0  0  0
  -10.0530    2.8930  -76.0470 C   0  0  0  0  0  0  0  0  0  0  0  0
   -9.8800    3.4480  -77.3050 C   0  0  0  0  0  0  0  0  0  0  0  0
   -8.7360    3.0600  -77.9160 N   0  0  0  0  0  0  0  0  0  0  0  0
   -8.0600    3.5490  -79.0050 C   0  0  0  0  0  0  0  0  0  0  0  0
   -8.6070    4.1520  -79.9310 O   0  0  0  0  0  0  0  0  0  0  0  0
   -6.7170    3.2930  -78.9690 C   0  0  0  0  0  0  0  0  0  0  0  0
   -6.3450    2.1310  -79.6200 C   0  0  2  0  0  0  0  0  0  0  0  0
   -5.3030    2.2920  -80.5450 C   0  0  0  0  0  0  0  0  0  0  0  0
   -7.4750    1.3170  -80.2530 C   0  0  0  0  0  0  0  0  0  0  0  0
   -7.9170    0.0650  -79.6960 C   0  0  0  0  0  0  0  0  0  0  0  0
   -8.0680    1.8320  -81.4160 C   0  0  0  0  0  0  0  0  0  0  0  0
   -8.9340   -0.5770  -80.3810 C   0  0  0  0  0  0  0  0  0  0  0  0
   -9.0690    1.1480  -82.0510 C   0  0  0  0  0  0  0  0  0  0  0  0
   -9.5030   -0.0630  -81.5360 C   0  0  0  0  0  0  0  0  0  0  0  0
  1  2  1  0
  2  3  1  0
  3  4  1  6
  3  5  1  0
  5  6  2  0
  5  7  1  0
  6  8  1  0
  7  9  2  0
  8 10  2  0
  9 10  1  0
 10 11  1  0
 11 12  1  0
 12 13  2  0
 12 14  1  0
 14 15  1  0
 15 16  1  6
 15 17  1  0
 17 18  2  0
 17 19  1  0
 18 20  1  0
 19 21  2  0
 20 22  2  0
 21 22  1  0
M  END
>  <ref_url>  (759) 
https://fakepage.com

>  <submitter_name>  (759) 
Steph Wills

>  <submitter_email>  (759) 
stephanie.wills@dtc.ox.ac.uk

>  <submitter_institution>  (759) 
University of Oxford

>  <generation_date>  (759) 
2020-06-04

>  <method>  (759) 
Fragment network

>  <ref_mols>  (759) 
x0183_0B,x0212_0B

>  <ref_pdb>  (759) 
references/x0183-0B-x0212-0B-357009.holo_minimised_nolig.pdb

>  <original SMILES>  (759) 
CCC(C)c1ccc(NC(=O)CC(C)c2ccccc2)cc1

>  <synthon>  (759) 
[Xe]c1ccccc1

>  <original_name>  (759) 
x0183-0B-x0212-0B-357009

>  <comRMSD_score>  (759) 
0.6522806428501728

>  <IF_score>  (759) 
0.55

>  <SuCOS_score>  (759) 
0.5356510008382424

>  <compound_ID>  (759) 
MOLPORT:001-624-793

$$$$

     RDKit          3D

 22 23  0  0  0  0  0  0  0  0999 V2000
  -14.9960    6.4000  -75.2620 C   0  0  0  0  0  0  0  0  0  0  0  0
  -13.5530    6.1250  -75.0570 C   0  0  0  0  0  0  0  0  0  0  0  0
  -12.8830    6.4370  -73.9230 C   0  0  0  0  0  0  0  0  0  0  0  0
  -13.3670    4.6150  -75.3520 C   0  0  0  0  0  0  0  0  0  0  0  0
  -14.2040    3.7580  -75.0800 O   0  0  0  0  0  0  0  0  0  0  0  0
  -12.1970    4.2420  -75.9780 C   0  0  0  0  0  0  0  0  0  0  0  0
  -11.3010    3.3740  -75.3570 C   0  0  0  0  0  0  0  0  0  0  0  0
  -11.9130    4.7520  -77.2580 C   0  0  0  0  0  0  0  0  0  0  0  0
  -10.1430    3.0260  -76.0080 C   0  0  0  0  0  0  0  0  0  0  0  0
  -10.7470    4.3940  -77.9040 C   0  0  0  0  0  0  0  0  0  0  0  0
   -9.8690    3.5260  -77.2600 C   0  0  0  0  0  0  0  0  0  0  0  0
   -8.7070    3.1500  -77.8680 N   0  0  0  0  0  0  0  0  0  0  0  0
   -8.1680    3.6420  -79.0150 C   0  0  0  0  0  0  0  0  0  0  0  0
   -8.6610    4.2540  -79.9480 O   0  0  0  0  0  0  0  0  0  0  0  0
   -6.6970    3.3540  -79.1440 C   0  0  0  0  0  0  0  0  0  0  0  0
   -6.5450    1.8630  -79.3520 C   0  0  0  0  0  0  0  0  0  0  0  0
   -7.5250    1.2190  -80.0970 C   0  0  0  0  0  0  0  0  0  0  0  0
   -8.0310    1.7780  -81.2800 C   0  0  0  0  0  0  0  0  0  0  0  0
   -8.0080   -0.0200  -79.6520 C   0  0  0  0  0  0  0  0  0  0  0  0
   -8.9970    1.0940  -82.0040 C   0  0  0  0  0  0  0  0  0  0  0  0
   -8.9780   -0.7010  -80.3760 C   0  0  0  0  0  0  0  0  0  0  0  0
   -9.4590   -0.1350  -81.5480 C   0  0  0  0  0  0  0  0  0  0  0  0
  1  2  1  0
  2  3  1  0
  2  4  1  0
  4  5  2  0
  4  6  1  0
  6  7  2  0
  6  8  1  0
  7  9  1  0
  8 10  2  0
  9 11  2  0
 10 11  1  0
 11 12  1  0
 12 13  1  0
 13 14  2  0
 13 15  1  0
 15 16  1  0
 16 17  1  0
 17 18  2  0
 17 19  1  0
 18 20  1  0
 19 21  2  0
 20 22  2  0
 21 22  1  0
M  END
>  <ref_url>  (760) 
https://fakepage.com

>  <submitter_name>  (760) 
Steph Wills

>  <submitter_email>  (760) 
stephanie.wills@dtc.ox.ac.uk

>  <submitter_institution>  (760) 
University of Oxford

>  <generation_date>  (760) 
2020-06-04

>  <method>  (760) 
Fragment network

>  <ref_mols>  (760) 
x0183_0B,x0212_0B

>  <ref_pdb>  (760) 
references/x0183-0B-x0212-0B-358764.holo_minimised_nolig.pdb

>  <original SMILES>  (760) 
CC(C)C(=O)c1ccc(NC(=O)CCc2ccccc2)cc1

>  <synthon>  (760) 
[Xe]c1ccccc1

>  <original_name>  (760) 
x0183-0B-x0212-0B-358764

>  <comRMSD_score>  (760) 
0.6977712667778315

>  <IF_score>  (760) 
0.55

>  <SuCOS_score>  (760) 
0.4980464953628839

>  <compound_ID>  (760) 
REAL:PV-001806465441

$$$$

     RDKit          3D

 23 24  0  0  0  0  0  0  0  0999 V2000
  -12.7850    6.3450  -73.6030 C   0  0  0  0  0  0  0  0  0  0  0  0
  -13.5120    5.6000  -74.7330 C   0  0  0  0  0  0  0  0  0  0  0  0
  -13.0960    4.1990  -75.0420 C   0  0  1  0  0  0  0  0  0  0  0  0
  -14.1230    3.3150  -75.4060 C   0  0  0  0  0  0  0  0  0  0  0  0
  -12.1250    4.2250  -76.1900 C   0  0  0  0  0  0  0  0  0  0  0  0
  -12.5330    4.7870  -77.3710 C   0  0  0  0  0  0  0  0  0  0  0  0
  -10.7980    3.7080  -76.1500 C   0  0  0  0  0  0  0  0  0  0  0  0
  -11.7250    4.8580  -78.4640 C   0  0  0  0  0  0  0  0  0  0  0  0
  -10.0060    3.8010  -77.2690 C   0  0  0  0  0  0  0  0  0  0  0  0
  -10.3020    3.1840  -75.1960 O   0  0  0  0  0  0  0  0  0  0  0  0
  -10.4340    4.3650  -78.4380 C   0  0  0  0  0  0  0  0  0  0  0  0
   -9.0810    2.6660  -75.7150 C   0  0  0  0  0  0  0  0  0  0  0  0
   -9.1140    2.9100  -77.0810 C   0  0  0  0  0  0  0  0  0  0  0  0
   -8.4770    1.8870  -77.7290 C   0  0  0  0  0  0  0  0  0  0  0  0
   -7.0870    2.3110  -77.9760 N   0  0  0  0  0  0  0  0  0  0  0  0
   -6.5430    3.3490  -77.2280 C   0  0  0  0  0  0  0  0  0  0  0  0
   -6.9020    2.4570  -79.3050 C   0  0  0  0  0  0  0  0  0  0  0  0
   -7.6380    1.5810  -80.1030 C   0  0  0  0  0  0  0  0  0  0  0  0
   -7.9010    0.2820  -79.6690 C   0  0  0  0  0  0  0  0  0  0  0  0
   -8.1380    1.9690  -81.3470 C   0  0  0  0  0  0  0  0  0  0  0  0
   -8.6260   -0.6260  -80.4090 C   0  0  0  0  0  0  0  0  0  0  0  0
   -8.8670    1.0630  -82.1060 C   0  0  0  0  0  0  0  0  0  0  0  0
   -9.1150   -0.2390  -81.6390 C   0  0  0  0  0  0  0  0  0  0  0  0
  1  2  1  0
  2  3  1  0
  3  4  1  6
  3  5  1  0
  5  6  2  0
  5  7  1  0
  6  8  1  0
  7  9  2  0
  7 10  1  0
  8 11  2  0
  9 11  1  0
 10 12  1  0
 12 13  1  0
 13 14  1  0
 14 15  1  0
 15 16  1  0
 15 17  1  0
 17 18  1  0
 18 19  2  0
 18 20  1  0
 19 21  1  0
 20 22  2  0
 21 23  2  0
 22 23  1  0
M  END
>  <ref_url>  (761) 
https://fakepage.com

>  <submitter_name>  (761) 
Steph Wills

>  <submitter_email>  (761) 
stephanie.wills@dtc.ox.ac.uk

>  <submitter_institution>  (761) 
University of Oxford

>  <generation_date>  (761) 
2020-06-04

>  <method>  (761) 
Fragment network

>  <ref_mols>  (761) 
x0183_0B,x0212_0B

>  <ref_pdb>  (761) 
references/x0183-0B-x0212-0B-358795.holo_minimised_nolig.pdb

>  <original SMILES>  (761) 
CCC(C)c1ccccc1OCCCN(C)Cc1ccccc1

>  <synthon>  (761) 
[Xe]c1ccccc1

>  <original_name>  (761) 
x0183-0B-x0212-0B-358795

>  <comRMSD_score>  (761) 
0.7856486350639051

>  <IF_score>  (761) 
0.425

>  <SuCOS_score>  (761) 
0.6010507301045698

>  <compound_ID>  (761) 
MOLPORT:002-246-635

$$$$

     RDKit          3D

 25 26  0  0  0  0  0  0  0  0999 V2000
  -13.9550    5.8520  -71.6860 C   0  0  0  0  0  0  0  0  0  0  0  0
  -14.2060    6.5380  -72.9510 C   0  0  0  0  0  0  0  0  0  0  0  0
  -13.2080    6.6640  -73.9060 C   0  0  0  0  0  0  0  0  0  0  0  0
  -13.6250    5.9130  -75.1010 N   0  0  0  0  0  0  0  0  0  0  0  0
  -13.5150    4.2390  -75.1340 S   0  0  0  0  0  0  0  0  0  0  0  0
  -13.2670    3.8160  -73.7720 O   0  0  0  0  0  0  0  0  0  0  0  0
  -14.6080    3.7260  -75.9230 O   0  0  0  0  0  0  0  0  0  0  0  0
  -12.0450    4.0670  -76.0710 C   0  0  0  0  0  0  0  0  0  0  0  0
  -10.9780    3.3550  -75.5780 C   0  0  0  0  0  0  0  0  0  0  0  0
  -11.9150    4.6540  -77.3400 C   0  0  0  0  0  0  0  0  0  0  0  0
   -9.8020    3.1940  -76.2440 C   0  0  0  0  0  0  0  0  0  0  0  0
  -10.7280    4.5070  -78.0470 C   0  0  0  0  0  0  0  0  0  0  0  0
   -9.6780    3.7820  -77.4930 C   0  0  0  0  0  0  0  0  0  0  0  0
   -8.5180    3.6610  -78.1840 N   0  0  0  0  0  0  0  0  0  0  0  0
   -7.4410    3.1360  -77.3800 C   0  0  0  0  0  0  0  0  0  0  0  0
   -6.9700    3.6270  -76.3550 O   0  0  0  0  0  0  0  0  0  0  0  0
   -7.0370    2.1550  -77.7970 N   0  0  0  0  0  0  0  0  0  0  0  0
   -6.6980    1.0200  -77.0830 C   0  0  0  0  0  0  0  0  0  0  0  0
   -6.7240    2.1710  -79.1990 C   0  0  0  0  0  0  0  0  0  0  0  0
   -7.5990    1.4000  -79.9570 C   0  0  0  0  0  0  0  0  0  0  0  0
   -8.1250    1.9210  -81.2760 C   0  0  0  0  0  0  0  0  0  0  0  0
   -8.0080    0.1280  -79.5270 C   0  0  0  0  0  0  0  0  0  0  0  0
   -9.0510    1.0070  -82.0320 C   0  0  0  0  0  0  0  0  0  0  0  0
   -8.8840   -0.6670  -80.2930 C   0  0  0  0  0  0  0  0  0  0  0  0
   -9.3940   -0.2440  -81.5180 C   0  0  0  0  0  0  0  0  0  0  0  0
  1  2  1  0
  2  3  1  0
  3  4  1  0
  5  4  1  0
  5  6  2  0
  5  7  2  0
  5  8  1  0
  8  9  2  0
  8 10  1  0
  9 11  1  0
 10 12  2  0
 11 13  2  0
 12 13  1  0
 13 14  1  0
 14 15  1  0
 15 16  2  0
 15 17  1  0
 17 18  1  0
 17 19  1  0
 19 20  1  0
 20 21  2  0
 20 22  1  0
 21 23  1  0
 22 24  2  0
 23 25  2  0
 24 25  1  0
M  END
>  <ref_url>  (762) 
https://fakepage.com

>  <submitter_name>  (762) 
Steph Wills

>  <submitter_email>  (762) 
stephanie.wills@dtc.ox.ac.uk

>  <submitter_institution>  (762) 
University of Oxford

>  <generation_date>  (762) 
2020-06-04

>  <method>  (762) 
Fragment network

>  <ref_mols>  (762) 
x0183_0B,x0212_0B

>  <ref_pdb>  (762) 
references/x0183-0B-x0212-0B-361317.holo_minimised_nolig.pdb

>  <original SMILES>  (762) 
CCCNS(=O)(=O)c1ccc(NC(=O)N(C)Cc2ccccc2)cc1

>  <synthon>  (762) 
[Xe]c1ccccc1

>  <original_name>  (762) 
x0183-0B-x0212-0B-361317

>  <comRMSD_score>  (762) 
0.5899642173706612

>  <IF_score>  (762) 
0.55

>  <SuCOS_score>  (762) 
0.5445051485433678

>  <compound_ID>  (762) 
REAL:Z1278269302

$$$$

     RDKit          3D

 25 26  0  0  0  0  0  0  0  0999 V2000
  -11.9510    7.9420  -74.6920 C   0  0  0  0  0  0  0  0  0  0  0  0
  -11.9630    6.5710  -73.9850 C   0  0  0  0  0  0  0  0  0  0  0  0
  -13.4020    6.2330  -73.7740 C   0  0  0  0  0  0  0  0  0  0  0  0
  -14.0030    5.8870  -75.0520 N   0  0  0  0  0  0  0  0  0  0  0  0
  -13.8930    4.3520  -75.7150 S   0  0  0  0  0  0  0  0  0  0  0  0
  -14.1780    3.3450  -74.7300 O   0  0  0  0  0  0  0  0  0  0  0  0
  -14.7220    4.4230  -76.8980 O   0  0  0  0  0  0  0  0  0  0  0  0
  -12.2360    4.0930  -76.3240 C   0  0  0  0  0  0  0  0  0  0  0  0
  -11.3620    3.2910  -75.6050 C   0  0  0  0  0  0  0  0  0  0  0  0
  -11.7860    4.6650  -77.5320 C   0  0  0  0  0  0  0  0  0  0  0  0
  -10.0890    3.0480  -76.0570 C   0  0  0  0  0  0  0  0  0  0  0  0
  -10.4760    4.4050  -77.9810 C   0  0  0  0  0  0  0  0  0  0  0  0
   -9.6340    3.5820  -77.2230 C   0  0  0  0  0  0  0  0  0  0  0  0
   -7.9960    3.1650  -77.6710 S   0  0  0  0  0  0  0  0  0  0  0  0
   -8.0040    1.5250  -77.9170 O   0  0  0  0  0  0  0  0  0  0  0  0
   -7.1150    3.7440  -76.6790 O   0  0  0  0  0  0  0  0  0  0  0  0
   -7.7270    3.9770  -79.1090 N   0  0  0  0  0  0  0  0  0  0  0  0
   -6.6120    3.5270  -79.8630 C   0  0  0  0  0  0  0  0  0  0  0  0
   -6.3880    2.1230  -79.4100 C   0  0  0  0  0  0  0  0  0  0  0  0
   -7.3980    1.2120  -80.1110 C   0  0  0  0  0  0  0  0  0  0  0  0
   -8.0360    1.7860  -81.3490 C   0  0  0  0  0  0  0  0  0  0  0  0
   -7.7470   -0.0790  -79.6840 C   0  0  0  0  0  0  0  0  0  0  0  0
   -9.0240    0.9800  -82.1280 C   0  0  0  0  0  0  0  0  0  0  0  0
   -8.6770   -0.8300  -80.4170 C   0  0  0  0  0  0  0  0  0  0  0  0
   -9.3130   -0.3970  -81.5790 C   0  0  0  0  0  0  0  0  0  0  0  0
  1  2  1  0
  2  3  1  0
  3  4  1  0
  5  4  1  0
  5  6  2  0
  5  7  2  0
  5  8  1  0
  8  9  2  0
  8 10  1  0
  9 11  1  0
 10 12  2  0
 11 13  2  0
 12 13  1  0
 13 14  1  0
 14 15  2  0
 14 16  2  0
 14 17  1  0
 17 18  1  0
 18 19  1  0
 19 20  1  0
 20 21  2  0
 20 22  1  0
 21 23  1  0
 22 24  2  0
 23 25  2  0
 24 25  1  0
M  END
>  <ref_url>  (763) 
https://fakepage.com

>  <submitter_name>  (763) 
Steph Wills

>  <submitter_email>  (763) 
stephanie.wills@dtc.ox.ac.uk

>  <submitter_institution>  (763) 
University of Oxford

>  <generation_date>  (763) 
2020-06-04

>  <method>  (763) 
Fragment network

>  <ref_mols>  (763) 
x0183_0B,x0212_0B

>  <ref_pdb>  (763) 
references/x0183-0B-x0212-0B-361921.holo_minimised_nolig.pdb

>  <original SMILES>  (763) 
CCCNS(=O)(=O)c1ccc(S(=O)(=O)NCCc2ccccc2)cc1

>  <synthon>  (763) 
[Xe]c1ccccc1

>  <original_name>  (763) 
x0183-0B-x0212-0B-361921

>  <comRMSD_score>  (763) 
0.7961355970491998

>  <IF_score>  (763) 
0.55

>  <SuCOS_score>  (763) 
0.4901932367521576

>  <compound_ID>  (763) 
REAL:Z2095739087

$$$$

     RDKit          3D

 26 27  0  0  0  0  0  0  0  0999 V2000
  -14.5180    6.8100  -71.7330 C   0  0  0  0  0  0  0  0  0  0  0  0
  -13.8230    6.0310  -72.5800 C   0  0  0  0  0  0  0  0  0  0  0  0
  -13.1520    6.5720  -73.8050 C   0  0  1  0  0  0  0  0  0  0  0  0
  -11.7100    6.3170  -73.6350 C   0  0  0  0  0  0  0  0  0  0  0  0
  -13.5900    5.9380  -75.0430 N   0  0  0  0  0  0  0  0  0  0  0  0
  -13.6230    4.2570  -75.1510 S   0  0  0  0  0  0  0  0  0  0  0  0
  -14.6750    3.8400  -76.0530 O   0  0  0  0  0  0  0  0  0  0  0  0
  -13.5510    3.7060  -73.8120 O   0  0  0  0  0  0  0  0  0  0  0  0
  -12.1070    3.8120  -75.9400 C   0  0  0  0  0  0  0  0  0  0  0  0
  -11.3880    2.7450  -75.4170 C   0  0  0  0  0  0  0  0  0  0  0  0
  -11.5690    4.4680  -77.0730 C   0  0  0  0  0  0  0  0  0  0  0  0
  -10.2000    2.2720  -75.9180 C   0  0  0  0  0  0  0  0  0  0  0  0
  -10.3550    3.9710  -77.5610 C   0  0  0  0  0  0  0  0  0  0  0  0
   -9.7020    2.8930  -76.9840 C   0  0  0  0  0  0  0  0  0  0  0  0
   -9.6450    4.4330  -78.6010 N   0  0  0  0  0  0  0  0  0  0  0  0
   -8.2890    3.9790  -78.4250 C   0  0  0  0  0  0  0  0  0  0  0  0
   -7.7660    3.8330  -77.0970 O   0  0  0  0  0  0  0  0  0  0  0  0
   -7.5230    3.6290  -79.6520 C   0  0  0  0  0  0  0  0  0  0  0  0
   -7.0100    2.3530  -79.5370 C   0  0  1  0  0  0  0  0  0  0  0  0
   -6.6790    1.9110  -78.2520 N   0  0  0  0  0  0  0  0  0  0  0  0
   -7.8080    1.4680  -80.2290 C   0  0  0  0  0  0  0  0  0  0  0  0
   -8.2740    1.8410  -81.4740 C   0  0  0  0  0  0  0  0  0  0  0  0
   -8.1510    0.2190  -79.6920 C   0  0  0  0  0  0  0  0  0  0  0  0
   -9.0700    0.9780  -82.1830 C   0  0  0  0  0  0  0  0  0  0  0  0
   -8.9540   -0.6600  -80.3950 C   0  0  0  0  0  0  0  0  0  0  0  0
   -9.4110   -0.2630  -81.6510 C   0  0  0  0  0  0  0  0  0  0  0  0
  1  2  1  0
  2  3  1  0
  3  4  1  1
  3  5  1  0
  6  5  1  0
  6  7  2  0
  6  8  2  0
  6  9  1  0
  9 10  2  0
  9 11  1  0
 10 12  1  0
 11 13  2  0
 12 14  2  0
 13 14  1  0
 13 15  1  0
 15 16  1  0
 16 17  2  0
 16 18  1  0
 18 19  1  0
 19 20  1  1
 19 21  1  0
 21 22  2  0
 21 23  1  0
 22 24  1  0
 23 25  2  0
 24 26  2  0
 25 26  1  0
M  END
>  <ref_url>  (764) 
https://fakepage.com

>  <submitter_name>  (764) 
Steph Wills

>  <submitter_email>  (764) 
stephanie.wills@dtc.ox.ac.uk

>  <submitter_institution>  (764) 
University of Oxford

>  <generation_date>  (764) 
2020-06-04

>  <method>  (764) 
Fragment network

>  <ref_mols>  (764) 
x0183_0B,x0212_0B

>  <ref_pdb>  (764) 
references/x0183-0B-x0212-0B-361994.holo_minimised_nolig.pdb

>  <original SMILES>  (764) 
CCC(C)NS(=O)(=O)c1cccc(NC(=O)CC(N)c2ccccc2)c1

>  <synthon>  (764) 
[Xe]c1ccccc1

>  <original_name>  (764) 
x0183-0B-x0212-0B-361994

>  <comRMSD_score>  (764) 
0.7673332126653046

>  <IF_score>  (764) 
0.65

>  <SuCOS_score>  (764) 
0.5410759054151318

>  <compound_ID>  (764) 
REAL:Z2450054740

$$$$

     RDKit          3D

 21 22  0  0  0  0  0  0  0  0999 V2000
  -12.9460    6.1450  -73.8420 C   0  0  0  0  0  0  0  0  0  0  0  0
  -13.8630    5.5490  -74.7870 O   0  0  0  0  0  0  0  0  0  0  0  0
  -13.5200    4.5040  -75.6340 C   0  0  0  0  0  0  0  0  0  0  0  0
  -12.1080    4.2590  -76.1540 C   0  0  0  0  0  0  0  0  0  0  0  0
  -11.8750    4.8200  -77.5220 C   0  0  0  0  0  0  0  0  0  0  0  0
  -11.0830    3.6040  -75.5010 C   0  0  0  0  0  0  0  0  0  0  0  0
  -10.6290    4.6910  -78.1030 C   0  0  0  0  0  0  0  0  0  0  0  0
   -9.8420    3.5010  -76.1260 C   0  0  0  0  0  0  0  0  0  0  0  0
   -9.6080    4.0470  -77.4060 C   0  0  0  0  0  0  0  0  0  0  0  0
   -8.3300    3.9510  -77.9430 N   0  0  0  0  0  0  0  0  0  0  0  0
   -7.3060    3.2900  -77.2910 C   0  0  0  0  0  0  0  0  0  0  0  0
   -6.5420    3.7250  -76.4300 O   0  0  0  0  0  0  0  0  0  0  0  0
   -7.2790    2.0440  -77.7310 N   0  0  0  0  0  0  0  0  0  0  0  0
   -8.3640    1.2540  -77.2280 C   0  0  0  0  0  0  0  0  0  0  0  0
   -6.7360    1.9410  -78.9950 C   0  0  0  0  0  0  0  0  0  0  0  0
   -7.7040    1.2560  -79.9580 C   0  0  0  0  0  0  0  0  0  0  0  0
   -8.1820   -0.1020  -79.5050 C   0  0  0  0  0  0  0  0  0  0  0  0
   -8.1630    1.7820  -81.1880 C   0  0  0  0  0  0  0  0  0  0  0  0
   -9.1340   -0.8960  -80.3410 C   0  0  0  0  0  0  0  0  0  0  0  0
   -9.0520    1.0490  -81.9870 C   0  0  0  0  0  0  0  0  0  0  0  0
   -9.5310   -0.2240  -81.6100 C   0  0  0  0  0  0  0  0  0  0  0  0
  1  2  1  0
  2  3  1  0
  3  4  1  0
  4  5  2  0
  4  6  1  0
  5  7  1  0
  6  8  2  0
  7  9  2  0
  8  9  1  0
  9 10  1  0
 10 11  1  0
 11 12  2  0
 11 13  1  0
 13 14  1  0
 13 15  1  0
 15 16  1  0
 16 17  2  0
 16 18  1  0
 17 19  1  0
 18 20  2  0
 19 21  2  0
 20 21  1  0
M  END
>  <ref_url>  (765) 
https://fakepage.com

>  <submitter_name>  (765) 
Steph Wills

>  <submitter_email>  (765) 
stephanie.wills@dtc.ox.ac.uk

>  <submitter_institution>  (765) 
University of Oxford

>  <generation_date>  (765) 
2020-06-04

>  <method>  (765) 
Fragment network

>  <ref_mols>  (765) 
x0183_0B,x0212_0B

>  <ref_pdb>  (765) 
references/x0183-0B-x0212-0B-362911.holo_minimised_nolig.pdb

>  <original SMILES>  (765) 
COCc1ccc(NC(=O)N(C)Cc2ccccc2)cc1

>  <synthon>  (765) 
[Xe]c1ccccc1

>  <original_name>  (765) 
x0183-0B-x0212-0B-362911

>  <comRMSD_score>  (765) 
0.6498624070894895

>  <IF_score>  (765) 
0.55

>  <SuCOS_score>  (765) 
0.5007780664250715

>  <compound_ID>  (765) 
REAL:Z1887168769

$$$$

     RDKit          3D

 21 22  0  0  0  0  0  0  0  0999 V2000
  -12.9440    6.2570  -73.7700 C   0  0  0  0  0  0  0  0  0  0  0  0
  -13.7880    5.9930  -74.9430 N   0  0  0  0  0  0  0  0  0  0  0  0
  -13.8280    4.6790  -75.5950 C   0  0  0  0  0  0  0  0  0  0  0  0
  -12.4650    4.2070  -76.0430 C   0  0  0  0  0  0  0  0  0  0  0  0
  -11.9180    3.0850  -75.2170 C   0  0  0  0  0  0  0  0  0  0  0  0
  -11.7290    4.7090  -77.0990 C   0  0  0  0  0  0  0  0  0  0  0  0
  -10.7000    2.5260  -75.4690 C   0  0  0  0  0  0  0  0  0  0  0  0
  -10.5000    4.0980  -77.2960 C   0  0  0  0  0  0  0  0  0  0  0  0
  -10.0020    3.0470  -76.5180 C   0  0  0  0  0  0  0  0  0  0  0  0
   -9.7850    4.4500  -78.1430 O   0  0  0  0  0  0  0  0  0  0  0  0
   -8.6610    3.8350  -77.5960 C   0  0  0  0  0  0  0  0  0  0  0  0
   -8.2640    2.5610  -78.1020 C   0  0  0  0  0  0  0  0  0  0  0  0
   -9.3120    1.8580  -78.5650 O   0  0  0  0  0  0  0  0  0  0  0  0
   -6.9680    2.0950  -78.1580 N   0  0  0  0  0  0  0  0  0  0  0  0
   -6.4130    1.8110  -79.3510 C   0  0  0  0  0  0  0  0  0  0  0  0
   -7.4820    1.1260  -80.1770 C   0  0  0  0  0  0  0  0  0  0  0  0
   -8.0830    1.7770  -81.4050 C   0  0  0  0  0  0  0  0  0  0  0  0
   -7.9390   -0.1450  -79.7940 C   0  0  0  0  0  0  0  0  0  0  0  0
   -9.1190    0.9930  -82.1160 C   0  0  0  0  0  0  0  0  0  0  0  0
   -8.9320   -0.8240  -80.5210 C   0  0  0  0  0  0  0  0  0  0  0  0
   -9.5080   -0.2660  -81.6590 C   0  0  0  0  0  0  0  0  0  0  0  0
  1  2  1  0
  2  3  1  0
  3  4  1  0
  4  5  2  0
  4  6  1  0
  5  7  1  0
  6  8  2  0
  7  9  2  0
  8  9  1  0
  8 10  1  0
 10 11  1  0
 11 12  1  0
 12 13  2  0
 12 14  1  0
 14 15  1  0
 15 16  1  0
 16 17  2  0
 16 18  1  0
 17 19  1  0
 18 20  2  0
 19 21  2  0
 20 21  1  0
M  END
>  <ref_url>  (766) 
https://fakepage.com

>  <submitter_name>  (766) 
Steph Wills

>  <submitter_email>  (766) 
stephanie.wills@dtc.ox.ac.uk

>  <submitter_institution>  (766) 
University of Oxford

>  <generation_date>  (766) 
2020-06-04

>  <method>  (766) 
Fragment network

>  <ref_mols>  (766) 
x0183_0B,x0212_0B

>  <ref_pdb>  (766) 
references/x0183-0B-x0212-0B-363585.holo_minimised_nolig.pdb

>  <original SMILES>  (766) 
CNCc1cccc(OCC(=O)NCc2ccccc2)c1

>  <synthon>  (766) 
[Xe]c1ccccc1

>  <original_name>  (766) 
x0183-0B-x0212-0B-363585

>  <comRMSD_score>  (766) 
0.9986419667617504

>  <IF_score>  (766) 
0.75

>  <SuCOS_score>  (766) 
0.473256776858981

>  <compound_ID>  (766) 
CHEMSPACE-BB:CSMB00011285742

$$$$

     RDKit          3D

 26 27  0  0  0  0  0  0  0  0999 V2000
  -14.9620    6.5780  -72.1200 C   0  0  0  0  0  0  0  0  0  0  0  0
  -14.1480    5.8890  -73.1580 C   0  0  0  0  0  0  0  0  0  0  0  0
  -13.1790    6.5120  -73.8260 C   0  0  1  0  0  0  0  0  0  0  0  0
  -11.7770    6.1960  -73.6240 C   0  0  0  0  0  0  0  0  0  0  0  0
  -13.3080    6.3170  -75.2870 N   0  0  0  0  0  0  0  0  0  0  0  0
  -13.7240    4.8760  -76.0760 S   0  0  0  0  0  0  0  0  0  0  0  0
  -14.4840    4.0470  -75.1710 O   0  0  0  0  0  0  0  0  0  0  0  0
  -14.2210    5.2380  -77.3820 O   0  0  0  0  0  0  0  0  0  0  0  0
  -12.1990    4.0440  -76.2940 C   0  0  0  0  0  0  0  0  0  0  0  0
  -11.8050    3.0160  -75.4390 C   0  0  0  0  0  0  0  0  0  0  0  0
  -11.3270    4.3970  -77.3570 C   0  0  0  0  0  0  0  0  0  0  0  0
  -10.6300    2.3270  -75.5710 C   0  0  0  0  0  0  0  0  0  0  0  0
  -10.1320    3.6680  -77.4520 C   0  0  0  0  0  0  0  0  0  0  0  0
   -9.8000    2.6600  -76.5830 C   0  0  0  0  0  0  0  0  0  0  0  0
   -9.0870    3.7730  -78.3310 N   0  0  0  0  0  0  0  0  0  0  0  0
   -7.9770    3.3330  -77.4890 C   0  0  0  0  0  0  0  0  0  0  0  0
   -7.9540    3.5330  -76.0710 O   0  0  0  0  0  0  0  0  0  0  0  0
   -6.9060    2.6170  -78.1770 N   0  0  0  0  0  0  0  0  0  0  0  0
   -5.9060    1.9590  -77.3670 C   0  0  0  0  0  0  0  0  0  0  0  0
   -6.9260    2.6000  -79.5660 C   0  0  0  0  0  0  0  0  0  0  0  0
   -7.7240    1.6310  -80.1520 C   0  0  0  0  0  0  0  0  0  0  0  0
   -7.9950    0.4020  -79.5270 C   0  0  0  0  0  0  0  0  0  0  0  0
   -8.2560    1.9130  -81.3980 C   0  0  0  0  0  0  0  0  0  0  0  0
   -8.7980   -0.5320  -80.1690 C   0  0  0  0  0  0  0  0  0  0  0  0
   -9.0590    0.9980  -82.0600 C   0  0  0  0  0  0  0  0  0  0  0  0
   -9.3570   -0.2340  -81.4890 C   0  0  0  0  0  0  0  0  0  0  0  0
  1  2  1  0
  2  3  1  0
  3  4  1  1
  3  5  1  0
  6  5  1  0
  6  7  2  0
  6  8  2  0
  6  9  1  0
  9 10  2  0
  9 11  1  0
 10 12  1  0
 11 13  2  0
 12 14  2  0
 13 14  1  0
 13 15  1  0
 15 16  1  0
 16 17  2  0
 16 18  1  0
 18 19  1  0
 18 20  1  0
 20 21  1  0
 21 22  2  0
 21 23  1  0
 22 24  1  0
 23 25  2  0
 24 26  2  0
 25 26  1  0
M  END
>  <ref_url>  (767) 
https://fakepage.com

>  <submitter_name>  (767) 
Steph Wills

>  <submitter_email>  (767) 
stephanie.wills@dtc.ox.ac.uk

>  <submitter_institution>  (767) 
University of Oxford

>  <generation_date>  (767) 
2020-06-04

>  <method>  (767) 
Fragment network

>  <ref_mols>  (767) 
x0183_0B,x0212_0B

>  <ref_pdb>  (767) 
references/x0183-0B-x0212-0B-369476.holo_minimised_nolig.pdb

>  <original SMILES>  (767) 
CCC(C)NS(=O)(=O)c1cccc(NC(=O)N(C)Cc2ccccc2)c1

>  <synthon>  (767) 
[Xe]c1ccccc1

>  <original_name>  (767) 
x0183-0B-x0212-0B-369476

>  <comRMSD_score>  (767) 
0.981154686335706

>  <IF_score>  (767) 
0.55

>  <SuCOS_score>  (767) 
0.5187738465979491

>  <compound_ID>  (767) 
REAL:Z1434161738

$$$$

     RDKit          3D

 21 22  0  0  0  0  0  0  0  0999 V2000
  -12.8430    6.3370  -73.6810 C   0  0  0  0  0  0  0  0  0  0  0  0
  -13.6420    6.1170  -74.9470 C   0  0  0  0  0  0  0  0  0  0  0  0
  -13.7210    4.7790  -75.5910 C   0  0  2  0  0  0  0  0  0  0  0  0
  -14.2890    3.6830  -74.9380 C   0  0  0  0  0  0  0  0  0  0  0  0
  -12.4250    4.3950  -76.2260 C   0  0  0  0  0  0  0  0  0  0  0  0
  -11.4980    3.6030  -75.5550 C   0  0  0  0  0  0  0  0  0  0  0  0
  -12.1900    4.8590  -77.5390 C   0  0  0  0  0  0  0  0  0  0  0  0
  -10.3490    3.2680  -76.2090 C   0  0  0  0  0  0  0  0  0  0  0  0
  -11.0360    4.5380  -78.2280 C   0  0  0  0  0  0  0  0  0  0  0  0
  -10.1170    3.7490  -77.6000 C   0  0  0  0  0  0  0  0  0  0  0  0
   -8.9760    3.3410  -78.1630 C   0  0  0  0  0  0  0  0  0  0  0  0
   -8.5750    2.0750  -77.4480 C   0  0  0  0  0  0  0  0  0  0  0  0
   -7.2140    2.2140  -76.8670 C   0  0  0  0  0  0  0  0  0  0  0  0
   -6.2660    2.1840  -77.9590 N   0  0  0  0  0  0  0  0  0  0  0  0
   -6.8550    2.6110  -79.2420 C   0  0  0  0  0  0  0  0  0  0  0  0
   -7.7530    1.6350  -79.9880 C   0  0  0  0  0  0  0  0  0  0  0  0
   -8.1370    0.3960  -79.4350 C   0  0  0  0  0  0  0  0  0  0  0  0
   -8.2190    1.9640  -81.2620 C   0  0  0  0  0  0  0  0  0  0  0  0
   -8.9620   -0.4770  -80.1480 C   0  0  0  0  0  0  0  0  0  0  0  0
   -9.0340    1.0920  -81.9640 C   0  0  0  0  0  0  0  0  0  0  0  0
   -9.4100   -0.1300  -81.4130 C   0  0  0  0  0  0  0  0  0  0  0  0
  1  2  1  0
  2  3  1  0
  3  4  1  1
  3  5  1  0
  5  6  2  0
  5  7  1  0
  6  8  1  0
  7  9  2  0
  8 10  2  0
  9 10  1  0
 10 11  1  0
 11 12  3  0
 12 13  1  0
 13 14  1  0
 14 15  1  0
 15 16  1  0
 16 17  2  0
 16 18  1  0
 17 19  1  0
 18 20  2  0
 19 21  2  0
 20 21  1  0
M  END
>  <ref_url>  (768) 
https://fakepage.com

>  <submitter_name>  (768) 
Steph Wills

>  <submitter_email>  (768) 
stephanie.wills@dtc.ox.ac.uk

>  <submitter_institution>  (768) 
University of Oxford

>  <generation_date>  (768) 
2020-06-04

>  <method>  (768) 
Fragment network

>  <ref_mols>  (768) 
x0183_0B,x0212_0B

>  <ref_pdb>  (768) 
references/x0183-0B-x0212-0B-373307.holo_minimised_nolig.pdb

>  <original SMILES>  (768) 
CCC(C)c1ccc(C#CCNCc2ccccc2)cc1

>  <synthon>  (768) 
[Xe]c1ccccc1

>  <original_name>  (768) 
x0183-0B-x0212-0B-373307

>  <comRMSD_score>  (768) 
0.7979653756528147

>  <IF_score>  (768) 
0.55

>  <SuCOS_score>  (768) 
0.5365968406439352

>  <compound_ID>  (768) 
CHEMSPACE-BB:CSMB00109417969

$$$$

     RDKit          3D

 22 23  0  0  0  0  0  0  0  0999 V2000
  -14.0290    3.2760  -75.2670 C   0  0  0  0  0  0  0  0  0  0  0  0
  -12.9950    4.1580  -75.1580 N   0  0  0  0  0  0  0  0  0  0  0  0
  -11.9400    4.0510  -76.1470 C   0  0  0  0  0  0  0  0  0  0  0  0
  -13.5390    5.7590  -75.0870 S   0  0  0  0  0  0  0  0  0  0  0  0
  -12.1560    4.6960  -77.3220 C   0  0  0  0  0  0  0  0  0  0  0  0
  -10.7540    3.3180  -75.9300 C   0  0  0  0  0  0  0  0  0  0  0  0
  -12.8280    6.4080  -73.5410 C   0  0  0  0  0  0  0  0  0  0  0  0
  -12.9170    6.4860  -76.1680 O   0  0  0  0  0  0  0  0  0  0  0  0
  -14.9810    5.7320  -74.9490 O   0  0  0  0  0  0  0  0  0  0  0  0
  -11.2560    4.6670  -78.3190 C   0  0  0  0  0  0  0  0  0  0  0  0
   -9.8070    3.2930  -76.9930 C   0  0  0  0  0  0  0  0  0  0  0  0
  -10.0890    3.9700  -78.1500 C   0  0  0  0  0  0  0  0  0  0  0  0
   -8.6090    2.5940  -76.9070 N   0  0  0  0  0  0  0  0  0  0  0  0
   -7.3650    2.8790  -77.4880 C   0  0  0  0  0  0  0  0  0  0  0  0
   -6.2450    3.2740  -76.8070 O   0  0  0  0  0  0  0  0  0  0  0  0
   -7.4310    2.6990  -78.8910 N   0  0  0  0  0  0  0  0  0  0  0  0
   -8.0310    1.7060  -79.7140 C   0  0  0  0  0  0  0  0  0  0  0  0
   -8.2610    2.0470  -81.0660 C   0  0  0  0  0  0  0  0  0  0  0  0
   -8.4110    0.4160  -79.2820 C   0  0  0  0  0  0  0  0  0  0  0  0
   -8.8380    1.1400  -81.9370 C   0  0  0  0  0  0  0  0  0  0  0  0
   -9.0010   -0.4990  -80.1750 C   0  0  0  0  0  0  0  0  0  0  0  0
   -9.2000   -0.1100  -81.4850 C   0  0  0  0  0  0  0  0  0  0  0  0
  1  2  1  0
  2  3  1  0
  4  2  1  0
  3  5  2  0
  3  6  1  0
  4  7  1  0
  4  8  2  0
  4  9  2  0
  5 10  1  0
  6 11  2  0
 10 12  2  0
 11 12  1  0
 11 13  1  0
 13 14  1  0
 14 15  2  0
 14 16  1  0
 16 17  1  0
 17 18  2  0
 17 19  1  0
 18 20  1  0
 19 21  2  0
 20 22  2  0
 21 22  1  0
M  END
>  <ref_url>  (769) 
https://fakepage.com

>  <submitter_name>  (769) 
Steph Wills

>  <submitter_email>  (769) 
stephanie.wills@dtc.ox.ac.uk

>  <submitter_institution>  (769) 
University of Oxford

>  <generation_date>  (769) 
2020-06-04

>  <method>  (769) 
Fragment network

>  <ref_mols>  (769) 
x0183_0B,x0212_0B

>  <ref_pdb>  (769) 
references/x0183-0B-x0212-0B-373951.holo_minimised_nolig.pdb

>  <original SMILES>  (769) 
CN(c1cccc(NC(=O)Nc2ccccc2)c1)S(C)(=O)=O

>  <synthon>  (769) 
[Xe]c1ccccc1

>  <original_name>  (769) 
x0183-0B-x0212-0B-373951

>  <comRMSD_score>  (769) 
0.9131787176508064

>  <IF_score>  (769) 
0.55

>  <SuCOS_score>  (769) 
0.4371651047352423

>  <compound_ID>  (769) 
MOLPORT:002-255-576

$$$$

     RDKit          3D

 19 20  0  0  0  0  0  0  0  0999 V2000
  -12.4440    6.6500  -74.9170 C   0  0  0  0  0  0  0  0  0  0  0  0
  -12.9610    5.4980  -75.5860 O   0  0  0  0  0  0  0  0  0  0  0  0
  -11.9690    4.8170  -76.1510 C   0  0  0  0  0  0  0  0  0  0  0  0
  -11.4550    5.0170  -77.5610 C   0  0  0  0  0  0  0  0  0  0  0  0
  -11.3280    3.7970  -75.2870 C   0  0  0  0  0  0  0  0  0  0  0  0
  -10.3890    4.2700  -78.0330 C   0  0  0  0  0  0  0  0  0  0  0  0
  -10.2860    3.1110  -75.8390 C   0  0  0  0  0  0  0  0  0  0  0  0
   -9.8140    3.3260  -77.1600 C   0  0  0  0  0  0  0  0  0  0  0  0
   -8.7280    2.5300  -77.5870 N   0  0  0  0  0  0  0  0  0  0  0  0
   -8.8540    1.4390  -76.8280 C   0  0  0  0  0  0  0  0  0  0  0  0
   -7.5240    3.0470  -77.9940 C   0  0  0  0  0  0  0  0  0  0  0  0
   -6.8550    3.8480  -77.3670 O   0  0  0  0  0  0  0  0  0  0  0  0
   -7.1540    2.5060  -79.2280 N   0  0  0  0  0  0  0  0  0  0  0  0
   -7.8590    1.6000  -79.9540 C   0  0  0  0  0  0  0  0  0  0  0  0
   -8.2350    1.9800  -81.2290 C   0  0  0  0  0  0  0  0  0  0  0  0
   -8.2050    0.3310  -79.4510 C   0  0  0  0  0  0  0  0  0  0  0  0
   -8.9570    1.0850  -81.9920 C   0  0  0  0  0  0  0  0  0  0  0  0
   -8.9400   -0.5460  -80.2580 C   0  0  0  0  0  0  0  0  0  0  0  0
   -9.3290   -0.1830  -81.5420 C   0  0  0  0  0  0  0  0  0  0  0  0
  1  2  1  0
  2  3  1  0
  3  4  2  0
  3  5  1  0
  4  6  1  0
  5  7  2  0
  6  8  2  0
  7  8  1  0
  8  9  1  0
  9 10  1  0
  9 11  1  0
 11 12  2  0
 11 13  1  0
 13 14  1  0
 14 15  2  0
 14 16  1  0
 15 17  1  0
 16 18  2  0
 17 19  2  0
 18 19  1  0
M  END
>  <ref_url>  (770) 
https://fakepage.com

>  <submitter_name>  (770) 
Steph Wills

>  <submitter_email>  (770) 
stephanie.wills@dtc.ox.ac.uk

>  <submitter_institution>  (770) 
University of Oxford

>  <generation_date>  (770) 
2020-06-04

>  <method>  (770) 
Fragment network

>  <ref_mols>  (770) 
x0183_0B,x0212_0B

>  <ref_pdb>  (770) 
references/x0183-0B-x0212-0B-374392.holo_minimised_nolig.pdb

>  <original SMILES>  (770) 
COc1ccc(N(C)C(=O)Nc2ccccc2)cc1

>  <synthon>  (770) 
[Xe]c1ccccc1

>  <original_name>  (770) 
x0183-0B-x0212-0B-374392

>  <comRMSD_score>  (770) 
0.9534165110161772

>  <IF_score>  (770) 
0.55

>  <SuCOS_score>  (770) 
0.389212770469235

>  <compound_ID>  (770) 
REAL:PV-001941541028

$$$$

     RDKit          3D

 26 27  0  0  0  0  0  0  0  0999 V2000
  -12.8350    6.3320  -73.7140 C   0  0  0  0  0  0  0  0  0  0  0  0
  -13.2570    6.1000  -75.0990 N   0  0  0  0  0  0  0  0  0  0  0  0
  -12.7400    7.1010  -76.0590 C   0  0  0  0  0  0  0  0  0  0  0  0
  -13.5460    4.5560  -75.7180 S   0  0  0  0  0  0  0  0  0  0  0  0
  -14.5140    4.6970  -76.7810 O   0  0  0  0  0  0  0  0  0  0  0  0
  -13.7620    3.6240  -74.6470 O   0  0  0  0  0  0  0  0  0  0  0  0
  -12.0060    4.1680  -76.5050 C   0  0  0  0  0  0  0  0  0  0  0  0
  -11.7250    4.7250  -77.7490 C   0  0  0  0  0  0  0  0  0  0  0  0
  -11.0660    3.3170  -75.9170 C   0  0  0  0  0  0  0  0  0  0  0  0
  -10.5400    4.4610  -78.4210 C   0  0  0  0  0  0  0  0  0  0  0  0
   -9.8680    3.0440  -76.5920 C   0  0  0  0  0  0  0  0  0  0  0  0
   -9.6080    3.6190  -77.8440 C   0  0  0  0  0  0  0  0  0  0  0  0
   -8.9540    2.1980  -76.0010 N   0  0  0  0  0  0  0  0  0  0  0  0
   -9.1740    0.7350  -76.0790 C   0  0  0  0  0  0  0  0  0  0  0  0
  -10.4650    0.1330  -75.9640 O   0  0  0  0  0  0  0  0  0  0  0  0
   -7.8850   -0.0660  -76.2860 C   0  0  0  0  0  0  0  0  0  0  0  0
   -7.3050    0.0690  -77.3710 O   0  0  0  0  0  0  0  0  0  0  0  0
   -6.9060    1.4080  -77.4460 N   0  0  0  0  0  0  0  0  0  0  0  0
   -7.3140    2.0820  -78.6720 C   0  0  0  0  0  0  0  0  0  0  0  0
   -7.0720    3.3910  -78.9160 N   0  0  0  0  0  0  0  0  0  0  0  0
   -8.0150    1.3690  -79.6580 C   0  0  0  0  0  0  0  0  0  0  0  0
   -8.2080    1.8680  -80.9650 C   0  0  0  0  0  0  0  0  0  0  0  0
   -8.5520    0.1100  -79.3500 C   0  0  0  0  0  0  0  0  0  0  0  0
   -8.9030    1.1360  -81.9130 C   0  0  0  0  0  0  0  0  0  0  0  0
   -9.2520   -0.6240  -80.3000 C   0  0  0  0  0  0  0  0  0  0  0  0
   -9.4270   -0.1120  -81.5730 C   0  0  0  0  0  0  0  0  0  0  0  0
  1  2  1  0
  2  3  1  0
  4  2  1  0
  4  5  2  0
  4  6  2  0
  4  7  1  0
  7  8  2  0
  7  9  1  0
  8 10  1  0
  9 11  2  0
 10 12  2  0
 11 12  1  0
 11 13  1  0
 13 14  1  0
 14 15  2  0
 14 16  1  0
 16 17  1  0
 17 18  1  0
 18 19  2  3
 19 20  1  0
 19 21  1  0
 21 22  2  0
 21 23  1  0
 22 24  1  0
 23 25  2  0
 24 26  2  0
 25 26  1  0
M  END
>  <ref_url>  (771) 
https://fakepage.com

>  <submitter_name>  (771) 
Steph Wills

>  <submitter_email>  (771) 
stephanie.wills@dtc.ox.ac.uk

>  <submitter_institution>  (771) 
University of Oxford

>  <generation_date>  (771) 
2020-06-04

>  <method>  (771) 
Fragment network

>  <ref_mols>  (771) 
x0183_0B,x0212_0B

>  <ref_pdb>  (771) 
references/x0183-0B-x0212-0B-376548.holo_minimised_nolig.pdb

>  <original SMILES>  (771) 
CN(C)S(=O)(=O)c1cccc(NC(=O)CON=C(N)c2ccccc2)c1

>  <synthon>  (771) 
[Xe]c1ccccc1

>  <original_name>  (771) 
x0183-0B-x0212-0B-376548

>  <comRMSD_score>  (771) 
0.710784803605871

>  <IF_score>  (771) 
0.425

>  <SuCOS_score>  (771) 
0.4860181075170363

>  <compound_ID>  (771) 
MOLPORT:044-276-715

$$$$

     RDKit          3D

 22 23  0  0  0  0  0  0  0  0999 V2000
  -12.7890    6.2090  -74.0270 C   0  0  0  0  0  0  0  0  0  0  0  0
  -13.4690    5.8440  -75.2440 O   0  0  0  0  0  0  0  0  0  0  0  0
  -13.3260    4.4980  -75.7730 C   0  0  0  0  0  0  0  0  0  0  0  0
  -11.9290    4.1990  -76.2780 C   0  0  0  0  0  0  0  0  0  0  0  0
  -11.5020    4.7110  -77.5130 C   0  0  0  0  0  0  0  0  0  0  0  0
  -11.0340    3.4160  -75.5420 C   0  0  0  0  0  0  0  0  0  0  0  0
  -10.2030    4.4500  -77.9780 C   0  0  0  0  0  0  0  0  0  0  0  0
   -9.7400    3.1660  -76.0230 C   0  0  0  0  0  0  0  0  0  0  0  0
   -9.2980    3.6780  -77.2280 C   0  0  0  0  0  0  0  0  0  0  0  0
   -7.9880    3.4480  -77.6870 N   0  0  0  0  0  0  0  0  0  0  0  0
   -6.8480    3.7990  -76.7800 C   0  0  0  0  0  0  0  0  0  0  0  0
   -5.7530    2.7250  -76.8140 C   0  0  1  0  0  0  0  0  0  0  0  0
   -4.9850    2.7200  -75.6070 O   0  0  0  0  0  0  0  0  0  0  0  0
   -6.4150    1.3890  -77.0500 C   0  0  0  0  0  0  0  0  0  0  0  0
   -7.5290    1.7430  -77.8530 O   0  0  0  0  0  0  0  0  0  0  0  0
   -7.1250    2.1500  -79.1600 C   0  0  0  0  0  0  0  0  0  0  0  0
   -7.9220    1.3270  -80.0870 C   0  0  0  0  0  0  0  0  0  0  0  0
   -8.2700    1.8040  -81.3460 C   0  0  0  0  0  0  0  0  0  0  0  0
   -8.3250    0.0530  -79.6740 C   0  0  0  0  0  0  0  0  0  0  0  0
   -9.0170    1.0030  -82.1830 C   0  0  0  0  0  0  0  0  0  0  0  0
   -9.0750   -0.7440  -80.5140 C   0  0  0  0  0  0  0  0  0  0  0  0
   -9.4210   -0.2700  -81.7670 C   0  0  0  0  0  0  0  0  0  0  0  0
  1  2  1  0
  2  3  1  0
  3  4  1  0
  4  5  2  0
  4  6  1  0
  5  7  1  0
  6  8  2  0
  7  9  2  0
  8  9  1  0
  9 10  1  0
 10 11  1  0
 11 12  1  0
 12 13  1  1
 12 14  1  0
 14 15  1  0
 15 16  1  0
 16 17  1  0
 17 18  2  0
 17 19  1  0
 18 20  1  0
 19 21  2  0
 20 22  2  0
 21 22  1  0
M  END
>  <ref_url>  (772) 
https://fakepage.com

>  <submitter_name>  (772) 
Steph Wills

>  <submitter_email>  (772) 
stephanie.wills@dtc.ox.ac.uk

>  <submitter_institution>  (772) 
University of Oxford

>  <generation_date>  (772) 
2020-06-04

>  <method>  (772) 
Fragment network

>  <ref_mols>  (772) 
x0183_0B,x0212_0B

>  <ref_pdb>  (772) 
references/x0183-0B-x0212-0B-383527.holo_minimised_nolig.pdb

>  <original SMILES>  (772) 
COCc1ccc(NCC(O)COCc2ccccc2)cc1

>  <synthon>  (772) 
[Xe]c1ccccc1

>  <original_name>  (772) 
x0183-0B-x0212-0B-383527

>  <comRMSD_score>  (772) 
0.6787339521327743

>  <IF_score>  (772) 
0.65

>  <SuCOS_score>  (772) 
0.4851829323361434

>  <compound_ID>  (772) 
CHEMSPACE-BB:CSMB00014600857

$$$$

     RDKit          3D

 21 22  0  0  0  0  0  0  0  0999 V2000
  -14.3270    3.1960  -76.8200 C   0  0  0  0  0  0  0  0  0  0  0  0
  -14.5330    4.1560  -75.7660 C   0  0  0  0  0  0  0  0  0  0  0  0
  -13.3020    4.9080  -75.5620 N   0  0  0  0  0  0  0  0  0  0  0  0
  -13.2120    6.2170  -75.1920 C   0  0  0  0  0  0  0  0  0  0  0  0
  -12.1030    4.3420  -76.1440 C   0  0  0  0  0  0  0  0  0  0  0  0
  -12.7830    6.3990  -73.8560 C   0  0  0  0  0  0  0  0  0  0  0  0
  -11.8000    4.6480  -77.4910 C   0  0  0  0  0  0  0  0  0  0  0  0
  -11.2840    3.5130  -75.4290 C   0  0  0  0  0  0  0  0  0  0  0  0
  -10.6620    4.0650  -78.0890 C   0  0  0  0  0  0  0  0  0  0  0  0
  -10.1910    2.9560  -76.0080 C   0  0  0  0  0  0  0  0  0  0  0  0
   -9.8820    3.2050  -77.3060 C   0  0  0  0  0  0  0  0  0  0  0  0
   -8.7490    2.5360  -77.8730 N   0  0  0  0  0  0  0  0  0  0  0  0
   -7.4640    3.1990  -78.0260 C   0  0  0  0  0  0  0  0  0  0  0  0
   -6.9190    4.0060  -77.2760 O   0  0  0  0  0  0  0  0  0  0  0  0
   -6.9240    2.7170  -79.1970 N   0  0  0  0  0  0  0  0  0  0  0  0
   -7.7280    1.7890  -79.9800 C   0  0  0  0  0  0  0  0  0  0  0  0
   -8.0620    0.6100  -79.4380 C   0  0  0  0  0  0  0  0  0  0  0  0
   -8.1760    2.0640  -81.2730 C   0  0  0  0  0  0  0  0  0  0  0  0
   -8.8630   -0.3790  -80.1380 C   0  0  0  0  0  0  0  0  0  0  0  0
   -8.9510    1.1130  -81.9590 C   0  0  0  0  0  0  0  0  0  0  0  0
   -9.3230   -0.1400  -81.4200 C   0  0  0  0  0  0  0  0  0  0  0  0
  1  2  1  0
  2  3  1  0
  3  4  1  0
  3  5  1  0
  4  6  1  0
  5  7  2  0
  5  8  1  0
  7  9  1  0
  8 10  2  0
  9 11  2  0
 10 11  1  0
 11 12  1  0
 12 13  1  0
 13 14  2  0
 13 15  1  0
 15 16  1  0
 16 17  2  0
 16 18  1  0
 17 19  1  0
 18 20  2  0
 19 21  2  0
 20 21  1  0
M  END
>  <ref_url>  (773) 
https://fakepage.com

>  <submitter_name>  (773) 
Steph Wills

>  <submitter_email>  (773) 
stephanie.wills@dtc.ox.ac.uk

>  <submitter_institution>  (773) 
University of Oxford

>  <generation_date>  (773) 
2020-06-04

>  <method>  (773) 
Fragment network

>  <ref_mols>  (773) 
x0183_0B,x0212_0B

>  <ref_pdb>  (773) 
references/x0183-0B-x0212-0B-385735.holo_minimised_nolig.pdb

>  <original SMILES>  (773) 
CCN(CC)c1ccc(NC(=O)Nc2ccccc2)cc1

>  <synthon>  (773) 
[Xe]c1ccccc1

>  <original_name>  (773) 
x0183-0B-x0212-0B-385735

>  <comRMSD_score>  (773) 
0.8781746852294117

>  <IF_score>  (773) 
0.55

>  <SuCOS_score>  (773) 
0.4291691986050995

>  <compound_ID>  (773) 
MOLPORT:002-046-214

$$$$

     RDKit          3D

 18 19  0  0  0  0  0  0  0  0999 V2000
  -10.2560   -2.3740  -80.8950 C   0  0  0  0  0  0  0  0  0  0  0  0
   -9.4950   -1.6630  -79.9250 O   0  0  0  0  0  0  0  0  0  0  0  0
   -9.0230   -0.4350  -80.2990 C   0  0  0  0  0  0  0  0  0  0  0  0
   -9.3800   -0.0550  -81.5870 C   0  0  0  0  0  0  0  0  0  0  0  0
   -8.2480    0.4330  -79.5250 C   0  0  0  0  0  0  0  0  0  0  0  0
   -8.9740    1.1720  -82.0990 C   0  0  0  0  0  0  0  0  0  0  0  0
   -7.8370    1.6780  -80.0430 C   0  0  0  0  0  0  0  0  0  0  0  0
   -8.2090    2.0330  -81.3310 C   0  0  0  0  0  0  0  0  0  0  0  0
   -7.0500    2.5130  -79.2200 N   0  0  0  0  0  0  0  0  0  0  0  0
   -7.3930    3.0910  -78.0060 C   0  0  0  0  0  0  0  0  0  0  0  0
   -6.6910    3.8560  -77.3650 O   0  0  0  0  0  0  0  0  0  0  0  0
   -8.6390    2.6530  -77.6240 N   0  0  0  0  0  0  0  0  0  0  0  0
   -9.7990    3.3810  -77.3960 C   0  0  0  0  0  0  0  0  0  0  0  0
  -10.1850    3.2880  -76.0800 C   0  0  0  0  0  0  0  0  0  0  0  0
  -10.5680    4.1270  -78.2840 C   0  0  0  0  0  0  0  0  0  0  0  0
  -11.3110    3.9010  -75.6090 C   0  0  0  0  0  0  0  0  0  0  0  0
  -11.7250    4.7610  -77.8090 C   0  0  0  0  0  0  0  0  0  0  0  0
  -12.0860    4.6360  -76.4660 C   0  0  0  0  0  0  0  0  0  0  0  0
  1  2  1  0
  2  3  1  0
  3  4  2  0
  3  5  1  0
  4  6  1  0
  5  7  2  0
  6  8  2  0
  7  8  1  0
  7  9  1  0
  9 10  1  0
 10 11  2  0
 10 12  1  0
 12 13  1  0
 13 14  2  0
 13 15  1  0
 14 16  1  0
 15 17  2  0
 16 18  2  0
 17 18  1  0
M  END
>  <ref_url>  (774) 
https://fakepage.com

>  <submitter_name>  (774) 
Steph Wills

>  <submitter_email>  (774) 
stephanie.wills@dtc.ox.ac.uk

>  <submitter_institution>  (774) 
University of Oxford

>  <generation_date>  (774) 
2020-06-04

>  <method>  (774) 
Fragment network

>  <ref_mols>  (774) 
x0183_0B,x0212_0B

>  <ref_pdb>  (774) 
references/x0183-0B-x0212-0B-387575.holo_minimised_nolig.pdb

>  <original SMILES>  (774) 
COc1cccc(NC(=O)Nc2ccccc2)c1

>  <synthon>  (774) 
[Xe]c1ccccc1

>  <original_name>  (774) 
x0183-0B-x0212-0B-387575

>  <comRMSD_score>  (774) 
0.8413839506319046

>  <IF_score>  (774) 
0.65

>  <SuCOS_score>  (774) 
0.3646473681965436

>  <compound_ID>  (774) 
REAL:Z44586569, MOLPORT:001-837-648

$$$$

     RDKit          3D

 22 23  0  0  0  0  0  0  0  0999 V2000
  -12.6650    6.1700  -73.6520 C   0  0  0  0  0  0  0  0  0  0  0  0
  -13.3070    5.3560  -74.6330 O   0  0  0  0  0  0  0  0  0  0  0  0
  -12.7590    4.1620  -75.0740 C   0  0  0  0  0  0  0  0  0  0  0  0
  -13.2200    2.9200  -74.5600 O   0  0  0  0  0  0  0  0  0  0  0  0
  -11.7380    4.1650  -76.2110 C   0  0  0  0  0  0  0  0  0  0  0  0
  -12.4650    4.8040  -77.3390 C   0  0  0  0  0  0  0  0  0  0  0  0
  -10.3920    3.7350  -76.4070 C   0  0  0  0  0  0  0  0  0  0  0  0
  -11.8360    4.9670  -78.5300 C   0  0  0  0  0  0  0  0  0  0  0  0
   -9.8660    3.9640  -77.6550 C   0  0  0  0  0  0  0  0  0  0  0  0
   -9.5080    3.1200  -75.5500 N   0  0  0  0  0  0  0  0  0  0  0  0
  -10.5280    4.5460  -78.6820 C   0  0  0  0  0  0  0  0  0  0  0  0
   -8.2010    2.9340  -76.2550 C   0  0  0  0  0  0  0  0  0  0  0  0
   -7.2230    3.4480  -75.7390 O   0  0  0  0  0  0  0  0  0  0  0  0
   -8.2930    2.1930  -77.4550 N   0  0  0  0  0  0  0  0  0  0  0  0
   -9.4780    1.5690  -77.7100 C   0  0  0  0  0  0  0  0  0  0  0  0
   -7.4340    2.3790  -78.5510 C   0  0  0  0  0  0  0  0  0  0  0  0
   -8.0350    1.4940  -79.6700 C   0  0  0  0  0  0  0  0  0  0  0  0
   -8.2460    2.0510  -81.0600 C   0  0  0  0  0  0  0  0  0  0  0  0
   -8.4000    0.1710  -79.4150 C   0  0  0  0  0  0  0  0  0  0  0  0
   -8.8050    1.2130  -82.0290 C   0  0  0  0  0  0  0  0  0  0  0  0
   -8.9550   -0.6110  -80.4180 C   0  0  0  0  0  0  0  0  0  0  0  0
   -9.1570   -0.1040  -81.7060 C   0  0  0  0  0  0  0  0  0  0  0  0
  1  2  1  0
  2  3  1  0
  3  4  2  0
  3  5  1  0
  5  6  2  0
  5  7  1  0
  6  8  1  0
  7  9  2  0
  7 10  1  0
  8 11  2  0
  9 11  1  0
 10 12  1  0
 12 13  2  0
 12 14  1  0
 14 15  1  0
 14 16  1  0
 16 17  1  0
 17 18  2  0
 17 19  1  0
 18 20  1  0
 19 21  2  0
 20 22  2  0
 21 22  1  0
M  END
>  <ref_url>  (775) 
https://fakepage.com

>  <submitter_name>  (775) 
Steph Wills

>  <submitter_email>  (775) 
stephanie.wills@dtc.ox.ac.uk

>  <submitter_institution>  (775) 
University of Oxford

>  <generation_date>  (775) 
2020-06-04

>  <method>  (775) 
Fragment network

>  <ref_mols>  (775) 
x0183_0B,x0212_0B

>  <ref_pdb>  (775) 
references/x0183-0B-x0212-0B-388560.holo_minimised_nolig.pdb

>  <original SMILES>  (775) 
COC(=O)c1ccccc1NC(=O)N(C)Cc1ccccc1

>  <synthon>  (775) 
[Xe]c1ccccc1

>  <original_name>  (775) 
x0183-0B-x0212-0B-388560

>  <comRMSD_score>  (775) 
0.9647909579761788

>  <IF_score>  (775) 
0.425

>  <SuCOS_score>  (775) 
0.4820433011893013

>  <compound_ID>  (775) 
REAL:Z281077062

$$$$

     RDKit          3D

 22 23  0  0  0  0  0  0  0  0999 V2000
  -12.7310    6.2090  -73.6460 C   0  0  0  0  0  0  0  0  0  0  0  0
  -13.4530    5.5620  -74.6950 O   0  0  0  0  0  0  0  0  0  0  0  0
  -13.0430    4.3560  -75.2360 C   0  0  0  0  0  0  0  0  0  0  0  0
  -13.6000    3.1330  -74.7940 O   0  0  0  0  0  0  0  0  0  0  0  0
  -12.0680    4.3170  -76.3710 C   0  0  0  0  0  0  0  0  0  0  0  0
  -12.7340    4.9760  -77.4600 C   0  0  0  0  0  0  0  0  0  0  0  0
  -10.7770    3.8050  -76.5450 C   0  0  0  0  0  0  0  0  0  0  0  0
  -12.0590    5.0730  -78.6280 C   0  0  0  0  0  0  0  0  0  0  0  0
  -10.1440    3.9450  -77.7480 C   0  0  0  0  0  0  0  0  0  0  0  0
  -10.1080    3.1630  -75.5860 N   0  0  0  0  0  0  0  0  0  0  0  0
  -10.7720    4.5610  -78.7460 C   0  0  0  0  0  0  0  0  0  0  0  0
   -9.0800    2.3240  -75.9600 C   0  0  0  0  0  0  0  0  0  0  0  0
   -8.9170    0.9210  -75.7560 O   0  0  0  0  0  0  0  0  0  0  0  0
   -7.9320    2.9850  -76.7590 C   0  0  0  0  0  0  0  0  0  0  0  0
   -7.3800    2.0760  -77.7260 N   0  0  0  0  0  0  0  0  0  0  0  0
   -7.2050    2.4560  -79.0390 C   0  0  0  0  0  0  0  0  0  0  0  0
   -7.9160    1.5910  -79.8620 C   0  0  0  0  0  0  0  0  0  0  0  0
   -8.2560    1.9670  -81.1560 C   0  0  0  0  0  0  0  0  0  0  0  0
   -8.2980    0.3270  -79.3950 C   0  0  0  0  0  0  0  0  0  0  0  0
   -8.9660    1.0920  -81.9610 C   0  0  0  0  0  0  0  0  0  0  0  0
   -9.0100   -0.5490  -80.2030 C   0  0  0  0  0  0  0  0  0  0  0  0
   -9.3450   -0.1660  -81.4890 C   0  0  0  0  0  0  0  0  0  0  0  0
  1  2  1  0
  2  3  1  0
  3  4  2  0
  3  5  1  0
  5  6  2  0
  5  7  1  0
  6  8  1  0
  7  9  2  0
  7 10  1  0
  8 11  2  0
  9 11  1  0
 10 12  1  0
 12 13  2  0
 12 14  1  0
 14 15  1  0
 15 16  1  0
 16 17  1  0
 17 18  2  0
 17 19  1  0
 18 20  1  0
 19 21  2  0
 20 22  2  0
 21 22  1  0
M  END
>  <ref_url>  (776) 
https://fakepage.com

>  <submitter_name>  (776) 
Steph Wills

>  <submitter_email>  (776) 
stephanie.wills@dtc.ox.ac.uk

>  <submitter_institution>  (776) 
University of Oxford

>  <generation_date>  (776) 
2020-06-04

>  <method>  (776) 
Fragment network

>  <ref_mols>  (776) 
x0183_0B,x0212_0B

>  <ref_pdb>  (776) 
references/x0183-0B-x0212-0B-389249.holo_minimised_nolig.pdb

>  <original SMILES>  (776) 
COC(=O)c1ccccc1NC(=O)CNCc1ccccc1

>  <synthon>  (776) 
[Xe]c1ccccc1

>  <original_name>  (776) 
x0183-0B-x0212-0B-389249

>  <comRMSD_score>  (776) 
0.9738810293148022

>  <IF_score>  (776) 
0.5833333333333333

>  <SuCOS_score>  (776) 
0.5487582544427655

>  <compound_ID>  (776) 
CHEMSPACE-BB:CSMB00022156919

$$$$

     RDKit          3D

 25 27  0  0  0  0  0  0  0  0999 V2000
  -11.9290    5.5360  -72.2940 O   0  0  0  0  0  0  0  0  0  0  0  0
  -12.7760    5.3540  -73.1270 C   0  0  0  0  0  0  0  0  0  0  0  0
  -13.3250    6.3400  -73.9250 C   0  0  0  0  0  0  0  0  0  0  0  0
  -13.3160    4.1410  -73.4990 N   0  0  0  0  0  0  0  0  0  0  0  0
  -13.2090    5.9320  -75.3860 C   0  0  0  0  0  0  0  0  0  0  0  0
  -12.6520    3.6780  -74.5430 N   0  0  0  0  0  0  0  0  0  0  0  0
  -12.5530    4.6690  -75.4860 C   0  0  0  0  0  0  0  0  0  0  0  0
  -11.6120    4.3270  -76.5400 C   0  0  0  0  0  0  0  0  0  0  0  0
  -11.6540    4.8790  -77.8040 C   0  0  0  0  0  0  0  0  0  0  0  0
  -10.5870    3.4050  -76.2340 C   0  0  0  0  0  0  0  0  0  0  0  0
  -10.6860    4.5260  -78.7300 C   0  0  0  0  0  0  0  0  0  0  0  0
   -9.6440    3.0800  -77.1860 C   0  0  0  0  0  0  0  0  0  0  0  0
   -9.6860    3.6510  -78.4550 C   0  0  0  0  0  0  0  0  0  0  0  0
   -8.7330    3.3590  -79.4380 N   0  0  0  0  0  0  0  0  0  0  0  0
   -7.4630    3.8720  -79.4370 C   0  0  0  0  0  0  0  0  0  0  0  0
   -6.8310    4.4400  -80.3180 O   0  0  0  0  0  0  0  0  0  0  0  0
   -6.9250    3.5840  -78.1230 C   0  0  0  0  0  0  0  0  0  0  0  0
   -7.0030    2.3090  -77.8770 C   0  0  0  0  0  0  0  0  0  0  0  0
   -6.5390    1.5100  -79.0130 C   0  0  0  0  0  0  0  0  0  0  0  0
   -7.5440    1.0150  -79.8690 C   0  0  0  0  0  0  0  0  0  0  0  0
   -7.9390    1.6640  -81.0740 C   0  0  0  0  0  0  0  0  0  0  0  0
   -8.1890   -0.1820  -79.5350 C   0  0  0  0  0  0  0  0  0  0  0  0
   -8.9300    1.1040  -81.8920 C   0  0  0  0  0  0  0  0  0  0  0  0
   -9.1570   -0.7060  -80.3520 C   0  0  0  0  0  0  0  0  0  0  0  0
   -9.5440   -0.0970  -81.5260 C   0  0  0  0  0  0  0  0  0  0  0  0
  1  2  2  0
  2  3  1  0
  2  4  1  0
  3  5  1  0
  4  6  1  0
  5  7  1  0
  6  7  2  0
  7  8  1  0
  8  9  2  0
  8 10  1  0
  9 11  1  0
 10 12  2  0
 11 13  2  0
 12 13  1  0
 13 14  1  0
 14 15  1  0
 15 16  2  0
 15 17  1  0
 17 18  1  0
 18 19  1  0
 19 20  1  0
 20 21  2  0
 20 22  1  0
 21 23  1  0
 22 24  2  0
 23 25  2  0
 24 25  1  0
M  END
>  <ref_url>  (777) 
https://fakepage.com

>  <submitter_name>  (777) 
Steph Wills

>  <submitter_email>  (777) 
stephanie.wills@dtc.ox.ac.uk

>  <submitter_institution>  (777) 
University of Oxford

>  <generation_date>  (777) 
2020-06-04

>  <method>  (777) 
Fragment network

>  <ref_mols>  (777) 
x0183_0B,x0212_0B

>  <ref_pdb>  (777) 
references/x0183-0B-x0212-0B-389354.holo_minimised_nolig.pdb

>  <original SMILES>  (777) 
O=C1CCC(c2ccc(NC(=O)CCCc3ccccc3)cc2)=NN1

>  <synthon>  (777) 
[Xe]c1ccccc1

>  <original_name>  (777) 
x0183-0B-x0212-0B-389354

>  <comRMSD_score>  (777) 
0.915379824019638

>  <IF_score>  (777) 
0.55

>  <SuCOS_score>  (777) 
0.4603156825729524

>  <compound_ID>  (777) 
REAL:Z1341794291

$$$$

     RDKit          3D

 30 34  0  0  0  0  0  0  0  0999 V2000
   -5.5900    2.1290  -79.3550 O   0  0  0  0  0  0  0  0  0  0  0  0
   -6.8080    2.1700  -79.2600 C   0  0  0  0  0  0  0  0  0  0  0  0
   -7.6450    3.1900  -78.5940 C   0  0  0  0  0  0  0  0  0  0  0  0
   -7.6980    1.1410  -79.8310 C   0  0  0  0  0  0  0  0  0  0  0  0
   -8.7800    2.7210  -78.5390 O   0  0  0  0  0  0  0  0  0  0  0  0
   -7.6950   -0.1580  -79.3400 C   0  0  0  0  0  0  0  0  0  0  0  0
   -8.5530    1.4750  -80.8480 C   0  0  0  0  0  0  0  0  0  0  0  0
   -9.7530    3.3310  -77.8450 C   0  0  0  0  0  0  0  0  0  0  0  0
   -8.5480   -1.1240  -79.8720 C   0  0  0  0  0  0  0  0  0  0  0  0
   -9.3970    0.5050  -81.3630 C   0  0  0  0  0  0  0  0  0  0  0  0
  -10.4500    4.4340  -78.3170 C   0  0  0  0  0  0  0  0  0  0  0  0
  -10.0230    2.7700  -76.5950 C   0  0  0  0  0  0  0  0  0  0  0  0
   -9.4180   -0.7960  -80.9060 C   0  0  0  0  0  0  0  0  0  0  0  0
  -11.4280    5.0070  -77.5250 C   0  0  0  0  0  0  0  0  0  0  0  0
  -11.0140    3.3390  -75.8040 C   0  0  0  0  0  0  0  0  0  0  0  0
  -10.2890   -1.7450  -81.4710 C   0  0  0  0  0  0  0  0  0  0  0  0
  -11.6930    4.4670  -76.2770 C   0  0  0  0  0  0  0  0  0  0  0  0
  -11.2530    2.8170  -74.6890 O   0  0  0  0  0  0  0  0  0  0  0  0
  -11.0860   -1.4130  -82.5700 C   0  0  0  0  0  0  0  0  0  0  0  0
  -10.3810   -3.0430  -80.9530 C   0  0  0  0  0  0  0  0  0  0  0  0
  -12.6030    5.0280  -75.4300 C   0  0  0  0  0  0  0  0  0  0  0  0
  -12.3690    3.0950  -73.9060 C   0  0  0  0  0  0  0  0  0  0  0  0
  -11.9470   -2.3300  -83.1410 C   0  0  0  0  0  0  0  0  0  0  0  0
  -11.2420   -3.9780  -81.5160 C   0  0  0  0  0  0  0  0  0  0  0  0
  -12.9400    4.3340  -74.1800 C   0  0  0  0  0  0  0  0  0  0  0  0
  -12.8310    2.3390  -73.0440 O   0  0  0  0  0  0  0  0  0  0  0  0
  -13.2910    6.3370  -75.4530 C   0  0  0  0  0  0  0  0  0  0  0  0
  -12.0260   -3.6230  -82.6120 C   0  0  0  0  0  0  0  0  0  0  0  0
  -13.8160    5.2180  -73.3830 C   0  0  0  0  0  0  0  0  0  0  0  0
  -13.3410    6.4880  -74.0700 C   0  0  0  0  0  0  0  0  0  0  0  0
  1  2  2  0
  2  3  1  0
  2  4  1  0
  3  5  1  0
  4  6  2  0
  4  7  1  0
  5  8  1  0
  6  9  1  0
  7 10  2  0
  8 11  2  0
  8 12  1  0
  9 13  2  0
 10 13  1  0
 11 14  1  0
 12 15  2  0
 13 16  1  0
 14 17  2  0
 15 17  1  0
 15 18  1  0
 16 19  2  0
 16 20  1  0
 17 21  1  0
 18 22  1  0
 19 23  1  0
 20 24  2  0
 21 25  2  0
 22 25  1  0
 22 26  2  0
 21 27  1  0
 23 28  2  0
 24 28  1  0
 25 29  1  0
 27 30  1  0
 29 30  1  0
M  END
>  <ref_url>  (778) 
https://fakepage.com

>  <submitter_name>  (778) 
Steph Wills

>  <submitter_email>  (778) 
stephanie.wills@dtc.ox.ac.uk

>  <submitter_institution>  (778) 
University of Oxford

>  <generation_date>  (778) 
2020-06-04

>  <method>  (778) 
Fragment network

>  <ref_mols>  (778) 
x0183_0B,x0212_0B

>  <ref_pdb>  (778) 
references/x0183-0B-x0212-0B-396349.holo_minimised_nolig.pdb

>  <original SMILES>  (778) 
O=C(COc1ccc2c3c(c(=O)oc2c1)CCC3)c1ccc(-c2ccccc2)cc1

>  <synthon>  (778) 
[Xe]c1ccccc1

>  <original_name>  (778) 
x0183-0B-x0212-0B-396349

>  <comRMSD_score>  (778) 
0.9110980554620144

>  <IF_score>  (778) 
0.425

>  <SuCOS_score>  (778) 
0.4745856731120692

>  <compound_ID>  (778) 
MOLPORT:002-190-550

$$$$

     RDKit          3D

 26 27  0  0  0  0  0  0  0  0999 V2000
  -15.0330    5.6870  -72.8110 C   0  0  0  0  0  0  0  0  0  0  0  0
  -13.5210    5.4950  -72.7760 C   0  0  0  0  0  0  0  0  0  0  0  0
  -13.1710    4.0520  -73.1280 C   0  0  0  0  0  0  0  0  0  0  0  0
  -12.7700    6.5020  -73.6750 C   0  0  0  0  0  0  0  0  0  0  0  0
  -13.0920    6.4390  -75.1060 N   0  0  0  0  0  0  0  0  0  0  0  0
  -13.7520    5.1410  -75.9360 S   0  0  0  0  0  0  0  0  0  0  0  0
  -14.5890    4.3490  -75.0660 O   0  0  0  0  0  0  0  0  0  0  0  0
  -14.2660    5.6700  -77.1780 O   0  0  0  0  0  0  0  0  0  0  0  0
  -12.4230    4.1330  -76.3450 C   0  0  0  0  0  0  0  0  0  0  0  0
  -11.9350    4.2960  -77.6330 C   0  0  0  0  0  0  0  0  0  0  0  0
  -11.9110    3.2200  -75.4400 C   0  0  0  0  0  0  0  0  0  0  0  0
  -10.8220    3.4030  -78.0210 C   0  0  0  0  0  0  0  0  0  0  0  0
  -10.8790    2.4000  -75.8170 C   0  0  0  0  0  0  0  0  0  0  0  0
  -10.3520    2.4750  -77.0790 C   0  0  0  0  0  0  0  0  0  0  0  0
   -9.3750    1.6490  -77.4120 O   0  0  0  0  0  0  0  0  0  0  0  0
   -8.2410    2.1010  -76.8000 C   0  0  0  0  0  0  0  0  0  0  0  0
   -7.8600    3.0930  -77.6310 C   0  0  0  0  0  0  0  0  0  0  0  0
   -8.5130    4.1030  -77.8300 O   0  0  0  0  0  0  0  0  0  0  0  0
   -6.7000    2.7670  -78.2520 N   0  0  0  0  0  0  0  0  0  0  0  0
   -6.6650    2.7130  -79.6870 C   0  0  0  0  0  0  0  0  0  0  0  0
   -7.5290    1.7220  -80.2170 C   0  0  0  0  0  0  0  0  0  0  0  0
   -8.1930    2.0090  -81.4800 C   0  0  0  0  0  0  0  0  0  0  0  0
   -7.7870    0.4640  -79.6180 C   0  0  0  0  0  0  0  0  0  0  0  0
   -9.0370    1.1350  -82.1120 C   0  0  0  0  0  0  0  0  0  0  0  0
   -8.6410   -0.4760  -80.2170 C   0  0  0  0  0  0  0  0  0  0  0  0
   -9.2790   -0.2160  -81.4330 C   0  0  0  0  0  0  0  0  0  0  0  0
  1  2  1  0
  2  3  1  0
  2  4  1  0
  4  5  1  0
  6  5  1  0
  6  7  2  0
  6  8  2  0
  6  9  1  0
  9 10  2  0
  9 11  1  0
 10 12  1  0
 11 13  2  0
 12 14  2  0
 13 14  1  0
 14 15  1  0
 15 16  1  0
 16 17  1  0
 17 18  2  0
 17 19  1  0
 19 20  1  0
 20 21  1  0
 21 22  2  0
 21 23  1  0
 22 24  1  0
 23 25  2  0
 24 26  2  0
 25 26  1  0
M  END
>  <ref_url>  (779) 
https://fakepage.com

>  <submitter_name>  (779) 
Steph Wills

>  <submitter_email>  (779) 
stephanie.wills@dtc.ox.ac.uk

>  <submitter_institution>  (779) 
University of Oxford

>  <generation_date>  (779) 
2020-06-04

>  <method>  (779) 
Fragment network

>  <ref_mols>  (779) 
x0183_0B,x0212_0B

>  <ref_pdb>  (779) 
references/x0183-0B-x0212-0B-398562.holo_minimised_nolig.pdb

>  <original SMILES>  (779) 
CC(C)CNS(=O)(=O)c1ccc(OCC(=O)NCc2ccccc2)cc1

>  <synthon>  (779) 
[Xe]c1ccccc1

>  <original_name>  (779) 
x0183-0B-x0212-0B-398562

>  <comRMSD_score>  (779) 
0.9638773934633124

>  <IF_score>  (779) 
0.625

>  <SuCOS_score>  (779) 
0.4691749414250103

>  <compound_ID>  (779) 
MOLPORT:002-958-867

$$$$

     RDKit          3D

 21 22  0  0  0  0  0  0  0  0999 V2000
  -11.7910    6.2580  -73.6040 C   0  0  0  0  0  0  0  0  0  0  0  0
  -13.1730    6.4320  -73.8600 C   0  0  0  0  0  0  0  0  0  0  0  0
  -13.6570    6.1570  -75.2840 C   0  0  0  0  0  0  0  0  0  0  0  0
  -14.2120    7.0170  -75.9520 O   0  0  0  0  0  0  0  0  0  0  0  0
  -13.3950    4.8650  -75.7350 N   0  0  0  0  0  0  0  0  0  0  0  0
  -12.2110    4.3750  -76.2960 C   0  0  0  0  0  0  0  0  0  0  0  0
  -11.7640    4.6380  -77.6980 C   0  0  0  0  0  0  0  0  0  0  0  0
  -11.3930    3.5900  -75.5240 C   0  0  0  0  0  0  0  0  0  0  0  0
  -10.5700    4.0830  -78.1830 C   0  0  0  0  0  0  0  0  0  0  0  0
  -10.2380    3.0680  -76.0300 C   0  0  0  0  0  0  0  0  0  0  0  0
   -9.8190    3.2830  -77.3130 C   0  0  0  0  0  0  0  0  0  0  0  0
   -8.6760    2.6770  -77.6970 N   0  0  0  0  0  0  0  0  0  0  0  0
   -7.4610    3.1910  -78.0290 C   0  0  0  0  0  0  0  0  0  0  0  0
   -6.8320    3.9980  -77.3560 O   0  0  0  0  0  0  0  0  0  0  0  0
   -7.0160    2.6140  -79.2850 N   0  0  0  0  0  0  0  0  0  0  0  0
   -7.7760    1.6860  -79.9810 C   0  0  0  0  0  0  0  0  0  0  0  0
   -8.2090    2.0230  -81.3430 C   0  0  0  0  0  0  0  0  0  0  0  0
   -8.1410    0.4250  -79.4150 C   0  0  0  0  0  0  0  0  0  0  0  0
   -8.9290    1.1450  -82.0250 C   0  0  0  0  0  0  0  0  0  0  0  0
   -8.9180   -0.4840  -80.1880 C   0  0  0  0  0  0  0  0  0  0  0  0
   -9.3170   -0.1480  -81.4800 C   0  0  0  0  0  0  0  0  0  0  0  0
  1  2  1  0
  2  3  1  0
  3  4  2  0
  3  5  1  0
  5  6  1  0
  6  7  2  0
  6  8  1  0
  7  9  1  0
  8 10  2  0
  9 11  2  0
 10 11  1  0
 11 12  1  0
 12 13  1  0
 13 14  2  0
 13 15  1  0
 15 16  1  0
 16 17  2  0
 16 18  1  0
 17 19  1  0
 18 20  2  0
 19 21  2  0
 20 21  1  0
M  END
>  <ref_url>  (780) 
https://fakepage.com

>  <submitter_name>  (780) 
Steph Wills

>  <submitter_email>  (780) 
stephanie.wills@dtc.ox.ac.uk

>  <submitter_institution>  (780) 
University of Oxford

>  <generation_date>  (780) 
2020-06-04

>  <method>  (780) 
Fragment network

>  <ref_mols>  (780) 
x0183_0B,x0212_0B

>  <ref_pdb>  (780) 
references/x0183-0B-x0212-0B-398662.holo_minimised_nolig.pdb

>  <original SMILES>  (780) 
CCC(=O)Nc1ccc(NC(=O)Nc2ccccc2)cc1

>  <synthon>  (780) 
[Xe]c1ccccc1

>  <original_name>  (780) 
x0183-0B-x0212-0B-398662

>  <comRMSD_score>  (780) 
0.8280546591370143

>  <IF_score>  (780) 
0.55

>  <SuCOS_score>  (780) 
0.4289097811997179

>  <compound_ID>  (780) 
MOLPORT:006-711-681

$$$$

     RDKit          3D

 26 27  0  0  0  0  0  0  0  0999 V2000
  -14.0000    6.0720  -72.7340 C   0  0  0  0  0  0  0  0  0  0  0  0
  -13.1910    6.5480  -73.7870 C   0  0  0  0  0  0  0  0  0  0  0  0
  -11.7200    6.2810  -73.6350 C   0  0  0  0  0  0  0  0  0  0  0  0
  -13.3600    8.0560  -73.9550 C   0  0  0  0  0  0  0  0  0  0  0  0
  -13.6400    5.8310  -74.9700 N   0  0  0  0  0  0  0  0  0  0  0  0
  -13.4050    4.1780  -75.0370 S   0  0  0  0  0  0  0  0  0  0  0  0
  -13.0120    3.7190  -73.7260 O   0  0  0  0  0  0  0  0  0  0  0  0
  -14.5270    3.6050  -75.7390 O   0  0  0  0  0  0  0  0  0  0  0  0
  -12.0370    4.0530  -76.1340 C   0  0  0  0  0  0  0  0  0  0  0  0
  -12.1020    4.6320  -77.3890 C   0  0  0  0  0  0  0  0  0  0  0  0
  -10.8940    3.3780  -75.7470 C   0  0  0  0  0  0  0  0  0  0  0  0
  -11.0330    4.5390  -78.2640 C   0  0  0  0  0  0  0  0  0  0  0  0
   -9.7590    3.2880  -76.6870 C   0  0  0  0  0  0  0  0  0  0  0  0
   -9.8550    3.8800  -77.9500 C   0  0  0  0  0  0  0  0  0  0  0  0
   -8.5550    2.6560  -76.4410 N   0  0  0  0  0  0  0  0  0  0  0  0
   -7.4740    3.2840  -77.0230 C   0  0  0  0  0  0  0  0  0  0  0  0
   -6.5850    3.7650  -76.3250 O   0  0  0  0  0  0  0  0  0  0  0  0
   -7.4480    3.3330  -78.3670 C   0  0  0  0  0  0  0  0  0  0  0  0
   -6.8920    2.2130  -79.0880 C   0  0  1  0  0  0  0  0  0  0  0  0
   -6.5040    1.3230  -78.0060 N   0  0  0  0  0  0  0  0  0  0  0  0
   -7.7020    1.4460  -79.9340 C   0  0  0  0  0  0  0  0  0  0  0  0
   -8.1150    1.9000  -81.1930 C   0  0  0  0  0  0  0  0  0  0  0  0
   -8.1290    0.1610  -79.5400 C   0  0  0  0  0  0  0  0  0  0  0  0
   -8.9020    1.1650  -82.0600 C   0  0  0  0  0  0  0  0  0  0  0  0
   -8.9220   -0.5940  -80.3950 C   0  0  0  0  0  0  0  0  0  0  0  0
   -9.3010   -0.1000  -81.6360 C   0  0  0  0  0  0  0  0  0  0  0  0
  1  2  1  0
  2  3  1  0
  2  4  1  0
  2  5  1  0
  6  5  1  0
  6  7  2  0
  6  8  2  0
  6  9  1  0
  9 10  2  0
  9 11  1  0
 10 12  1  0
 11 13  2  0
 12 14  2  0
 13 14  1  0
 13 15  1  0
 15 16  1  0
 16 17  2  0
 16 18  1  0
 18 19  1  0
 19 20  1  1
 19 21  1  0
 21 22  2  0
 21 23  1  0
 22 24  1  0
 23 25  2  0
 24 26  2  0
 25 26  1  0
M  END
>  <ref_url>  (781) 
https://fakepage.com

>  <submitter_name>  (781) 
Steph Wills

>  <submitter_email>  (781) 
stephanie.wills@dtc.ox.ac.uk

>  <submitter_institution>  (781) 
University of Oxford

>  <generation_date>  (781) 
2020-06-04

>  <method>  (781) 
Fragment network

>  <ref_mols>  (781) 
x0183_0B,x0212_0B

>  <ref_pdb>  (781) 
references/x0183-0B-x0212-0B-398862.holo_minimised_nolig.pdb

>  <original SMILES>  (781) 
CC(C)(C)NS(=O)(=O)c1cccc(NC(=O)CC(N)c2ccccc2)c1

>  <synthon>  (781) 
[Xe]c1ccccc1

>  <original_name>  (781) 
x0183-0B-x0212-0B-398862

>  <comRMSD_score>  (781) 
0.5911173976273891

>  <IF_score>  (781) 
0.55

>  <SuCOS_score>  (781) 
0.5476303978989074

>  <compound_ID>  (781) 
REAL:Z2447580642

$$$$

     RDKit          3D

 25 26  0  0  0  0  0  0  0  0999 V2000
  -14.2790    5.9030  -78.3420 C   0  0  0  0  0  0  0  0  0  0  0  0
  -14.1970    6.9450  -77.3690 O   0  0  0  0  0  0  0  0  0  0  0  0
  -13.3870    6.7490  -76.2790 C   0  0  0  0  0  0  0  0  0  0  0  0
  -12.1890    7.4960  -76.1490 O   0  0  0  0  0  0  0  0  0  0  0  0
  -13.7420    5.7680  -75.1960 C   0  0  2  0  0  0  0  0  0  0  0  0
  -12.9980    6.2370  -73.9700 C   0  0  0  0  0  0  0  0  0  0  0  0
  -13.4120    4.3440  -75.5440 C   0  0  0  0  0  0  0  0  0  0  0  0
  -12.1260    4.0560  -75.9910 C   0  0  0  0  0  0  0  0  0  0  0  0
  -11.3830    3.1900  -75.2120 C   0  0  0  0  0  0  0  0  0  0  0  0
  -11.5690    4.6080  -77.1820 C   0  0  0  0  0  0  0  0  0  0  0  0
  -10.1430    2.8980  -75.5690 C   0  0  0  0  0  0  0  0  0  0  0  0
  -10.2450    4.3100  -77.5820 C   0  0  0  0  0  0  0  0  0  0  0  0
   -9.4820    3.4590  -76.7790 C   0  0  0  0  0  0  0  0  0  0  0  0
   -8.2010    3.1100  -76.9820 N   0  0  0  0  0  0  0  0  0  0  0  0
   -6.9070    2.8090  -77.0580 C   0  0  0  0  0  0  0  0  0  0  0  0
   -5.9810    3.0850  -76.0050 O   0  0  0  0  0  0  0  0  0  0  0  0
   -6.5270    2.1930  -78.3420 C   0  0  0  0  0  0  0  0  0  0  0  0
   -7.5220    2.6180  -79.1740 C   0  0  1  0  0  0  0  0  0  0  0  0
   -7.0740    3.7690  -79.9240 N   0  0  0  0  0  0  0  0  0  0  0  0
   -8.0520    1.6570  -79.9830 C   0  0  0  0  0  0  0  0  0  0  0  0
   -8.3300    0.3930  -79.4660 C   0  0  0  0  0  0  0  0  0  0  0  0
   -8.3220    1.9510  -81.3050 C   0  0  0  0  0  0  0  0  0  0  0  0
   -8.8850   -0.5680  -80.2800 C   0  0  0  0  0  0  0  0  0  0  0  0
   -8.8730    1.0140  -82.1290 C   0  0  0  0  0  0  0  0  0  0  0  0
   -9.1550   -0.2550  -81.5990 C   0  0  0  0  0  0  0  0  0  0  0  0
  1  2  1  0
  2  3  1  0
  3  4  2  0
  3  5  1  0
  5  6  1  1
  5  7  1  0
  7  8  1  0
  8  9  2  0
  8 10  1  0
  9 11  1  0
 10 12  2  0
 11 13  2  0
 12 13  1  0
 13 14  1  0
 14 15  1  0
 15 16  2  0
 15 17  1  0
 17 18  1  0
 18 19  1  6
 18 20  1  0
 20 21  2  0
 20 22  1  0
 21 23  1  0
 22 24  2  0
 23 25  2  0
 24 25  1  0
M  END
>  <ref_url>  (782) 
https://fakepage.com

>  <submitter_name>  (782) 
Steph Wills

>  <submitter_email>  (782) 
stephanie.wills@dtc.ox.ac.uk

>  <submitter_institution>  (782) 
University of Oxford

>  <generation_date>  (782) 
2020-06-04

>  <method>  (782) 
Fragment network

>  <ref_mols>  (782) 
x0183_0B,x0212_0B

>  <ref_pdb>  (782) 
references/x0183-0B-x0212-0B-399328.holo_minimised_nolig.pdb

>  <original SMILES>  (782) 
COC(=O)C(C)Cc1ccc(NC(=O)CC(N)c2ccccc2)cc1

>  <synthon>  (782) 
[Xe]c1ccccc1

>  <original_name>  (782) 
x0183-0B-x0212-0B-399328

>  <comRMSD_score>  (782) 
0.8409562458341142

>  <IF_score>  (782) 
0.65

>  <SuCOS_score>  (782) 
0.53015498258284

>  <compound_ID>  (782) 
REAL:Z2439597578

$$$$

     RDKit          3D

 22 23  0  0  0  0  0  0  0  0999 V2000
  -13.4650    5.8410  -73.0410 O   0  0  0  0  0  0  0  0  0  0  0  0
  -13.5260    6.4780  -74.0660 C   0  0  0  0  0  0  0  0  0  0  0  0
  -13.6310    7.8170  -74.0420 O   0  0  0  0  0  0  0  0  0  0  0  0
  -13.5090    5.8760  -75.4440 C   0  0  0  0  0  0  0  0  0  0  0  0
  -13.3290    4.3930  -75.5090 C   0  0  0  0  0  0  0  0  0  0  0  0
  -12.0840    3.9660  -75.9480 C   0  0  0  0  0  0  0  0  0  0  0  0
  -11.3990    2.9790  -75.2110 C   0  0  0  0  0  0  0  0  0  0  0  0
  -11.5260    4.5170  -77.1140 C   0  0  0  0  0  0  0  0  0  0  0  0
  -10.1580    2.5350  -75.6270 C   0  0  0  0  0  0  0  0  0  0  0  0
  -10.2730    4.0530  -77.5090 C   0  0  0  0  0  0  0  0  0  0  0  0
   -9.6480    3.0920  -76.7560 C   0  0  0  0  0  0  0  0  0  0  0  0
   -9.5120    4.3820  -78.5530 N   0  0  0  0  0  0  0  0  0  0  0  0
   -8.7320    3.2570  -78.9460 C   0  0  0  0  0  0  0  0  0  0  0  0
   -9.3150    2.1920  -79.6810 O   0  0  0  0  0  0  0  0  0  0  0  0
   -7.4250    3.2560  -78.5380 N   0  0  0  0  0  0  0  0  0  0  0  0
   -6.6840    2.2450  -79.3130 C   0  0  0  0  0  0  0  0  0  0  0  0
   -7.5630    1.4540  -80.0630 C   0  0  0  0  0  0  0  0  0  0  0  0
   -8.0000    0.2100  -79.5920 C   0  0  0  0  0  0  0  0  0  0  0  0
   -8.0600    1.8730  -81.3200 C   0  0  0  0  0  0  0  0  0  0  0  0
   -8.8730   -0.5980  -80.2950 C   0  0  0  0  0  0  0  0  0  0  0  0
   -8.9440    1.0310  -82.0110 C   0  0  0  0  0  0  0  0  0  0  0  0
   -9.3680   -0.2080  -81.5260 C   0  0  0  0  0  0  0  0  0  0  0  0
  1  2  2  0
  2  3  1  0
  2  4  1  0
  4  5  1  0
  5  6  1  0
  6  7  2  0
  6  8  1  0
  7  9  1  0
  8 10  2  0
  9 11  2  0
 10 11  1  0
 10 12  1  0
 12 13  1  0
 13 14  2  0
 13 15  1  0
 15 16  1  0
 16 17  1  0
 17 18  2  0
 17 19  1  0
 18 20  1  0
 19 21  2  0
 20 22  2  0
 21 22  1  0
M  END
>  <ref_url>  (783) 
https://fakepage.com

>  <submitter_name>  (783) 
Steph Wills

>  <submitter_email>  (783) 
stephanie.wills@dtc.ox.ac.uk

>  <submitter_institution>  (783) 
University of Oxford

>  <generation_date>  (783) 
2020-06-04

>  <method>  (783) 
Fragment network

>  <ref_mols>  (783) 
x0183_0B,x0212_0B

>  <ref_pdb>  (783) 
references/x0183-0B-x0212-0B-402274.holo_minimised_nolig.pdb

>  <original SMILES>  (783) 
O=C(O)CCc1cccc(NC(=O)NCc2ccccc2)c1

>  <synthon>  (783) 
[Xe]c1ccccc1

>  <original_name>  (783) 
x0183-0B-x0212-0B-402274

>  <comRMSD_score>  (783) 
0.8219969586318427

>  <IF_score>  (783) 
0.55

>  <SuCOS_score>  (783) 
0.5883598431898033

>  <compound_ID>  (783) 
CHEMSPACE-BB:CSMB00012990584

$$$$

     RDKit          3D

 23 24  0  0  0  0  0  0  0  0999 V2000
  -12.8200    5.4270  -72.9340 C   0  0  0  0  0  0  0  0  0  0  0  0
  -12.8490    6.4700  -73.9890 C   0  0  0  0  0  0  0  0  0  0  0  0
  -14.0370    6.0220  -75.2970 S   0  0  0  0  0  0  0  0  0  0  0  0
  -15.3280    5.9080  -74.6580 O   0  0  0  0  0  0  0  0  0  0  0  0
  -13.8010    6.9240  -76.3990 O   0  0  0  0  0  0  0  0  0  0  0  0
  -13.5560    4.3780  -75.8050 C   0  0  0  0  0  0  0  0  0  0  0  0
  -12.2940    4.1970  -76.3490 C   0  0  0  0  0  0  0  0  0  0  0  0
  -12.0310    4.7180  -77.6160 C   0  0  0  0  0  0  0  0  0  0  0  0
  -11.3010    3.5090  -75.6450 C   0  0  0  0  0  0  0  0  0  0  0  0
  -10.7900    4.5620  -78.1920 C   0  0  0  0  0  0  0  0  0  0  0  0
  -10.0500    3.3570  -76.2330 C   0  0  0  0  0  0  0  0  0  0  0  0
   -9.8030    3.8850  -77.5020 C   0  0  0  0  0  0  0  0  0  0  0  0
   -8.5510    3.7040  -78.0070 N   0  0  0  0  0  0  0  0  0  0  0  0
   -7.5260    3.1160  -77.1950 C   0  0  0  0  0  0  0  0  0  0  0  0
   -7.0720    3.5290  -75.9160 O   0  0  0  0  0  0  0  0  0  0  0  0
   -6.9810    2.0300  -77.8640 N   0  0  0  0  0  0  0  0  0  0  0  0
   -6.8710    2.2900  -79.3060 C   0  0  0  0  0  0  0  0  0  0  0  0
   -7.6940    1.4560  -80.0570 C   0  0  0  0  0  0  0  0  0  0  0  0
   -8.0530    0.1920  -79.5810 C   0  0  0  0  0  0  0  0  0  0  0  0
   -8.1710    1.8690  -81.3020 C   0  0  0  0  0  0  0  0  0  0  0  0
   -8.8660   -0.6430  -80.3280 C   0  0  0  0  0  0  0  0  0  0  0  0
   -8.9840    1.0270  -82.0510 C   0  0  0  0  0  0  0  0  0  0  0  0
   -9.3330   -0.2350  -81.5620 C   0  0  0  0  0  0  0  0  0  0  0  0
  1  2  1  0
  3  2  1  0
  3  4  2  0
  3  5  2  0
  3  6  1  0
  6  7  1  0
  7  8  2  0
  7  9  1  0
  8 10  1  0
  9 11  2  0
 10 12  2  0
 11 12  1  0
 12 13  1  0
 13 14  1  0
 14 15  2  0
 14 16  1  0
 16 17  1  0
 17 18  1  0
 18 19  2  0
 18 20  1  0
 19 21  1  0
 20 22  2  0
 21 23  2  0
 22 23  1  0
M  END
>  <ref_url>  (784) 
https://fakepage.com

>  <submitter_name>  (784) 
Steph Wills

>  <submitter_email>  (784) 
stephanie.wills@dtc.ox.ac.uk

>  <submitter_institution>  (784) 
University of Oxford

>  <generation_date>  (784) 
2020-06-04

>  <method>  (784) 
Fragment network

>  <ref_mols>  (784) 
x0183_0B,x0212_0B

>  <ref_pdb>  (784) 
references/x0183-0B-x0212-0B-402441.holo_minimised_nolig.pdb

>  <original SMILES>  (784) 
CCS(=O)(=O)Cc1ccc(NC(=O)NCc2ccccc2)cc1

>  <synthon>  (784) 
[Xe]c1ccccc1

>  <original_name>  (784) 
x0183-0B-x0212-0B-402441

>  <comRMSD_score>  (784) 
0.6259033767579762

>  <IF_score>  (784) 
0.55

>  <SuCOS_score>  (784) 
0.5350633554063399

>  <compound_ID>  (784) 
REAL:PV-001948398402

$$$$

     RDKit          3D

 17 18  0  0  0  0  0  0  0  0999 V2000
  -12.0370    2.9790  -74.6110 N   0  0  0  0  0  0  0  0  0  0  0  0
  -11.4800    3.4190  -75.7760 C   0  0  0  0  0  0  0  0  0  0  0  0
  -12.3300    4.1320  -76.7320 C   0  0  0  0  0  0  0  0  0  0  0  0
  -10.1660    3.2420  -76.1220 C   0  0  0  0  0  0  0  0  0  0  0  0
  -11.7770    4.6130  -78.0030 C   0  0  0  0  0  0  0  0  0  0  0  0
   -9.6330    3.7000  -77.3240 C   0  0  0  0  0  0  0  0  0  0  0  0
  -10.4210    4.3780  -78.2740 C   0  0  0  0  0  0  0  0  0  0  0  0
   -8.2810    3.4030  -77.3960 N   0  0  0  0  0  0  0  0  0  0  0  0
   -7.6460    2.3070  -77.9190 C   0  0  0  0  0  0  0  0  0  0  0  0
   -7.5140    1.2860  -77.2610 O   0  0  0  0  0  0  0  0  0  0  0  0
   -7.1530    2.3510  -79.1600 O   0  0  0  0  0  0  0  0  0  0  0  0
   -7.9020    1.5240  -80.0330 C   0  0  0  0  0  0  0  0  0  0  0  0
   -8.3000    0.1920  -79.4760 C   0  0  0  0  0  0  0  0  0  0  0  0
   -8.2620    1.9100  -81.3350 C   0  0  0  0  0  0  0  0  0  0  0  0
   -9.0340   -0.6690  -80.2600 C   0  0  0  0  0  0  0  0  0  0  0  0
   -9.0050    1.0210  -82.1180 C   0  0  0  0  0  0  0  0  0  0  0  0
   -9.4220   -0.2520  -81.6700 C   0  0  0  0  0  0  0  0  0  0  0  0
  1  2  1  0
  2  3  2  0
  2  4  1  0
  3  5  1  0
  4  6  2  0
  5  7  2  0
  6  7  1  0
  6  8  1  0
  8  9  1  0
  9 10  2  0
  9 11  1  0
 11 12  1  0
 12 13  2  0
 12 14  1  0
 13 15  1  0
 14 16  2  0
 15 17  2  0
 16 17  1  0
M  END
>  <ref_url>  (785) 
https://fakepage.com

>  <submitter_name>  (785) 
Steph Wills

>  <submitter_email>  (785) 
stephanie.wills@dtc.ox.ac.uk

>  <submitter_institution>  (785) 
University of Oxford

>  <generation_date>  (785) 
2020-06-04

>  <method>  (785) 
Fragment network

>  <ref_mols>  (785) 
x0183_0B,x0212_0B

>  <ref_pdb>  (785) 
references/x0183-0B-x0212-0B-405476.holo_minimised_nolig.pdb

>  <original SMILES>  (785) 
Nc1cccc(NC(=O)Oc2ccccc2)c1

>  <synthon>  (785) 
[Xe]c1ccccc1

>  <original_name>  (785) 
x0183-0B-x0212-0B-405476

>  <comRMSD_score>  (785) 
0.8908653898637782

>  <IF_score>  (785) 
0.65

>  <SuCOS_score>  (785) 
0.3643162021166101

>  <compound_ID>  (785) 
MOLPORT:009-106-790

$$$$

     RDKit          3D

 23 24  0  0  0  0  0  0  0  0999 V2000
  -11.8000    6.1590  -73.5480 C   0  0  0  0  0  0  0  0  0  0  0  0
  -13.5350    6.3900  -73.6440 S   0  0  0  0  0  0  0  0  0  0  0  0
  -14.1600    5.6000  -72.5900 O   0  0  0  0  0  0  0  0  0  0  0  0
  -13.7920    7.8090  -73.7750 O   0  0  0  0  0  0  0  0  0  0  0  0
  -13.9190    5.6010  -75.1850 C   0  0  0  0  0  0  0  0  0  0  0  0
  -13.4270    4.2180  -75.3780 C   0  0  0  0  0  0  0  0  0  0  0  0
  -12.2160    4.0590  -76.0490 C   0  0  0  0  0  0  0  0  0  0  0  0
  -11.9900    4.6440  -77.2960 C   0  0  0  0  0  0  0  0  0  0  0  0
  -11.2170    3.2960  -75.4470 C   0  0  0  0  0  0  0  0  0  0  0  0
  -10.7840    4.4840  -77.9520 C   0  0  0  0  0  0  0  0  0  0  0  0
  -10.0010    3.1250  -76.0890 C   0  0  0  0  0  0  0  0  0  0  0  0
   -9.8000    3.7220  -77.3300 C   0  0  0  0  0  0  0  0  0  0  0  0
   -8.5780    3.5220  -77.9110 N   0  0  0  0  0  0  0  0  0  0  0  0
   -7.3920    3.1700  -77.1580 C   0  0  0  0  0  0  0  0  0  0  0  0
   -7.0190    3.5880  -76.0670 O   0  0  0  0  0  0  0  0  0  0  0  0
   -6.6770    2.2340  -77.8740 C   0  0  0  0  0  0  0  0  0  0  0  0
   -6.6210    2.4610  -79.3870 C   0  0  0  0  0  0  0  0  0  0  0  0
   -7.5700    1.5330  -80.1370 C   0  0  0  0  0  0  0  0  0  0  0  0
   -7.9400    0.1790  -79.5720 C   0  0  0  0  0  0  0  0  0  0  0  0
   -8.1170    1.9010  -81.3620 C   0  0  0  0  0  0  0  0  0  0  0  0
   -8.8640   -0.7090  -80.3450 C   0  0  0  0  0  0  0  0  0  0  0  0
   -8.9760    1.0380  -82.0540 C   0  0  0  0  0  0  0  0  0  0  0  0
   -9.3410   -0.2300  -81.5660 C   0  0  0  0  0  0  0  0  0  0  0  0
  2  1  1  0
  2  3  2  0
  2  4  2  0
  2  5  1  0
  5  6  1  0
  6  7  1  0
  7  8  2  0
  7  9  1  0
  8 10  1  0
  9 11  2  0
 10 12  2  0
 11 12  1  0
 12 13  1  0
 13 14  1  0
 14 15  2  0
 14 16  1  0
 16 17  1  0
 17 18  1  0
 18 19  2  0
 18 20  1  0
 19 21  1  0
 20 22  2  0
 21 23  2  0
 22 23  1  0
M  END
>  <ref_url>  (786) 
https://fakepage.com

>  <submitter_name>  (786) 
Steph Wills

>  <submitter_email>  (786) 
stephanie.wills@dtc.ox.ac.uk

>  <submitter_institution>  (786) 
University of Oxford

>  <generation_date>  (786) 
2020-06-04

>  <method>  (786) 
Fragment network

>  <ref_mols>  (786) 
x0183_0B,x0212_0B

>  <ref_pdb>  (786) 
references/x0183-0B-x0212-0B-406920.holo_minimised_nolig.pdb

>  <original SMILES>  (786) 
CS(=O)(=O)CCc1ccc(NC(=O)CCc2ccccc2)cc1

>  <synthon>  (786) 
[Xe]c1ccccc1

>  <original_name>  (786) 
x0183-0B-x0212-0B-406920

>  <comRMSD_score>  (786) 
0.5557397139215704

>  <IF_score>  (786) 
0.55

>  <SuCOS_score>  (786) 
0.5858720351226431

>  <compound_ID>  (786) 
REAL:Z1481565004

$$$$

     RDKit          3D

 28 29  0  0  0  0  0  0  0  0999 V2000
  -14.6560    7.8370  -77.0880 C   0  0  0  0  0  0  0  0  0  0  0  0
  -15.1880    7.4690  -75.9240 C   0  0  0  0  0  0  0  0  0  0  0  0
  -15.0990    6.0610  -75.4350 C   0  0  0  0  0  0  0  0  0  0  0  0
  -13.7990    5.7340  -74.8590 N   0  0  0  0  0  0  0  0  0  0  0  0
  -13.1920    6.4310  -73.8460 C   0  0  0  0  0  0  0  0  0  0  0  0
  -13.4110    4.0950  -74.8990 S   0  0  0  0  0  0  0  0  0  0  0  0
  -13.6720    5.9980  -72.6180 C   0  0  0  0  0  0  0  0  0  0  0  0
  -12.9030    3.7160  -73.5960 O   0  0  0  0  0  0  0  0  0  0  0  0
  -14.4870    3.3560  -75.5260 O   0  0  0  0  0  0  0  0  0  0  0  0
  -12.0240    4.0080  -76.0430 C   0  0  0  0  0  0  0  0  0  0  0  0
  -14.5010    6.8750  -71.9090 C   0  0  0  0  0  0  0  0  0  0  0  0
  -10.9030    3.3350  -75.7000 C   0  0  0  0  0  0  0  0  0  0  0  0
  -12.1220    4.6370  -77.2920 C   0  0  0  0  0  0  0  0  0  0  0  0
   -9.7020    3.2030  -76.5890 C   0  0  0  0  0  0  0  0  0  0  0  0
  -11.0730    4.5850  -78.2120 C   0  0  0  0  0  0  0  0  0  0  0  0
   -9.8950    3.9130  -77.9260 C   0  0  0  0  0  0  0  0  0  0  0  0
   -8.8240    3.8580  -78.8500 N   0  0  0  0  0  0  0  0  0  0  0  0
   -7.5670    3.7060  -78.3700 C   0  0  0  0  0  0  0  0  0  0  0  0
   -7.3020    3.3580  -77.2210 O   0  0  0  0  0  0  0  0  0  0  0  0
   -6.5770    3.9540  -79.3200 C   0  0  0  0  0  0  0  0  0  0  0  0
   -6.0870    2.8080  -79.8700 C   0  0  0  0  0  0  0  0  0  0  0  0
   -6.6590    1.6800  -79.3030 C   0  0  0  0  0  0  0  0  0  0  0  0
   -7.6410    1.1000  -80.0840 C   0  0  0  0  0  0  0  0  0  0  0  0
   -8.1140    1.6910  -81.2600 C   0  0  0  0  0  0  0  0  0  0  0  0
   -8.1670   -0.1280  -79.6630 C   0  0  0  0  0  0  0  0  0  0  0  0
   -9.0860    1.0290  -81.9820 C   0  0  0  0  0  0  0  0  0  0  0  0
   -9.1510   -0.7770  -80.4040 C   0  0  0  0  0  0  0  0  0  0  0  0
   -9.6110   -0.1890  -81.5770 C   0  0  0  0  0  0  0  0  0  0  0  0
  1  2  1  0
  2  3  1  0
  3  4  1  0
  4  5  1  0
  6  4  1  0
  5  7  1  0
  6  8  2  0
  6  9  2  0
  6 10  1  0
  7 11  1  0
 10 12  2  0
 10 13  1  0
 12 14  1  0
 13 15  2  0
 14 16  2  0
 15 16  1  0
 16 17  1  0
 17 18  1  0
 18 19  2  0
 18 20  1  0
 20 21  1  0
 21 22  1  0
 22 23  1  0
 23 24  2  0
 23 25  1  0
 24 26  1  0
 25 27  2  0
 26 28  2  0
 27 28  1  0
M  END
>  <ref_url>  (787) 
https://fakepage.com

>  <submitter_name>  (787) 
Steph Wills

>  <submitter_email>  (787) 
stephanie.wills@dtc.ox.ac.uk

>  <submitter_institution>  (787) 
University of Oxford

>  <generation_date>  (787) 
2020-06-04

>  <method>  (787) 
Fragment network

>  <ref_mols>  (787) 
x0183_0B,x0212_0B

>  <ref_pdb>  (787) 
references/x0183-0B-x0212-0B-407165.holo_minimised_nolig.pdb

>  <original SMILES>  (787) 
CCCN(CCC)S(=O)(=O)c1ccc(NC(=O)CCCc2ccccc2)cc1

>  <synthon>  (787) 
[Xe]c1ccccc1

>  <original_name>  (787) 
x0183-0B-x0212-0B-407165

>  <comRMSD_score>  (787) 
0.6166269656889927

>  <IF_score>  (787) 
0.55

>  <SuCOS_score>  (787) 
0.5054059469817717

>  <compound_ID>  (787) 
MOLPORT:001-577-694

$$$$

     RDKit          3D

 23 24  0  0  0  0  0  0  0  0999 V2000
  -13.3880    6.7780  -76.2530 C   0  0  0  0  0  0  0  0  0  0  0  0
  -13.6960    6.0380  -75.1730 C   0  0  0  0  0  0  0  0  0  0  0  0
  -12.9670    6.3040  -73.8640 C   0  0  0  0  0  0  0  0  0  0  0  0
  -15.1780    6.2350  -74.9060 C   0  0  0  0  0  0  0  0  0  0  0  0
  -13.4400    4.5770  -75.6200 C   0  0  0  0  0  0  0  0  0  0  0  0
  -14.3830    3.7930  -75.5270 O   0  0  0  0  0  0  0  0  0  0  0  0
  -12.1910    4.2500  -76.0900 C   0  0  0  0  0  0  0  0  0  0  0  0
  -11.3720    3.4520  -75.3030 C   0  0  0  0  0  0  0  0  0  0  0  0
  -11.6970    4.7740  -77.4710 C   0  0  0  0  0  0  0  0  0  0  0  0
  -10.1570    3.1450  -75.7010 C   0  0  0  0  0  0  0  0  0  0  0  0
  -10.3960    4.4400  -77.8880 C   0  0  0  0  0  0  0  0  0  0  0  0
   -9.5830    3.6110  -76.9790 C   0  0  0  0  0  0  0  0  0  0  0  0
   -8.3320    3.2590  -77.2160 N   0  0  0  0  0  0  0  0  0  0  0  0
   -7.0720    2.9790  -77.3040 C   0  0  0  0  0  0  0  0  0  0  0  0
   -6.3750    3.6040  -76.5180 O   0  0  0  0  0  0  0  0  0  0  0  0
   -6.7260    2.0130  -78.2670 N   0  0  0  0  0  0  0  0  0  0  0  0
   -6.8900    2.3560  -79.5650 C   0  0  0  0  0  0  0  0  0  0  0  0
   -7.7170    1.4720  -80.2260 C   0  0  0  0  0  0  0  0  0  0  0  0
   -8.0230    0.2220  -79.6880 C   0  0  0  0  0  0  0  0  0  0  0  0
   -8.2400    1.8520  -81.4430 C   0  0  0  0  0  0  0  0  0  0  0  0
   -8.8550   -0.6560  -80.3790 C   0  0  0  0  0  0  0  0  0  0  0  0
   -9.0620    0.9900  -82.1340 C   0  0  0  0  0  0  0  0  0  0  0  0
   -9.3670   -0.2590  -81.6040 C   0  0  0  0  0  0  0  0  0  0  0  0
  1  2  1  0
  2  3  1  0
  2  4  1  0
  2  5  1  0
  5  6  2  0
  5  7  1  0
  7  8  2  0
  7  9  1  0
  8 10  1  0
  9 11  2  0
 10 12  2  0
 11 12  1  0
 12 13  1  0
 13 14  1  0
 14 15  2  0
 14 16  1  0
 16 17  1  0
 17 18  1  0
 18 19  2  0
 18 20  1  0
 19 21  1  0
 20 22  2  0
 21 23  2  0
 22 23  1  0
M  END
>  <ref_url>  (788) 
https://fakepage.com

>  <submitter_name>  (788) 
Steph Wills

>  <submitter_email>  (788) 
stephanie.wills@dtc.ox.ac.uk

>  <submitter_institution>  (788) 
University of Oxford

>  <generation_date>  (788) 
2020-06-04

>  <method>  (788) 
Fragment network

>  <ref_mols>  (788) 
x0183_0B,x0212_0B

>  <ref_pdb>  (788) 
references/x0183-0B-x0212-0B-408334.holo_minimised_nolig.pdb

>  <original SMILES>  (788) 
CC(C)(C)C(=O)c1ccc(NC(=O)NCc2ccccc2)cc1

>  <synthon>  (788) 
[Xe]c1ccccc1

>  <original_name>  (788) 
x0183-0B-x0212-0B-408334

>  <comRMSD_score>  (788) 
0.7154142545096203

>  <IF_score>  (788) 
0.65

>  <SuCOS_score>  (788) 
0.5182179757810262

>  <compound_ID>  (788) 
REAL:Z1352671704

$$$$

     RDKit          3D

 21 23  0  0  0  0  0  0  0  0999 V2000
   -6.6530    3.9050  -77.3500 O   0  0  0  0  0  0  0  0  0  0  0  0
   -7.3020    3.1830  -78.0870 C   0  0  0  0  0  0  0  0  0  0  0  0
   -6.8180    2.6760  -79.4090 C   0  0  0  0  0  0  0  0  0  0  0  0
   -8.5370    2.7150  -77.8210 N   0  0  0  0  0  0  0  0  0  0  0  0
   -7.6850    1.6800  -80.0830 C   0  0  0  0  0  0  0  0  0  0  0  0
   -9.7140    3.3910  -77.5640 C   0  0  0  0  0  0  0  0  0  0  0  0
   -8.1900    2.0020  -81.3430 C   0  0  0  0  0  0  0  0  0  0  0  0
   -8.0030    0.4460  -79.4970 C   0  0  0  0  0  0  0  0  0  0  0  0
  -10.0220    3.0270  -76.1480 C   0  0  0  0  0  0  0  0  0  0  0  0
  -10.5380    4.2270  -78.3280 C   0  0  0  0  0  0  0  0  0  0  0  0
   -9.0020    1.1000  -82.0200 C   0  0  0  0  0  0  0  0  0  0  0  0
   -8.8230   -0.4400  -80.1990 C   0  0  0  0  0  0  0  0  0  0  0  0
  -11.2560    3.5790  -75.5690 C   0  0  0  0  0  0  0  0  0  0  0  0
  -11.7220    4.7580  -77.7720 C   0  0  0  0  0  0  0  0  0  0  0  0
   -9.3270   -0.1310  -81.4560 C   0  0  0  0  0  0  0  0  0  0  0  0
  -12.0960    4.4580  -76.4500 C   0  0  0  0  0  0  0  0  0  0  0  0
  -13.3140    4.9080  -75.7040 C   0  0  2  0  0  0  0  0  0  0  0  0
  -13.5530    6.2460  -75.3140 C   0  0  0  0  0  0  0  0  0  0  0  0
  -13.2190    4.3400  -74.3320 C   0  0  0  0  0  0  0  0  0  0  0  0
  -13.2900    6.4760  -73.9390 C   0  0  0  0  0  0  0  0  0  0  0  0
  -12.4780    5.3570  -73.6220 O   0  0  0  0  0  0  0  0  0  0  0  0
  1  2  2  0
  2  3  1  0
  2  4  1  0
  3  5  1  0
  4  6  1  0
  5  7  2  0
  5  8  1  0
  6  9  2  0
  6 10  1  0
  7 11  1  0
  8 12  2  0
  9 13  1  0
 10 14  2  0
 11 15  2  0
 12 15  1  0
 13 16  2  0
 14 16  1  0
 17 16  1  1
 17 18  1  0
 17 19  1  0
 18 20  1  0
 19 21  1  0
 20 21  1  0
M  END
>  <ref_url>  (789) 
https://fakepage.com

>  <submitter_name>  (789) 
Steph Wills

>  <submitter_email>  (789) 
stephanie.wills@dtc.ox.ac.uk

>  <submitter_institution>  (789) 
University of Oxford

>  <generation_date>  (789) 
2020-06-04

>  <method>  (789) 
Fragment network

>  <ref_mols>  (789) 
x0183_0B,x0212_0B

>  <ref_pdb>  (789) 
references/x0183-0B-x0212-0B-409929.holo_minimised_nolig.pdb

>  <original SMILES>  (789) 
O=C(Cc1ccccc1)Nc1ccc(C2CCOC2)cc1

>  <synthon>  (789) 
[Xe]c1ccccc1

>  <original_name>  (789) 
x0183-0B-x0212-0B-409929

>  <comRMSD_score>  (789) 
0.9125679274564836

>  <IF_score>  (789) 
0.55

>  <SuCOS_score>  (789) 
0.5193016704722684

>  <compound_ID>  (789) 
REAL:Z2232213123

$$$$

     RDKit          3D

 20 21  0  0  0  0  0  0  0  0999 V2000
  -12.9200    6.2070  -73.8560 C   0  0  0  0  0  0  0  0  0  0  0  0
  -13.6310    5.8180  -74.9510 C   0  0  0  0  0  0  0  0  0  0  0  0
  -13.5060    4.4700  -75.6260 C   0  0  0  0  0  0  0  0  0  0  0  0
  -14.6350    3.6020  -75.6420 O   0  0  0  0  0  0  0  0  0  0  0  0
  -12.1840    4.1970  -76.1980 C   0  0  0  0  0  0  0  0  0  0  0  0
  -11.3570    3.4150  -75.4290 C   0  0  0  0  0  0  0  0  0  0  0  0
  -11.7680    4.7020  -77.4450 C   0  0  0  0  0  0  0  0  0  0  0  0
  -10.0990    3.1430  -75.8830 C   0  0  0  0  0  0  0  0  0  0  0  0
  -10.4780    4.4210  -77.9060 C   0  0  0  0  0  0  0  0  0  0  0  0
   -9.6540    3.6450  -77.0960 C   0  0  0  0  0  0  0  0  0  0  0  0
   -8.3190    3.3260  -77.3810 N   0  0  0  0  0  0  0  0  0  0  0  0
   -7.7340    3.3590  -76.0770 C   0  0  0  0  0  0  0  0  0  0  0  0
   -7.9040    2.0920  -77.8110 O   0  0  0  0  0  0  0  0  0  0  0  0
   -7.3440    2.2670  -79.0840 C   0  0  0  0  0  0  0  0  0  0  0  0
   -8.0530    1.3420  -80.0190 C   0  0  0  0  0  0  0  0  0  0  0  0
   -8.3220    1.8360  -81.3970 C   0  0  0  0  0  0  0  0  0  0  0  0
   -8.4570    0.0860  -79.6210 C   0  0  0  0  0  0  0  0  0  0  0  0
   -8.9880    0.9940  -82.2500 C   0  0  0  0  0  0  0  0  0  0  0  0
   -9.1260   -0.7290  -80.5130 C   0  0  0  0  0  0  0  0  0  0  0  0
   -9.3860   -0.2770  -81.8030 C   0  0  0  0  0  0  0  0  0  0  0  0
  1  2  1  0
  2  3  1  0
  3  4  2  0
  3  5  1  0
  5  6  2  0
  5  7  1  0
  6  8  1  0
  7  9  2  0
  8 10  2  0
  9 10  1  0
 10 11  1  0
 11 12  1  0
 11 13  1  0
 13 14  1  0
 14 15  1  0
 15 16  2  0
 15 17  1  0
 16 18  1  0
 17 19  2  0
 18 20  2  0
 19 20  1  0
M  END
>  <ref_url>  (790) 
https://fakepage.com

>  <submitter_name>  (790) 
Steph Wills

>  <submitter_email>  (790) 
stephanie.wills@dtc.ox.ac.uk

>  <submitter_institution>  (790) 
University of Oxford

>  <generation_date>  (790) 
2020-06-04

>  <method>  (790) 
Fragment network

>  <ref_mols>  (790) 
x0183_0B,x0212_0B

>  <ref_pdb>  (790) 
references/x0183-0B-x0212-0B-410594.holo_minimised_nolig.pdb

>  <original SMILES>  (790) 
CCC(=O)c1ccc(N(C)OCc2ccccc2)cc1

>  <synthon>  (790) 
[Xe]c1ccccc1

>  <original_name>  (790) 
x0183-0B-x0212-0B-410594

>  <comRMSD_score>  (790) 
0.8180687737094704

>  <IF_score>  (790) 
0.65

>  <SuCOS_score>  (790) 
0.5111616148084033

>  <compound_ID>  (790) 
CHEMSPACE-BB:CSMB00117842660

$$$$

     RDKit          3D

 21 22  0  0  0  0  0  0  0  0999 V2000
  -11.7860    6.1680  -73.6620 C   0  0  0  0  0  0  0  0  0  0  0  0
  -13.2630    6.2620  -73.8380 C   0  0  0  0  0  0  0  0  0  0  0  0
  -13.8510    5.8780  -75.1550 C   0  0  0  0  0  0  0  0  0  0  0  0
  -13.6490    4.6010  -75.7280 C   0  0  0  0  0  0  0  0  0  0  0  0
  -12.3800    4.3040  -76.2100 C   0  0  0  0  0  0  0  0  0  0  0  0
  -11.5200    3.5270  -75.4390 C   0  0  0  0  0  0  0  0  0  0  0  0
  -11.9880    4.7950  -77.4770 C   0  0  0  0  0  0  0  0  0  0  0  0
  -10.2700    3.2460  -75.9320 C   0  0  0  0  0  0  0  0  0  0  0  0
  -10.7270    4.5260  -78.0030 C   0  0  0  0  0  0  0  0  0  0  0  0
   -9.8460    3.7590  -77.2600 C   0  0  0  0  0  0  0  0  0  0  0  0
   -8.6000    3.4800  -77.7400 N   0  0  0  0  0  0  0  0  0  0  0  0
   -7.8660    2.4110  -77.2520 C   0  0  0  0  0  0  0  0  0  0  0  0
   -8.2160    1.5240  -76.1940 O   0  0  0  0  0  0  0  0  0  0  0  0
   -6.7180    2.3070  -77.9730 N   0  0  0  0  0  0  0  0  0  0  0  0
   -6.6480    2.4650  -79.3570 C   0  0  0  0  0  0  0  0  0  0  0  0
   -7.5940    1.5270  -80.0900 C   0  0  0  0  0  0  0  0  0  0  0  0
   -8.1790    1.9580  -81.3990 C   0  0  0  0  0  0  0  0  0  0  0  0
   -7.9660    0.2530  -79.6180 C   0  0  0  0  0  0  0  0  0  0  0  0
   -9.0830    1.0030  -82.0770 C   0  0  0  0  0  0  0  0  0  0  0  0
   -8.8430   -0.6160  -80.3160 C   0  0  0  0  0  0  0  0  0  0  0  0
   -9.4020   -0.2460  -81.5460 C   0  0  0  0  0  0  0  0  0  0  0  0
  1  2  1  0
  2  3  1  0
  3  4  1  0
  4  5  1  0
  5  6  2  0
  5  7  1  0
  6  8  1  0
  7  9  2  0
  8 10  2  0
  9 10  1  0
 10 11  1  0
 11 12  1  0
 12 13  2  0
 12 14  1  0
 14 15  1  0
 15 16  1  0
 16 17  2  0
 16 18  1  0
 17 19  1  0
 18 20  2  0
 19 21  2  0
 20 21  1  0
M  END
>  <ref_url>  (791) 
https://fakepage.com

>  <submitter_name>  (791) 
Steph Wills

>  <submitter_email>  (791) 
stephanie.wills@dtc.ox.ac.uk

>  <submitter_institution>  (791) 
University of Oxford

>  <generation_date>  (791) 
2020-06-04

>  <method>  (791) 
Fragment network

>  <ref_mols>  (791) 
x0183_0B,x0212_0B

>  <ref_pdb>  (791) 
references/x0183-0B-x0212-0B-411069.holo_minimised_nolig.pdb

>  <original SMILES>  (791) 
CCCCc1ccc(NC(=O)NCc2ccccc2)cc1

>  <synthon>  (791) 
[Xe]c1ccccc1

>  <original_name>  (791) 
x0183-0B-x0212-0B-411069

>  <comRMSD_score>  (791) 
0.6716372477703948

>  <IF_score>  (791) 
0.55

>  <SuCOS_score>  (791) 
0.5552863633107715

>  <compound_ID>  (791) 
REAL:Z230828686, CHEMSPACE-BB:CSMB00011191007

$$$$

     RDKit          3D

 23 24  0  0  0  0  0  0  0  0999 V2000
  -11.0390   -3.9550  -78.8400 C   0  0  0  0  0  0  0  0  0  0  0  0
   -9.9310   -4.6760  -79.3540 O   0  0  0  0  0  0  0  0  0  0  0  0
   -9.3630   -4.1650  -80.4870 C   0  0  0  0  0  0  0  0  0  0  0  0
   -8.4940   -4.9590  -81.2920 O   0  0  0  0  0  0  0  0  0  0  0  0
   -9.6460   -2.7230  -80.9210 C   0  0  0  0  0  0  0  0  0  0  0  0
   -9.5120   -1.9630  -79.9670 O   0  0  0  0  0  0  0  0  0  0  0  0
   -9.0770   -0.6630  -80.3730 C   0  0  0  0  0  0  0  0  0  0  0  0
   -9.3640   -0.1390  -81.6170 C   0  0  0  0  0  0  0  0  0  0  0  0
   -8.3360    0.0770  -79.4580 C   0  0  0  0  0  0  0  0  0  0  0  0
   -8.9010    1.1290  -81.9480 C   0  0  0  0  0  0  0  0  0  0  0  0
   -7.8710    1.3600  -79.7880 C   0  0  0  0  0  0  0  0  0  0  0  0
   -8.1630    1.8920  -81.0640 C   0  0  0  0  0  0  0  0  0  0  0  0
   -7.1460    2.0030  -78.7800 N   0  0  0  0  0  0  0  0  0  0  0  0
   -7.9070    2.3900  -77.5820 C   0  0  0  0  0  0  0  0  0  0  0  0
   -7.8300    1.8940  -76.3220 O   0  0  0  0  0  0  0  0  0  0  0  0
   -8.7780    3.4070  -77.9560 N   0  0  0  0  0  0  0  0  0  0  0  0
   -8.7420    3.9850  -79.1710 C   0  0  0  0  0  0  0  0  0  0  0  0
   -9.9690    3.7190  -77.4090 C   0  0  0  0  0  0  0  0  0  0  0  0
  -10.4140    3.2970  -76.0270 C   0  0  0  0  0  0  0  0  0  0  0  0
  -10.7790    4.4910  -78.2400 C   0  0  0  0  0  0  0  0  0  0  0  0
  -11.8000    3.8240  -75.7140 C   0  0  0  0  0  0  0  0  0  0  0  0
  -12.0250    4.9260  -77.8740 C   0  0  0  0  0  0  0  0  0  0  0  0
  -12.5260    4.5990  -76.6320 C   0  0  0  0  0  0  0  0  0  0  0  0
  1  2  1  0
  2  3  1  0
  3  4  2  0
  3  5  1  0
  5  6  1  0
  6  7  1  0
  7  8  2  0
  7  9  1  0
  8 10  1  0
  9 11  2  0
 10 12  2  0
 11 12  1  0
 11 13  1  0
 13 14  1  0
 14 15  2  0
 14 16  1  0
 16 17  1  0
 16 18  1  0
 18 19  2  0
 18 20  1  0
 19 21  1  0
 20 22  2  0
 21 23  2  0
 22 23  1  0
M  END
>  <ref_url>  (792) 
https://fakepage.com

>  <submitter_name>  (792) 
Steph Wills

>  <submitter_email>  (792) 
stephanie.wills@dtc.ox.ac.uk

>  <submitter_institution>  (792) 
University of Oxford

>  <generation_date>  (792) 
2020-06-04

>  <method>  (792) 
Fragment network

>  <ref_mols>  (792) 
x0183_0B,x0212_0B

>  <ref_pdb>  (792) 
references/x0183-0B-x0212-0B-412655.holo_minimised_nolig.pdb

>  <original SMILES>  (792) 
COC(=O)COc1cccc(NC(=O)N(C)c2ccccc2)c1

>  <synthon>  (792) 
[Xe]c1ccccc1

>  <original_name>  (792) 
x0183-0B-x0212-0B-412655

>  <comRMSD_score>  (792) 
0.95738537794598

>  <IF_score>  (792) 
0.55

>  <SuCOS_score>  (792) 
0.3583017548306626

>  <compound_ID>  (792) 
REAL:Z1878292547

$$$$

     RDKit          3D

 23 25  0  0  0  0  0  0  0  0999 V2000
  -11.2010    6.4970  -73.3900 O   0  0  0  0  0  0  0  0  0  0  0  0
  -12.1690    5.8440  -73.7660 C   0  0  0  0  0  0  0  0  0  0  0  0
  -13.3030    6.3260  -74.1380 C   0  0  0  0  0  0  0  0  0  0  0  0
  -12.4000    4.4810  -73.9740 N   0  0  0  0  0  0  0  0  0  0  0  0
  -13.7980    5.5900  -75.3330 C   0  0  0  0  0  0  0  0  0  0  0  0
  -13.0540    4.2820  -75.2370 C   0  0  1  0  0  0  0  0  0  0  0  0
  -12.0130    4.0700  -76.1390 C   0  0  0  0  0  0  0  0  0  0  0  0
  -11.9170    4.7880  -77.3300 C   0  0  0  0  0  0  0  0  0  0  0  0
  -11.0200    3.1310  -75.8830 C   0  0  0  0  0  0  0  0  0  0  0  0
  -10.8950    4.6070  -78.2390 C   0  0  0  0  0  0  0  0  0  0  0  0
   -9.9150    2.9330  -76.8740 C   0  0  0  0  0  0  0  0  0  0  0  0
   -9.9290    3.7110  -78.0130 C   0  0  0  0  0  0  0  0  0  0  0  0
   -8.9340    2.0260  -76.6760 N   0  0  0  0  0  0  0  0  0  0  0  0
   -7.8220    1.3350  -76.8210 C   0  0  0  0  0  0  0  0  0  0  0  0
   -7.7890    0.3030  -76.1650 O   0  0  0  0  0  0  0  0  0  0  0  0
   -6.8600    1.9090  -77.7390 N   0  0  0  0  0  0  0  0  0  0  0  0
   -7.2130    2.5130  -78.9360 C   0  0  0  0  0  0  0  0  0  0  0  0
   -7.8550    1.6120  -79.8010 C   0  0  0  0  0  0  0  0  0  0  0  0
   -8.1830    1.9980  -81.1110 C   0  0  0  0  0  0  0  0  0  0  0  0
   -8.1750    0.3160  -79.3720 C   0  0  0  0  0  0  0  0  0  0  0  0
   -8.8190    1.0960  -81.9680 C   0  0  0  0  0  0  0  0  0  0  0  0
   -8.8070   -0.5600  -80.2370 C   0  0  0  0  0  0  0  0  0  0  0  0
   -9.1300   -0.1870  -81.5230 C   0  0  0  0  0  0  0  0  0  0  0  0
  1  2  2  0
  2  3  1  0
  2  4  1  0
  3  5  1  0
  4  6  1  0
  5  6  1  0
  6  7  1  6
  7  8  2  0
  7  9  1  0
  8 10  1  0
  9 11  2  0
 10 12  2  0
 11 12  1  0
 11 13  1  0
 13 14  1  0
 14 15  2  0
 14 16  1  0
 16 17  1  0
 17 18  1  0
 18 19  2  0
 18 20  1  0
 19 21  1  0
 20 22  2  0
 21 23  2  0
 22 23  1  0
M  END
>  <ref_url>  (793) 
https://fakepage.com

>  <submitter_name>  (793) 
Steph Wills

>  <submitter_email>  (793) 
stephanie.wills@dtc.ox.ac.uk

>  <submitter_institution>  (793) 
University of Oxford

>  <generation_date>  (793) 
2020-06-04

>  <method>  (793) 
Fragment network

>  <ref_mols>  (793) 
x0183_0B,x0212_0B

>  <ref_pdb>  (793) 
references/x0183-0B-x0212-0B-413796.holo_minimised_nolig.pdb

>  <original SMILES>  (793) 
O=C1CCC(c2cccc(NC(=O)NCc3ccccc3)c2)N1

>  <synthon>  (793) 
[Xe]c1ccccc1

>  <original_name>  (793) 
x0183-0B-x0212-0B-413796

>  <comRMSD_score>  (793) 
0.8225541297059396

>  <IF_score>  (793) 
0.675

>  <SuCOS_score>  (793) 
0.5329540514185438

>  <compound_ID>  (793) 
REAL:PV-001948392748

$$$$

     RDKit          3D

 23 24  0  0  0  0  0  0  0  0999 V2000
  -14.2350    3.6510  -76.1730 C   0  0  0  0  0  0  0  0  0  0  0  0
  -13.1590    4.4160  -75.4870 C   0  0  0  0  0  0  0  0  0  0  0  0
  -13.1070    5.7510  -75.3910 C   0  0  0  0  0  0  0  0  0  0  0  0
  -11.8370    3.9100  -76.1020 C   0  0  0  0  0  0  0  0  0  0  0  0
  -11.3650    4.3390  -77.3560 C   0  0  0  0  0  0  0  0  0  0  0  0
  -11.0810    2.9900  -75.3900 C   0  0  0  0  0  0  0  0  0  0  0  0
  -10.1560    3.8220  -77.8700 C   0  0  0  0  0  0  0  0  0  0  0  0
   -9.8990    2.4880  -75.9010 C   0  0  0  0  0  0  0  0  0  0  0  0
   -9.3980    2.8730  -77.1380 C   0  0  0  0  0  0  0  0  0  0  0  0
   -8.2130    2.3000  -77.5570 O   0  0  0  0  0  0  0  0  0  0  0  0
   -7.6180    1.2340  -76.7580 C   0  0  0  0  0  0  0  0  0  0  0  0
   -6.6490    0.2720  -77.5220 C   0  0  0  0  0  0  0  0  0  0  0  0
   -6.6720   -0.9410  -77.3380 O   0  0  0  0  0  0  0  0  0  0  0  0
   -5.8430    0.7490  -78.3250 O   0  0  0  0  0  0  0  0  0  0  0  0
   -6.0540    2.1120  -78.2090 N   0  0  0  0  0  0  0  0  0  0  0  0
   -7.1220    2.4890  -79.0050 C   0  0  0  0  0  0  0  0  0  0  0  0
   -7.5410    3.7680  -78.9500 N   0  0  0  0  0  0  0  0  0  0  0  0
   -7.9050    1.5490  -79.9400 C   0  0  0  0  0  0  0  0  0  0  0  0
   -8.3040    0.2740  -79.5470 C   0  0  0  0  0  0  0  0  0  0  0  0
   -8.2520    1.9460  -81.2440 C   0  0  0  0  0  0  0  0  0  0  0  0
   -9.0100   -0.5930  -80.3730 C   0  0  0  0  0  0  0  0  0  0  0  0
   -8.9600    1.0920  -82.0930 C   0  0  0  0  0  0  0  0  0  0  0  0
   -9.3390   -0.1830  -81.6520 C   0  0  0  0  0  0  0  0  0  0  0  0
  1  2  1  0
  2  3  1  0
  2  4  1  0
  4  5  2  0
  4  6  1  0
  5  7  1  0
  6  8  2  0
  7  9  2  0
  8  9  1  0
  9 10  1  0
 10 11  1  0
 11 12  1  0
 12 13  2  0
 12 14  1  0
 14 15  1  0
 15 16  2  3
 16 17  1  0
 16 18  1  0
 18 19  2  0
 18 20  1  0
 19 21  1  0
 20 22  2  0
 21 23  2  0
 22 23  1  0
M  END
>  <ref_url>  (794) 
https://fakepage.com

>  <submitter_name>  (794) 
Steph Wills

>  <submitter_email>  (794) 
stephanie.wills@dtc.ox.ac.uk

>  <submitter_institution>  (794) 
University of Oxford

>  <generation_date>  (794) 
2020-06-04

>  <method>  (794) 
Fragment network

>  <ref_mols>  (794) 
x0183_0B,x0212_0B

>  <ref_pdb>  (794) 
references/x0183-0B-x0212-0B-415079.holo_minimised_nolig.pdb

>  <original SMILES>  (794) 
CC(C)c1ccc(OCC(=O)ON=C(N)c2ccccc2)cc1

>  <synthon>  (794) 
[Xe]c1ccccc1

>  <original_name>  (794) 
x0183-0B-x0212-0B-415079

>  <comRMSD_score>  (794) 
0.7782251441581662

>  <IF_score>  (794) 
0.55

>  <SuCOS_score>  (794) 
0.494244006255833

>  <compound_ID>  (794) 
MOLPORT:002-264-861

$$$$

     RDKit          3D

 27 28  0  0  0  0  0  0  0  0999 V2000
  -17.4660    6.8400  -74.5720 C   0  0  0  0  0  0  0  0  0  0  0  0
  -16.1540    6.6070  -74.4160 C   0  0  0  0  0  0  0  0  0  0  0  0
  -15.1250    6.7580  -75.5000 C   0  0  0  0  0  0  0  0  0  0  0  0
  -13.9080    5.9810  -75.1440 N   0  0  0  0  0  0  0  0  0  0  0  0
  -13.3370    6.3240  -73.8040 C   0  0  0  0  0  0  0  0  0  0  0  0
  -13.9140    4.3460  -75.6720 S   0  0  0  0  0  0  0  0  0  0  0  0
  -12.1180    7.1700  -73.9700 C   0  0  0  0  0  0  0  0  0  0  0  0
  -14.1300    3.4710  -74.5500 O   0  0  0  0  0  0  0  0  0  0  0  0
  -14.7590    4.2420  -76.8390 O   0  0  0  0  0  0  0  0  0  0  0  0
  -12.2760    4.0910  -76.2650 C   0  0  0  0  0  0  0  0  0  0  0  0
  -12.1120    8.4150  -74.4730 C   0  0  0  0  0  0  0  0  0  0  0  0
  -11.8830    4.6500  -77.4800 C   0  0  0  0  0  0  0  0  0  0  0  0
  -11.4080    3.3250  -75.4950 C   0  0  0  0  0  0  0  0  0  0  0  0
  -10.5900    4.4340  -77.9240 C   0  0  0  0  0  0  0  0  0  0  0  0
  -10.1230    3.1180  -75.9490 C   0  0  0  0  0  0  0  0  0  0  0  0
   -9.7140    3.6660  -77.1470 C   0  0  0  0  0  0  0  0  0  0  0  0
   -8.4400    3.4830  -77.6050 N   0  0  0  0  0  0  0  0  0  0  0  0
   -8.0040    3.3330  -78.8790 C   0  0  0  0  0  0  0  0  0  0  0  0
   -8.5990    3.5580  -79.9250 O   0  0  0  0  0  0  0  0  0  0  0  0
   -6.6020    2.8170  -78.7820 C   0  0  0  0  0  0  0  0  0  0  0  0
   -6.2440    2.0040  -79.9810 C   0  0  0  0  0  0  0  0  0  0  0  0
   -7.4180    1.2130  -80.4730 C   0  0  0  0  0  0  0  0  0  0  0  0
   -8.1450    1.6900  -81.5530 C   0  0  0  0  0  0  0  0  0  0  0  0
   -7.7910    0.0020  -79.8710 C   0  0  0  0  0  0  0  0  0  0  0  0
   -9.2130    0.9670  -82.0370 C   0  0  0  0  0  0  0  0  0  0  0  0
   -8.8760   -0.7220  -80.3630 C   0  0  0  0  0  0  0  0  0  0  0  0
   -9.5830   -0.2390  -81.4510 C   0  0  0  0  0  0  0  0  0  0  0  0
  1  2  2  3
  2  3  1  0
  3  4  1  0
  4  5  1  0
  6  4  1  0
  5  7  1  0
  6  8  2  0
  6  9  2  0
  6 10  1  0
  7 11  2  3
 10 12  2  0
 10 13  1  0
 12 14  1  0
 13 15  2  0
 14 16  2  0
 15 16  1  0
 16 17  1  0
 17 18  1  0
 18 19  2  0
 18 20  1  0
 20 21  1  0
 21 22  1  0
 22 23  2  0
 22 24  1  0
 23 25  1  0
 24 26  2  0
 25 27  2  0
 26 27  1  0
M  END
>  <ref_url>  (795) 
https://fakepage.com

>  <submitter_name>  (795) 
Steph Wills

>  <submitter_email>  (795) 
stephanie.wills@dtc.ox.ac.uk

>  <submitter_institution>  (795) 
University of Oxford

>  <generation_date>  (795) 
2020-06-04

>  <method>  (795) 
Fragment network

>  <ref_mols>  (795) 
x0183_0B,x0212_0B

>  <ref_pdb>  (795) 
references/x0183-0B-x0212-0B-417387.holo_minimised_nolig.pdb

>  <original SMILES>  (795) 
C=CCN(CC=C)S(=O)(=O)c1ccc(NC(=O)CCc2ccccc2)cc1

>  <synthon>  (795) 
[Xe]c1ccccc1

>  <original_name>  (795) 
x0183-0B-x0212-0B-417387

>  <comRMSD_score>  (795) 
0.7615571523505599

>  <IF_score>  (795) 
0.55

>  <SuCOS_score>  (795) 
0.485671785217608

>  <compound_ID>  (795) 
MOLPORT:001-617-726

$$$$

     RDKit          3D

 24 25  0  0  0  0  0  0  0  0999 V2000
  -12.9430   -3.0210  -82.4610 C   0  0  0  0  0  0  0  0  0  0  0  0
  -12.6980   -1.6620  -82.0050 N   0  0  0  0  0  0  0  0  0  0  0  0
  -13.6590   -0.6660  -82.4540 C   0  0  0  0  0  0  0  0  0  0  0  0
  -11.8980   -1.3490  -80.9070 C   0  0  0  0  0  0  0  0  0  0  0  0
  -12.1820   -0.4160  -80.1620 O   0  0  0  0  0  0  0  0  0  0  0  0
  -10.6460   -2.2110  -80.6540 C   0  0  0  0  0  0  0  0  0  0  0  0
   -9.6770   -1.6020  -79.7970 O   0  0  0  0  0  0  0  0  0  0  0  0
   -9.2300   -0.3970  -80.2730 C   0  0  0  0  0  0  0  0  0  0  0  0
   -9.5640    0.0440  -81.5410 C   0  0  0  0  0  0  0  0  0  0  0  0
   -8.4220    0.3890  -79.4500 C   0  0  0  0  0  0  0  0  0  0  0  0
   -9.0930    1.2670  -81.9960 C   0  0  0  0  0  0  0  0  0  0  0  0
   -7.9490    1.6280  -79.9040 C   0  0  0  0  0  0  0  0  0  0  0  0
   -8.2920    2.0590  -81.1880 C   0  0  0  0  0  0  0  0  0  0  0  0
   -7.1360    2.4870  -79.1410 N   0  0  0  0  0  0  0  0  0  0  0  0
   -7.4810    3.0880  -77.9380 C   0  0  0  0  0  0  0  0  0  0  0  0
   -6.7760    3.9050  -77.3590 O   0  0  0  0  0  0  0  0  0  0  0  0
   -8.7210    2.6270  -77.4580 N   0  0  0  0  0  0  0  0  0  0  0  0
   -8.6910    1.6560  -76.4020 C   0  0  0  0  0  0  0  0  0  0  0  0
   -9.8460    3.4310  -77.1390 C   0  0  0  0  0  0  0  0  0  0  0  0
  -10.4860    3.0650  -75.9510 C   0  0  0  0  0  0  0  0  0  0  0  0
  -10.3730    4.5060  -77.8550 C   0  0  0  0  0  0  0  0  0  0  0  0
  -11.5960    3.7120  -75.4760 C   0  0  0  0  0  0  0  0  0  0  0  0
  -11.5140    5.1760  -77.3730 C   0  0  0  0  0  0  0  0  0  0  0  0
  -12.1160    4.7660  -76.1830 C   0  0  0  0  0  0  0  0  0  0  0  0
  1  2  1  0
  2  3  1  0
  2  4  1  0
  4  5  2  0
  4  6  1  0
  6  7  1  0
  7  8  1  0
  8  9  2  0
  8 10  1  0
  9 11  1  0
 10 12  2  0
 11 13  2  0
 12 13  1  0
 12 14  1  0
 14 15  1  0
 15 16  2  0
 15 17  1  0
 17 18  1  0
 17 19  1  0
 19 20  2  0
 19 21  1  0
 20 22  1  0
 21 23  2  0
 22 24  2  0
 23 24  1  0
M  END
>  <ref_url>  (796) 
https://fakepage.com

>  <submitter_name>  (796) 
Steph Wills

>  <submitter_email>  (796) 
stephanie.wills@dtc.ox.ac.uk

>  <submitter_institution>  (796) 
University of Oxford

>  <generation_date>  (796) 
2020-06-04

>  <method>  (796) 
Fragment network

>  <ref_mols>  (796) 
x0183_0B,x0212_0B

>  <ref_pdb>  (796) 
references/x0183-0B-x0212-0B-420169.holo_minimised_nolig.pdb

>  <original SMILES>  (796) 
CN(C)C(=O)COc1cccc(NC(=O)N(C)c2ccccc2)c1

>  <synthon>  (796) 
[Xe]c1ccccc1

>  <original_name>  (796) 
x0183-0B-x0212-0B-420169

>  <comRMSD_score>  (796) 
0.8721848864721721

>  <IF_score>  (796) 
0.5

>  <SuCOS_score>  (796) 
0.3560988154688973

>  <compound_ID>  (796) 
REAL:PV-001941997421

$$$$

     RDKit          3D

 23 24  0  0  0  0  0  0  0  0999 V2000
  -13.0110    7.2250  -76.0600 C   0  0  0  0  0  0  0  0  0  0  0  0
  -13.2100    6.2080  -75.0310 N   0  0  0  0  0  0  0  0  0  0  0  0
  -12.7770    6.6010  -73.7090 C   0  0  0  0  0  0  0  0  0  0  0  0
  -13.2510    4.8490  -75.3210 C   0  0  0  0  0  0  0  0  0  0  0  0
  -14.1090    4.0490  -74.9350 O   0  0  0  0  0  0  0  0  0  0  0  0
  -12.2140    4.3250  -76.1900 C   0  0  0  0  0  0  0  0  0  0  0  0
  -11.3890    3.2950  -75.7640 C   0  0  0  0  0  0  0  0  0  0  0  0
  -12.0950    4.8930  -77.4540 C   0  0  0  0  0  0  0  0  0  0  0  0
  -10.4440    2.8220  -76.6410 C   0  0  0  0  0  0  0  0  0  0  0  0
  -11.1420    4.4130  -78.3200 C   0  0  0  0  0  0  0  0  0  0  0  0
  -10.3340    3.3790  -77.9150 C   0  0  0  0  0  0  0  0  0  0  0  0
   -9.3750    2.7850  -78.6750 N   0  0  0  0  0  0  0  0  0  0  0  0
   -8.6790    1.7700  -78.1390 C   0  0  0  0  0  0  0  0  0  0  0  0
   -9.1240    0.6450  -77.9100 O   0  0  0  0  0  0  0  0  0  0  0  0
   -7.4160    2.2060  -77.8890 N   0  0  0  0  0  0  0  0  0  0  0  0
   -7.2770    3.4140  -77.1030 C   0  0  0  0  0  0  0  0  0  0  0  0
   -6.7280    2.2190  -79.1660 C   0  0  0  0  0  0  0  0  0  0  0  0
   -7.6020    1.4210  -80.1050 C   0  0  0  0  0  0  0  0  0  0  0  0
   -8.1340    1.9570  -81.2860 C   0  0  0  0  0  0  0  0  0  0  0  0
   -7.9050    0.0940  -79.7640 C   0  0  0  0  0  0  0  0  0  0  0  0
   -8.9440    1.1680  -82.0960 C   0  0  0  0  0  0  0  0  0  0  0  0
   -8.7180   -0.6830  -80.5730 C   0  0  0  0  0  0  0  0  0  0  0  0
   -9.2350   -0.1450  -81.7330 C   0  0  0  0  0  0  0  0  0  0  0  0
  1  2  1  0
  2  3  1  0
  2  4  1  0
  4  5  2  0
  4  6  1  0
  6  7  2  0
  6  8  1  0
  7  9  1  0
  8 10  2  0
  9 11  2  0
 10 11  1  0
 11 12  1  0
 12 13  1  0
 13 14  2  0
 13 15  1  0
 15 16  1  0
 15 17  1  0
 17 18  1  0
 18 19  2  0
 18 20  1  0
 19 21  1  0
 20 22  2  0
 21 23  2  0
 22 23  1  0
M  END
>  <ref_url>  (797) 
https://fakepage.com

>  <submitter_name>  (797) 
Steph Wills

>  <submitter_email>  (797) 
stephanie.wills@dtc.ox.ac.uk

>  <submitter_institution>  (797) 
University of Oxford

>  <generation_date>  (797) 
2020-06-04

>  <method>  (797) 
Fragment network

>  <ref_mols>  (797) 
x0183_0B,x0212_0B

>  <ref_pdb>  (797) 
references/x0183-0B-x0212-0B-420421.holo_minimised_nolig.pdb

>  <original SMILES>  (797) 
CN(C)C(=O)c1ccc(NC(=O)N(C)Cc2ccccc2)cc1

>  <synthon>  (797) 
[Xe]c1ccccc1

>  <original_name>  (797) 
x0183-0B-x0212-0B-420421

>  <comRMSD_score>  (797) 
0.7125783127852341

>  <IF_score>  (797) 
0.425

>  <SuCOS_score>  (797) 
0.493197228639018

>  <compound_ID>  (797) 
REAL:Z411074156

$$$$

     RDKit          3D

 21 22  0  0  0  0  0  0  0  0999 V2000
  -12.8670    6.4050  -73.7340 C   0  0  0  0  0  0  0  0  0  0  0  0
  -13.3620    5.8930  -74.9790 O   0  0  0  0  0  0  0  0  0  0  0  0
  -13.1520    4.5640  -75.2610 C   0  0  0  0  0  0  0  0  0  0  0  0
  -12.0280    4.0710  -76.1070 C   0  0  0  0  0  0  0  0  0  0  0  0
  -11.7580    4.9100  -77.2870 C   0  0  0  0  0  0  0  0  0  0  0  0
  -11.2860    2.9440  -75.8550 C   0  0  0  0  0  0  0  0  0  0  0  0
  -10.7270    4.5170  -78.1330 C   0  0  0  0  0  0  0  0  0  0  0  0
  -10.2730    2.5810  -76.7180 C   0  0  0  0  0  0  0  0  0  0  0  0
   -9.9920    3.3600  -77.8470 C   0  0  0  0  0  0  0  0  0  0  0  0
   -9.5340    1.4000  -76.4410 N   0  0  0  0  0  0  0  0  0  0  0  0
   -8.1210    1.3320  -76.7980 C   0  0  0  0  0  0  0  0  0  0  0  0
   -7.2580    2.5040  -76.3490 C   0  0  0  0  0  0  0  0  0  0  0  0
   -6.6770    3.2910  -77.5130 C   0  0  0  0  0  0  0  0  0  0  0  0
   -7.3670    3.0440  -78.4830 O   0  0  0  0  0  0  0  0  0  0  0  0
   -6.6820    2.3030  -79.4800 C   0  0  0  0  0  0  0  0  0  0  0  0
   -7.5960    1.4970  -80.1650 C   0  0  0  0  0  0  0  0  0  0  0  0
   -7.9670    0.2450  -79.6760 C   0  0  0  0  0  0  0  0  0  0  0  0
   -8.1570    1.9210  -81.3630 C   0  0  0  0  0  0  0  0  0  0  0  0
   -8.8640   -0.5830  -80.3400 C   0  0  0  0  0  0  0  0  0  0  0  0
   -9.0540    1.1040  -82.0410 C   0  0  0  0  0  0  0  0  0  0  0  0
   -9.4100   -0.1480  -81.5340 C   0  0  0  0  0  0  0  0  0  0  0  0
  1  2  1  0
  2  3  1  0
  3  4  1  0
  4  5  2  0
  4  6  1  0
  5  7  1  0
  6  8  2  0
  7  9  2  0
  8  9  1  0
  8 10  1  0
 10 11  1  0
 11 12  1  0
 12 13  1  0
 13 14  1  0
 14 15  1  0
 15 16  1  0
 16 17  2  0
 16 18  1  0
 17 19  1  0
 18 20  2  0
 19 21  2  0
 20 21  1  0
M  END
>  <ref_url>  (798) 
https://fakepage.com

>  <submitter_name>  (798) 
Steph Wills

>  <submitter_email>  (798) 
stephanie.wills@dtc.ox.ac.uk

>  <submitter_institution>  (798) 
University of Oxford

>  <generation_date>  (798) 
2020-06-04

>  <method>  (798) 
Fragment network

>  <ref_mols>  (798) 
x0183_0B,x0212_0B

>  <ref_pdb>  (798) 
references/x0183-0B-x0212-0B-420618.holo_minimised_nolig.pdb

>  <original SMILES>  (798) 
COCc1cccc(NCCCOCc2ccccc2)c1

>  <synthon>  (798) 
[Xe]c1ccccc1

>  <original_name>  (798) 
x0183-0B-x0212-0B-420618

>  <comRMSD_score>  (798) 
0.6632495480307261

>  <IF_score>  (798) 
0.425

>  <SuCOS_score>  (798) 
0.4628652877921479

>  <compound_ID>  (798) 
CHEMSPACE-BB:CSMB00015068107

$$$$

     RDKit          3D

 26 27  0  0  0  0  0  0  0  0999 V2000
  -12.8400    6.2450  -73.7300 C   0  0  0  0  0  0  0  0  0  0  0  0
  -13.5780    5.6780  -74.9750 C   0  0  0  0  0  0  0  0  0  0  0  0
  -14.5930    6.5440  -75.5390 O   0  0  0  0  0  0  0  0  0  0  0  0
  -13.1160    4.3320  -75.3900 N   0  0  0  0  0  0  0  0  0  0  0  0
  -11.9230    4.1430  -76.0820 C   0  0  0  0  0  0  0  0  0  0  0  0
  -11.7030    4.7350  -77.4570 C   0  0  0  0  0  0  0  0  0  0  0  0
  -10.9010    3.3980  -75.4990 C   0  0  0  0  0  0  0  0  0  0  0  0
  -10.4800    4.5230  -78.0910 C   0  0  0  0  0  0  0  0  0  0  0  0
   -9.6910    3.2170  -76.1760 C   0  0  0  0  0  0  0  0  0  0  0  0
   -9.4830    3.7780  -77.4530 C   0  0  0  0  0  0  0  0  0  0  0  0
   -8.2450    3.5930  -78.0940 N   0  0  0  0  0  0  0  0  0  0  0  0
   -6.9950    3.4130  -77.4960 C   0  0  0  0  0  0  0  0  0  0  0  0
   -6.9410    2.5030  -76.6770 O   0  0  0  0  0  0  0  0  0  0  0  0
   -5.9780    4.3240  -77.9110 N   0  0  0  0  0  0  0  0  0  0  0  0
   -4.8320    4.0260  -78.7800 C   0  0  0  0  0  0  0  0  0  0  0  0
   -3.4600    3.9330  -78.1630 C   0  0  0  0  0  0  0  0  0  0  0  0
   -4.7960    5.0970  -79.9020 C   0  0  0  0  0  0  0  0  0  0  0  0
   -4.9960    2.6770  -79.5170 C   0  0  0  0  0  0  0  0  0  0  0  0
   -5.7370    1.8720  -79.0040 O   0  0  0  0  0  0  0  0  0  0  0  0
   -7.0920    2.2370  -79.2160 C   0  0  0  0  0  0  0  0  0  0  0  0
   -7.9380    1.3560  -80.0510 C   0  0  0  0  0  0  0  0  0  0  0  0
   -8.3310    1.7500  -81.3180 C   0  0  0  0  0  0  0  0  0  0  0  0
   -8.3550    0.1110  -79.5690 C   0  0  0  0  0  0  0  0  0  0  0  0
   -9.1120    0.9530  -82.1080 C   0  0  0  0  0  0  0  0  0  0  0  0
   -9.1490   -0.7070  -80.3580 C   0  0  0  0  0  0  0  0  0  0  0  0
   -9.5280   -0.2870  -81.6280 C   0  0  0  0  0  0  0  0  0  0  0  0
  1  2  1  0
  2  3  2  0
  2  4  1  0
  4  5  1  0
  5  6  2  0
  5  7  1  0
  6  8  1  0
  7  9  2  0
  8 10  2  0
  9 10  1  0
 10 11  1  0
 11 12  1  0
 12 13  2  0
 12 14  1  0
 15 14  1  0
 15 16  1  0
 15 17  1  0
 15 18  1  0
 18 19  1  0
 19 20  1  0
 20 21  1  0
 21 22  2  0
 21 23  1  0
 22 24  1  0
 23 25  2  0
 24 26  2  0
 25 26  1  0
M  END
>  <ref_url>  (799) 
https://fakepage.com

>  <submitter_name>  (799) 
Steph Wills

>  <submitter_email>  (799) 
stephanie.wills@dtc.ox.ac.uk

>  <submitter_institution>  (799) 
University of Oxford

>  <generation_date>  (799) 
2020-06-04

>  <method>  (799) 
Fragment network

>  <ref_mols>  (799) 
x0183_0B,x0212_0B

>  <ref_pdb>  (799) 
references/x0183-0B-x0212-0B-421225.holo_minimised_nolig.pdb

>  <original SMILES>  (799) 
CC(=O)Nc1ccc(NC(=O)NC(C)(C)COCc2ccccc2)cc1

>  <synthon>  (799) 
[Xe]c1ccccc1

>  <original_name>  (799) 
x0183-0B-x0212-0B-421225

>  <comRMSD_score>  (799) 
0.5742621997607649

>  <IF_score>  (799) 
0.65

>  <SuCOS_score>  (799) 
0.4603538908612117

>  <compound_ID>  (799) 
REAL:Z1990524939

$$$$

     RDKit          3D

 24 25  0  0  0  0  0  0  0  0999 V2000
  -13.4180    6.8620  -76.1270 C   0  0  0  0  0  0  0  0  0  0  0  0
  -13.7170    5.9930  -74.9280 C   0  0  0  0  0  0  0  0  0  0  0  0
  -12.9040    6.3250  -73.7070 C   0  0  0  0  0  0  0  0  0  0  0  0
  -15.1870    6.1550  -74.5830 C   0  0  0  0  0  0  0  0  0  0  0  0
  -13.4110    4.5470  -75.3660 C   0  0  0  0  0  0  0  0  0  0  0  0
  -14.1930    3.6070  -75.2250 O   0  0  0  0  0  0  0  0  0  0  0  0
  -12.2080    4.2820  -75.9700 C   0  0  0  0  0  0  0  0  0  0  0  0
  -11.9780    4.8340  -77.2250 C   0  0  0  0  0  0  0  0  0  0  0  0
  -11.2490    3.4880  -75.3300 C   0  0  0  0  0  0  0  0  0  0  0  0
  -10.6700    4.6030  -77.9420 C   0  0  0  0  0  0  0  0  0  0  0  0
  -10.0250    3.2260  -75.9090 C   0  0  0  0  0  0  0  0  0  0  0  0
   -9.7110    3.7450  -77.1460 C   0  0  0  0  0  0  0  0  0  0  0  0
   -8.5270    3.5350  -77.7370 N   0  0  0  0  0  0  0  0  0  0  0  0
   -8.3420    3.8720  -79.1110 C   0  0  0  0  0  0  0  0  0  0  0  0
   -9.2480    4.5550  -79.9680 O   0  0  0  0  0  0  0  0  0  0  0  0
   -7.1220    3.3870  -79.4650 C   0  0  0  0  0  0  0  0  0  0  0  0
   -7.1000    2.0660  -79.1030 C   0  0  2  0  0  0  0  0  0  0  0  0
   -5.7300    1.6060  -79.0270 N   0  0  0  0  0  0  0  0  0  0  0  0
   -7.8820    1.2950  -79.9390 C   0  0  0  0  0  0  0  0  0  0  0  0
   -8.3080    0.0340  -79.5180 C   0  0  0  0  0  0  0  0  0  0  0  0
   -8.2600    1.7740  -81.2010 C   0  0  0  0  0  0  0  0  0  0  0  0
   -9.1030   -0.7460  -80.3430 C   0  0  0  0  0  0  0  0  0  0  0  0
   -9.0510    0.9920  -82.0150 C   0  0  0  0  0  0  0  0  0  0  0  0
   -9.4740   -0.2680  -81.5810 C   0  0  0  0  0  0  0  0  0  0  0  0
  1  2  1  0
  2  3  1  0
  2  4  1  0
  2  5  1  0
  5  6  2  0
  5  7  1  0
  7  8  2  0
  7  9  1  0
  8 10  1  0
  9 11  2  0
 10 12  2  0
 11 12  1  0
 12 13  1  0
 13 14  1  0
 14 15  2  0
 14 16  1  0
 16 17  1  0
 17 18  1  6
 17 19  1  0
 19 20  2  0
 19 21  1  0
 20 22  1  0
 21 23  2  0
 22 24  2  0
 23 24  1  0
M  END
>  <ref_url>  (800) 
https://fakepage.com

>  <submitter_name>  (800) 
Steph Wills

>  <submitter_email>  (800) 
stephanie.wills@dtc.ox.ac.uk

>  <submitter_institution>  (800) 
University of Oxford

>  <generation_date>  (800) 
2020-06-04

>  <method>  (800) 
Fragment network

>  <ref_mols>  (800) 
x0183_0B,x0212_0B

>  <ref_pdb>  (800) 
references/x0183-0B-x0212-0B-425514.holo_minimised_nolig.pdb

>  <original SMILES>  (800) 
CC(C)(C)C(=O)c1ccc(NC(=O)CC(N)c2ccccc2)cc1

>  <synthon>  (800) 
[Xe]c1ccccc1

>  <original_name>  (800) 
x0183-0B-x0212-0B-425514

>  <comRMSD_score>  (800) 
0.795778700858939

>  <IF_score>  (800) 
0.55

>  <SuCOS_score>  (800) 
0.5127124844059447

>  <compound_ID>  (800) 
REAL:Z2449718784

$$$$

     RDKit          3D

 23 24  0  0  0  0  0  0  0  0999 V2000
   -8.9430   -1.5980  -75.4410 C   0  0  0  0  0  0  0  0  0  0  0  0
   -9.1900   -2.7980  -76.2870 C   0  0  0  0  0  0  0  0  0  0  0  0
   -8.2260   -3.6540  -76.6710 C   0  0  0  0  0  0  0  0  0  0  0  0
   -9.8900   -2.2850  -77.5680 C   0  0  0  0  0  0  0  0  0  0  0  0
   -9.2640   -2.4900  -78.8070 C   0  0  0  0  0  0  0  0  0  0  0  0
   -9.7660   -1.9360  -79.9540 O   0  0  0  0  0  0  0  0  0  0  0  0
   -9.2160   -0.6660  -80.3180 C   0  0  0  0  0  0  0  0  0  0  0  0
   -9.4890   -0.1840  -81.5850 C   0  0  0  0  0  0  0  0  0  0  0  0
   -8.4370    0.0330  -79.3910 C   0  0  0  0  0  0  0  0  0  0  0  0
   -8.9800    1.0510  -81.9870 C   0  0  0  0  0  0  0  0  0  0  0  0
   -7.8950    1.2840  -79.7320 C   0  0  0  0  0  0  0  0  0  0  0  0
   -8.1280    1.8420  -80.9970 C   0  0  0  0  0  0  0  0  0  0  0  0
   -7.1250    2.0220  -78.8680 N   0  0  0  0  0  0  0  0  0  0  0  0
   -7.8720    2.3020  -77.6890 C   0  0  0  0  0  0  0  0  0  0  0  0
   -7.8710    1.5280  -76.7450 O   0  0  0  0  0  0  0  0  0  0  0  0
   -8.5540    3.5530  -77.8130 N   0  0  0  0  0  0  0  0  0  0  0  0
   -8.8350    4.0080  -79.0600 C   0  0  0  0  0  0  0  0  0  0  0  0
   -9.8970    3.7480  -77.2670 C   0  0  0  0  0  0  0  0  0  0  0  0
  -10.6060    4.4460  -78.2520 C   0  0  0  0  0  0  0  0  0  0  0  0
  -10.4720    3.3870  -76.0530 C   0  0  0  0  0  0  0  0  0  0  0  0
  -11.8940    4.7870  -78.0170 C   0  0  0  0  0  0  0  0  0  0  0  0
  -11.8230    3.7470  -75.8110 C   0  0  0  0  0  0  0  0  0  0  0  0
  -12.5560    4.4480  -76.7770 C   0  0  0  0  0  0  0  0  0  0  0  0
  1  2  1  0
  2  3  1  0
  2  4  1  0
  4  5  1  0
  5  6  1  0
  6  7  1  0
  7  8  2  0
  7  9  1  0
  8 10  1  0
  9 11  2  0
 10 12  2  0
 11 12  1  0
 11 13  1  0
 13 14  1  0
 14 15  2  0
 14 16  1  0
 16 17  1  0
 16 18  1  0
 18 19  2  0
 18 20  1  0
 19 21  1  0
 20 22  2  0
 21 23  2  0
 22 23  1  0
M  END
>  <ref_url>  (801) 
https://fakepage.com

>  <submitter_name>  (801) 
Steph Wills

>  <submitter_email>  (801) 
stephanie.wills@dtc.ox.ac.uk

>  <submitter_institution>  (801) 
University of Oxford

>  <generation_date>  (801) 
2020-06-04

>  <method>  (801) 
Fragment network

>  <ref_mols>  (801) 
x0183_0B,x0212_0B

>  <ref_pdb>  (801) 
references/x0183-0B-x0212-0B-426805.holo_minimised_nolig.pdb

>  <original SMILES>  (801) 
CC(C)CCOc1cccc(NC(=O)N(C)c2ccccc2)c1

>  <synthon>  (801) 
[Xe]c1ccccc1

>  <original_name>  (801) 
x0183-0B-x0212-0B-426805

>  <comRMSD_score>  (801) 
0.8781865785051981

>  <IF_score>  (801) 
0.55

>  <SuCOS_score>  (801) 
0.3561420791261892

>  <compound_ID>  (801) 
REAL:PV-001942504993

$$$$

     RDKit          3D

 23 25  0  0  0  0  0  0  0  0999 V2000
   -7.8370    4.1360  -80.4630 O   0  0  0  0  0  0  0  0  0  0  0  0
   -8.3420    3.8740  -79.3910 C   0  0  0  0  0  0  0  0  0  0  0  0
   -7.5020    3.1000  -78.3760 C   0  0  0  0  0  0  0  0  0  0  0  0
   -9.6180    4.1870  -78.9670 N   0  0  0  0  0  0  0  0  0  0  0  0
   -6.9520    1.9690  -79.0340 O   0  0  0  0  0  0  0  0  0  0  0  0
  -10.1910    3.8670  -77.7530 C   0  0  0  0  0  0  0  0  0  0  0  0
   -7.7810    1.3470  -79.9230 C   0  0  0  0  0  0  0  0  0  0  0  0
   -9.6090    2.9520  -76.9110 C   0  0  0  0  0  0  0  0  0  0  0  0
  -11.3860    4.4940  -77.3880 C   0  0  0  0  0  0  0  0  0  0  0  0
   -8.1610    1.8120  -81.1880 C   0  0  0  0  0  0  0  0  0  0  0  0
   -8.2710    0.1210  -79.4690 C   0  0  0  0  0  0  0  0  0  0  0  0
  -10.1970    2.6440  -75.7020 C   0  0  0  0  0  0  0  0  0  0  0  0
  -12.0010    4.1950  -76.1580 C   0  0  0  0  0  0  0  0  0  0  0  0
   -9.0160    1.0460  -81.9700 C   0  0  0  0  0  0  0  0  0  0  0  0
   -9.1270   -0.6390  -80.2570 C   0  0  0  0  0  0  0  0  0  0  0  0
  -11.3840    3.2580  -75.3220 C   0  0  0  0  0  0  0  0  0  0  0  0
  -13.3010    4.8630  -75.7540 C   0  0  0  0  0  0  0  0  0  0  0  0
   -9.4990   -0.1750  -81.5080 C   0  0  0  0  0  0  0  0  0  0  0  0
  -13.4270    6.2760  -76.3650 C   0  0  0  0  0  0  0  0  0  0  0  0
  -13.5820    4.9430  -74.2580 C   0  0  0  0  0  0  0  0  0  0  0  0
  -12.6120    7.3410  -75.6110 C   0  0  0  0  0  0  0  0  0  0  0  0
  -13.0120    6.2080  -73.6220 C   0  0  0  0  0  0  0  0  0  0  0  0
  -12.0150    6.8190  -74.4200 O   0  0  0  0  0  0  0  0  0  0  0  0
  1  2  2  0
  2  3  1  0
  2  4  1  0
  3  5  1  0
  4  6  1  0
  5  7  1  0
  6  8  2  0
  6  9  1  0
  7 10  2  0
  7 11  1  0
  8 12  1  0
  9 13  2  0
 10 14  1  0
 11 15  2  0
 12 16  2  0
 13 16  1  0
 13 17  1  0
 14 18  2  0
 15 18  1  0
 17 19  1  0
 17 20  1  0
 19 21  1  0
 20 22  1  0
 21 23  1  0
 22 23  1  0
M  END
>  <ref_url>  (802) 
https://fakepage.com

>  <submitter_name>  (802) 
Steph Wills

>  <submitter_email>  (802) 
stephanie.wills@dtc.ox.ac.uk

>  <submitter_institution>  (802) 
University of Oxford

>  <generation_date>  (802) 
2020-06-04

>  <method>  (802) 
Fragment network

>  <ref_mols>  (802) 
x0183_0B,x0212_0B

>  <ref_pdb>  (802) 
references/x0183-0B-x0212-0B-427457.holo_minimised_nolig.pdb

>  <original SMILES>  (802) 
O=C(COc1ccccc1)Nc1cccc(C2CCOCC2)c1

>  <synthon>  (802) 
[Xe]c1ccccc1

>  <original_name>  (802) 
x0183-0B-x0212-0B-427457

>  <comRMSD_score>  (802) 
0.8885869973457022

>  <IF_score>  (802) 
0.55

>  <SuCOS_score>  (802) 
0.4832669033567874

>  <compound_ID>  (802) 
REAL:Z2719760062

$$$$

     RDKit          3D

 19 20  0  0  0  0  0  0  0  0999 V2000
  -10.4830   -2.4130  -80.9950 C   0  0  0  0  0  0  0  0  0  0  0  0
  -10.0470   -1.3810  -81.8670 O   0  0  0  0  0  0  0  0  0  0  0  0
   -9.3520   -0.3620  -81.2920 C   0  0  0  0  0  0  0  0  0  0  0  0
   -9.0460    0.9600  -81.9910 C   0  0  0  0  0  0  0  0  0  0  0  0
   -8.8720   -0.4700  -79.9940 C   0  0  0  0  0  0  0  0  0  0  0  0
   -8.2780    2.0070  -81.2440 C   0  0  0  0  0  0  0  0  0  0  0  0
   -8.1600    0.5460  -79.3570 C   0  0  0  0  0  0  0  0  0  0  0  0
   -7.8490    1.7880  -79.9470 C   0  0  0  0  0  0  0  0  0  0  0  0
   -7.1280    2.7370  -79.1930 N   0  0  0  0  0  0  0  0  0  0  0  0
   -7.4190    3.2040  -77.9250 C   0  0  0  0  0  0  0  0  0  0  0  0
   -6.8030    4.0550  -77.3090 O   0  0  0  0  0  0  0  0  0  0  0  0
   -8.5160    2.5540  -77.3520 N   0  0  0  0  0  0  0  0  0  0  0  0
   -8.4060    1.6320  -76.3690 C   0  0  0  0  0  0  0  0  0  0  0  0
   -9.7540    3.2080  -77.1520 C   0  0  0  0  0  0  0  0  0  0  0  0
  -10.3030    4.1990  -78.1110 C   0  0  0  0  0  0  0  0  0  0  0  0
  -10.4730    2.8750  -75.9970 C   0  0  0  0  0  0  0  0  0  0  0  0
  -11.6560    4.8160  -77.7930 C   0  0  0  0  0  0  0  0  0  0  0  0
  -11.7030    3.4190  -75.6820 C   0  0  0  0  0  0  0  0  0  0  0  0
  -12.3210    4.3480  -76.5020 C   0  0  0  0  0  0  0  0  0  0  0  0
  1  2  1  0
  2  3  1  0
  3  4  2  0
  3  5  1  0
  4  6  1  0
  5  7  2  0
  6  8  2  0
  7  8  1  0
  8  9  1  0
  9 10  1  0
 10 11  2  0
 10 12  1  0
 12 13  1  0
 12 14  1  0
 14 15  2  0
 14 16  1  0
 15 17  1  0
 16 18  2  0
 17 19  2  0
 18 19  1  0
M  END
>  <ref_url>  (803) 
https://fakepage.com

>  <submitter_name>  (803) 
Steph Wills

>  <submitter_email>  (803) 
stephanie.wills@dtc.ox.ac.uk

>  <submitter_institution>  (803) 
University of Oxford

>  <generation_date>  (803) 
2020-06-04

>  <method>  (803) 
Fragment network

>  <ref_mols>  (803) 
x0183_0B,x0212_0B

>  <ref_pdb>  (803) 
references/x0183-0B-x0212-0B-427767.holo_minimised_nolig.pdb

>  <original SMILES>  (803) 
COc1ccc(NC(=O)N(C)c2ccccc2)cc1

>  <synthon>  (803) 
[Xe]c1ccccc1

>  <original_name>  (803) 
x0183-0B-x0212-0B-427767

>  <comRMSD_score>  (803) 
0.9588184196732772

>  <IF_score>  (803) 
0.55

>  <SuCOS_score>  (803) 
0.3639748950175334

>  <compound_ID>  (803) 
REAL:Z104586632, MOLPORT:002-089-900

$$$$

     RDKit          3D

 22 23  0  0  0  0  0  0  0  0999 V2000
   -7.3590    3.9970  -79.9300 C   0  0  0  0  0  0  0  0  0  0  0  0
   -7.8960    2.9170  -79.0050 C   0  0  0  0  0  0  0  0  0  0  0  0
   -8.5480    1.8310  -79.8000 C   0  0  0  0  0  0  0  0  0  0  0  0
   -8.1020    1.7020  -81.1050 C   0  0  0  0  0  0  0  0  0  0  0  0
   -9.5570    0.9680  -79.3040 C   0  0  0  0  0  0  0  0  0  0  0  0
   -8.6060    0.7310  -81.9180 C   0  0  0  0  0  0  0  0  0  0  0  0
  -10.0530   -0.0200  -80.1540 C   0  0  0  0  0  0  0  0  0  0  0  0
  -10.0060    1.1560  -78.0070 O   0  0  0  0  0  0  0  0  0  0  0  0
   -9.5780   -0.1390  -81.4480 C   0  0  0  0  0  0  0  0  0  0  0  0
  -11.4510    1.2380  -77.7860 C   0  0  0  0  0  0  0  0  0  0  0  0
  -11.9210    2.7100  -77.8130 C   0  0  0  0  0  0  0  0  0  0  0  0
  -13.4240    2.9470  -77.5900 C   0  0  0  0  0  0  0  0  0  0  0  0
  -14.2590    2.0570  -77.7570 O   0  0  0  0  0  0  0  0  0  0  0  0
  -13.8790    4.2190  -77.1920 N   0  0  0  0  0  0  0  0  0  0  0  0
  -13.7990    4.8120  -75.8430 C   0  0  0  0  0  0  0  0  0  0  0  0
  -12.7530    4.0600  -75.0940 C   0  0  0  0  0  0  0  0  0  0  0  0
  -11.5300    3.9540  -75.9590 C   0  0  0  0  0  0  0  0  0  0  0  0
  -10.4580    3.1460  -75.5840 C   0  0  0  0  0  0  0  0  0  0  0  0
  -11.4700    4.6780  -77.1690 C   0  0  0  0  0  0  0  0  0  0  0  0
   -9.3350    3.0540  -76.4000 C   0  0  0  0  0  0  0  0  0  0  0  0
  -10.3480    4.5770  -77.9810 C   0  0  0  0  0  0  0  0  0  0  0  0
   -9.2900    3.7710  -77.5940 C   0  0  0  0  0  0  0  0  0  0  0  0
  1  2  1  0
  2  3  1  0
  3  4  2  0
  3  5  1  0
  4  6  1  0
  5  7  2  0
  5  8  1  0
  6  9  2  0
  7  9  1  0
  8 10  1  0
 10 11  1  0
 11 12  1  0
 12 13  2  0
 12 14  1  0
 14 15  1  0
 15 16  1  0
 16 17  1  0
 17 18  2  0
 17 19  1  0
 18 20  1  0
 19 21  2  0
 20 22  2  0
 21 22  1  0
M  END
>  <ref_url>  (804) 
https://fakepage.com

>  <submitter_name>  (804) 
Steph Wills

>  <submitter_email>  (804) 
stephanie.wills@dtc.ox.ac.uk

>  <submitter_institution>  (804) 
University of Oxford

>  <generation_date>  (804) 
2020-06-04

>  <method>  (804) 
Fragment network

>  <ref_mols>  (804) 
x0183_0B,x0212_0B

>  <ref_pdb>  (804) 
references/x0183-0B-x0212-0B-428406.holo_minimised_nolig.pdb

>  <original SMILES>  (804) 
CCc1ccccc1OCCC(=O)NCCc1ccccc1

>  <synthon>  (804) 
[Xe]c1ccccc1

>  <original_name>  (804) 
x0183-0B-x0212-0B-428406

>  <comRMSD_score>  (804) 
0.911662606633251

>  <IF_score>  (804) 
0.55

>  <SuCOS_score>  (804) 
0.4388486061303301

>  <compound_ID>  (804) 
REAL:Z2065950529

$$$$

     RDKit          3D

 21 23  0  0  0  0  0  0  0  0999 V2000
   -8.6240    4.0290  -78.8680 O   0  0  0  0  0  0  0  0  0  0  0  0
   -8.1100    3.1290  -78.2280 C   0  0  0  0  0  0  0  0  0  0  0  0
   -8.7980    2.4690  -77.2160 C   0  0  0  0  0  0  0  0  0  0  0  0
   -6.8100    2.6000  -78.3810 N   0  0  0  0  0  0  0  0  0  0  0  0
   -9.9820    3.2200  -76.7860 C   0  0  0  0  0  0  0  0  0  0  0  0
   -6.5590    1.9840  -79.5700 C   0  0  0  0  0  0  0  0  0  0  0  0
  -10.5360    4.3280  -77.4230 C   0  0  0  0  0  0  0  0  0  0  0  0
  -10.5970    2.6870  -75.5320 C   0  0  0  0  0  0  0  0  0  0  0  0
   -7.6250    1.3170  -80.1790 C   0  0  0  0  0  0  0  0  0  0  0  0
  -11.7210    4.9560  -76.8270 C   0  0  0  0  0  0  0  0  0  0  0  0
  -11.6910    3.3220  -75.0380 C   0  0  0  0  0  0  0  0  0  0  0  0
   -8.1190    0.1260  -79.6500 C   0  0  0  0  0  0  0  0  0  0  0  0
   -8.1960    1.8570  -81.3330 C   0  0  0  0  0  0  0  0  0  0  0  0
  -12.2630    4.4430  -75.6460 C   0  0  0  0  0  0  0  0  0  0  0  0
   -9.1840   -0.5250  -80.2830 C   0  0  0  0  0  0  0  0  0  0  0  0
   -9.2520    1.2000  -81.9570 C   0  0  0  0  0  0  0  0  0  0  0  0
  -13.3610    5.0580  -75.0810 C   0  0  0  0  0  0  0  0  0  0  0  0
   -9.7450    0.0130  -81.4310 C   0  0  0  0  0  0  0  0  0  0  0  0
  -13.2150    5.3470  -73.7290 C   0  0  0  0  0  0  0  0  0  0  0  0
  -13.5560    6.4850  -75.5720 C   0  0  0  0  0  0  0  0  0  0  0  0
  -13.1520    6.7270  -74.2240 C   0  0  0  0  0  0  0  0  0  0  0  0
  1  2  2  0
  2  3  1  0
  2  4  1  0
  3  5  1  0
  4  6  1  0
  5  7  2  0
  5  8  1  0
  6  9  1  0
  7 10  1  0
  8 11  2  0
  9 12  2  0
  9 13  1  0
 10 14  2  0
 11 14  1  0
 12 15  1  0
 13 16  2  0
 14 17  1  0
 15 18  2  0
 16 18  1  0
 17 19  1  0
 17 20  1  0
 19 21  1  0
 20 21  1  0
M  END
>  <ref_url>  (805) 
https://fakepage.com

>  <submitter_name>  (805) 
Steph Wills

>  <submitter_email>  (805) 
stephanie.wills@dtc.ox.ac.uk

>  <submitter_institution>  (805) 
University of Oxford

>  <generation_date>  (805) 
2020-06-04

>  <method>  (805) 
Fragment network

>  <ref_mols>  (805) 
x0183_0B,x0212_0B

>  <ref_pdb>  (805) 
references/x0183-0B-x0212-0B-429519.holo_minimised_nolig.pdb

>  <original SMILES>  (805) 
O=C(Cc1ccc(C2CCC2)cc1)NCc1ccccc1

>  <synthon>  (805) 
[Xe]c1ccccc1

>  <original_name>  (805) 
x0183-0B-x0212-0B-429519

>  <comRMSD_score>  (805) 
0.9093657741036384

>  <IF_score>  (805) 
0.5

>  <SuCOS_score>  (805) 
0.5008817839907096

>  <compound_ID>  (805) 
REAL:PV-001792022035

$$$$

     RDKit          3D

 18 19  0  0  0  0  0  0  0  0999 V2000
  -13.2900    5.8480  -75.1960 C   0  0  0  0  0  0  0  0  0  0  0  0
  -13.3260    4.4290  -75.7380 C   0  0  0  0  0  0  0  0  0  0  0  0
  -11.9660    3.9160  -76.1250 C   0  0  0  0  0  0  0  0  0  0  0  0
  -11.4550    2.9460  -75.2950 C   0  0  0  0  0  0  0  0  0  0  0  0
  -11.2100    4.3470  -77.2450 C   0  0  0  0  0  0  0  0  0  0  0  0
  -10.2300    2.3950  -75.5270 C   0  0  0  0  0  0  0  0  0  0  0  0
   -9.9300    3.7740  -77.4830 C   0  0  0  0  0  0  0  0  0  0  0  0
   -9.4580    2.7800  -76.5820 C   0  0  0  0  0  0  0  0  0  0  0  0
   -8.1860    2.0090  -76.5460 C   0  0  0  0  0  0  0  0  0  0  0  0
   -7.1850    2.1610  -77.3140 N   0  0  0  0  0  0  0  0  0  0  0  0
   -7.3830    3.1060  -78.2340 N   0  0  0  0  0  0  0  0  0  0  0  0
   -6.9120    2.7810  -79.5580 C   0  0  0  0  0  0  0  0  0  0  0  0
   -7.7560    1.7130  -80.1830 C   0  0  0  0  0  0  0  0  0  0  0  0
   -8.0270    0.4830  -79.5560 C   0  0  0  0  0  0  0  0  0  0  0  0
   -8.2860    1.9580  -81.4310 C   0  0  0  0  0  0  0  0  0  0  0  0
   -8.8240   -0.4750  -80.1880 C   0  0  0  0  0  0  0  0  0  0  0  0
   -9.0680    1.0120  -82.0540 C   0  0  0  0  0  0  0  0  0  0  0  0
   -9.3450   -0.2080  -81.4460 C   0  0  0  0  0  0  0  0  0  0  0  0
  1  2  1  0
  2  3  1  0
  3  4  2  0
  3  5  1  0
  4  6  1  0
  5  7  2  0
  6  8  2  0
  7  8  1  0
  8  9  1  0
  9 10  2  3
 10 11  1  0
 11 12  1  0
 12 13  1  0
 13 14  2  0
 13 15  1  0
 14 16  1  0
 15 17  2  0
 16 18  2  0
 17 18  1  0
M  END
>  <ref_url>  (806) 
https://fakepage.com

>  <submitter_name>  (806) 
Steph Wills

>  <submitter_email>  (806) 
stephanie.wills@dtc.ox.ac.uk

>  <submitter_institution>  (806) 
University of Oxford

>  <generation_date>  (806) 
2020-06-04

>  <method>  (806) 
Fragment network

>  <ref_mols>  (806) 
x0183_0B,x0212_0B

>  <ref_pdb>  (806) 
references/x0183-0B-x0212-0B-430380.holo_minimised_nolig.pdb

>  <original SMILES>  (806) 
CCc1ccc(C=NNCc2ccccc2)cc1

>  <synthon>  (806) 
[Xe]c1ccccc1

>  <original_name>  (806) 
x0183-0B-x0212-0B-430380

>  <comRMSD_score>  (806) 
0.9772420171073278

>  <IF_score>  (806) 
0.55

>  <SuCOS_score>  (806) 
0.4778316315560964

>  <compound_ID>  (806) 
CHEMSPACE-BB:CSMB00103751674

$$$$

     RDKit          3D

 24 25  0  0  0  0  0  0  0  0999 V2000
  -12.5170    7.4230  -76.0430 C   0  0  0  0  0  0  0  0  0  0  0  0
  -13.2440    6.5010  -75.1410 N   0  0  0  0  0  0  0  0  0  0  0  0
  -12.7510    6.4940  -73.7400 C   0  0  0  0  0  0  0  0  0  0  0  0
  -13.8300    5.0550  -75.8340 S   0  0  0  0  0  0  0  0  0  0  0  0
  -14.5100    5.4180  -77.0550 O   0  0  0  0  0  0  0  0  0  0  0  0
  -14.4990    4.2510  -74.8360 O   0  0  0  0  0  0  0  0  0  0  0  0
  -12.4360    4.1210  -76.3250 C   0  0  0  0  0  0  0  0  0  0  0  0
  -11.9380    3.2490  -75.3750 C   0  0  0  0  0  0  0  0  0  0  0  0
  -11.8840    4.2350  -77.6020 C   0  0  0  0  0  0  0  0  0  0  0  0
  -10.8870    2.4460  -75.6950 C   0  0  0  0  0  0  0  0  0  0  0  0
  -10.8130    3.4070  -77.9150 C   0  0  0  0  0  0  0  0  0  0  0  0
  -10.3410    2.5080  -76.9430 C   0  0  0  0  0  0  0  0  0  0  0  0
   -9.3410    1.6960  -77.2420 O   0  0  0  0  0  0  0  0  0  0  0  0
   -8.2110    2.2350  -76.6830 C   0  0  0  0  0  0  0  0  0  0  0  0
   -7.8630    3.2270  -77.7260 C   0  0  0  0  0  0  0  0  0  0  0  0
   -8.6240    4.1340  -78.0410 O   0  0  0  0  0  0  0  0  0  0  0  0
   -6.6700    2.9570  -78.2840 N   0  0  0  0  0  0  0  0  0  0  0  0
   -6.5710    2.7080  -79.6900 C   0  0  0  0  0  0  0  0  0  0  0  0
   -7.5450    1.6770  -80.2230 C   0  0  0  0  0  0  0  0  0  0  0  0
   -7.8210    0.4510  -79.5780 C   0  0  0  0  0  0  0  0  0  0  0  0
   -8.1950    1.9510  -81.4210 C   0  0  0  0  0  0  0  0  0  0  0  0
   -8.7200   -0.4630  -80.1410 C   0  0  0  0  0  0  0  0  0  0  0  0
   -9.0800    1.0440  -81.9740 C   0  0  0  0  0  0  0  0  0  0  0  0
   -9.3480   -0.1670  -81.3450 C   0  0  0  0  0  0  0  0  0  0  0  0
  1  2  1  0
  2  3  1  0
  4  2  1  0
  4  5  2  0
  4  6  2  0
  4  7  1  0
  7  8  2  0
  7  9  1  0
  8 10  1  0
  9 11  2  0
 10 12  2  0
 11 12  1  0
 12 13  1  0
 13 14  1  0
 14 15  1  0
 15 16  2  0
 15 17  1  0
 17 18  1  0
 18 19  1  0
 19 20  2  0
 19 21  1  0
 20 22  1  0
 21 23  2  0
 22 24  2  0
 23 24  1  0
M  END
>  <ref_url>  (807) 
https://fakepage.com

>  <submitter_name>  (807) 
Steph Wills

>  <submitter_email>  (807) 
stephanie.wills@dtc.ox.ac.uk

>  <submitter_institution>  (807) 
University of Oxford

>  <generation_date>  (807) 
2020-06-04

>  <method>  (807) 
Fragment network

>  <ref_mols>  (807) 
x0183_0B,x0212_0B

>  <ref_pdb>  (807) 
references/x0183-0B-x0212-0B-430609.holo_minimised_nolig.pdb

>  <original SMILES>  (807) 
CN(C)S(=O)(=O)c1ccc(OCC(=O)NCc2ccccc2)cc1

>  <synthon>  (807) 
[Xe]c1ccccc1

>  <original_name>  (807) 
x0183-0B-x0212-0B-430609

>  <comRMSD_score>  (807) 
0.976408175880316

>  <IF_score>  (807) 
0.525

>  <SuCOS_score>  (807) 
0.452265281584771

>  <compound_ID>  (807) 
MOLPORT:008-386-123

$$$$

     RDKit          3D

 20 21  0  0  0  0  0  0  0  0999 V2000
  -12.8640    6.2650  -73.7540 C   0  0  0  0  0  0  0  0  0  0  0  0
  -13.5880    6.0330  -75.1100 C   0  0  0  0  0  0  0  0  0  0  0  0
  -13.6250    4.5670  -75.5920 C   0  0  0  0  0  0  0  0  0  0  0  0
  -12.2650    4.1940  -76.1210 C   0  0  0  0  0  0  0  0  0  0  0  0
  -11.8350    4.7070  -77.3490 C   0  0  0  0  0  0  0  0  0  0  0  0
  -11.4530    3.3370  -75.3730 C   0  0  0  0  0  0  0  0  0  0  0  0
  -10.5850    4.3630  -77.8340 C   0  0  0  0  0  0  0  0  0  0  0  0
  -10.2120    2.9930  -75.8560 C   0  0  0  0  0  0  0  0  0  0  0  0
   -9.8050    3.5080  -77.0640 C   0  0  0  0  0  0  0  0  0  0  0  0
   -8.5180    3.1580  -77.5670 N   0  0  0  0  0  0  0  0  0  0  0  0
   -8.2550    3.6970  -78.8770 C   0  0  0  0  0  0  0  0  0  0  0  0
   -9.0390    4.2350  -79.6440 O   0  0  0  0  0  0  0  0  0  0  0  0
   -6.8330    3.5040  -79.2170 C   0  0  0  0  0  0  0  0  0  0  0  0
   -6.4340    2.0440  -79.3600 C   0  0  0  0  0  0  0  0  0  0  0  0
   -7.5130    1.2740  -80.1120 C   0  0  0  0  0  0  0  0  0  0  0  0
   -8.0130   -0.0600  -79.5800 C   0  0  0  0  0  0  0  0  0  0  0  0
   -8.0680    1.7660  -81.3080 C   0  0  0  0  0  0  0  0  0  0  0  0
   -9.0590   -0.7590  -80.3730 C   0  0  0  0  0  0  0  0  0  0  0  0
   -9.0530    1.0410  -82.0000 C   0  0  0  0  0  0  0  0  0  0  0  0
   -9.5400   -0.1950  -81.5460 C   0  0  0  0  0  0  0  0  0  0  0  0
  1  2  1  0
  2  3  1  0
  3  4  1  0
  4  5  2  0
  4  6  1  0
  5  7  1  0
  6  8  2  0
  7  9  2  0
  8  9  1  0
  9 10  1  0
 10 11  1  0
 11 12  2  0
 11 13  1  0
 13 14  1  0
 14 15  1  0
 15 16  2  0
 15 17  1  0
 16 18  1  0
 17 19  2  0
 18 20  2  0
 19 20  1  0
M  END
>  <ref_url>  (808) 
https://fakepage.com

>  <submitter_name>  (808) 
Steph Wills

>  <submitter_email>  (808) 
stephanie.wills@dtc.ox.ac.uk

>  <submitter_institution>  (808) 
University of Oxford

>  <generation_date>  (808) 
2020-06-04

>  <method>  (808) 
Fragment network

>  <ref_mols>  (808) 
x0183_0B,x0212_0B

>  <ref_pdb>  (808) 
references/x0183-0B-x0212-0B-432703.holo_minimised_nolig.pdb

>  <original SMILES>  (808) 
CCCc1ccc(NC(=O)CCc2ccccc2)cc1

>  <synthon>  (808) 
[Xe]c1ccccc1

>  <original_name>  (808) 
x0183-0B-x0212-0B-432703

>  <comRMSD_score>  (808) 
0.752215443921536

>  <IF_score>  (808) 
0.55

>  <SuCOS_score>  (808) 
0.5222357884750297

>  <compound_ID>  (808) 
REAL:Z28806796

$$$$

     RDKit          3D

 24 25  0  0  0  0  0  0  0  0999 V2000
  -12.8130    6.2480  -73.7550 C   0  0  0  0  0  0  0  0  0  0  0  0
  -13.4130    5.7710  -74.9820 C   0  0  0  0  0  0  0  0  0  0  0  0
  -14.1390    6.4940  -75.6570 O   0  0  0  0  0  0  0  0  0  0  0  0
  -13.0540    4.3850  -75.2960 N   0  0  0  0  0  0  0  0  0  0  0  0
  -11.9620    4.1040  -76.0650 C   0  0  0  0  0  0  0  0  0  0  0  0
  -11.9530    4.6850  -77.3360 C   0  0  0  0  0  0  0  0  0  0  0  0
  -10.9000    3.2850  -75.6220 C   0  0  0  0  0  0  0  0  0  0  0  0
  -10.7980    4.4210  -78.2130 C   0  0  0  0  0  0  0  0  0  0  0  0
   -9.8030    3.0430  -76.4650 C   0  0  0  0  0  0  0  0  0  0  0  0
   -9.7710    3.6140  -77.7480 C   0  0  0  0  0  0  0  0  0  0  0  0
   -8.7980    2.3780  -76.2420 O   0  0  0  0  0  0  0  0  0  0  0  0
   -7.6870    3.2660  -76.2970 C   0  0  0  0  0  0  0  0  0  0  0  0
   -6.4220    2.6850  -76.8560 C   0  0  0  0  0  0  0  0  0  0  0  0
   -6.2250    3.5200  -77.9570 N   0  0  0  0  0  0  0  0  0  0  0  0
   -5.2910    3.1000  -78.8740 C   0  0  0  0  0  0  0  0  0  0  0  0
   -4.1010    3.4130  -78.9160 O   0  0  0  0  0  0  0  0  0  0  0  0
   -5.9400    2.3100  -79.6630 C   0  0  0  0  0  0  0  0  0  0  0  0
   -7.3170    1.9870  -79.3730 C   0  0  0  0  0  0  0  0  0  0  0  0
   -8.0450    1.1760  -80.1680 C   0  0  0  0  0  0  0  0  0  0  0  0
   -8.3920    1.6280  -81.4280 C   0  0  0  0  0  0  0  0  0  0  0  0
   -8.4410   -0.0830  -79.7310 C   0  0  0  0  0  0  0  0  0  0  0  0
   -9.1370    0.8120  -82.2520 C   0  0  0  0  0  0  0  0  0  0  0  0
   -9.1800   -0.8830  -80.5540 C   0  0  0  0  0  0  0  0  0  0  0  0
   -9.5390   -0.4580  -81.8170 C   0  0  0  0  0  0  0  0  0  0  0  0
  1  2  1  0
  2  3  2  0
  2  4  1  0
  4  5  1  0
  5  6  2  0
  5  7  1  0
  6  8  1  0
  7  9  2  0
  8 10  2  0
  9 10  1  0
  9 11  1  0
 11 12  1  0
 12 13  1  0
 13 14  1  0
 14 15  1  0
 15 16  2  0
 15 17  1  0
 17 18  2  3
 18 19  1  0
 19 20  2  0
 19 21  1  0
 20 22  1  0
 21 23  2  0
 22 24  2  0
 23 24  1  0
M  END
>  <ref_url>  (809) 
https://fakepage.com

>  <submitter_name>  (809) 
Steph Wills

>  <submitter_email>  (809) 
stephanie.wills@dtc.ox.ac.uk

>  <submitter_institution>  (809) 
University of Oxford

>  <generation_date>  (809) 
2020-06-04

>  <method>  (809) 
Fragment network

>  <ref_mols>  (809) 
x0183_0B,x0212_0B

>  <ref_pdb>  (809) 
references/x0183-0B-x0212-0B-432802.holo_minimised_nolig.pdb

>  <original SMILES>  (809) 
CC(=O)Nc1cccc(OCCNC(=O)C=Cc2ccccc2)c1

>  <synthon>  (809) 
[Xe]c1ccccc1

>  <original_name>  (809) 
x0183-0B-x0212-0B-432802

>  <comRMSD_score>  (809) 
0.6706909096568217

>  <IF_score>  (809) 
0.65

>  <SuCOS_score>  (809) 
0.4616842193817898

>  <compound_ID>  (809) 
MOLPORT:020-161-282

$$$$

     RDKit          3D

 22 23  0  0  0  0  0  0  0  0999 V2000
  -13.9690    5.9590  -72.7190 C   0  0  0  0  0  0  0  0  0  0  0  0
  -13.3020    6.4980  -73.9660 C   0  0  0  0  0  0  0  0  0  0  0  0
  -11.8120    6.3040  -73.7440 C   0  0  0  0  0  0  0  0  0  0  0  0
  -13.7830    5.7720  -75.1290 O   0  0  0  0  0  0  0  0  0  0  0  0
  -13.4040    4.4640  -75.2960 C   0  0  0  0  0  0  0  0  0  0  0  0
  -12.2450    4.2340  -76.0170 C   0  0  0  0  0  0  0  0  0  0  0  0
  -12.0830    4.8090  -77.2720 C   0  0  0  0  0  0  0  0  0  0  0  0
  -11.2260    3.4350  -75.5100 C   0  0  0  0  0  0  0  0  0  0  0  0
  -10.9590    4.6300  -78.0330 C   0  0  0  0  0  0  0  0  0  0  0  0
  -10.0770    3.2410  -76.2610 C   0  0  0  0  0  0  0  0  0  0  0  0
   -9.9460    3.8400  -77.5180 C   0  0  0  0  0  0  0  0  0  0  0  0
   -8.7760    3.6020  -78.1750 N   0  0  0  0  0  0  0  0  0  0  0  0
   -7.7010    3.0620  -77.3760 C   0  0  0  0  0  0  0  0  0  0  0  0
   -7.6400    3.4100  -76.0680 O   0  0  0  0  0  0  0  0  0  0  0  0
   -6.8010    2.2320  -78.0160 N   0  0  0  0  0  0  0  0  0  0  0  0
   -6.5920    2.2570  -79.3640 C   0  0  0  0  0  0  0  0  0  0  0  0
   -7.6120    1.3980  -80.1040 C   0  0  0  0  0  0  0  0  0  0  0  0
   -8.0460    0.0590  -79.5040 C   0  0  0  0  0  0  0  0  0  0  0  0
   -8.1440    1.8270  -81.3250 C   0  0  0  0  0  0  0  0  0  0  0  0
   -9.0440   -0.7060  -80.3210 C   0  0  0  0  0  0  0  0  0  0  0  0
   -9.0650    1.0430  -82.0110 C   0  0  0  0  0  0  0  0  0  0  0  0
   -9.5040   -0.1890  -81.5270 C   0  0  0  0  0  0  0  0  0  0  0  0
  1  2  1  0
  2  3  1  0
  2  4  1  0
  4  5  1  0
  5  6  1  0
  6  7  2  0
  6  8  1  0
  7  9  1  0
  8 10  2  0
  9 11  2  0
 10 11  1  0
 11 12  1  0
 12 13  1  0
 13 14  2  0
 13 15  1  0
 15 16  1  0
 16 17  1  0
 17 18  2  0
 17 19  1  0
 18 20  1  0
 19 21  2  0
 20 22  2  0
 21 22  1  0
M  END
>  <ref_url>  (810) 
https://fakepage.com

>  <submitter_name>  (810) 
Steph Wills

>  <submitter_email>  (810) 
stephanie.wills@dtc.ox.ac.uk

>  <submitter_institution>  (810) 
University of Oxford

>  <generation_date>  (810) 
2020-06-04

>  <method>  (810) 
Fragment network

>  <ref_mols>  (810) 
x0183_0B,x0212_0B

>  <ref_pdb>  (810) 
references/x0183-0B-x0212-0B-434157.holo_minimised_nolig.pdb

>  <original SMILES>  (810) 
CC(C)OCc1ccc(NC(=O)NCc2ccccc2)cc1

>  <synthon>  (810) 
[Xe]c1ccccc1

>  <original_name>  (810) 
x0183-0B-x0212-0B-434157

>  <comRMSD_score>  (810) 
0.5756948458650243

>  <IF_score>  (810) 
0.55

>  <SuCOS_score>  (810) 
0.5246730775626286

>  <compound_ID>  (810) 
REAL:Z819787024

$$$$

     RDKit          3D

 28 30  0  0  0  0  0  0  0  0999 V2000
   -4.4480    1.9980  -74.8080 C   0  0  0  0  0  0  0  0  0  0  0  0
   -5.2370    2.8990  -75.7040 C   0  0  0  0  0  0  0  0  0  0  0  0
   -5.7430    4.1000  -75.3280 C   0  0  0  0  0  0  0  0  0  0  0  0
   -4.2710    3.2640  -76.8580 C   0  0  0  0  0  0  0  0  0  0  0  0
   -6.2440    2.3930  -76.1660 O   0  0  0  0  0  0  0  0  0  0  0  0
   -6.2240    1.7330  -77.3350 C   0  0  0  0  0  0  0  0  0  0  0  0
   -5.6770    0.6540  -77.5530 O   0  0  0  0  0  0  0  0  0  0  0  0
   -6.9240    2.4560  -78.3080 N   0  0  0  0  0  0  0  0  0  0  0  0
   -6.6690    2.4090  -79.6480 C   0  0  0  0  0  0  0  0  0  0  0  0
   -8.0560    3.2340  -77.9370 C   0  0  0  0  0  0  0  0  0  0  0  0
   -7.5300    1.5090  -80.2440 C   0  0  0  0  0  0  0  0  0  0  0  0
   -9.0970    2.3680  -77.7210 C   0  0  2  0  0  0  0  0  0  0  0  0
   -7.7560    0.2450  -79.6610 C   0  0  0  0  0  0  0  0  0  0  0  0
   -8.1840    1.8600  -81.4420 C   0  0  0  0  0  0  0  0  0  0  0  0
   -9.5900    1.9510  -78.7490 O   0  0  0  0  0  0  0  0  0  0  0  0
  -10.0710    3.0180  -77.0690 C   0  0  0  0  0  0  0  0  0  0  0  0
   -8.7100   -0.7280  -80.3530 C   0  0  0  0  0  0  0  0  0  0  0  0
   -9.0480    0.9810  -82.0730 C   0  0  0  0  0  0  0  0  0  0  0  0
  -10.4120    2.5830  -75.7270 C   0  0  0  0  0  0  0  0  0  0  0  0
  -10.7560    4.0960  -77.6450 C   0  0  0  0  0  0  0  0  0  0  0  0
   -9.3730   -0.2920  -81.6360 C   0  0  0  0  0  0  0  0  0  0  0  0
  -11.3900    3.2360  -75.0520 C   0  0  0  0  0  0  0  0  0  0  0  0
  -11.7520    4.7550  -76.9480 C   0  0  0  0  0  0  0  0  0  0  0  0
  -12.0560    4.3140  -75.6460 C   0  0  0  0  0  0  0  0  0  0  0  0
  -13.0080    4.8750  -74.8320 C   0  0  0  0  0  0  0  0  0  0  0  0
  -12.3870    5.4780  -73.7090 C   0  0  0  0  0  0  0  0  0  0  0  0
  -13.7700    6.1070  -75.2950 C   0  0  0  0  0  0  0  0  0  0  0  0
  -13.3910    6.4050  -73.9680 C   0  0  0  0  0  0  0  0  0  0  0  0
  1  2  1  0
  2  3  1  0
  2  4  1  0
  2  5  1  0
  5  6  1  0
  6  7  2  0
  6  8  1  0
  8  9  1  0
  8 10  1  0
  9 11  1  0
 10 12  1  0
 11 13  2  0
 11 14  1  0
 12 15  1  6
 12 16  1  0
 13 17  1  0
 14 18  2  0
 16 19  2  0
 16 20  1  0
 17 21  2  0
 18 21  1  0
 19 22  1  0
 20 23  2  0
 22 24  2  0
 23 24  1  0
 24 25  1  0
 25 26  1  0
 25 27  1  0
 26 28  1  0
 27 28  1  0
M  END
>  <ref_url>  (811) 
https://fakepage.com

>  <submitter_name>  (811) 
Steph Wills

>  <submitter_email>  (811) 
stephanie.wills@dtc.ox.ac.uk

>  <submitter_institution>  (811) 
University of Oxford

>  <generation_date>  (811) 
2020-06-04

>  <method>  (811) 
Fragment network

>  <ref_mols>  (811) 
x0183_0B,x0212_0B

>  <ref_pdb>  (811) 
references/x0183-0B-x0212-0B-437343.holo_minimised_nolig.pdb

>  <original SMILES>  (811) 
CC(C)(C)OC(=O)N(Cc1ccccc1)CC(O)c1ccc(C2CCC2)cc1

>  <synthon>  (811) 
[Xe]c1ccccc1

>  <original_name>  (811) 
x0183-0B-x0212-0B-437343

>  <comRMSD_score>  (811) 
0.9403535781033906

>  <IF_score>  (811) 
0.55

>  <SuCOS_score>  (811) 
0.4913447371322069

>  <compound_ID>  (811) 
CHEMSPACE-BB:CSMB00022401908

$$$$

     RDKit          3D

 27 28  0  0  0  0  0  0  0  0999 V2000
   -6.6680    2.5280  -78.8530 C   0  0  0  0  0  0  0  0  0  0  0  0
   -7.6810    1.6940  -79.5700 C   0  0  0  0  0  0  0  0  0  0  0  0
   -8.1510    1.9500  -80.9270 C   0  0  0  0  0  0  0  0  0  0  0  0
   -8.1830    0.6250  -78.8610 C   0  0  0  0  0  0  0  0  0  0  0  0
   -9.1010    1.1040  -81.4510 C   0  0  0  0  0  0  0  0  0  0  0  0
   -9.1480   -0.2020  -79.4310 C   0  0  0  0  0  0  0  0  0  0  0  0
   -9.6410    0.0030  -80.7220 C   0  0  0  0  0  0  0  0  0  0  0  0
  -10.5090   -0.7610  -81.1490 O   0  0  0  0  0  0  0  0  0  0  0  0
  -11.1900   -1.6410  -80.2200 C   0  0  0  0  0  0  0  0  0  0  0  0
  -12.3390   -1.1790  -79.5240 C   0  0  0  0  0  0  0  0  0  0  0  0
  -12.2760   -0.0560  -78.9850 O   0  0  0  0  0  0  0  0  0  0  0  0
  -13.4690    0.4350  -78.3210 C   0  0  0  0  0  0  0  0  0  0  0  0
  -14.3020   -0.6330  -77.8650 O   0  0  0  0  0  0  0  0  0  0  0  0
  -13.8380    1.9240  -78.1190 C   0  0  2  0  0  0  0  0  0  0  0  0
  -14.1540    2.2000  -76.7860 N   0  0  0  0  0  0  0  0  0  0  0  0
  -14.9620    2.4380  -79.0110 C   0  0  0  0  0  0  0  0  0  0  0  0
  -14.0500    3.5490  -76.2000 C   0  0  0  0  0  0  0  0  0  0  0  0
  -16.0740    2.4320  -78.1580 C   0  0  0  0  0  0  0  0  0  0  0  0
  -14.6730    3.9040  -79.3840 C   0  0  0  0  0  0  0  0  0  0  0  0
  -15.0010    4.3210  -76.3000 O   0  0  0  0  0  0  0  0  0  0  0  0
  -12.8790    3.8880  -75.5510 C   0  0  0  0  0  0  0  0  0  0  0  0
  -11.7020    3.8520  -76.2970 C   0  0  0  0  0  0  0  0  0  0  0  0
  -11.6150    4.4720  -77.5410 C   0  0  0  0  0  0  0  0  0  0  0  0
  -10.5580    3.1770  -75.8140 C   0  0  0  0  0  0  0  0  0  0  0  0
  -10.4650    4.4520  -78.3230 C   0  0  0  0  0  0  0  0  0  0  0  0
   -9.3820    3.1420  -76.5820 C   0  0  0  0  0  0  0  0  0  0  0  0
   -9.3660    3.7820  -77.8230 C   0  0  0  0  0  0  0  0  0  0  0  0
  1  2  1  0
  2  3  2  0
  2  4  1  0
  3  5  1  0
  4  6  2  0
  5  7  2  0
  6  7  1  0
  7  8  1  0
  8  9  1  0
  9 10  1  0
 10 11  1  0
 11 12  1  0
 12 13  2  0
 12 14  1  0
 14 15  1  1
 14 16  1  0
 15 17  1  0
 16 18  1  0
 16 19  1  0
 17 20  2  0
 17 21  1  0
 21 22  1  0
 22 23  2  0
 22 24  1  0
 23 25  1  0
 24 26  2  0
 25 27  2  0
 26 27  1  0
M  END
>  <ref_url>  (812) 
https://fakepage.com

>  <submitter_name>  (812) 
Steph Wills

>  <submitter_email>  (812) 
stephanie.wills@dtc.ox.ac.uk

>  <submitter_institution>  (812) 
University of Oxford

>  <generation_date>  (812) 
2020-06-04

>  <method>  (812) 
Fragment network

>  <ref_mols>  (812) 
x0183_0B,x0212_0B

>  <ref_pdb>  (812) 
references/x0183-0B-x0212-0B-438018.holo_minimised_nolig.pdb

>  <original SMILES>  (812) 
Cc1ccc(OCCOC(=O)C(NC(=O)Cc2ccccc2)C(C)C)cc1

>  <synthon>  (812) 
[Xe]c1ccccc1

>  <original_name>  (812) 
x0183-0B-x0212-0B-438018

>  <comRMSD_score>  (812) 
0.8872123661270149

>  <IF_score>  (812) 
0.55

>  <SuCOS_score>  (812) 
0.456479125249827

>  <compound_ID>  (812) 
MOLPORT:004-163-768

$$$$

     RDKit          3D

 25 26  0  0  0  0  0  0  0  0999 V2000
  -13.4330    4.9710  -72.1840 C   0  0  0  0  0  0  0  0  0  0  0  0
  -14.1420    5.9430  -73.0950 C   0  0  0  0  0  0  0  0  0  0  0  0
  -13.1110    6.6030  -73.9950 C   0  0  0  0  0  0  0  0  0  0  0  0
  -13.3340    6.3010  -75.3980 N   0  0  0  0  0  0  0  0  0  0  0  0
  -13.6370    4.7340  -75.9170 S   0  0  0  0  0  0  0  0  0  0  0  0
  -14.4720    4.7930  -77.0940 O   0  0  0  0  0  0  0  0  0  0  0  0
  -14.0170    3.9060  -74.8010 O   0  0  0  0  0  0  0  0  0  0  0  0
  -12.0280    4.2200  -76.4290 C   0  0  0  0  0  0  0  0  0  0  0  0
  -11.2800    3.4130  -75.5910 C   0  0  0  0  0  0  0  0  0  0  0  0
  -11.4950    4.6090  -77.6680 C   0  0  0  0  0  0  0  0  0  0  0  0
  -10.0320    2.9890  -75.9530 C   0  0  0  0  0  0  0  0  0  0  0  0
  -10.2120    4.1740  -78.0430 C   0  0  0  0  0  0  0  0  0  0  0  0
   -9.4940    3.3560  -77.1590 C   0  0  0  0  0  0  0  0  0  0  0  0
   -8.2510    2.8770  -77.4140 N   0  0  0  0  0  0  0  0  0  0  0  0
   -7.7960    1.6390  -76.8230 C   0  0  0  0  0  0  0  0  0  0  0  0
   -8.5660    0.7200  -76.0120 O   0  0  0  0  0  0  0  0  0  0  0  0
   -6.4720    1.4320  -77.1520 N   0  0  0  0  0  0  0  0  0  0  0  0
   -5.8880    1.7800  -78.3820 C   0  0  0  0  0  0  0  0  0  0  0  0
   -6.8250    2.5810  -79.3000 C   0  0  0  0  0  0  0  0  0  0  0  0
   -7.7200    1.5890  -80.0300 C   0  0  0  0  0  0  0  0  0  0  0  0
   -8.2430    1.9880  -81.3890 C   0  0  0  0  0  0  0  0  0  0  0  0
   -8.0760    0.3320  -79.4950 C   0  0  0  0  0  0  0  0  0  0  0  0
   -9.1110    1.0060  -82.0820 C   0  0  0  0  0  0  0  0  0  0  0  0
   -8.9080   -0.5520  -80.2090 C   0  0  0  0  0  0  0  0  0  0  0  0
   -9.3970   -0.2050  -81.4610 C   0  0  0  0  0  0  0  0  0  0  0  0
  1  2  1  0
  2  3  1  0
  3  4  1  0
  5  4  1  0
  5  6  2  0
  5  7  2  0
  5  8  1  0
  8  9  2  0
  8 10  1  0
  9 11  1  0
 10 12  2  0
 11 13  2  0
 12 13  1  0
 13 14  1  0
 14 15  1  0
 15 16  2  0
 15 17  1  0
 17 18  1  0
 18 19  1  0
 19 20  1  0
 20 21  2  0
 20 22  1  0
 21 23  1  0
 22 24  2  0
 23 25  2  0
 24 25  1  0
M  END
>  <ref_url>  (813) 
https://fakepage.com

>  <submitter_name>  (813) 
Steph Wills

>  <submitter_email>  (813) 
stephanie.wills@dtc.ox.ac.uk

>  <submitter_institution>  (813) 
University of Oxford

>  <generation_date>  (813) 
2020-06-04

>  <method>  (813) 
Fragment network

>  <ref_mols>  (813) 
x0183_0B,x0212_0B

>  <ref_pdb>  (813) 
references/x0183-0B-x0212-0B-438502.holo_minimised_nolig.pdb

>  <original SMILES>  (813) 
CCCNS(=O)(=O)c1ccc(NC(=O)NCCc2ccccc2)cc1

>  <synthon>  (813) 
[Xe]c1ccccc1

>  <original_name>  (813) 
x0183-0B-x0212-0B-438502

>  <comRMSD_score>  (813) 
0.6938691572677131

>  <IF_score>  (813) 
0.675

>  <SuCOS_score>  (813) 
0.5296188555410812

>  <compound_ID>  (813) 
REAL:Z1278271343

$$$$

     RDKit          3D

 26 27  0  0  0  0  0  0  0  0999 V2000
  -12.3470    9.6980  -74.5190 C   0  0  0  0  0  0  0  0  0  0  0  0
  -12.4130    8.8540  -73.3690 O   0  0  0  0  0  0  0  0  0  0  0  0
  -13.6940    8.3830  -73.1160 C   0  0  0  0  0  0  0  0  0  0  0  0
  -13.7850    7.0320  -73.1430 C   0  0  0  0  0  0  0  0  0  0  0  0
  -12.9700    6.2240  -74.0340 C   0  0  0  0  0  0  0  0  0  0  0  0
  -13.2060    4.8760  -74.2600 N   0  0  0  0  0  0  0  0  0  0  0  0
  -13.4820    4.2980  -75.8280 S   0  0  0  0  0  0  0  0  0  0  0  0
  -14.0420    5.3800  -76.5980 O   0  0  0  0  0  0  0  0  0  0  0  0
  -14.1280    3.0140  -75.7430 O   0  0  0  0  0  0  0  0  0  0  0  0
  -11.8140    4.0690  -76.3480 C   0  0  0  0  0  0  0  0  0  0  0  0
  -10.8240    3.3940  -75.6370 C   0  0  0  0  0  0  0  0  0  0  0  0
  -11.4300    4.6210  -77.5770 C   0  0  0  0  0  0  0  0  0  0  0  0
   -9.5090    3.2900  -76.0810 C   0  0  0  0  0  0  0  0  0  0  0  0
  -10.1140    4.5240  -78.0360 C   0  0  0  0  0  0  0  0  0  0  0  0
   -9.1230    3.8710  -77.2730 C   0  0  0  0  0  0  0  0  0  0  0  0
   -7.7700    3.8090  -77.6280 N   0  0  0  0  0  0  0  0  0  0  0  0
   -6.7760    2.9420  -77.1260 C   0  0  0  0  0  0  0  0  0  0  0  0
   -5.8260    3.1060  -76.1790 O   0  0  0  0  0  0  0  0  0  0  0  0
   -6.8020    1.6130  -77.7890 C   0  0  0  0  0  0  0  0  0  0  0  0
   -7.6760    1.8490  -78.9850 C   0  0  0  0  0  0  0  0  0  0  0  0
   -8.1770    1.0850  -79.9670 C   0  0  0  0  0  0  0  0  0  0  0  0
   -8.3490    1.6010  -81.2520 C   0  0  0  0  0  0  0  0  0  0  0  0
   -8.5350   -0.2130  -79.6450 C   0  0  0  0  0  0  0  0  0  0  0  0
   -8.8970    0.7830  -82.2200 C   0  0  0  0  0  0  0  0  0  0  0  0
   -9.0810   -1.0290  -80.6040 C   0  0  0  0  0  0  0  0  0  0  0  0
   -9.2560   -0.5180  -81.8780 C   0  0  0  0  0  0  0  0  0  0  0  0
  1  2  1  0
  2  3  1  0
  3  4  1  0
  4  5  1  0
  5  6  1  0
  7  6  1  0
  7  8  2  0
  7  9  2  0
  7 10  1  0
 10 11  2  0
 10 12  1  0
 11 13  1  0
 12 14  2  0
 13 15  2  0
 14 15  1  0
 15 16  1  0
 16 17  1  0
 17 18  2  0
 17 19  1  0
 19 20  2  3
 20 21  1  0
 21 22  2  0
 21 23  1  0
 22 24  1  0
 23 25  2  0
 24 26  2  0
 25 26  1  0
M  END
>  <ref_url>  (814) 
https://fakepage.com

>  <submitter_name>  (814) 
Steph Wills

>  <submitter_email>  (814) 
stephanie.wills@dtc.ox.ac.uk

>  <submitter_institution>  (814) 
University of Oxford

>  <generation_date>  (814) 
2020-06-04

>  <method>  (814) 
Fragment network

>  <ref_mols>  (814) 
x0183_0B,x0212_0B

>  <ref_pdb>  (814) 
references/x0183-0B-x0212-0B-438688.holo_minimised_nolig.pdb

>  <original SMILES>  (814) 
COCCCNS(=O)(=O)c1ccc(NC(=O)C=Cc2ccccc2)cc1

>  <synthon>  (814) 
[Xe]c1ccccc1

>  <original_name>  (814) 
x0183-0B-x0212-0B-438688

>  <comRMSD_score>  (814) 
0.8669310066956711

>  <IF_score>  (814) 
0.675

>  <SuCOS_score>  (814) 
0.508889375376867

>  <compound_ID>  (814) 
MOLPORT:002-786-446

$$$$

     RDKit          3D

 23 24  0  0  0  0  0  0  0  0999 V2000
  -12.8180    6.2710  -73.7510 C   0  0  0  0  0  0  0  0  0  0  0  0
  -13.1890    6.0070  -75.0570 N   0  0  0  0  0  0  0  0  0  0  0  0
  -13.0090    7.0540  -76.0450 C   0  0  0  0  0  0  0  0  0  0  0  0
  -13.3720    4.4490  -75.6510 S   0  0  0  0  0  0  0  0  0  0  0  0
  -13.4910    3.4830  -74.5850 O   0  0  0  0  0  0  0  0  0  0  0  0
  -14.3870    4.4940  -76.6830 O   0  0  0  0  0  0  0  0  0  0  0  0
  -11.8350    4.2270  -76.5140 C   0  0  0  0  0  0  0  0  0  0  0  0
  -11.7410    4.6510  -77.8340 C   0  0  0  0  0  0  0  0  0  0  0  0
  -10.6870    3.6460  -75.9370 C   0  0  0  0  0  0  0  0  0  0  0  0
  -10.6000    4.5320  -78.5950 C   0  0  0  0  0  0  0  0  0  0  0  0
   -9.5250    3.5390  -76.7350 C   0  0  0  0  0  0  0  0  0  0  0  0
   -9.4740    3.9750  -78.0570 C   0  0  0  0  0  0  0  0  0  0  0  0
   -8.2840    2.9790  -76.2810 N   0  0  0  0  0  0  0  0  0  0  0  0
   -7.0530    3.5260  -76.8880 C   0  0  0  0  0  0  0  0  0  0  0  0
   -6.1960    4.2370  -76.3720 O   0  0  0  0  0  0  0  0  0  0  0  0
   -7.0280    3.0750  -78.1950 C   0  0  0  0  0  0  0  0  0  0  0  0
   -8.0250    1.9960  -78.5430 C   0  0  0  0  0  0  0  0  0  0  0  0
   -8.3310    1.2780  -79.8130 C   0  0  0  0  0  0  0  0  0  0  0  0
   -8.3060    1.9440  -81.1720 C   0  0  0  0  0  0  0  0  0  0  0  0
   -8.6640   -0.0560  -79.6630 C   0  0  0  0  0  0  0  0  0  0  0  0
   -8.6810    1.0190  -82.2900 C   0  0  0  0  0  0  0  0  0  0  0  0
   -8.9970   -0.8440  -80.7410 C   0  0  0  0  0  0  0  0  0  0  0  0
   -9.0050   -0.3190  -82.0160 C   0  0  0  0  0  0  0  0  0  0  0  0
  1  2  1  0
  2  3  1  0
  4  2  1  0
  4  5  2  0
  4  6  2  0
  4  7  1  0
  7  8  2  0
  7  9  1  0
  8 10  1  0
  9 11  2  0
 10 12  2  0
 11 12  1  0
 11 13  1  0
 13 14  1  0
 14 15  2  0
 14 16  1  0
 16 17  2  3
 17 18  1  0
 18 19  2  0
 18 20  1  0
 19 21  1  0
 20 22  2  0
 21 23  2  0
 22 23  1  0
M  END
>  <ref_url>  (815) 
https://fakepage.com

>  <submitter_name>  (815) 
Steph Wills

>  <submitter_email>  (815) 
stephanie.wills@dtc.ox.ac.uk

>  <submitter_institution>  (815) 
University of Oxford

>  <generation_date>  (815) 
2020-06-04

>  <method>  (815) 
Fragment network

>  <ref_mols>  (815) 
x0183_0B,x0212_0B

>  <ref_pdb>  (815) 
references/x0183-0B-x0212-0B-439477.holo_minimised_nolig.pdb

>  <original SMILES>  (815) 
CN(C)S(=O)(=O)c1cccc(NC(=O)C=Cc2ccccc2)c1

>  <synthon>  (815) 
[Xe]c1ccccc1

>  <original_name>  (815) 
x0183-0B-x0212-0B-439477

>  <comRMSD_score>  (815) 
0.7354221765610393

>  <IF_score>  (815) 
0.65

>  <SuCOS_score>  (815) 
0.4698535685223423

>  <compound_ID>  (815) 
MOLPORT:044-240-004

$$$$

     RDKit          3D

 19 20  0  0  0  0  0  0  0  0999 V2000
   -9.4120   -2.6480  -82.3390 C   0  0  0  0  0  0  0  0  0  0  0  0
  -10.0620   -1.3870  -82.3320 O   0  0  0  0  0  0  0  0  0  0  0  0
   -9.4140   -0.3700  -81.7020 C   0  0  0  0  0  0  0  0  0  0  0  0
   -9.1380   -0.6440  -80.3660 C   0  0  0  0  0  0  0  0  0  0  0  0
   -9.0260    0.8600  -82.2510 C   0  0  0  0  0  0  0  0  0  0  0  0
   -8.4880    0.2890  -79.5820 C   0  0  0  0  0  0  0  0  0  0  0  0
   -8.3720    1.8070  -81.4680 C   0  0  0  0  0  0  0  0  0  0  0  0
   -8.1150    1.5050  -80.1460 C   0  0  0  0  0  0  0  0  0  0  0  0
   -7.4750    2.4480  -79.3710 O   0  0  0  0  0  0  0  0  0  0  0  0
   -7.7070    2.2360  -78.0300 C   0  0  0  0  0  0  0  0  0  0  0  0
   -7.3570    1.2060  -77.4600 O   0  0  0  0  0  0  0  0  0  0  0  0
   -8.3570    3.2680  -77.3620 N   0  0  0  0  0  0  0  0  0  0  0  0
   -7.9590    3.2370  -76.0080 C   0  0  0  0  0  0  0  0  0  0  0  0
   -9.7350    3.5500  -77.2280 C   0  0  0  0  0  0  0  0  0  0  0  0
  -10.5260    4.3420  -78.0620 C   0  0  0  0  0  0  0  0  0  0  0  0
  -10.3310    2.9680  -76.0980 C   0  0  0  0  0  0  0  0  0  0  0  0
  -11.8760    4.5450  -77.7490 C   0  0  0  0  0  0  0  0  0  0  0  0
  -11.6560    3.1630  -75.7880 C   0  0  0  0  0  0  0  0  0  0  0  0
  -12.4300    3.9540  -76.6080 C   0  0  0  0  0  0  0  0  0  0  0  0
  1  2  1  0
  2  3  1  0
  3  4  2  0
  3  5  1  0
  4  6  1  0
  5  7  2  0
  6  8  2  0
  7  8  1  0
  8  9  1  0
  9 10  1  0
 10 11  2  0
 10 12  1  0
 12 13  1  0
 12 14  1  0
 14 15  2  0
 14 16  1  0
 15 17  1  0
 16 18  2  0
 17 19  2  0
 18 19  1  0
M  END
>  <ref_url>  (816) 
https://fakepage.com

>  <submitter_name>  (816) 
Steph Wills

>  <submitter_email>  (816) 
stephanie.wills@dtc.ox.ac.uk

>  <submitter_institution>  (816) 
University of Oxford

>  <generation_date>  (816) 
2020-06-04

>  <method>  (816) 
Fragment network

>  <ref_mols>  (816) 
x0183_0B,x0212_0B

>  <ref_pdb>  (816) 
references/x0183-0B-x0212-0B-441262.holo_minimised_nolig.pdb

>  <original SMILES>  (816) 
COc1ccc(OC(=O)N(C)c2ccccc2)cc1

>  <synthon>  (816) 
[Xe]c1ccccc1

>  <original_name>  (816) 
x0183-0B-x0212-0B-441262

>  <comRMSD_score>  (816) 
0.8559362737738745

>  <IF_score>  (816) 
0.65

>  <SuCOS_score>  (816) 
0.3516874314978714

>  <compound_ID>  (816) 
MOLPORT:000-682-474

$$$$

     RDKit          3D

 22 23  0  0  0  0  0  0  0  0999 V2000
  -12.9200    6.3320  -73.7190 C   0  0  0  0  0  0  0  0  0  0  0  0
  -13.6990    5.9030  -74.8460 O   0  0  0  0  0  0  0  0  0  0  0  0
  -13.4880    4.6570  -75.3850 C   0  0  0  0  0  0  0  0  0  0  0  0
  -14.5150    3.6790  -75.4280 O   0  0  0  0  0  0  0  0  0  0  0  0
  -12.1760    4.2760  -75.9560 C   0  0  0  0  0  0  0  0  0  0  0  0
  -11.9650    4.8580  -77.2960 C   0  0  0  0  0  0  0  0  0  0  0  0
  -11.2330    3.4860  -75.3460 C   0  0  0  0  0  0  0  0  0  0  0  0
  -10.7640    4.5730  -77.9230 C   0  0  0  0  0  0  0  0  0  0  0  0
  -10.0660    3.2330  -76.0100 C   0  0  0  0  0  0  0  0  0  0  0  0
   -9.8330    3.7650  -77.2690 C   0  0  0  0  0  0  0  0  0  0  0  0
   -8.6450    3.4850  -77.8790 N   0  0  0  0  0  0  0  0  0  0  0  0
   -7.8030    2.5290  -77.4290 C   0  0  0  0  0  0  0  0  0  0  0  0
   -7.9740    1.7750  -76.4820 O   0  0  0  0  0  0  0  0  0  0  0  0
   -6.6460    2.4220  -78.1680 N   0  0  0  0  0  0  0  0  0  0  0  0
   -6.5820    2.4550  -79.5290 C   0  0  0  0  0  0  0  0  0  0  0  0
   -5.7160    3.2130  -80.2500 O   0  0  0  0  0  0  0  0  0  0  0  0
   -7.5930    1.5350  -80.2050 C   0  0  0  0  0  0  0  0  0  0  0  0
   -7.9740    0.1740  -79.5830 C   0  0  0  0  0  0  0  0  0  0  0  0
   -8.1840    1.9100  -81.4020 C   0  0  0  0  0  0  0  0  0  0  0  0
   -8.9820   -0.6510  -80.3550 C   0  0  0  0  0  0  0  0  0  0  0  0
   -9.0910    1.0810  -82.0230 C   0  0  0  0  0  0  0  0  0  0  0  0
   -9.4900   -0.1610  -81.5450 C   0  0  0  0  0  0  0  0  0  0  0  0
  1  2  1  0
  2  3  1  0
  3  4  2  0
  3  5  1  0
  5  6  2  0
  5  7  1  0
  6  8  1  0
  7  9  2  0
  8 10  2  0
  9 10  1  0
 10 11  1  0
 11 12  1  0
 12 13  2  0
 12 14  1  0
 14 15  1  0
 15 16  2  0
 15 17  1  0
 17 18  2  0
 17 19  1  0
 18 20  1  0
 19 21  2  0
 20 22  2  0
 21 22  1  0
M  END
>  <ref_url>  (817) 
https://fakepage.com

>  <submitter_name>  (817) 
Steph Wills

>  <submitter_email>  (817) 
stephanie.wills@dtc.ox.ac.uk

>  <submitter_institution>  (817) 
University of Oxford

>  <generation_date>  (817) 
2020-06-04

>  <method>  (817) 
Fragment network

>  <ref_mols>  (817) 
x0183_0B,x0212_0B

>  <ref_pdb>  (817) 
references/x0183-0B-x0212-0B-441704.holo_minimised_nolig.pdb

>  <original SMILES>  (817) 
COC(=O)c1ccc(NC(=O)NC(=O)c2ccccc2)cc1

>  <synthon>  (817) 
[Xe]c1ccccc1

>  <original_name>  (817) 
x0183-0B-x0212-0B-441704

>  <comRMSD_score>  (817) 
0.6039847618877401

>  <IF_score>  (817) 
0.55

>  <SuCOS_score>  (817) 
0.5058709548788876

>  <compound_ID>  (817) 
MOLPORT:002-127-302

$$$$

     RDKit          3D

 22 23  0  0  0  0  0  0  0  0999 V2000
  -12.9250    5.6830  -72.8680 C   0  0  0  0  0  0  0  0  0  0  0  0
  -12.9960    6.3620  -74.1500 C   0  0  0  0  0  0  0  0  0  0  0  0
  -13.5960    5.7530  -75.1860 C   0  0  0  0  0  0  0  0  0  0  0  0
  -13.3270    4.3440  -75.5010 C   0  0  0  0  0  0  0  0  0  0  0  0
  -12.1130    4.1480  -76.1370 C   0  0  0  0  0  0  0  0  0  0  0  0
  -11.1030    3.4220  -75.5160 C   0  0  0  0  0  0  0  0  0  0  0  0
  -11.8760    4.6880  -77.4120 C   0  0  0  0  0  0  0  0  0  0  0  0
   -9.8860    3.2480  -76.1440 C   0  0  0  0  0  0  0  0  0  0  0  0
  -10.6510    4.5090  -78.0420 C   0  0  0  0  0  0  0  0  0  0  0  0
   -9.6560    3.7920  -77.4020 C   0  0  0  0  0  0  0  0  0  0  0  0
   -8.3920    3.5620  -77.9090 N   0  0  0  0  0  0  0  0  0  0  0  0
   -7.2400    3.1870  -77.2620 C   0  0  0  0  0  0  0  0  0  0  0  0
   -6.4070    3.9120  -75.9990 S   0  0  0  0  0  0  0  0  0  0  0  0
   -6.8150    2.0230  -77.8740 N   0  0  0  0  0  0  0  0  0  0  0  0
   -6.6250    2.0630  -79.3120 C   0  0  0  0  0  0  0  0  0  0  0  0
   -5.6040    2.7130  -79.9240 O   0  0  0  0  0  0  0  0  0  0  0  0
   -7.6660    1.2920  -80.1080 C   0  0  0  0  0  0  0  0  0  0  0  0
   -8.1420    0.0750  -79.6420 C   0  0  0  0  0  0  0  0  0  0  0  0
   -8.1710    1.7700  -81.3180 C   0  0  0  0  0  0  0  0  0  0  0  0
   -9.0860   -0.6800  -80.3260 C   0  0  0  0  0  0  0  0  0  0  0  0
   -9.1160    1.0290  -82.0220 C   0  0  0  0  0  0  0  0  0  0  0  0
   -9.5730   -0.1960  -81.5250 C   0  0  0  0  0  0  0  0  0  0  0  0
  1  2  1  0
  2  3  1  0
  3  4  1  0
  4  5  1  0
  5  6  2  0
  5  7  1  0
  6  8  1  0
  7  9  2  0
  8 10  2  0
  9 10  1  0
 10 11  1  0
 11 12  1  0
 12 13  2  0
 12 14  1  0
 14 15  1  0
 15 16  2  0
 15 17  1  0
 17 18  2  0
 17 19  1  0
 18 20  1  0
 19 21  2  0
 20 22  2  0
 21 22  1  0
M  END
>  <ref_url>  (818) 
https://fakepage.com

>  <submitter_name>  (818) 
Steph Wills

>  <submitter_email>  (818) 
stephanie.wills@dtc.ox.ac.uk

>  <submitter_institution>  (818) 
University of Oxford

>  <generation_date>  (818) 
2020-06-04

>  <method>  (818) 
Fragment network

>  <ref_mols>  (818) 
x0183_0B,x0212_0B

>  <ref_pdb>  (818) 
references/x0183-0B-x0212-0B-442861.holo_minimised_nolig.pdb

>  <original SMILES>  (818) 
CCCCc1ccc(NC(=S)NC(=O)c2ccccc2)cc1

>  <synthon>  (818) 
[Xe]c1ccccc1

>  <original_name>  (818) 
x0183-0B-x0212-0B-442861

>  <comRMSD_score>  (818) 
0.596358331256685

>  <IF_score>  (818) 
0.55

>  <SuCOS_score>  (818) 
0.5766080722098179

>  <compound_ID>  (818) 
MOLPORT:002-119-810

$$$$

     RDKit          3D

 22 23  0  0  0  0  0  0  0  0999 V2000
  -13.7000    6.7970  -75.8330 C   0  0  0  0  0  0  0  0  0  0  0  0
  -13.5860    5.8530  -74.8270 N   0  0  0  0  0  0  0  0  0  0  0  0
  -12.8940    6.4360  -73.6560 C   0  0  0  0  0  0  0  0  0  0  0  0
  -13.3320    4.5970  -75.3980 C   0  0  0  0  0  0  0  0  0  0  0  0
  -14.1390    3.6650  -75.4420 O   0  0  0  0  0  0  0  0  0  0  0  0
  -12.0630    4.2970  -76.0120 C   0  0  0  0  0  0  0  0  0  0  0  0
  -11.2180    3.3560  -75.4470 C   0  0  0  0  0  0  0  0  0  0  0  0
  -11.7100    4.9770  -77.1700 C   0  0  0  0  0  0  0  0  0  0  0  0
  -10.0090    3.1040  -76.0460 C   0  0  0  0  0  0  0  0  0  0  0  0
  -10.4970    4.7160  -77.7720 C   0  0  0  0  0  0  0  0  0  0  0  0
   -9.6420    3.7760  -77.1990 C   0  0  0  0  0  0  0  0  0  0  0  0
   -8.4310    3.5380  -77.7960 N   0  0  0  0  0  0  0  0  0  0  0  0
   -7.6640    2.4790  -77.3940 C   0  0  0  0  0  0  0  0  0  0  0  0
   -7.9630    1.5720  -76.4060 O   0  0  0  0  0  0  0  0  0  0  0  0
   -6.5440    2.4030  -78.1030 N   0  0  0  0  0  0  0  0  0  0  0  0
   -6.6850    2.4760  -79.5450 C   0  0  0  0  0  0  0  0  0  0  0  0
   -7.7280    1.5220  -80.1350 C   0  0  0  0  0  0  0  0  0  0  0  0
   -8.3410    1.9530  -81.4350 C   0  0  0  0  0  0  0  0  0  0  0  0
   -8.1510    0.3040  -79.5770 C   0  0  0  0  0  0  0  0  0  0  0  0
   -9.2770    1.1690  -82.0400 C   0  0  0  0  0  0  0  0  0  0  0  0
   -9.1290   -0.4660  -80.2520 C   0  0  0  0  0  0  0  0  0  0  0  0
   -9.6850   -0.0370  -81.4710 C   0  0  0  0  0  0  0  0  0  0  0  0
  1  2  1  0
  2  3  1  0
  2  4  1  0
  4  5  2  0
  4  6  1  0
  6  7  2  0
  6  8  1  0
  7  9  1  0
  8 10  2  0
  9 11  2  0
 10 11  1  0
 11 12  1  0
 12 13  1  0
 13 14  2  0
 13 15  1  0
 15 16  1  0
 16 17  1  0
 17 18  2  0
 17 19  1  0
 18 20  1  0
 19 21  2  0
 20 22  2  0
 21 22  1  0
M  END
>  <ref_url>  (819) 
https://fakepage.com

>  <submitter_name>  (819) 
Steph Wills

>  <submitter_email>  (819) 
stephanie.wills@dtc.ox.ac.uk

>  <submitter_institution>  (819) 
University of Oxford

>  <generation_date>  (819) 
2020-06-04

>  <method>  (819) 
Fragment network

>  <ref_mols>  (819) 
x0183_0B,x0212_0B

>  <ref_pdb>  (819) 
references/x0183-0B-x0212-0B-443640.holo_minimised_nolig.pdb

>  <original SMILES>  (819) 
CN(C)C(=O)c1ccc(NC(=O)NCc2ccccc2)cc1

>  <synthon>  (819) 
[Xe]c1ccccc1

>  <original_name>  (819) 
x0183-0B-x0212-0B-443640

>  <comRMSD_score>  (819) 
0.5751091683807118

>  <IF_score>  (819) 
0.6666666666666666

>  <SuCOS_score>  (819) 
0.5108802334542786

>  <compound_ID>  (819) 
REAL:Z135008200

$$$$

     RDKit          3D

 22 23  0  0  0  0  0  0  0  0999 V2000
  -12.8310    6.2990  -73.8180 C   0  0  0  0  0  0  0  0  0  0  0  0
  -13.3740    5.8170  -75.0600 O   0  0  0  0  0  0  0  0  0  0  0  0
  -13.1100    4.5320  -75.5010 C   0  0  0  0  0  0  0  0  0  0  0  0
  -14.1520    3.5690  -75.5740 O   0  0  0  0  0  0  0  0  0  0  0  0
  -11.7430    4.0920  -75.9280 C   0  0  0  0  0  0  0  0  0  0  0  0
  -11.2520    4.7910  -77.1210 C   0  0  0  0  0  0  0  0  0  0  0  0
  -10.9600    3.1400  -75.3260 C   0  0  0  0  0  0  0  0  0  0  0  0
   -9.9810    4.4490  -77.5950 C   0  0  0  0  0  0  0  0  0  0  0  0
   -9.7160    2.8420  -75.8210 C   0  0  0  0  0  0  0  0  0  0  0  0
   -9.2040    3.4790  -76.9380 C   0  0  0  0  0  0  0  0  0  0  0  0
   -7.9160    3.1640  -77.4160 N   0  0  0  0  0  0  0  0  0  0  0  0
   -6.6630    3.7450  -77.1630 C   0  0  1  0  0  0  0  0  0  0  0  0
   -6.4550    4.1310  -75.8850 C   0  0  0  0  0  0  0  0  0  0  0  0
   -5.7040    2.5770  -77.3710 C   0  0  0  0  0  0  0  0  0  0  0  0
   -6.3870    1.6370  -78.1550 O   0  0  0  0  0  0  0  0  0  0  0  0
   -6.8020    2.0780  -79.3680 C   0  0  0  0  0  0  0  0  0  0  0  0
   -7.8720    1.3740  -80.1430 C   0  0  0  0  0  0  0  0  0  0  0  0
   -8.3510    1.8790  -81.3440 C   0  0  0  0  0  0  0  0  0  0  0  0
   -8.3890    0.1860  -79.6370 C   0  0  0  0  0  0  0  0  0  0  0  0
   -9.3350    1.1950  -82.0270 C   0  0  0  0  0  0  0  0  0  0  0  0
   -9.3740   -0.4860  -80.3280 C   0  0  0  0  0  0  0  0  0  0  0  0
   -9.8620    0.0040  -81.5260 C   0  0  0  0  0  0  0  0  0  0  0  0
  1  2  1  0
  2  3  1  0
  3  4  2  0
  3  5  1  0
  5  6  2  0
  5  7  1  0
  6  8  1  0
  7  9  2  0
  8 10  2  0
  9 10  1  0
 10 11  1  0
 11 12  1  0
 12 13  1  1
 12 14  1  0
 14 15  1  0
 15 16  1  0
 16 17  1  0
 17 18  2  0
 17 19  1  0
 18 20  1  0
 19 21  2  0
 20 22  2  0
 21 22  1  0
M  END
>  <ref_url>  (820) 
https://fakepage.com

>  <submitter_name>  (820) 
Steph Wills

>  <submitter_email>  (820) 
stephanie.wills@dtc.ox.ac.uk

>  <submitter_institution>  (820) 
University of Oxford

>  <generation_date>  (820) 
2020-06-04

>  <method>  (820) 
Fragment network

>  <ref_mols>  (820) 
x0183_0B,x0212_0B

>  <ref_pdb>  (820) 
references/x0183-0B-x0212-0B-449020.holo_minimised_nolig.pdb

>  <original SMILES>  (820) 
COC(=O)c1ccc(NC(C)COCc2ccccc2)cc1

>  <synthon>  (820) 
[Xe]c1ccccc1

>  <original_name>  (820) 
x0183-0B-x0212-0B-449020

>  <comRMSD_score>  (820) 
0.6762635087991458

>  <IF_score>  (820) 
0.6666666666666666

>  <SuCOS_score>  (820) 
0.4861869596757911

>  <compound_ID>  (820) 
CHEMSPACE-BB:CSMB00019036367

$$$$

     RDKit          3D

 22 23  0  0  0  0  0  0  0  0999 V2000
  -12.8460    6.2090  -73.7670 C   0  0  0  0  0  0  0  0  0  0  0  0
  -13.5880    5.8160  -74.9730 N   0  0  0  0  0  0  0  0  0  0  0  0
  -13.4700    4.4750  -75.5670 C   0  0  0  0  0  0  0  0  0  0  0  0
  -12.0850    4.1950  -76.1450 C   0  0  0  0  0  0  0  0  0  0  0  0
  -11.8450    4.8260  -77.4770 C   0  0  0  0  0  0  0  0  0  0  0  0
  -11.0760    3.4340  -75.5670 C   0  0  0  0  0  0  0  0  0  0  0  0
  -10.6490    4.6710  -78.1300 C   0  0  0  0  0  0  0  0  0  0  0  0
   -9.8580    3.2860  -76.2510 C   0  0  0  0  0  0  0  0  0  0  0  0
   -9.6520    3.9020  -77.5120 C   0  0  0  0  0  0  0  0  0  0  0  0
   -8.7990    2.5450  -75.7600 N   0  0  0  0  0  0  0  0  0  0  0  0
   -7.2570    2.6770  -76.4580 S   0  0  0  0  0  0  0  0  0  0  0  0
   -6.5760    1.4230  -76.2390 O   0  0  0  0  0  0  0  0  0  0  0  0
   -6.6740    3.9220  -76.0080 O   0  0  0  0  0  0  0  0  0  0  0  0
   -7.7020    2.7930  -78.0590 N   0  0  0  0  0  0  0  0  0  0  0  0
   -9.1220    2.6800  -78.2350 C   0  0  0  0  0  0  0  0  0  0  0  0
   -6.8280    2.2660  -79.0020 C   0  0  0  0  0  0  0  0  0  0  0  0
   -7.6760    1.3470  -79.8800 C   0  0  0  0  0  0  0  0  0  0  0  0
   -8.1250    1.9020  -81.2140 C   0  0  0  0  0  0  0  0  0  0  0  0
   -8.0620    0.0490  -79.5110 C   0  0  0  0  0  0  0  0  0  0  0  0
   -8.9700    1.0710  -82.1310 C   0  0  0  0  0  0  0  0  0  0  0  0
   -8.8520   -0.7190  -80.3710 C   0  0  0  0  0  0  0  0  0  0  0  0
   -9.3190   -0.3060  -81.6210 C   0  0  0  0  0  0  0  0  0  0  0  0
  1  2  1  0
  2  3  1  0
  3  4  1  0
  4  5  2  0
  4  6  1  0
  5  7  1  0
  6  8  2  0
  7  9  2  0
  8  9  1  0
  8 10  1  0
 11 10  1  0
 11 12  2  0
 11 13  2  0
 11 14  1  0
 14 15  1  0
 14 16  1  0
 16 17  1  0
 17 18  2  0
 17 19  1  0
 18 20  1  0
 19 21  2  0
 20 22  2  0
 21 22  1  0
M  END
>  <ref_url>  (821) 
https://fakepage.com

>  <submitter_name>  (821) 
Steph Wills

>  <submitter_email>  (821) 
stephanie.wills@dtc.ox.ac.uk

>  <submitter_institution>  (821) 
University of Oxford

>  <generation_date>  (821) 
2020-06-04

>  <method>  (821) 
Fragment network

>  <ref_mols>  (821) 
x0183_0B,x0212_0B

>  <ref_pdb>  (821) 
references/x0183-0B-x0212-0B-451679.holo_minimised_nolig.pdb

>  <original SMILES>  (821) 
CNCc1cccc(NS(=O)(=O)N(C)Cc2ccccc2)c1

>  <synthon>  (821) 
[Xe]c1ccccc1

>  <original_name>  (821) 
x0183-0B-x0212-0B-451679

>  <comRMSD_score>  (821) 
0.5386733016643067

>  <IF_score>  (821) 
0.65

>  <SuCOS_score>  (821) 
0.4826288430153465

>  <compound_ID>  (821) 
CHEMSPACE-BB:CSMB00011323841

$$$$

     RDKit          3D

 25 26  0  0  0  0  0  0  0  0999 V2000
  -12.9890    6.1330  -73.8790 C   0  0  0  0  0  0  0  0  0  0  0  0
  -14.1280    5.5850  -74.6910 C   0  0  0  0  0  0  0  0  0  0  0  0
  -15.2610    5.9990  -74.4870 O   0  0  0  0  0  0  0  0  0  0  0  0
  -13.7660    4.6190  -75.6260 N   0  0  0  0  0  0  0  0  0  0  0  0
  -12.4780    4.4110  -76.1210 C   0  0  0  0  0  0  0  0  0  0  0  0
  -12.0490    4.8970  -77.4450 C   0  0  0  0  0  0  0  0  0  0  0  0
  -11.5620    3.7230  -75.3310 C   0  0  0  0  0  0  0  0  0  0  0  0
  -10.7350    4.6690  -77.8570 C   0  0  0  0  0  0  0  0  0  0  0  0
  -10.2770    3.5160  -75.7640 C   0  0  0  0  0  0  0  0  0  0  0  0
   -9.8670    3.9890  -76.9980 C   0  0  0  0  0  0  0  0  0  0  0  0
   -8.5280    3.7400  -77.2770 N   0  0  0  0  0  0  0  0  0  0  0  0
   -7.6900    3.1780  -76.3210 C   0  0  0  0  0  0  0  0  0  0  0  0
   -6.5550    3.6720  -75.7310 O   0  0  0  0  0  0  0  0  0  0  0  0
   -8.2960    1.9090  -76.0620 N   0  0  0  0  0  0  0  0  0  0  0  0
   -8.9430    1.4770  -77.1340 C   0  0  0  0  0  0  0  0  0  0  0  0
   -8.5460    2.3690  -78.3270 C   0  0  0  0  0  0  0  0  0  0  0  0
   -9.4380    2.8940  -78.9910 O   0  0  0  0  0  0  0  0  0  0  0  0
   -7.1940    2.5350  -78.5500 N   0  0  0  0  0  0  0  0  0  0  0  0
   -6.5690    1.8780  -79.6110 C   0  0  0  0  0  0  0  0  0  0  0  0
   -7.5970    1.0540  -80.3310 C   0  0  0  0  0  0  0  0  0  0  0  0
   -8.2580    1.5590  -81.4220 C   0  0  0  0  0  0  0  0  0  0  0  0
   -7.9160   -0.2380  -79.8880 C   0  0  0  0  0  0  0  0  0  0  0  0
   -9.2190    0.8350  -82.0810 C   0  0  0  0  0  0  0  0  0  0  0  0
   -8.8880   -0.9910  -80.5420 C   0  0  0  0  0  0  0  0  0  0  0  0
   -9.5400   -0.4490  -81.6390 C   0  0  0  0  0  0  0  0  0  0  0  0
  1  2  1  0
  2  3  2  0
  2  4  1  0
  4  5  1  0
  5  6  2  0
  5  7  1  0
  6  8  1  0
  7  9  2  0
  8 10  2  0
  9 10  1  0
 10 11  1  0
 11 12  1  0
 12 13  2  0
 12 14  1  0
 14 15  1  0
 15 16  1  0
 16 17  2  0
 16 18  1  0
 18 19  1  0
 19 20  1  0
 20 21  2  0
 20 22  1  0
 21 23  1  0
 22 24  2  0
 23 25  2  0
 24 25  1  0
M  END
>  <ref_url>  (822) 
https://fakepage.com

>  <submitter_name>  (822) 
Steph Wills

>  <submitter_email>  (822) 
stephanie.wills@dtc.ox.ac.uk

>  <submitter_institution>  (822) 
University of Oxford

>  <generation_date>  (822) 
2020-06-04

>  <method>  (822) 
Fragment network

>  <ref_mols>  (822) 
x0183_0B,x0212_0B

>  <ref_pdb>  (822) 
references/x0183-0B-x0212-0B-452222.holo_minimised_nolig.pdb

>  <original SMILES>  (822) 
CC(=O)Nc1ccc(NC(=O)NCC(=O)NCc2ccccc2)cc1

>  <synthon>  (822) 
[Xe]c1ccccc1

>  <original_name>  (822) 
x0183-0B-x0212-0B-452222

>  <comRMSD_score>  (822) 
0.9794552340743066

>  <IF_score>  (822) 
0.55

>  <SuCOS_score>  (822) 
0.4482361938202157

>  <compound_ID>  (822) 
REAL:Z411709968

$$$$

     RDKit          3D

 27 28  0  0  0  0  0  0  0  0999 V2000
  -11.9040    7.3070  -73.9720 C   0  0  0  0  0  0  0  0  0  0  0  0
  -13.0190    6.3250  -73.7980 C   0  0  0  0  0  0  0  0  0  0  0  0
  -13.4490    6.0280  -72.6880 O   0  0  0  0  0  0  0  0  0  0  0  0
  -13.5530    5.7370  -74.9330 N   0  0  0  0  0  0  0  0  0  0  0  0
  -13.4790    4.0850  -75.1940 S   0  0  0  0  0  0  0  0  0  0  0  0
  -13.3440    3.4620  -73.8770 O   0  0  0  0  0  0  0  0  0  0  0  0
  -14.5830    3.7370  -76.0660 O   0  0  0  0  0  0  0  0  0  0  0  0
  -11.9620    3.8560  -76.0600 C   0  0  0  0  0  0  0  0  0  0  0  0
  -11.0340    3.0240  -75.4660 C   0  0  0  0  0  0  0  0  0  0  0  0
  -11.6830    4.4720  -77.3040 C   0  0  0  0  0  0  0  0  0  0  0  0
   -9.8390    2.7880  -76.0900 C   0  0  0  0  0  0  0  0  0  0  0  0
  -10.4580    4.2220  -77.9340 C   0  0  0  0  0  0  0  0  0  0  0  0
   -9.5490    3.3670  -77.3030 C   0  0  0  0  0  0  0  0  0  0  0  0
   -8.2950    2.9440  -77.7130 N   0  0  0  0  0  0  0  0  0  0  0  0
   -7.8630    1.6760  -77.3450 C   0  0  0  0  0  0  0  0  0  0  0  0
   -8.5080    0.7120  -76.9510 O   0  0  0  0  0  0  0  0  0  0  0  0
   -6.3420    1.4550  -77.4480 C   0  0  0  0  0  0  0  0  0  0  0  0
   -5.7140    0.8620  -76.3240 O   0  0  0  0  0  0  0  0  0  0  0  0
   -5.7630    1.8560  -78.6330 C   0  0  0  0  0  0  0  0  0  0  0  0
   -6.6030    2.3970  -79.5930 C   0  0  0  0  0  0  0  0  0  0  0  0
   -6.4980    3.5730  -79.9160 O   0  0  0  0  0  0  0  0  0  0  0  0
   -7.5540    1.5610  -80.1860 C   0  0  0  0  0  0  0  0  0  0  0  0
   -8.1360    1.9630  -81.3680 C   0  0  0  0  0  0  0  0  0  0  0  0
   -7.9130    0.3320  -79.6000 C   0  0  0  0  0  0  0  0  0  0  0  0
   -9.1120    1.1530  -82.0450 C   0  0  0  0  0  0  0  0  0  0  0  0
   -8.8570   -0.5220  -80.1860 C   0  0  0  0  0  0  0  0  0  0  0  0
   -9.4670   -0.1660  -81.3760 C   0  0  0  0  0  0  0  0  0  0  0  0
  1  2  1  0
  2  3  2  0
  2  4  1  0
  5  4  1  0
  5  6  2  0
  5  7  2  0
  5  8  1  0
  8  9  2  0
  8 10  1  0
  9 11  1  0
 10 12  2  0
 11 13  2  0
 12 13  1  0
 13 14  1  0
 14 15  1  0
 15 16  2  0
 15 17  1  0
 17 18  1  0
 17 19  2  3
 19 20  1  0
 20 21  2  0
 20 22  1  0
 22 23  2  0
 22 24  1  0
 23 25  1  0
 24 26  2  0
 25 27  2  0
 26 27  1  0
M  END
>  <ref_url>  (823) 
https://fakepage.com

>  <submitter_name>  (823) 
Steph Wills

>  <submitter_email>  (823) 
stephanie.wills@dtc.ox.ac.uk

>  <submitter_institution>  (823) 
University of Oxford

>  <generation_date>  (823) 
2020-06-04

>  <method>  (823) 
Fragment network

>  <ref_mols>  (823) 
x0183_0B,x0212_0B

>  <ref_pdb>  (823) 
references/x0183-0B-x0212-0B-452491.holo_minimised_nolig.pdb

>  <original SMILES>  (823) 
CC(=O)NS(=O)(=O)c1ccc(NC(=O)C(O)=CC(=O)c2ccccc2)cc1

>  <synthon>  (823) 
[Xe]c1ccccc1

>  <original_name>  (823) 
x0183-0B-x0212-0B-452491

>  <comRMSD_score>  (823) 
0.6629997586726546

>  <IF_score>  (823) 
0.55

>  <SuCOS_score>  (823) 
0.5485099456912685

>  <compound_ID>  (823) 
MOLPORT:046-598-557

$$$$

     RDKit          3D

 22 23  0  0  0  0  0  0  0  0999 V2000
  -12.7690    6.1230  -73.7560 C   0  0  0  0  0  0  0  0  0  0  0  0
  -13.3790    5.3650  -74.8620 N   0  0  0  0  0  0  0  0  0  0  0  0
  -12.8250    4.0050  -75.1480 C   0  0  0  0  0  0  0  0  0  0  0  0
  -11.8270    4.0910  -76.2760 C   0  0  0  0  0  0  0  0  0  0  0  0
  -12.4030    4.7300  -77.3450 C   0  0  0  0  0  0  0  0  0  0  0  0
  -10.4670    3.6460  -76.4240 C   0  0  0  0  0  0  0  0  0  0  0  0
  -11.7330    4.9460  -78.4960 C   0  0  0  0  0  0  0  0  0  0  0  0
   -9.8020    3.8960  -77.6170 C   0  0  0  0  0  0  0  0  0  0  0  0
   -9.6350    2.9460  -75.4990 N   0  0  0  0  0  0  0  0  0  0  0  0
  -10.4280    4.5400  -78.6480 C   0  0  0  0  0  0  0  0  0  0  0  0
   -8.0630    2.5770  -76.1310 S   0  0  0  0  0  0  0  0  0  0  0  0
   -7.8390    1.1640  -75.9380 O   0  0  0  0  0  0  0  0  0  0  0  0
   -7.1170    3.5740  -75.6870 O   0  0  0  0  0  0  0  0  0  0  0  0
   -8.2870    2.8070  -77.7940 N   0  0  0  0  0  0  0  0  0  0  0  0
   -9.5820    2.3050  -78.2580 C   0  0  0  0  0  0  0  0  0  0  0  0
   -7.2330    2.3310  -78.7390 C   0  0  0  0  0  0  0  0  0  0  0  0
   -7.9000    1.4580  -79.7810 C   0  0  0  0  0  0  0  0  0  0  0  0
   -8.1980    1.9300  -81.0770 C   0  0  0  0  0  0  0  0  0  0  0  0
   -8.2430    0.1440  -79.4410 C   0  0  0  0  0  0  0  0  0  0  0  0
   -8.8260    1.0890  -81.9910 C   0  0  0  0  0  0  0  0  0  0  0  0
   -8.8700   -0.6850  -80.3580 C   0  0  0  0  0  0  0  0  0  0  0  0
   -9.1610   -0.2130  -81.6250 C   0  0  0  0  0  0  0  0  0  0  0  0
  1  2  1  0
  2  3  1  0
  3  4  1  0
  4  5  2  0
  4  6  1  0
  5  7  1  0
  6  8  2  0
  6  9  1  0
  7 10  2  0
  8 10  1  0
 11  9  1  0
 11 12  2  0
 11 13  2  0
 11 14  1  0
 14 15  1  0
 14 16  1  0
 16 17  1  0
 17 18  2  0
 17 19  1  0
 18 20  1  0
 19 21  2  0
 20 22  2  0
 21 22  1  0
M  END
>  <ref_url>  (824) 
https://fakepage.com

>  <submitter_name>  (824) 
Steph Wills

>  <submitter_email>  (824) 
stephanie.wills@dtc.ox.ac.uk

>  <submitter_institution>  (824) 
University of Oxford

>  <generation_date>  (824) 
2020-06-04

>  <method>  (824) 
Fragment network

>  <ref_mols>  (824) 
x0183_0B,x0212_0B

>  <ref_pdb>  (824) 
references/x0183-0B-x0212-0B-453440.holo_minimised_nolig.pdb

>  <original SMILES>  (824) 
CNCc1ccccc1NS(=O)(=O)N(C)Cc1ccccc1

>  <synthon>  (824) 
[Xe]c1ccccc1

>  <original_name>  (824) 
x0183-0B-x0212-0B-453440

>  <comRMSD_score>  (824) 
0.9555916143067256

>  <IF_score>  (824) 
0.55

>  <SuCOS_score>  (824) 
0.4691322056442573

>  <compound_ID>  (824) 
CHEMSPACE-BB:CSMB00011323838

$$$$

     RDKit          3D

 22 23  0  0  0  0  0  0  0  0999 V2000
  -12.9420    6.4150  -73.6910 C   0  0  0  0  0  0  0  0  0  0  0  0
  -13.6370    5.9700  -74.7970 N   0  0  0  0  0  0  0  0  0  0  0  0
  -13.7120    4.3520  -75.1940 S   0  0  0  0  0  0  0  0  0  0  0  0
  -13.5620    3.5730  -73.9900 O   0  0  0  0  0  0  0  0  0  0  0  0
  -14.7880    4.0700  -76.1130 O   0  0  0  0  0  0  0  0  0  0  0  0
  -12.2260    4.1570  -76.0860 C   0  0  0  0  0  0  0  0  0  0  0  0
  -11.9480    4.7340  -77.4000 C   0  0  0  0  0  0  0  0  0  0  0  0
  -11.0110    3.2970  -75.5010 C   0  0  0  0  0  0  0  0  0  0  0  0
  -10.7380    4.5260  -78.0180 C   0  0  0  0  0  0  0  0  0  0  0  0
   -9.8580    3.1820  -76.2390 C   0  0  0  0  0  0  0  0  0  0  0  0
   -9.6830    3.7810  -77.4970 C   0  0  0  0  0  0  0  0  0  0  0  0
   -8.4670    3.5600  -78.0590 N   0  0  0  0  0  0  0  0  0  0  0  0
   -7.4000    3.1300  -77.3350 C   0  0  0  0  0  0  0  0  0  0  0  0
   -6.9880    3.5100  -76.2450 O   0  0  0  0  0  0  0  0  0  0  0  0
   -6.7600    2.1380  -78.0080 N   0  0  0  0  0  0  0  0  0  0  0  0
   -6.5930    2.3260  -79.4210 C   0  0  0  0  0  0  0  0  0  0  0  0
   -7.5870    1.4390  -80.1200 C   0  0  0  0  0  0  0  0  0  0  0  0
   -7.9480    0.2050  -79.5570 C   0  0  0  0  0  0  0  0  0  0  0  0
   -8.1650    1.8360  -81.3530 C   0  0  0  0  0  0  0  0  0  0  0  0
   -8.9350   -0.7130  -80.2390 C   0  0  0  0  0  0  0  0  0  0  0  0
   -9.0860    1.0330  -82.0440 C   0  0  0  0  0  0  0  0  0  0  0  0
   -9.4760   -0.2020  -81.5340 C   0  0  0  0  0  0  0  0  0  0  0  0
  1  2  1  0
  3  2  1  0
  3  4  2  0
  3  5  2  0
  3  6  1  0
  6  7  2  0
  6  8  1  0
  7  9  1  0
  8 10  2  0
  9 11  2  0
 10 11  1  0
 11 12  1  0
 12 13  1  0
 13 14  2  0
 13 15  1  0
 15 16  1  0
 16 17  1  0
 17 18  2  0
 17 19  1  0
 18 20  1  0
 19 21  2  0
 20 22  2  0
 21 22  1  0
M  END
>  <ref_url>  (825) 
https://fakepage.com

>  <submitter_name>  (825) 
Steph Wills

>  <submitter_email>  (825) 
stephanie.wills@dtc.ox.ac.uk

>  <submitter_institution>  (825) 
University of Oxford

>  <generation_date>  (825) 
2020-06-04

>  <method>  (825) 
Fragment network

>  <ref_mols>  (825) 
x0183_0B,x0212_0B

>  <ref_pdb>  (825) 
references/x0183-0B-x0212-0B-453499.holo_minimised_nolig.pdb

>  <original SMILES>  (825) 
CNS(=O)(=O)c1ccc(NC(=O)NCc2ccccc2)cc1

>  <synthon>  (825) 
[Xe]c1ccccc1

>  <original_name>  (825) 
x0183-0B-x0212-0B-453499

>  <comRMSD_score>  (825) 
0.5688440194978913

>  <IF_score>  (825) 
0.55

>  <SuCOS_score>  (825) 
0.515143924676008

>  <compound_ID>  (825) 
REAL:Z1230577113

$$$$

     RDKit          3D

 25 26  0  0  0  0  0  0  0  0999 V2000
  -11.4550    6.1190  -73.6130 C   0  0  0  0  0  0  0  0  0  0  0  0
  -12.3610    7.1410  -74.0940 C   0  0  0  0  0  0  0  0  0  0  0  0
  -13.6910    6.6000  -74.2420 C   0  0  2  0  0  0  0  0  0  0  0  0
  -14.0450    5.5800  -73.3620 C   0  0  0  0  0  0  0  0  0  0  0  0
  -13.8800    6.1050  -75.6230 N   0  0  0  0  0  0  0  0  0  0  0  0
  -13.8780    4.4820  -76.1150 S   0  0  0  0  0  0  0  0  0  0  0  0
  -14.5410    4.4530  -77.4000 O   0  0  0  0  0  0  0  0  0  0  0  0
  -14.4010    3.6910  -75.0360 O   0  0  0  0  0  0  0  0  0  0  0  0
  -12.1640    3.9860  -76.3670 C   0  0  0  0  0  0  0  0  0  0  0  0
  -11.7650    3.0420  -75.4420 C   0  0  0  0  0  0  0  0  0  0  0  0
  -11.2610    4.4250  -77.3540 C   0  0  0  0  0  0  0  0  0  0  0  0
  -10.5150    2.4760  -75.4100 C   0  0  0  0  0  0  0  0  0  0  0  0
   -9.9630    3.8560  -77.3410 C   0  0  0  0  0  0  0  0  0  0  0  0
   -9.5050    2.9040  -76.4410 C   0  0  0  0  0  0  0  0  0  0  0  0
   -8.9170    4.1050  -78.1640 N   0  0  0  0  0  0  0  0  0  0  0  0
   -7.6890    3.5260  -77.5260 C   0  0  0  0  0  0  0  0  0  0  0  0
   -7.0970    4.0050  -76.5670 O   0  0  0  0  0  0  0  0  0  0  0  0
   -7.1830    2.2840  -78.0700 N   0  0  0  0  0  0  0  0  0  0  0  0
   -7.0720    2.2980  -79.3400 C   0  0  0  0  0  0  0  0  0  0  0  0
   -7.8600    1.4690  -80.1030 C   0  0  0  0  0  0  0  0  0  0  0  0
   -8.2580    0.2350  -79.6010 C   0  0  0  0  0  0  0  0  0  0  0  0
   -8.2690    1.8450  -81.3690 C   0  0  0  0  0  0  0  0  0  0  0  0
   -9.0550   -0.6390  -80.3310 C   0  0  0  0  0  0  0  0  0  0  0  0
   -9.0640    0.9860  -82.1170 C   0  0  0  0  0  0  0  0  0  0  0  0
   -9.4600   -0.2560  -81.6010 C   0  0  0  0  0  0  0  0  0  0  0  0
  1  2  1  0
  2  3  1  0
  3  4  1  1
  3  5  1  0
  6  5  1  0
  6  7  2  0
  6  8  2  0
  6  9  1  0
  9 10  2  0
  9 11  1  0
 10 12  1  0
 11 13  2  0
 12 14  2  0
 13 14  1  0
 13 15  1  0
 15 16  1  0
 16 17  2  0
 16 18  1  0
 18 19  1  0
 19 20  1  0
 20 21  2  0
 20 22  1  0
 21 23  1  0
 22 24  2  0
 23 25  2  0
 24 25  1  0
M  END
>  <ref_url>  (826) 
https://fakepage.com

>  <submitter_name>  (826) 
Steph Wills

>  <submitter_email>  (826) 
stephanie.wills@dtc.ox.ac.uk

>  <submitter_institution>  (826) 
University of Oxford

>  <generation_date>  (826) 
2020-06-04

>  <method>  (826) 
Fragment network

>  <ref_mols>  (826) 
x0183_0B,x0212_0B

>  <ref_pdb>  (826) 
references/x0183-0B-x0212-0B-453838.holo_minimised_nolig.pdb

>  <original SMILES>  (826) 
CCC(C)NS(=O)(=O)c1cccc(NC(=O)NCc2ccccc2)c1

>  <synthon>  (826) 
[Xe]c1ccccc1

>  <original_name>  (826) 
x0183-0B-x0212-0B-453838

>  <comRMSD_score>  (826) 
0.9948239002922036

>  <IF_score>  (826) 
0.65

>  <SuCOS_score>  (826) 
0.5400078341466451

>  <compound_ID>  (826) 
REAL:Z1434163085

$$$$

     RDKit          3D

 26 27  0  0  0  0  0  0  0  0999 V2000
  -11.8060    6.2050  -73.5720 C   0  0  0  0  0  0  0  0  0  0  0  0
  -13.2470    6.3040  -73.7500 C   0  0  0  0  0  0  0  0  0  0  0  0
  -13.7210    5.5940  -74.9580 N   0  0  0  0  0  0  0  0  0  0  0  0
  -13.8980    6.4770  -76.1430 C   0  0  0  0  0  0  0  0  0  0  0  0
  -13.5410    3.9600  -75.2730 S   0  0  0  0  0  0  0  0  0  0  0  0
  -12.7220    7.2040  -76.3980 C   0  0  0  0  0  0  0  0  0  0  0  0
  -14.5240    3.5230  -76.2340 O   0  0  0  0  0  0  0  0  0  0  0  0
  -13.5090    3.3480  -73.9630 O   0  0  0  0  0  0  0  0  0  0  0  0
  -11.9140    3.8810  -76.0260 C   0  0  0  0  0  0  0  0  0  0  0  0
  -11.8000    4.5700  -77.2330 C   0  0  0  0  0  0  0  0  0  0  0  0
  -10.8420    3.1970  -75.4500 C   0  0  0  0  0  0  0  0  0  0  0  0
  -10.5970    4.6100  -77.8950 C   0  0  0  0  0  0  0  0  0  0  0  0
   -9.5940    3.2080  -76.0810 C   0  0  0  0  0  0  0  0  0  0  0  0
   -9.4350    3.9010  -77.2740 C   0  0  0  0  0  0  0  0  0  0  0  0
   -8.2420    4.0650  -78.0410 N   0  0  0  0  0  0  0  0  0  0  0  0
   -7.0130    3.5350  -77.7740 C   0  0  0  0  0  0  0  0  0  0  0  0
   -6.2810    3.6230  -76.7920 O   0  0  0  0  0  0  0  0  0  0  0  0
   -6.7380    2.8440  -78.8910 C   0  0  0  0  0  0  0  0  0  0  0  0
   -5.6370    3.0040  -79.7310 C   0  0  0  0  0  0  0  0  0  0  0  0
   -7.7860    2.0880  -78.9760 C   0  0  0  0  0  0  0  0  0  0  0  0
   -8.1600    1.2250  -79.9290 C   0  0  0  0  0  0  0  0  0  0  0  0
   -8.2750    1.7240  -81.3510 C   0  0  0  0  0  0  0  0  0  0  0  0
   -8.4440   -0.0750  -79.5530 C   0  0  0  0  0  0  0  0  0  0  0  0
   -8.7350    0.6550  -82.3000 C   0  0  0  0  0  0  0  0  0  0  0  0
   -8.8630   -0.9930  -80.4940 C   0  0  0  0  0  0  0  0  0  0  0  0
   -9.0050   -0.6340  -81.8330 C   0  0  0  0  0  0  0  0  0  0  0  0
  1  2  1  0
  2  3  1  0
  3  4  1  0
  5  3  1  0
  4  6  1  0
  5  7  2  0
  5  8  2  0
  5  9  1  0
  9 10  2  0
  9 11  1  0
 10 12  1  0
 11 13  2  0
 12 14  2  0
 13 14  1  0
 14 15  1  0
 15 16  1  0
 16 17  2  0
 16 18  1  0
 18 19  1  0
 18 20  2  3
 20 21  1  0
 21 22  2  0
 21 23  1  0
 22 24  1  0
 23 25  2  0
 24 26  2  0
 25 26  1  0
M  END
>  <ref_url>  (827) 
https://fakepage.com

>  <submitter_name>  (827) 
Steph Wills

>  <submitter_email>  (827) 
stephanie.wills@dtc.ox.ac.uk

>  <submitter_institution>  (827) 
University of Oxford

>  <generation_date>  (827) 
2020-06-04

>  <method>  (827) 
Fragment network

>  <ref_mols>  (827) 
x0183_0B,x0212_0B

>  <ref_pdb>  (827) 
references/x0183-0B-x0212-0B-454369.holo_minimised_nolig.pdb

>  <original SMILES>  (827) 
CCN(CC)S(=O)(=O)c1ccc(NC(=O)C(C)=Cc2ccccc2)cc1

>  <synthon>  (827) 
[Xe]c1ccccc1

>  <original_name>  (827) 
x0183-0B-x0212-0B-454369

>  <comRMSD_score>  (827) 
0.6572153376177389

>  <IF_score>  (827) 
0.45

>  <SuCOS_score>  (827) 
0.5082858634986589

>  <compound_ID>  (827) 
MOLPORT:001-581-627, MOLPORT:002-767-238

$$$$

     RDKit          3D

 30 31  0  0  0  0  0  0  0  0999 V2000
   -8.7750    3.9380  -79.0740 C   0  0  0  0  0  0  0  0  0  0  0  0
   -9.7990    3.9790  -78.0270 C   0  0  0  0  0  0  0  0  0  0  0  0
  -11.0660    4.5920  -78.4670 C   0  0  0  0  0  0  0  0  0  0  0  0
   -9.7370    3.5280  -76.7150 C   0  0  0  0  0  0  0  0  0  0  0  0
  -12.1560    4.7270  -77.6610 C   0  0  0  0  0  0  0  0  0  0  0  0
  -10.8290    3.6670  -75.9170 C   0  0  0  0  0  0  0  0  0  0  0  0
  -12.0470    4.2560  -76.3630 C   0  0  0  0  0  0  0  0  0  0  0  0
  -13.1200    4.3490  -75.4790 N   0  0  0  0  0  0  0  0  0  0  0  0
  -13.5370    5.6610  -75.0320 C   0  0  0  0  0  0  0  0  0  0  0  0
  -14.4090    6.3840  -75.5140 O   0  0  0  0  0  0  0  0  0  0  0  0
  -12.8170    6.0770  -73.9270 C   0  0  0  0  0  0  0  0  0  0  0  0
  -12.5550    4.7570  -72.6670 S   0  0  0  0  0  0  0  0  0  0  0  0
  -13.3610    3.1690  -73.2150 C   0  0  1  0  0  0  0  0  0  0  0  0
  -14.8070    3.4450  -73.6090 C   0  0  0  0  0  0  0  0  0  0  0  0
  -12.6300    2.4540  -74.3810 C   0  0  0  0  0  0  0  0  0  0  0  0
  -13.1980    2.1700  -75.4350 O   0  0  0  0  0  0  0  0  0  0  0  0
  -11.4350    2.1610  -74.1910 O   0  0  0  0  0  0  0  0  0  0  0  0
  -11.0340    0.8370  -74.6230 C   0  0  0  0  0  0  0  0  0  0  0  0
  -10.0580    0.5860  -75.6390 C   0  0  0  0  0  0  0  0  0  0  0  0
   -9.9760   -0.5480  -76.1050 O   0  0  0  0  0  0  0  0  0  0  0  0
   -9.3070    1.6140  -76.0100 N   0  0  0  0  0  0  0  0  0  0  0  0
   -8.2320    1.0520  -76.8640 C   0  0  0  0  0  0  0  0  0  0  0  0
   -7.6940   -0.0300  -76.6530 O   0  0  0  0  0  0  0  0  0  0  0  0
   -7.8640    1.9570  -78.0900 C   0  0  0  0  0  0  0  0  0  0  0  0
   -8.3020    1.2950  -79.4250 C   0  0  0  0  0  0  0  0  0  0  0  0
   -8.7560   -0.0120  -79.2960 C   0  0  0  0  0  0  0  0  0  0  0  0
   -8.2830    1.8980  -80.7180 C   0  0  0  0  0  0  0  0  0  0  0  0
   -9.1910   -0.7250  -80.3890 C   0  0  0  0  0  0  0  0  0  0  0  0
   -8.7290    1.1640  -81.8200 C   0  0  0  0  0  0  0  0  0  0  0  0
   -9.1790   -0.1420  -81.6290 C   0  0  0  0  0  0  0  0  0  0  0  0
  1  2  1  0
  2  3  2  0
  2  4  1  0
  3  5  1  0
  4  6  2  0
  5  7  2  0
  6  7  1  0
  7  8  1  0
  8  9  1  0
  9 10  2  0
  9 11  1  0
 11 12  1  0
 12 13  1  0
 13 14  1  6
 13 15  1  0
 15 16  2  0
 15 17  1  0
 17 18  1  0
 18 19  1  0
 19 20  2  0
 19 21  1  0
 21 22  1  0
 22 23  2  0
 22 24  1  0
 24 25  1  0
 25 26  2  0
 25 27  1  0
 26 28  1  0
 27 29  2  0
 28 30  2  0
 29 30  1  0
M  END
>  <ref_url>  (828) 
https://fakepage.com

>  <submitter_name>  (828) 
Steph Wills

>  <submitter_email>  (828) 
stephanie.wills@dtc.ox.ac.uk

>  <submitter_institution>  (828) 
University of Oxford

>  <generation_date>  (828) 
2020-06-04

>  <method>  (828) 
Fragment network

>  <ref_mols>  (828) 
x0183_0B,x0212_0B

>  <ref_pdb>  (828) 
references/x0183-0B-x0212-0B-455795.holo_minimised_nolig.pdb

>  <original SMILES>  (828) 
Cc1ccc(NC(=O)CSC(C)C(=O)OCC(=O)NC(=O)Cc2ccccc2)cc1

>  <synthon>  (828) 
[Xe]c1ccccc1

>  <original_name>  (828) 
x0183-0B-x0212-0B-455795

>  <comRMSD_score>  (828) 
0.7022830230359012

>  <IF_score>  (828) 
0.675

>  <SuCOS_score>  (828) 
0.4402486441902578

>  <compound_ID>  (828) 
MOLPORT:004-502-194

$$$$

     RDKit          3D

 25 26  0  0  0  0  0  0  0  0999 V2000
  -12.9960    6.2570  -73.8220 C   0  0  0  0  0  0  0  0  0  0  0  0
  -13.7710    5.7660  -74.9340 O   0  0  0  0  0  0  0  0  0  0  0  0
  -13.4560    4.4470  -75.4510 C   0  0  0  0  0  0  0  0  0  0  0  0
  -14.1830    3.4710  -75.3110 O   0  0  0  0  0  0  0  0  0  0  0  0
  -12.1840    4.3320  -76.2010 C   0  0  0  0  0  0  0  0  0  0  0  0
  -12.0440    4.8280  -77.4930 C   0  0  0  0  0  0  0  0  0  0  0  0
  -11.0940    3.7220  -75.6030 C   0  0  0  0  0  0  0  0  0  0  0  0
  -10.8180    4.7130  -78.1410 C   0  0  0  0  0  0  0  0  0  0  0  0
   -9.8800    3.6100  -76.2420 C   0  0  0  0  0  0  0  0  0  0  0  0
   -9.7270    4.1160  -77.5260 C   0  0  0  0  0  0  0  0  0  0  0  0
   -8.4980    4.0320  -78.1570 N   0  0  0  0  0  0  0  0  0  0  0  0
   -7.3780    3.4650  -77.6260 C   0  0  0  0  0  0  0  0  0  0  0  0
   -6.4880    4.0190  -76.9950 O   0  0  0  0  0  0  0  0  0  0  0  0
   -7.3350    2.1440  -77.8780 N   0  0  0  0  0  0  0  0  0  0  0  0
   -6.7040    1.8840  -79.1650 C   0  0  0  0  0  0  0  0  0  0  0  0
   -8.6810    1.5440  -77.6710 C   0  0  0  0  0  0  0  0  0  0  0  0
   -7.6510    1.1760  -80.1050 C   0  0  0  0  0  0  0  0  0  0  0  0
   -8.9370    1.3760  -76.3140 C   0  0  0  0  0  0  0  0  0  0  0  0
   -8.0640   -0.1070  -79.7720 C   0  0  0  0  0  0  0  0  0  0  0  0
   -8.1260    1.7570  -81.2880 C   0  0  0  0  0  0  0  0  0  0  0  0
  -10.2250    1.2590  -75.9590 F   0  0  0  0  0  0  0  0  0  0  0  0
   -8.4140    0.1720  -75.9610 F   0  0  0  0  0  0  0  0  0  0  0  0
   -8.9230   -0.8380  -80.5600 C   0  0  0  0  0  0  0  0  0  0  0  0
   -8.9890    1.0270  -82.0930 C   0  0  0  0  0  0  0  0  0  0  0  0
   -9.3880   -0.2650  -81.7310 C   0  0  0  0  0  0  0  0  0  0  0  0
  1  2  1  0
  2  3  1  0
  3  4  2  0
  3  5  1  0
  5  6  2  0
  5  7  1  0
  6  8  1  0
  7  9  2  0
  8 10  2  0
  9 10  1  0
 10 11  1  0
 11 12  1  0
 12 13  2  0
 12 14  1  0
 14 15  1  0
 14 16  1  0
 15 17  1  0
 16 18  1  0
 17 19  2  0
 17 20  1  0
 18 21  1  0
 18 22  1  0
 19 23  1  0
 20 24  2  0
 23 25  2  0
 24 25  1  0
M  END
>  <ref_url>  (829) 
https://fakepage.com

>  <submitter_name>  (829) 
Steph Wills

>  <submitter_email>  (829) 
stephanie.wills@dtc.ox.ac.uk

>  <submitter_institution>  (829) 
University of Oxford

>  <generation_date>  (829) 
2020-06-04

>  <method>  (829) 
Fragment network

>  <ref_mols>  (829) 
x0183_0B,x0212_0B

>  <ref_pdb>  (829) 
references/x0183-0B-x0212-0B-455976.holo_minimised_nolig.pdb

>  <original SMILES>  (829) 
COC(=O)c1ccc(NC(=O)N(Cc2ccccc2)CC(F)F)cc1

>  <synthon>  (829) 
[Xe]c1ccccc1

>  <original_name>  (829) 
x0183-0B-x0212-0B-455976

>  <comRMSD_score>  (829) 
0.65307985445602

>  <IF_score>  (829) 
0.55

>  <SuCOS_score>  (829) 
0.5168334414992447

>  <compound_ID>  (829) 
REAL:Z1415331664

$$$$

     RDKit          3D

 32 36  0  0  0  0  0  0  0  0999 V2000
   -5.7740    2.6280  -79.8230 O   0  0  0  0  0  0  0  0  0  0  0  0
   -6.9860    2.5870  -79.6340 C   0  0  0  0  0  0  0  0  0  0  0  0
   -7.7150    3.4730  -78.7200 C   0  0  0  0  0  0  0  0  0  0  0  0
   -7.7600    1.6390  -80.2990 C   0  0  0  0  0  0  0  0  0  0  0  0
   -8.3980    2.8020  -77.9870 O   0  0  0  0  0  0  0  0  0  0  0  0
   -8.0230    0.3900  -79.6920 C   0  0  0  0  0  0  0  0  0  0  0  0
   -8.2990    1.8850  -81.5670 C   0  0  0  0  0  0  0  0  0  0  0  0
   -9.5300    3.2610  -77.4260 C   0  0  0  0  0  0  0  0  0  0  0  0
   -8.7810   -0.6130  -80.2860 C   0  0  0  0  0  0  0  0  0  0  0  0
   -9.0660    0.8970  -82.1980 C   0  0  0  0  0  0  0  0  0  0  0  0
   -9.7690    3.0480  -76.0180 C   0  0  0  0  0  0  0  0  0  0  0  0
  -10.5950    3.9910  -78.2140 C   0  0  0  0  0  0  0  0  0  0  0  0
   -9.2750   -0.3130  -81.5360 C   0  0  0  0  0  0  0  0  0  0  0  0
  -10.9260    3.5100  -75.4340 C   0  0  0  0  0  0  0  0  0  0  0  0
  -11.7410    4.4150  -77.5210 C   0  0  0  0  0  0  0  0  0  0  0  0
   -9.9470   -1.5060  -81.8200 C   0  0  0  0  0  0  0  0  0  0  0  0
  -11.8800    4.1810  -76.1600 C   0  0  0  0  0  0  0  0  0  0  0  0
  -12.7390    5.0530  -78.1870 O   0  0  0  0  0  0  0  0  0  0  0  0
   -9.5120   -2.3260  -82.8560 C   0  0  0  0  0  0  0  0  0  0  0  0
  -11.0670   -1.9050  -81.0640 C   0  0  0  0  0  0  0  0  0  0  0  0
  -12.9970    4.6330  -75.5100 C   0  0  0  0  0  0  0  0  0  0  0  0
  -14.0630    4.9210  -77.6180 C   0  0  0  0  0  0  0  0  0  0  0  0
  -10.1820   -3.5130  -83.1290 C   0  0  0  0  0  0  0  0  0  0  0  0
  -11.7460   -3.0720  -81.3180 C   0  0  0  0  0  0  0  0  0  0  0  0
  -14.0990    5.0010  -76.2240 C   0  0  0  0  0  0  0  0  0  0  0  0
  -15.0820    4.7380  -78.2880 O   0  0  0  0  0  0  0  0  0  0  0  0
  -12.9590    4.7530  -74.0090 C   0  0  0  0  0  0  0  0  0  0  0  0
  -11.3050   -3.8880  -82.3590 C   0  0  0  0  0  0  0  0  0  0  0  0
  -15.3600    5.5370  -75.5200 C   0  0  0  0  0  0  0  0  0  0  0  0
  -13.1470    6.0950  -73.6960 C   0  0  0  0  0  0  0  0  0  0  0  0
  -15.1910    6.6080  -74.5920 C   0  0  0  0  0  0  0  0  0  0  0  0
  -14.4920    6.2650  -73.4050 C   0  0  0  0  0  0  0  0  0  0  0  0
  1  2  2  0
  2  3  1  0
  2  4  1  0
  3  5  1  0
  4  6  2  0
  4  7  1  0
  5  8  1  0
  6  9  1  0
  7 10  2  0
  8 11  2  0
  8 12  1  0
  9 13  2  0
 10 13  1  0
 11 14  1  0
 12 15  2  0
 13 16  1  0
 14 17  2  0
 15 17  1  0
 15 18  1  0
 16 19  2  0
 16 20  1  0
 17 21  1  0
 18 22  1  0
 19 23  1  0
 20 24  2  0
 21 25  2  0
 22 25  1  0
 22 26  2  0
 21 27  1  0
 23 28  2  0
 24 28  1  0
 25 29  1  0
 27 30  1  0
 29 31  1  0
 30 32  1  0
 31 32  1  0
M  END
>  <ref_url>  (830) 
https://fakepage.com

>  <submitter_name>  (830) 
Steph Wills

>  <submitter_email>  (830) 
stephanie.wills@dtc.ox.ac.uk

>  <submitter_institution>  (830) 
University of Oxford

>  <generation_date>  (830) 
2020-06-04

>  <method>  (830) 
Fragment network

>  <ref_mols>  (830) 
x0183_0B,x0212_0B

>  <ref_pdb>  (830) 
references/x0183-0B-x0212-0B-459224.holo_minimised_nolig.pdb

>  <original SMILES>  (830) 
O=C(COc1ccc2c3c(c(=O)oc2c1)CCCCC3)c1ccc(-c2ccccc2)cc1

>  <synthon>  (830) 
[Xe]c1ccccc1

>  <original_name>  (830) 
x0183-0B-x0212-0B-459224

>  <comRMSD_score>  (830) 
0.8651122813018306

>  <IF_score>  (830) 
0.65

>  <SuCOS_score>  (830) 
0.5118882439524304

>  <compound_ID>  (830) 
MOLPORT:006-317-634

$$$$

     RDKit          3D

 26 27  0  0  0  0  0  0  0  0999 V2000
  -11.7010    6.2260  -73.6910 C   0  0  0  0  0  0  0  0  0  0  0  0
  -13.1480    6.4210  -73.9350 C   0  0  0  0  0  0  0  0  0  0  0  0
  -13.9380    5.6600  -73.0970 C   0  0  0  0  0  0  0  0  0  0  0  0
  -13.3850    7.9110  -73.6030 C   0  0  0  0  0  0  0  0  0  0  0  0
  -13.6230    6.1060  -75.2110 N   0  0  0  0  0  0  0  0  0  0  0  0
  -13.7580    4.5820  -75.9250 S   0  0  0  0  0  0  0  0  0  0  0  0
  -14.2030    3.5950  -74.9650 O   0  0  0  0  0  0  0  0  0  0  0  0
  -14.5060    4.7980  -77.1460 O   0  0  0  0  0  0  0  0  0  0  0  0
  -12.1160    4.1510  -76.3680 C   0  0  0  0  0  0  0  0  0  0  0  0
  -11.3400    3.3670  -75.5310 C   0  0  0  0  0  0  0  0  0  0  0  0
  -11.5490    4.5970  -77.6000 C   0  0  0  0  0  0  0  0  0  0  0  0
   -9.9740    3.0070  -75.9040 C   0  0  0  0  0  0  0  0  0  0  0  0
  -10.2270    4.2830  -78.0250 C   0  0  0  0  0  0  0  0  0  0  0  0
   -9.3930    3.4910  -77.2130 C   0  0  0  0  0  0  0  0  0  0  0  0
   -8.0230    3.0510  -77.4330 N   0  0  0  0  0  0  0  0  0  0  0  0
   -7.6590    1.8090  -76.7310 C   0  0  0  0  0  0  0  0  0  0  0  0
   -8.4790    0.8230  -76.0890 O   0  0  0  0  0  0  0  0  0  0  0  0
   -6.2930    1.5180  -76.6680 C   0  0  0  0  0  0  0  0  0  0  0  0
   -5.6240    1.2770  -78.3450 S   0  0  0  0  0  0  0  0  0  0  0  0
   -6.8410    2.2860  -79.2540 C   0  0  0  0  0  0  0  0  0  0  0  0
   -7.6720    1.4870  -80.0180 C   0  0  0  0  0  0  0  0  0  0  0  0
   -8.1520    1.9500  -81.2970 C   0  0  0  0  0  0  0  0  0  0  0  0
   -8.0570    0.2130  -79.5620 C   0  0  0  0  0  0  0  0  0  0  0  0
   -9.0430    1.0050  -82.0590 C   0  0  0  0  0  0  0  0  0  0  0  0
   -8.8940   -0.6300  -80.3110 C   0  0  0  0  0  0  0  0  0  0  0  0
   -9.3850   -0.2370  -81.5560 C   0  0  0  0  0  0  0  0  0  0  0  0
  1  2  1  0
  2  3  1  0
  2  4  1  0
  2  5  1  0
  6  5  1  0
  6  7  2  0
  6  8  2  0
  6  9  1  0
  9 10  2  0
  9 11  1  0
 10 12  1  0
 11 13  2  0
 12 14  2  0
 13 14  1  0
 14 15  1  0
 15 16  1  0
 16 17  2  0
 16 18  1  0
 18 19  1  0
 19 20  1  0
 20 21  1  0
 21 22  2  0
 21 23  1  0
 22 24  1  0
 23 25  2  0
 24 26  2  0
 25 26  1  0
M  END
>  <ref_url>  (831) 
https://fakepage.com

>  <submitter_name>  (831) 
Steph Wills

>  <submitter_email>  (831) 
stephanie.wills@dtc.ox.ac.uk

>  <submitter_institution>  (831) 
University of Oxford

>  <generation_date>  (831) 
2020-06-04

>  <method>  (831) 
Fragment network

>  <ref_mols>  (831) 
x0183_0B,x0212_0B

>  <ref_pdb>  (831) 
references/x0183-0B-x0212-0B-460868.holo_minimised_nolig.pdb

>  <original SMILES>  (831) 
CC(C)(C)NS(=O)(=O)c1ccc(NC(=O)CSCc2ccccc2)cc1

>  <synthon>  (831) 
[Xe]c1ccccc1

>  <original_name>  (831) 
x0183-0B-x0212-0B-460868

>  <comRMSD_score>  (831) 
0.6137949651628452

>  <IF_score>  (831) 
0.675

>  <SuCOS_score>  (831) 
0.5531757074170743

>  <compound_ID>  (831) 
MOLPORT:001-625-442

$$$$

     RDKit          3D

 24 25  0  0  0  0  0  0  0  0999 V2000
  -11.8670    8.0430  -74.5660 C   0  0  0  0  0  0  0  0  0  0  0  0
  -11.7310    6.8240  -73.8240 O   0  0  0  0  0  0  0  0  0  0  0  0
  -12.9680    6.2180  -73.7530 C   0  0  0  0  0  0  0  0  0  0  0  0
  -13.6950    5.9640  -74.9490 C   0  0  0  0  0  0  0  0  0  0  0  0
  -13.6890    4.4050  -75.5940 S   0  0  0  0  0  0  0  0  0  0  0  0
  -13.8590    3.4190  -74.5580 O   0  0  0  0  0  0  0  0  0  0  0  0
  -14.6090    4.4120  -76.7170 O   0  0  0  0  0  0  0  0  0  0  0  0
  -12.0790    4.1860  -76.2870 C   0  0  0  0  0  0  0  0  0  0  0  0
  -11.8400    4.7330  -77.5510 C   0  0  0  0  0  0  0  0  0  0  0  0
  -11.1020    3.4880  -75.5660 C   0  0  0  0  0  0  0  0  0  0  0  0
  -10.5880    4.5980  -78.1280 C   0  0  0  0  0  0  0  0  0  0  0  0
   -9.8340    3.3300  -76.1030 C   0  0  0  0  0  0  0  0  0  0  0  0
   -9.5420    3.8660  -77.3540 C   0  0  0  0  0  0  0  0  0  0  0  0
   -8.2620    3.7300  -77.8690 N   0  0  0  0  0  0  0  0  0  0  0  0
   -7.2970    3.0180  -77.2240 C   0  0  0  0  0  0  0  0  0  0  0  0
   -6.9610    3.3100  -76.0840 O   0  0  0  0  0  0  0  0  0  0  0  0
   -6.7630    2.0010  -77.9630 C   0  0  0  0  0  0  0  0  0  0  0  0
   -6.8210    2.2020  -79.3300 C   0  0  0  0  0  0  0  0  0  0  0  0
   -7.6580    1.4020  -80.0840 C   0  0  0  0  0  0  0  0  0  0  0  0
   -8.1400    1.8500  -81.2920 C   0  0  0  0  0  0  0  0  0  0  0  0
   -8.0220    0.1240  -79.6280 C   0  0  0  0  0  0  0  0  0  0  0  0
   -9.0040    1.1030  -82.1580 C   0  0  0  0  0  0  0  0  0  0  0  0
   -8.8640   -0.7030  -80.3820 C   0  0  0  0  0  0  0  0  0  0  0  0
   -9.3620   -0.2790  -81.6070 C   0  0  0  0  0  0  0  0  0  0  0  0
  1  2  1  0
  2  3  1  0
  3  4  1  0
  5  4  1  0
  5  6  2  0
  5  7  2  0
  5  8  1  0
  8  9  2  0
  8 10  1  0
  9 11  1  0
 10 12  2  0
 11 13  2  0
 12 13  1  0
 13 14  1  0
 14 15  1  0
 15 16  2  0
 15 17  1  0
 17 18  1  0
 18 19  1  0
 19 20  2  0
 19 21  1  0
 20 22  1  0
 21 23  2  0
 22 24  2  0
 23 24  1  0
M  END
>  <ref_url>  (832) 
https://fakepage.com

>  <submitter_name>  (832) 
Steph Wills

>  <submitter_email>  (832) 
stephanie.wills@dtc.ox.ac.uk

>  <submitter_institution>  (832) 
University of Oxford

>  <generation_date>  (832) 
2020-06-04

>  <method>  (832) 
Fragment network

>  <ref_mols>  (832) 
x0183_0B,x0212_0B

>  <ref_pdb>  (832) 
references/x0183-0B-x0212-0B-462138.holo_minimised_nolig.pdb

>  <original SMILES>  (832) 
COCCS(=O)(=O)c1ccc(NC(=O)CCc2ccccc2)cc1

>  <synthon>  (832) 
[Xe]c1ccccc1

>  <original_name>  (832) 
x0183-0B-x0212-0B-462138

>  <comRMSD_score>  (832) 
0.6491269350271763

>  <IF_score>  (832) 
0.775

>  <SuCOS_score>  (832) 
0.5556705395273083

>  <compound_ID>  (832) 
REAL:Z1192599452

$$$$

     RDKit          3D

 20 21  0  0  0  0  0  0  0  0999 V2000
  -14.4760    3.8600  -77.9960 C   0  0  0  0  0  0  0  0  0  0  0  0
  -14.7810    3.8370  -76.5000 C   0  0  0  0  0  0  0  0  0  0  0  0
  -14.3050    5.0960  -75.7760 C   0  0  0  0  0  0  0  0  0  0  0  0
  -13.0260    4.8510  -75.2160 O   0  0  0  0  0  0  0  0  0  0  0  0
  -12.0250    4.4690  -76.0560 C   0  0  0  0  0  0  0  0  0  0  0  0
  -11.7500    4.8630  -77.3820 C   0  0  0  0  0  0  0  0  0  0  0  0
  -11.2050    3.5660  -75.4450 C   0  0  0  0  0  0  0  0  0  0  0  0
  -10.6350    4.3170  -78.0580 C   0  0  0  0  0  0  0  0  0  0  0  0
  -10.1350    3.0470  -76.1010 C   0  0  0  0  0  0  0  0  0  0  0  0
   -9.8290    3.3950  -77.3860 C   0  0  0  0  0  0  0  0  0  0  0  0
   -8.7030    2.6980  -77.7870 N   0  0  0  0  0  0  0  0  0  0  0  0
   -7.4320    3.1420  -78.0780 C   0  0  0  0  0  0  0  0  0  0  0  0
   -6.7540    3.8870  -77.3860 O   0  0  0  0  0  0  0  0  0  0  0  0
   -7.0610    2.5740  -79.2790 N   0  0  0  0  0  0  0  0  0  0  0  0
   -7.8260    1.6330  -79.9890 C   0  0  0  0  0  0  0  0  0  0  0  0
   -8.2200    1.9820  -81.2810 C   0  0  0  0  0  0  0  0  0  0  0  0
   -8.2090    0.3910  -79.4760 C   0  0  0  0  0  0  0  0  0  0  0  0
   -8.9780    1.1000  -82.0410 C   0  0  0  0  0  0  0  0  0  0  0  0
   -8.9730   -0.4910  -80.2420 C   0  0  0  0  0  0  0  0  0  0  0  0
   -9.3570   -0.1340  -81.5250 C   0  0  0  0  0  0  0  0  0  0  0  0
  1  2  1  0
  2  3  1  0
  3  4  1  0
  4  5  1  0
  5  6  2  0
  5  7  1  0
  6  8  1  0
  7  9  2  0
  8 10  2  0
  9 10  1  0
 10 11  1  0
 11 12  1  0
 12 13  2  0
 12 14  1  0
 14 15  1  0
 15 16  2  0
 15 17  1  0
 16 18  1  0
 17 19  2  0
 18 20  2  0
 19 20  1  0
M  END
>  <ref_url>  (833) 
https://fakepage.com

>  <submitter_name>  (833) 
Steph Wills

>  <submitter_email>  (833) 
stephanie.wills@dtc.ox.ac.uk

>  <submitter_institution>  (833) 
University of Oxford

>  <generation_date>  (833) 
2020-06-04

>  <method>  (833) 
Fragment network

>  <ref_mols>  (833) 
x0183_0B,x0212_0B

>  <ref_pdb>  (833) 
references/x0183-0B-x0212-0B-462368.holo_minimised_nolig.pdb

>  <original SMILES>  (833) 
CCCOc1ccc(NC(=O)Nc2ccccc2)cc1

>  <synthon>  (833) 
[Xe]c1ccccc1

>  <original_name>  (833) 
x0183-0B-x0212-0B-462368

>  <comRMSD_score>  (833) 
0.8868444792830263

>  <IF_score>  (833) 
0.55

>  <SuCOS_score>  (833) 
0.3961300379815246

>  <compound_ID>  (833) 
REAL:Z1563571177, MOLPORT:018-858-371

$$$$

     RDKit          3D

 25 26  0  0  0  0  0  0  0  0999 V2000
  -12.9270    6.1520  -73.7210 C   0  0  0  0  0  0  0  0  0  0  0  0
  -13.5540    4.8950  -74.0070 O   0  0  0  0  0  0  0  0  0  0  0  0
  -13.5080    4.2920  -75.2550 C   0  0  0  0  0  0  0  0  0  0  0  0
  -14.6580    3.6660  -75.8130 O   0  0  0  0  0  0  0  0  0  0  0  0
  -12.2240    4.2430  -76.0610 C   0  0  0  0  0  0  0  0  0  0  0  0
  -12.1030    4.8280  -77.4400 C   0  0  0  0  0  0  0  0  0  0  0  0
  -11.0390    3.5880  -75.4460 C   0  0  0  0  0  0  0  0  0  0  0  0
  -10.8740    4.7440  -78.0770 C   0  0  0  0  0  0  0  0  0  0  0  0
   -9.8700    3.5720  -76.1680 C   0  0  0  0  0  0  0  0  0  0  0  0
   -9.7900    4.1420  -77.4460 C   0  0  0  0  0  0  0  0  0  0  0  0
   -8.5260    4.0450  -77.9740 N   0  0  0  0  0  0  0  0  0  0  0  0
   -7.4650    3.4370  -77.3210 C   0  0  0  0  0  0  0  0  0  0  0  0
   -6.7590    3.9250  -76.4380 O   0  0  0  0  0  0  0  0  0  0  0  0
   -7.3840    2.2170  -77.8140 N   0  0  0  0  0  0  0  0  0  0  0  0
   -8.6370    1.4950  -77.8620 C   0  0  0  0  0  0  0  0  0  0  0  0
   -6.7000    2.0970  -78.9970 C   0  0  0  0  0  0  0  0  0  0  0  0
   -9.5890    1.7760  -76.7170 C   0  0  0  0  0  0  0  0  0  0  0  0
   -7.4840    1.2110  -79.9440 C   0  0  0  0  0  0  0  0  0  0  0  0
   -9.7210    0.7120  -75.6060 C   0  0  0  0  0  0  0  0  0  0  0  0
   -7.9660    1.7720  -81.2460 C   0  0  0  0  0  0  0  0  0  0  0  0
   -7.7570   -0.1070  -79.6140 C   0  0  0  0  0  0  0  0  0  0  0  0
  -10.3100   -0.2930  -76.0140 O   0  0  0  0  0  0  0  0  0  0  0  0
   -8.6750    0.9530  -82.0970 C   0  0  0  0  0  0  0  0  0  0  0  0
   -8.4770   -0.8970  -80.4920 C   0  0  0  0  0  0  0  0  0  0  0  0
   -8.9240   -0.3780  -81.7040 C   0  0  0  0  0  0  0  0  0  0  0  0
  1  2  1  0
  2  3  1  0
  3  4  2  0
  3  5  1  0
  5  6  2  0
  5  7  1  0
  6  8  1  0
  7  9  2  0
  8 10  2  0
  9 10  1  0
 10 11  1  0
 11 12  1  0
 12 13  2  0
 12 14  1  0
 14 15  1  0
 14 16  1  0
 15 17  1  0
 16 18  1  0
 17 19  1  0
 18 20  2  0
 18 21  1  0
 19 22  1  0
 20 23  1  0
 21 24  2  0
 23 25  2  0
 24 25  1  0
M  END
>  <ref_url>  (834) 
https://fakepage.com

>  <submitter_name>  (834) 
Steph Wills

>  <submitter_email>  (834) 
stephanie.wills@dtc.ox.ac.uk

>  <submitter_institution>  (834) 
University of Oxford

>  <generation_date>  (834) 
2020-06-04

>  <method>  (834) 
Fragment network

>  <ref_mols>  (834) 
x0183_0B,x0212_0B

>  <ref_pdb>  (834) 
references/x0183-0B-x0212-0B-462949.holo_minimised_nolig.pdb

>  <original SMILES>  (834) 
COC(=O)c1ccc(NC(=O)N(CCCO)Cc2ccccc2)cc1

>  <synthon>  (834) 
[Xe]c1ccccc1

>  <original_name>  (834) 
x0183-0B-x0212-0B-462949

>  <comRMSD_score>  (834) 
0.7748724626242253

>  <IF_score>  (834) 
0.35

>  <SuCOS_score>  (834) 
0.5054366199584517

>  <compound_ID>  (834) 
REAL:Z1451740383

$$$$

     RDKit          3D

 22 23  0  0  0  0  0  0  0  0999 V2000
  -12.6880    6.2620  -73.7300 C   0  0  0  0  0  0  0  0  0  0  0  0
  -13.1230    5.8860  -75.1340 C   0  0  0  0  0  0  0  0  0  0  0  0
  -13.2390    4.5430  -75.5550 C   0  0  2  0  0  0  0  0  0  0  0  0
  -13.5420    3.5460  -74.6380 C   0  0  0  0  0  0  0  0  0  0  0  0
  -12.0460    4.1570  -76.4140 C   0  0  0  0  0  0  0  0  0  0  0  0
  -11.7880    4.8180  -77.6160 C   0  0  0  0  0  0  0  0  0  0  0  0
  -11.1770    3.1070  -76.0070 C   0  0  0  0  0  0  0  0  0  0  0  0
  -10.6270    4.4220  -78.4630 C   0  0  0  0  0  0  0  0  0  0  0  0
  -10.0660    2.6950  -76.7740 C   0  0  0  0  0  0  0  0  0  0  0  0
   -9.7170    3.2770  -77.9960 C   0  0  0  0  0  0  0  0  0  0  0  0
   -9.2430    1.6550  -76.3360 N   0  0  0  0  0  0  0  0  0  0  0  0
   -7.9460    1.4170  -77.0350 C   0  0  0  0  0  0  0  0  0  0  0  0
   -7.2720    0.2240  -77.0020 O   0  0  0  0  0  0  0  0  0  0  0  0
   -7.5160    2.3350  -77.6000 N   0  0  0  0  0  0  0  0  0  0  0  0
   -7.5550    3.6340  -77.1170 C   0  0  0  0  0  0  0  0  0  0  0  0
   -7.0100    2.1470  -78.8870 C   0  0  0  0  0  0  0  0  0  0  0  0
   -7.8370    1.3130  -79.7480 C   0  0  0  0  0  0  0  0  0  0  0  0
   -8.1790    1.8840  -81.1250 C   0  0  0  0  0  0  0  0  0  0  0  0
   -8.3260    0.0430  -79.3990 C   0  0  0  0  0  0  0  0  0  0  0  0
   -8.9480    1.1560  -81.9990 C   0  0  0  0  0  0  0  0  0  0  0  0
   -9.1080   -0.6930  -80.2870 C   0  0  0  0  0  0  0  0  0  0  0  0
   -9.4330   -0.1980  -81.5480 C   0  0  0  0  0  0  0  0  0  0  0  0
  1  2  1  0
  2  3  1  0
  3  4  1  1
  3  5  1  0
  5  6  2  0
  5  7  1  0
  6  8  1  0
  7  9  2  0
  8 10  2  0
  9 10  1  0
  9 11  1  0
 11 12  1  0
 12 13  2  0
 12 14  1  0
 14 15  1  0
 14 16  1  0
 16 17  1  0
 17 18  2  0
 17 19  1  0
 18 20  1  0
 19 21  2  0
 20 22  2  0
 21 22  1  0
M  END
>  <ref_url>  (835) 
https://fakepage.com

>  <submitter_name>  (835) 
Steph Wills

>  <submitter_email>  (835) 
stephanie.wills@dtc.ox.ac.uk

>  <submitter_institution>  (835) 
University of Oxford

>  <generation_date>  (835) 
2020-06-04

>  <method>  (835) 
Fragment network

>  <ref_mols>  (835) 
x0183_0B,x0212_0B

>  <ref_pdb>  (835) 
references/x0183-0B-x0212-0B-463508.holo_minimised_nolig.pdb

>  <original SMILES>  (835) 
CCC(C)c1cccc(NC(=O)N(C)Cc2ccccc2)c1

>  <synthon>  (835) 
[Xe]c1ccccc1

>  <original_name>  (835) 
x0183-0B-x0212-0B-463508

>  <comRMSD_score>  (835) 
0.618950425825549

>  <IF_score>  (835) 
0.425

>  <SuCOS_score>  (835) 
0.5709207178089196

>  <compound_ID>  (835) 
REAL:PV-001949545854

$$$$

     RDKit          3D

 22 23  0  0  0  0  0  0  0  0999 V2000
  -12.2400    5.5380  -77.0160 C   0  0  0  0  0  0  0  0  0  0  0  0
  -11.3190    4.3590  -77.0250 C   0  0  0  0  0  0  0  0  0  0  0  0
  -10.5600    4.0910  -78.1510 C   0  0  0  0  0  0  0  0  0  0  0  0
  -11.2030    3.5110  -75.9180 C   0  0  0  0  0  0  0  0  0  0  0  0
   -9.7110    2.9870  -78.1830 C   0  0  0  0  0  0  0  0  0  0  0  0
  -10.3400    2.4000  -75.9620 C   0  0  0  0  0  0  0  0  0  0  0  0
   -9.5750    2.1010  -77.1000 C   0  0  0  0  0  0  0  0  0  0  0  0
   -8.7260    0.9960  -77.2010 N   0  0  0  0  0  0  0  0  0  0  0  0
   -8.4090    0.1730  -76.0480 C   0  0  0  0  0  0  0  0  0  0  0  0
   -8.6300    0.2860  -78.4780 C   0  0  0  0  0  0  0  0  0  0  0  0
   -7.4690   -0.7290  -78.5230 C   0  0  1  0  0  0  0  0  0  0  0  0
   -7.2960   -1.5250  -79.8200 C   0  0  0  0  0  0  0  0  0  0  0  0
   -6.1200   -0.0810  -78.2200 C   0  0  0  0  0  0  0  0  0  0  0  0
   -5.2440   -0.6650  -77.5970 O   0  0  0  0  0  0  0  0  0  0  0  0
   -5.9770    1.1920  -78.7290 O   0  0  0  0  0  0  0  0  0  0  0  0
   -7.1510    2.0040  -78.8790 C   0  0  0  0  0  0  0  0  0  0  0  0
   -7.9910    1.3890  -79.9720 C   0  0  0  0  0  0  0  0  0  0  0  0
   -8.6340    0.1740  -79.6980 C   0  0  0  0  0  0  0  0  0  0  0  0
   -8.1590    1.9630  -81.2430 C   0  0  0  0  0  0  0  0  0  0  0  0
   -9.4190   -0.4610  -80.6440 C   0  0  0  0  0  0  0  0  0  0  0  0
   -8.9490    1.3120  -82.1880 C   0  0  0  0  0  0  0  0  0  0  0  0
   -9.5730    0.1070  -81.8800 C   0  0  0  0  0  0  0  0  0  0  0  0
  1  2  1  0
  2  3  2  0
  2  4  1  0
  3  5  1  0
  4  6  2  0
  5  7  2  0
  6  7  1  0
  7  8  1  0
  8  9  1  0
  8 10  1  0
 10 11  1  0
 11 12  1  6
 11 13  1  0
 13 14  2  0
 13 15  1  0
 15 16  1  0
 16 17  1  0
 17 18  2  0
 17 19  1  0
 18 20  1  0
 19 21  2  0
 20 22  2  0
 21 22  1  0
M  END
>  <ref_url>  (836) 
https://fakepage.com

>  <submitter_name>  (836) 
Steph Wills

>  <submitter_email>  (836) 
stephanie.wills@dtc.ox.ac.uk

>  <submitter_institution>  (836) 
University of Oxford

>  <generation_date>  (836) 
2020-06-04

>  <method>  (836) 
Fragment network

>  <ref_mols>  (836) 
x0034_0B,x0212_0B

>  <ref_pdb>  (836) 
references/x0034-0B-x0212-0B-625.holo_minimised_nolig.pdb

>  <original SMILES>  (836) 
Cc1ccc(N(C)CC(C)C(=O)OCc2ccccc2)cc1

>  <synthon>  (836) 
[Xe]c1ccccc1

>  <original_name>  (836) 
x0034-0B-x0212-0B-625

>  <comRMSD_score>  (836) 
0.7855038958339863

>  <IF_score>  (836) 
0.375

>  <SuCOS_score>  (836) 
0.4455764697054905

>  <compound_ID>  (836) 
CHEMSPACE-BB:CSMB00014057454

$$$$

     RDKit          3D

 21 22  0  0  0  0  0  0  0  0999 V2000
  -12.4660    5.3580  -77.4580 C   0  0  0  0  0  0  0  0  0  0  0  0
  -11.3750    4.3830  -77.1450 C   0  0  0  0  0  0  0  0  0  0  0  0
  -10.3760    4.1460  -78.0850 C   0  0  0  0  0  0  0  0  0  0  0  0
  -11.3310    3.6990  -75.9210 C   0  0  0  0  0  0  0  0  0  0  0  0
   -9.3500    3.2440  -77.8150 C   0  0  0  0  0  0  0  0  0  0  0  0
  -10.3030    2.7970  -75.6590 C   0  0  0  0  0  0  0  0  0  0  0  0
   -9.3030    2.5590  -76.5960 C   0  0  0  0  0  0  0  0  0  0  0  0
   -8.3060    1.6400  -76.2360 N   0  0  0  0  0  0  0  0  0  0  0  0
   -8.3300    0.2520  -76.1780 C   0  0  0  0  0  0  0  0  0  0  0  0
   -9.2920   -0.4670  -75.8960 O   0  0  0  0  0  0  0  0  0  0  0  0
   -6.9210   -0.3060  -76.4940 C   0  0  2  0  0  0  0  0  0  0  0  0
   -5.9420    0.5530  -75.7610 N   0  0  0  0  0  0  0  0  0  0  0  0
   -6.6560   -0.2380  -78.0020 C   0  0  0  0  0  0  0  0  0  0  0  0
   -6.0050    1.0030  -78.3300 O   0  0  0  0  0  0  0  0  0  0  0  0
   -6.8980    1.9520  -78.9650 C   0  0  0  0  0  0  0  0  0  0  0  0
   -7.8160    1.2960  -79.9930 C   0  0  0  0  0  0  0  0  0  0  0  0
   -8.3970    0.0510  -79.6960 C   0  0  0  0  0  0  0  0  0  0  0  0
   -8.1070    1.8820  -81.2420 C   0  0  0  0  0  0  0  0  0  0  0  0
   -9.2270   -0.5940  -80.6070 C   0  0  0  0  0  0  0  0  0  0  0  0
   -8.9410    1.2270  -82.1540 C   0  0  0  0  0  0  0  0  0  0  0  0
   -9.4970   -0.0090  -81.8350 C   0  0  0  0  0  0  0  0  0  0  0  0
  1  2  1  0
  2  3  2  0
  2  4  1  0
  3  5  1  0
  4  6  2  0
  5  7  2  0
  6  7  1  0
  7  8  1  0
  8  9  1  0
  9 10  2  0
  9 11  1  0
 11 12  1  1
 11 13  1  0
 13 14  1  0
 14 15  1  0
 15 16  1  0
 16 17  2  0
 16 18  1  0
 17 19  1  0
 18 20  2  0
 19 21  2  0
 20 21  1  0
M  END
>  <ref_url>  (837) 
https://fakepage.com

>  <submitter_name>  (837) 
Steph Wills

>  <submitter_email>  (837) 
stephanie.wills@dtc.ox.ac.uk

>  <submitter_institution>  (837) 
University of Oxford

>  <generation_date>  (837) 
2020-06-04

>  <method>  (837) 
Fragment network

>  <ref_mols>  (837) 
x0034_0B,x0212_0B

>  <ref_pdb>  (837) 
references/x0034-0B-x0212-0B-1829.holo_minimised_nolig.pdb

>  <original SMILES>  (837) 
Cc1ccc(NC(=O)C(N)COCc2ccccc2)cc1

>  <synthon>  (837) 
[Xe]c1ccccc1

>  <original_name>  (837) 
x0034-0B-x0212-0B-1829

>  <comRMSD_score>  (837) 
0.586716885476891

>  <IF_score>  (837) 
0.875

>  <SuCOS_score>  (837) 
0.5064213062842375

>  <compound_ID>  (837) 
CHEMSPACE-BB:CSMB00119327528, CHEMSPACE-BB:CSMB00119333283, CHEMSPACE-BB:CSMB00119337299

$$$$

     RDKit          3D

 23 24  0  0  0  0  0  0  0  0999 V2000
  -10.5110    0.3070  -76.2720 C   0  0  0  0  0  0  0  0  0  0  0  0
   -9.0230    0.3080  -76.2910 C   0  0  0  0  0  0  0  0  0  0  0  0
   -8.2270   -0.9380  -76.0680 C   0  0  0  0  0  0  0  0  0  0  0  0
   -8.3970    1.4450  -76.5150 C   0  0  0  0  0  0  0  0  0  0  0  0
   -8.5600   -2.1910  -76.1590 N   0  0  0  0  0  0  0  0  0  0  0  0
   -9.2970    2.5650  -76.7230 C   0  0  0  0  0  0  0  0  0  0  0  0
   -9.8270   -2.5280  -76.5110 N   0  0  0  0  0  0  0  0  0  0  0  0
   -9.2790    3.3860  -77.8450 C   0  0  0  0  0  0  0  0  0  0  0  0
  -10.2430    2.7730  -75.7220 C   0  0  0  0  0  0  0  0  0  0  0  0
  -10.2030   -2.6170  -77.8460 C   0  0  0  0  0  0  0  0  0  0  0  0
  -10.2210    4.3990  -77.9620 C   0  0  0  0  0  0  0  0  0  0  0  0
  -11.1800    3.7820  -75.8390 C   0  0  0  0  0  0  0  0  0  0  0  0
  -11.2710   -3.0600  -78.2640 O   0  0  0  0  0  0  0  0  0  0  0  0
   -9.1300   -2.0940  -78.8060 C   0  0  0  0  0  0  0  0  0  0  0  0
  -11.1740    4.5930  -76.9640 C   0  0  0  0  0  0  0  0  0  0  0  0
   -9.6940   -1.5870  -80.0080 O   0  0  0  0  0  0  0  0  0  0  0  0
   -9.2050   -0.3680  -80.3750 C   0  0  0  0  0  0  0  0  0  0  0  0
   -9.5740    0.0450  -81.6500 C   0  0  0  0  0  0  0  0  0  0  0  0
   -8.3930    0.4580  -79.5950 C   0  0  0  0  0  0  0  0  0  0  0  0
   -9.1360    1.2710  -82.1430 C   0  0  0  0  0  0  0  0  0  0  0  0
   -7.9520    1.6920  -80.0870 C   0  0  0  0  0  0  0  0  0  0  0  0
   -8.3320    2.0890  -81.3670 C   0  0  0  0  0  0  0  0  0  0  0  0
   -7.0820    2.5850  -79.2520 C   0  0  0  0  0  0  0  0  0  0  0  0
  1  2  1  0
  2  3  1  0
  2  4  2  3
  3  5  2  3
  4  6  1  0
  5  7  1  0
  6  8  2  0
  6  9  1  0
  7 10  1  0
  8 11  1  0
  9 12  2  0
 10 13  2  0
 10 14  1  0
 11 15  2  0
 12 15  1  0
 14 16  1  0
 16 17  1  0
 17 18  2  0
 17 19  1  0
 18 20  1  0
 19 21  2  0
 20 22  2  0
 21 22  1  0
 21 23  1  0
M  END
>  <ref_url>  (838) 
https://fakepage.com

>  <submitter_name>  (838) 
Steph Wills

>  <submitter_email>  (838) 
stephanie.wills@dtc.ox.ac.uk

>  <submitter_institution>  (838) 
University of Oxford

>  <generation_date>  (838) 
2020-06-04

>  <method>  (838) 
Fragment network

>  <ref_mols>  (838) 
x0034_0B,x0212_0B

>  <ref_pdb>  (838) 
references/x0034-0B-x0212-0B-2392.holo_minimised_nolig.pdb

>  <original SMILES>  (838) 
CC(C=NNC(=O)COc1cccc(C)c1)=Cc1ccccc1

>  <synthon>  (838) 
[Xe]c1ccccc1

>  <original_name>  (838) 
x0034-0B-x0212-0B-2392

>  <comRMSD_score>  (838) 
0.8393989278048907

>  <IF_score>  (838) 
0.65

>  <SuCOS_score>  (838) 
0.5030107977591438

>  <compound_ID>  (838) 
MOLPORT:002-152-289

$$$$

     RDKit          3D

 22 23  0  0  0  0  0  0  0  0999 V2000
  -12.1780   -0.4960  -81.3410 O   0  0  0  0  0  0  0  0  0  0  0  0
  -11.1090   -1.1460  -80.6190 S   0  0  0  0  0  0  0  0  0  0  0  0
  -10.6380   -2.4750  -80.9240 O   0  0  0  0  0  0  0  0  0  0  0  0
  -11.5140   -1.0510  -78.9680 N   0  0  0  0  0  0  0  0  0  0  0  0
   -9.7210   -0.0680  -80.5900 C   0  0  0  0  0  0  0  0  0  0  0  0
  -10.5610   -1.4700  -77.9020 C   0  0  0  0  0  0  0  0  0  0  0  0
   -8.8020   -0.3220  -79.5920 C   0  0  0  0  0  0  0  0  0  0  0  0
   -9.5430    0.9840  -81.4740 C   0  0  0  0  0  0  0  0  0  0  0  0
  -10.0910   -0.3350  -76.9770 C   0  0  0  0  0  0  0  0  0  0  0  0
   -7.6940    0.4890  -79.4440 C   0  0  0  0  0  0  0  0  0  0  0  0
   -8.4320    1.7880  -81.2930 C   0  0  0  0  0  0  0  0  0  0  0  0
   -8.2850   -0.1860  -76.9990 S   0  0  0  0  0  0  0  0  0  0  0  0
   -7.5140    1.5540  -80.2930 C   0  0  0  0  0  0  0  0  0  0  0  0
   -8.2290    2.8160  -82.0820 F   0  0  0  0  0  0  0  0  0  0  0  0
   -7.6590   -1.2450  -75.9000 O   0  0  0  0  0  0  0  0  0  0  0  0
   -7.9340    1.5360  -76.5320 C   0  0  0  0  0  0  0  0  0  0  0  0
   -9.0660    2.5250  -76.6560 C   0  0  0  0  0  0  0  0  0  0  0  0
  -10.0590    2.6200  -75.6690 C   0  0  0  0  0  0  0  0  0  0  0  0
   -9.1400    3.3740  -77.7640 C   0  0  0  0  0  0  0  0  0  0  0  0
  -11.1010    3.5410  -75.7890 C   0  0  0  0  0  0  0  0  0  0  0  0
  -10.1790    4.2900  -77.8830 C   0  0  0  0  0  0  0  0  0  0  0  0
  -11.1620    4.3760  -76.8980 C   0  0  0  0  0  0  0  0  0  0  0  0
  1  2  2  0
  2  3  2  0
  2  4  1  0
  2  5  1  0
  4  6  1  0
  5  7  2  0
  5  8  1  0
  6  9  1  0
  7 10  1  0
  8 11  2  0
  9 12  1  0
 10 13  2  0
 11 13  1  0
 11 14  1  0
 12 15  1  1
 12 16  1  0
 16 17  1  0
 17 18  2  0
 17 19  1  0
 18 20  1  0
 19 21  2  0
 20 22  2  0
 21 22  1  0
M  CHG  2  12   1  15  -1
M  END
>  <ref_url>  (839) 
https://fakepage.com

>  <submitter_name>  (839) 
Steph Wills

>  <submitter_email>  (839) 
stephanie.wills@dtc.ox.ac.uk

>  <submitter_institution>  (839) 
University of Oxford

>  <generation_date>  (839) 
2020-06-04

>  <method>  (839) 
Fragment network

>  <ref_mols>  (839) 
x0034_0B,x0212_0B

>  <ref_pdb>  (839) 
references/x0034-0B-x0212-0B-2494.holo_minimised_nolig.pdb

>  <original SMILES>  (839) 
O=S(=O)(NCC[S+]([O-])Cc1ccccc1)c1cccc(F)c1

>  <synthon>  (839) 
[Xe]c1ccccc1

>  <original_name>  (839) 
x0034-0B-x0212-0B-2494

>  <comRMSD_score>  (839) 
0.7860873808746527

>  <IF_score>  (839) 
0.65

>  <SuCOS_score>  (839) 
0.4878186194532293

>  <compound_ID>  (839) 
MOLPORT:020-046-111

$$$$

     RDKit          3D

 20 21  0  0  0  0  0  0  0  0999 V2000
   -8.6430    3.6230  -79.1080 C   0  0  0  0  0  0  0  0  0  0  0  0
   -9.5450    3.5860  -77.9140 C   0  0  0  0  0  0  0  0  0  0  0  0
  -10.6890    4.3630  -78.0030 C   0  0  0  0  0  0  0  0  0  0  0  0
   -9.3000    2.8280  -76.7350 C   0  0  0  0  0  0  0  0  0  0  0  0
  -11.6020    4.4180  -76.9620 C   0  0  0  0  0  0  0  0  0  0  0  0
  -10.2330    2.8920  -75.6920 C   0  0  0  0  0  0  0  0  0  0  0  0
   -8.0780    1.9480  -76.5140 C   0  0  0  0  0  0  0  0  0  0  0  0
  -11.3730    3.6790  -75.7990 C   0  0  0  0  0  0  0  0  0  0  0  0
   -8.2700    0.4380  -76.5160 C   0  0  0  0  0  0  0  0  0  0  0  0
   -9.2230   -0.1430  -75.9730 O   0  0  0  0  0  0  0  0  0  0  0  0
   -7.2560   -0.2080  -77.1890 N   0  0  0  0  0  0  0  0  0  0  0  0
   -6.3750    0.6150  -77.9630 N   0  0  0  0  0  0  0  0  0  0  0  0
   -6.7970    1.5210  -78.9630 C   0  0  0  0  0  0  0  0  0  0  0  0
   -6.4390    2.6870  -78.9640 O   0  0  0  0  0  0  0  0  0  0  0  0
   -7.6660    0.9880  -80.0460 C   0  0  0  0  0  0  0  0  0  0  0  0
   -8.2050   -0.2740  -79.8530 C   0  0  0  0  0  0  0  0  0  0  0  0
   -7.9420    1.7050  -81.2350 C   0  0  0  0  0  0  0  0  0  0  0  0
   -9.0050   -0.8520  -80.8260 C   0  0  0  0  0  0  0  0  0  0  0  0
   -8.7480    1.1190  -82.2130 C   0  0  0  0  0  0  0  0  0  0  0  0
   -9.2730   -0.1580  -82.0050 C   0  0  0  0  0  0  0  0  0  0  0  0
  1  2  1  0
  2  3  2  0
  2  4  1  0
  3  5  1  0
  4  6  2  0
  4  7  1  0
  5  8  2  0
  6  8  1  0
  7  9  1  0
  9 10  2  0
  9 11  1  0
 11 12  1  0
 12 13  1  0
 13 14  2  0
 13 15  1  0
 15 16  2  0
 15 17  1  0
 16 18  1  0
 17 19  2  0
 18 20  2  0
 19 20  1  0
M  END
>  <ref_url>  (840) 
https://fakepage.com

>  <submitter_name>  (840) 
Steph Wills

>  <submitter_email>  (840) 
stephanie.wills@dtc.ox.ac.uk

>  <submitter_institution>  (840) 
University of Oxford

>  <generation_date>  (840) 
2020-06-04

>  <method>  (840) 
Fragment network

>  <ref_mols>  (840) 
x0034_0B,x0212_0B

>  <ref_pdb>  (840) 
references/x0034-0B-x0212-0B-4333.holo_minimised_nolig.pdb

>  <original SMILES>  (840) 
Cc1ccccc1CC(=O)NNC(=O)c1ccccc1

>  <synthon>  (840) 
[Xe]c1ccccc1

>  <original_name>  (840) 
x0034-0B-x0212-0B-4333

>  <comRMSD_score>  (840) 
0.7557668168697798

>  <IF_score>  (840) 
0.5416666666666666

>  <SuCOS_score>  (840) 
0.5083408910069416

>  <compound_ID>  (840) 
MOLPORT:006-233-765

$$$$

     RDKit          3D

 21 22  0  0  0  0  0  0  0  0999 V2000
  -10.0920   -0.0600  -77.8590 C   0  0  0  0  0  0  0  0  0  0  0  0
   -9.2310   -1.3040  -77.5600 C   0  0  2  0  0  0  0  0  0  0  0  0
   -7.8520   -0.9860  -77.0030 C   0  0  0  0  0  0  0  0  0  0  0  0
   -9.1300   -2.3270  -78.6930 C   0  0  0  0  0  0  0  0  0  0  0  0
   -8.0090    0.3170  -75.7860 S   0  0  0  0  0  0  0  0  0  0  0  0
   -8.7970   -3.4820  -78.4310 O   0  0  0  0  0  0  0  0  0  0  0  0
   -9.4370   -1.8450  -79.9420 N   0  0  0  0  0  0  0  0  0  0  0  0
   -7.7730    1.7290  -76.8910 C   0  0  0  0  0  0  0  0  0  0  0  0
   -9.1090   -0.5780  -80.4540 C   0  0  0  0  0  0  0  0  0  0  0  0
   -8.9590    2.6550  -76.8760 C   0  0  0  0  0  0  0  0  0  0  0  0
   -9.5870   -0.0810  -81.6550 C   0  0  0  0  0  0  0  0  0  0  0  0
   -8.2450    0.2090  -79.6830 C   0  0  0  0  0  0  0  0  0  0  0  0
   -9.8890    2.6430  -75.8260 C   0  0  0  0  0  0  0  0  0  0  0  0
   -9.1400    3.5420  -77.9340 C   0  0  0  0  0  0  0  0  0  0  0  0
   -9.2100    1.1880  -82.0900 C   0  0  0  0  0  0  0  0  0  0  0  0
   -7.8700    1.4780  -80.1130 C   0  0  0  0  0  0  0  0  0  0  0  0
  -10.9860    3.5100  -75.8430 C   0  0  0  0  0  0  0  0  0  0  0  0
  -10.2310    4.3990  -77.9480 C   0  0  0  0  0  0  0  0  0  0  0  0
   -8.3580    1.9460  -81.3090 C   0  0  0  0  0  0  0  0  0  0  0  0
  -11.1530    4.3840  -76.9090 C   0  0  0  0  0  0  0  0  0  0  0  0
   -8.0020    3.1510  -81.7160 F   0  0  0  0  0  0  0  0  0  0  0  0
  2  1  1  6
  2  3  1  0
  2  4  1  0
  3  5  1  0
  4  6  2  0
  4  7  1  0
  5  8  1  0
  7  9  1  0
  8 10  1  0
  9 11  2  0
  9 12  1  0
 10 13  2  0
 10 14  1  0
 11 15  1  0
 12 16  2  0
 13 17  1  0
 14 18  2  0
 15 19  2  0
 16 19  1  0
 17 20  2  0
 18 20  1  0
 19 21  1  0
M  END
>  <ref_url>  (841) 
https://fakepage.com

>  <submitter_name>  (841) 
Steph Wills

>  <submitter_email>  (841) 
stephanie.wills@dtc.ox.ac.uk

>  <submitter_institution>  (841) 
University of Oxford

>  <generation_date>  (841) 
2020-06-04

>  <method>  (841) 
Fragment network

>  <ref_mols>  (841) 
x0034_0B,x0212_0B

>  <ref_pdb>  (841) 
references/x0034-0B-x0212-0B-8553.holo_minimised_nolig.pdb

>  <original SMILES>  (841) 
CC(CSCc1ccccc1)C(=O)Nc1ccc(F)cc1

>  <synthon>  (841) 
[Xe]c1ccccc1

>  <original_name>  (841) 
x0034-0B-x0212-0B-8553

>  <comRMSD_score>  (841) 
0.8383466091283696

>  <IF_score>  (841) 
0.55

>  <SuCOS_score>  (841) 
0.5031824796411452

>  <compound_ID>  (841) 
REAL:PV-001792099044

$$$$

     RDKit          3D

 23 26  0  0  0  0  0  0  0  0999 V2000
  -10.8750   -1.2390  -75.6540 O   0  0  0  0  0  0  0  0  0  0  0  0
   -9.8470   -0.8280  -76.1670 C   0  0  0  0  0  0  0  0  0  0  0  0
   -8.6050   -0.1330  -75.9390 C   0  0  0  0  0  0  0  0  0  0  0  0
   -9.3120   -0.8360  -77.3700 N   0  0  0  0  0  0  0  0  0  0  0  0
   -8.3260    1.1990  -75.9480 C   0  0  0  0  0  0  0  0  0  0  0  0
   -7.5420   -1.5140  -75.8380 S   0  0  0  0  0  0  0  0  0  0  0  0
   -8.0090   -1.1930  -77.4060 C   0  0  0  0  0  0  0  0  0  0  0  0
   -9.7570   -0.4990  -78.4860 N   0  0  0  0  0  0  0  0  0  0  0  0
   -9.3260    2.2620  -76.2360 C   0  0  0  0  0  0  0  0  0  0  0  0
   -7.4970   -1.1340  -78.5650 N   0  0  0  0  0  0  0  0  0  0  0  0
   -8.6360   -0.6140  -79.1320 C   0  0  0  0  0  0  0  0  0  0  0  0
  -10.3390    2.5630  -75.3320 C   0  0  0  0  0  0  0  0  0  0  0  0
   -9.2840    2.9940  -77.4540 C   0  0  0  0  0  0  0  0  0  0  0  0
   -8.6910   -0.0360  -80.3260 C   0  0  0  0  0  0  0  0  0  0  0  0
  -11.2840    3.5510  -75.6150 C   0  0  0  0  0  0  0  0  0  0  0  0
  -10.2360    3.9840  -77.7400 C   0  0  0  0  0  0  0  0  0  0  0  0
   -9.1200   -0.2830  -81.5830 C   0  0  0  0  0  0  0  0  0  0  0  0
   -8.1200    1.1530  -79.9270 C   0  0  0  0  0  0  0  0  0  0  0  0
  -11.2400    4.2630  -76.8180 C   0  0  0  0  0  0  0  0  0  0  0  0
   -8.9380    0.8070  -82.4180 C   0  0  0  0  0  0  0  0  0  0  0  0
   -7.9500    2.1790  -80.7390 C   0  0  0  0  0  0  0  0  0  0  0  0
   -8.3790    1.9910  -82.0020 C   0  0  0  0  0  0  0  0  0  0  0  0
   -8.2640    2.9760  -82.8510 F   0  0  0  0  0  0  0  0  0  0  0  0
  1  2  2  0
  2  3  1  0
  2  4  1  0
  3  5  2  3
  3  6  1  0
  4  7  1  0
  6  7  1  0
  4  8  1  0
  5  9  1  0
  7 10  2  0
  8 11  2  0
 10 11  1  0
  9 12  2  0
  9 13  1  0
 11 14  1  0
 12 15  1  0
 13 16  2  0
 14 17  2  0
 14 18  1  0
 15 19  2  0
 16 19  1  0
 17 20  1  0
 18 21  2  0
 20 22  2  0
 21 22  1  0
 22 23  1  0
M  END
>  <ref_url>  (842) 
https://fakepage.com

>  <submitter_name>  (842) 
Steph Wills

>  <submitter_email>  (842) 
stephanie.wills@dtc.ox.ac.uk

>  <submitter_institution>  (842) 
University of Oxford

>  <generation_date>  (842) 
2020-06-04

>  <method>  (842) 
Fragment network

>  <ref_mols>  (842) 
x0034_0B,x0212_0B

>  <ref_pdb>  (842) 
references/x0034-0B-x0212-0B-13666.holo_minimised_nolig.pdb

>  <original SMILES>  (842) 
O=c1c(=Cc2ccccc2)sc2nc(-c3ccc(F)cc3)nn12

>  <synthon>  (842) 
[Xe]c1ccccc1

>  <original_name>  (842) 
x0034-0B-x0212-0B-13666

>  <comRMSD_score>  (842) 
0.7493061976106824

>  <IF_score>  (842) 
0.55

>  <SuCOS_score>  (842) 
0.4534665633971501

>  <compound_ID>  (842) 
MOLPORT:000-238-512, MOLPORT:019-948-812, MOLPORT:044-302-020

$$$$

     RDKit          3D

 21 22  0  0  0  0  0  0  0  0999 V2000
  -12.3180    5.7050  -77.6540 C   0  0  0  0  0  0  0  0  0  0  0  0
  -11.5280    4.5640  -77.1160 C   0  0  0  0  0  0  0  0  0  0  0  0
  -11.5930    4.2500  -75.7490 C   0  0  0  0  0  0  0  0  0  0  0  0
  -10.7240    3.7860  -77.9690 C   0  0  0  0  0  0  0  0  0  0  0  0
  -10.8780    3.2000  -75.2390 C   0  0  0  0  0  0  0  0  0  0  0  0
  -10.0350    2.7190  -77.4090 C   0  0  0  0  0  0  0  0  0  0  0  0
  -10.1140    2.4650  -76.0720 C   0  0  0  0  0  0  0  0  0  0  0  0
   -9.2440    1.7430  -77.8660 N   0  0  0  0  0  0  0  0  0  0  0  0
   -9.5320    0.7300  -76.8420 C   0  0  0  0  0  0  0  0  0  0  0  0
   -9.0960   -0.6650  -77.1040 C   0  0  0  0  0  0  0  0  0  0  0  0
   -7.6380   -0.7220  -76.7450 C   0  0  0  0  0  0  0  0  0  0  0  0
   -6.9100    0.5450  -77.2030 C   0  0  0  0  0  0  0  0  0  0  0  0
   -6.0170    0.2730  -78.3380 N   0  0  0  0  0  0  0  0  0  0  0  0
   -5.7090    1.5890  -78.9180 O   0  0  0  0  0  0  0  0  0  0  0  0
   -6.9270    2.3210  -79.1780 C   0  0  0  0  0  0  0  0  0  0  0  0
   -7.8030    1.4880  -80.0850 C   0  0  0  0  0  0  0  0  0  0  0  0
   -8.2400    0.2170  -79.6870 C   0  0  0  0  0  0  0  0  0  0  0  0
   -8.1940    1.9670  -81.3450 C   0  0  0  0  0  0  0  0  0  0  0  0
   -9.0430   -0.5600  -80.5140 C   0  0  0  0  0  0  0  0  0  0  0  0
   -8.9970    1.1820  -82.1700 C   0  0  0  0  0  0  0  0  0  0  0  0
   -9.4190   -0.0750  -81.7530 C   0  0  0  0  0  0  0  0  0  0  0  0
  1  2  1  0
  2  3  2  0
  2  4  1  0
  3  5  1  0
  4  6  2  0
  5  7  2  0
  6  7  1  0
  6  8  1  0
  8  9  1  0
  9 10  1  0
 10 11  1  0
 11 12  1  0
 12 13  1  0
 13 14  1  0
 14 15  1  0
 15 16  1  0
 16 17  2  0
 16 18  1  0
 17 19  1  0
 18 20  2  0
 19 21  2  0
 20 21  1  0
M  END
>  <ref_url>  (843) 
https://fakepage.com

>  <submitter_name>  (843) 
Steph Wills

>  <submitter_email>  (843) 
stephanie.wills@dtc.ox.ac.uk

>  <submitter_institution>  (843) 
University of Oxford

>  <generation_date>  (843) 
2020-06-04

>  <method>  (843) 
Fragment network

>  <ref_mols>  (843) 
x0034_0B,x0212_0B

>  <ref_pdb>  (843) 
references/x0034-0B-x0212-0B-13936.holo_minimised_nolig.pdb

>  <original SMILES>  (843) 
Cc1cccc(NCCCCNOCc2ccccc2)c1

>  <synthon>  (843) 
[Xe]c1ccccc1

>  <original_name>  (843) 
x0034-0B-x0212-0B-13936

>  <comRMSD_score>  (843) 
0.9971677855770272

>  <IF_score>  (843) 
0.625

>  <SuCOS_score>  (843) 
0.4504759342349913

>  <compound_ID>  (843) 
CHEMSPACE-BB:CSMB00155167969

$$$$

     RDKit          3D

 24 25  0  0  0  0  0  0  0  0999 V2000
   -6.9190    2.4980  -79.1010 C   0  0  0  0  0  0  0  0  0  0  0  0
   -7.8110    1.6090  -79.9510 C   0  0  0  0  0  0  0  0  0  0  0  0
   -8.1660    1.9930  -81.2380 C   0  0  0  0  0  0  0  0  0  0  0  0
   -8.2900    0.3890  -79.4450 C   0  0  0  0  0  0  0  0  0  0  0  0
   -9.0310    1.1130  -82.0410 C   0  0  0  0  0  0  0  0  0  0  0  0
   -9.1200   -0.4610  -80.1930 C   0  0  0  0  0  0  0  0  0  0  0  0
   -9.4840   -0.0930  -81.4900 C   0  0  0  0  0  0  0  0  0  0  0  0
   -9.5810   -1.6620  -79.6490 N   0  0  0  0  0  0  0  0  0  0  0  0
  -10.0450   -1.7760  -78.2670 C   0  0  0  0  0  0  0  0  0  0  0  0
   -9.5350   -2.5520  -77.4620 O   0  0  0  0  0  0  0  0  0  0  0  0
  -11.0860   -0.9160  -78.0240 N   0  0  0  0  0  0  0  0  0  0  0  0
  -10.7850    0.2420  -77.2660 C   0  0  0  0  0  0  0  0  0  0  0  0
  -11.3060    1.6230  -77.7580 C   0  0  0  0  0  0  0  0  0  0  0  0
  -12.6290    1.9300  -77.3680 C   0  0  2  0  0  0  0  0  0  0  0  0
  -13.3980    0.9580  -77.3220 O   0  0  0  0  0  0  0  0  0  0  0  0
  -13.2180    3.1410  -78.0800 C   0  0  0  0  0  0  0  0  0  0  0  0
  -13.5110    4.1500  -77.1030 O   0  0  0  0  0  0  0  0  0  0  0  0
  -12.4630    5.1190  -77.0910 C   0  0  0  0  0  0  0  0  0  0  0  0
  -11.2830    4.3740  -77.0020 C   0  0  0  0  0  0  0  0  0  0  0  0
  -11.0660    3.6130  -75.8540 C   0  0  0  0  0  0  0  0  0  0  0  0
  -10.3300    4.3720  -78.0260 C   0  0  0  0  0  0  0  0  0  0  0  0
   -9.9110    2.8570  -75.7450 C   0  0  0  0  0  0  0  0  0  0  0  0
   -9.1650    3.6080  -77.8980 C   0  0  0  0  0  0  0  0  0  0  0  0
   -8.9540    2.8390  -76.7460 C   0  0  0  0  0  0  0  0  0  0  0  0
  1  2  1  0
  2  3  2  0
  2  4  1  0
  3  5  1  0
  4  6  2  0
  5  7  2  0
  6  7  1  0
  6  8  1  0
  8  9  1  0
  9 10  2  0
  9 11  1  0
 11 12  1  0
 12 13  1  0
 13 14  1  0
 14 15  1  6
 14 16  1  0
 16 17  1  0
 17 18  1  0
 18 19  1  0
 19 20  2  0
 19 21  1  0
 20 22  1  0
 21 23  2  0
 22 24  2  0
 23 24  1  0
M  END
>  <ref_url>  (844) 
https://fakepage.com

>  <submitter_name>  (844) 
Steph Wills

>  <submitter_email>  (844) 
stephanie.wills@dtc.ox.ac.uk

>  <submitter_institution>  (844) 
University of Oxford

>  <generation_date>  (844) 
2020-06-04

>  <method>  (844) 
Fragment network

>  <ref_mols>  (844) 
x0034_0B,x0212_0B

>  <ref_pdb>  (844) 
references/x0034-0B-x0212-0B-16333.holo_minimised_nolig.pdb

>  <original SMILES>  (844) 
Cc1cccc(NC(=O)NCCC(O)COCc2ccccc2)c1

>  <synthon>  (844) 
[Xe]c1ccccc1

>  <original_name>  (844) 
x0034-0B-x0212-0B-16333

>  <comRMSD_score>  (844) 
0.6089580240049384

>  <IF_score>  (844) 
0.625

>  <SuCOS_score>  (844) 
0.4438428221100602

>  <compound_ID>  (844) 
REAL:Z2708087547

$$$$

     RDKit          3D

 20 21  0  0  0  0  0  0  0  0999 V2000
   -7.2910    2.3450  -79.2250 C   0  0  0  0  0  0  0  0  0  0  0  0
   -8.1140    1.5960  -80.2330 C   0  0  0  0  0  0  0  0  0  0  0  0
   -8.2200    2.0970  -81.5220 C   0  0  0  0  0  0  0  0  0  0  0  0
   -8.7950    0.4060  -79.9440 C   0  0  0  0  0  0  0  0  0  0  0  0
   -8.9690    1.4300  -82.4840 C   0  0  0  0  0  0  0  0  0  0  0  0
   -9.5440   -0.2670  -80.9020 C   0  0  0  0  0  0  0  0  0  0  0  0
   -8.8140   -0.1980  -78.7410 N   0  0  0  0  0  0  0  0  0  0  0  0
   -9.6300    0.2470  -82.1780 C   0  0  0  0  0  0  0  0  0  0  0  0
  -10.0000   -0.5410  -78.1460 C   0  0  0  0  0  0  0  0  0  0  0  0
  -11.0750   -0.8670  -78.6530 O   0  0  0  0  0  0  0  0  0  0  0  0
  -10.0120   -0.5250  -76.6490 C   0  0  0  0  0  0  0  0  0  0  0  0
   -8.3320   -0.4730  -76.0400 S   0  0  0  0  0  0  0  0  0  0  0  0
   -8.5970   -0.7570  -74.4350 O   0  0  0  0  0  0  0  0  0  0  0  0
   -7.8950    1.2850  -76.3810 C   0  0  0  0  0  0  0  0  0  0  0  0
   -9.0450    2.3050  -76.4860 C   0  0  0  0  0  0  0  0  0  0  0  0
  -10.0660    2.3720  -75.5440 C   0  0  0  0  0  0  0  0  0  0  0  0
   -9.0810    3.2120  -77.5660 C   0  0  0  0  0  0  0  0  0  0  0  0
  -11.1700    3.4070  -75.7060 C   0  0  0  0  0  0  0  0  0  0  0  0
  -10.0950    4.1580  -77.7170 C   0  0  0  0  0  0  0  0  0  0  0  0
  -11.1360    4.2600  -76.7980 C   0  0  0  0  0  0  0  0  0  0  0  0
  1  2  1  0
  2  3  2  0
  2  4  1  0
  3  5  1  0
  4  6  2  0
  4  7  1  0
  5  8  2  0
  6  8  1  0
  7  9  1  0
  9 10  2  0
  9 11  1  0
 11 12  1  0
 12 13  1  1
 12 14  1  0
 14 15  1  0
 15 16  2  0
 15 17  1  0
 16 18  1  0
 17 19  2  0
 18 20  2  0
 19 20  1  0
M  CHG  2  12   1  13  -1
M  END
>  <ref_url>  (845) 
https://fakepage.com

>  <submitter_name>  (845) 
Steph Wills

>  <submitter_email>  (845) 
stephanie.wills@dtc.ox.ac.uk

>  <submitter_institution>  (845) 
University of Oxford

>  <generation_date>  (845) 
2020-06-04

>  <method>  (845) 
Fragment network

>  <ref_mols>  (845) 
x0034_0B,x0212_0B

>  <ref_pdb>  (845) 
references/x0034-0B-x0212-0B-17553.holo_minimised_nolig.pdb

>  <original SMILES>  (845) 
Cc1ccccc1NC(=O)C[S+]([O-])Cc1ccccc1

>  <synthon>  (845) 
[Xe]c1ccccc1

>  <original_name>  (845) 
x0034-0B-x0212-0B-17553

>  <comRMSD_score>  (845) 
0.6752389605511169

>  <IF_score>  (845) 
0.5666666666666667

>  <SuCOS_score>  (845) 
0.5105766817653883

>  <compound_ID>  (845) 
REAL:Z351124386

$$$$

     RDKit          3D

 24 25  0  0  0  0  0  0  0  0999 V2000
   -7.3760   -3.1770  -80.7990 O   0  0  0  0  0  0  0  0  0  0  0  0
   -8.2330   -3.0420  -79.9290 C   0  0  0  0  0  0  0  0  0  0  0  0
   -9.3180   -1.9950  -80.0140 C   0  0  0  0  0  0  0  0  0  0  0  0
   -8.2900   -3.8320  -78.7910 N   0  0  0  0  0  0  0  0  0  0  0  0
   -8.9770   -0.6970  -80.4450 C   0  0  0  0  0  0  0  0  0  0  0  0
   -7.6470   -3.4350  -77.5170 C   0  0  0  0  0  0  0  0  0  0  0  0
   -9.4070   -0.2410  -81.6880 C   0  0  0  0  0  0  0  0  0  0  0  0
   -8.1980    0.1480  -79.6180 C   0  0  0  0  0  0  0  0  0  0  0  0
   -7.0460   -2.0200  -77.6080 C   0  0  0  0  0  0  0  0  0  0  0  0
   -9.0810    1.0320  -82.1270 C   0  0  0  0  0  0  0  0  0  0  0  0
   -7.8500    1.4330  -80.0180 C   0  0  0  0  0  0  0  0  0  0  0  0
   -7.3020   -1.1870  -76.3360 C   0  0  0  0  0  0  0  0  0  0  0  0
   -8.2710    1.9040  -81.2580 C   0  0  0  0  0  0  0  0  0  0  0  0
   -8.7140   -0.1120  -76.5210 S   0  0  0  0  0  0  0  0  0  0  0  0
   -7.9470    3.1240  -81.6490 F   0  0  0  0  0  0  0  0  0  0  0  0
   -9.4760   -0.1880  -75.2920 O   0  0  0  0  0  0  0  0  0  0  0  0
   -9.3730   -0.4490  -77.7610 O   0  0  0  0  0  0  0  0  0  0  0  0
   -8.0670    1.5570  -76.6400 C   0  0  0  0  0  0  0  0  0  0  0  0
   -9.2210    2.5530  -76.7810 C   0  0  0  0  0  0  0  0  0  0  0  0
  -10.1230    2.6830  -75.7190 C   0  0  0  0  0  0  0  0  0  0  0  0
   -9.3790    3.3190  -77.9520 C   0  0  0  0  0  0  0  0  0  0  0  0
  -11.2980    3.6600  -75.8080 C   0  0  0  0  0  0  0  0  0  0  0  0
  -10.4270    4.2310  -78.1150 C   0  0  0  0  0  0  0  0  0  0  0  0
  -11.3840    4.4390  -77.1180 C   0  0  0  0  0  0  0  0  0  0  0  0
  1  2  2  0
  2  3  1  0
  2  4  1  0
  3  5  1  0
  4  6  1  0
  5  7  2  0
  5  8  1  0
  6  9  1  0
  7 10  1  0
  8 11  2  0
  9 12  1  0
 10 13  2  0
 11 13  1  0
 14 12  1  0
 13 15  1  0
 14 16  2  0
 14 17  2  0
 14 18  1  0
 18 19  1  0
 19 20  2  0
 19 21  1  0
 20 22  1  0
 21 23  2  0
 22 24  2  0
 23 24  1  0
M  END
>  <ref_url>  (846) 
https://fakepage.com

>  <submitter_name>  (846) 
Steph Wills

>  <submitter_email>  (846) 
stephanie.wills@dtc.ox.ac.uk

>  <submitter_institution>  (846) 
University of Oxford

>  <generation_date>  (846) 
2020-06-04

>  <method>  (846) 
Fragment network

>  <ref_mols>  (846) 
x0034_0B,x0212_0B

>  <ref_pdb>  (846) 
references/x0034-0B-x0212-0B-18361.holo_minimised_nolig.pdb

>  <original SMILES>  (846) 
O=C(Cc1ccc(F)cc1)NCCCS(=O)(=O)Cc1ccccc1

>  <synthon>  (846) 
[Xe]c1ccccc1

>  <original_name>  (846) 
x0034-0B-x0212-0B-18361

>  <comRMSD_score>  (846) 
0.5138396492926416

>  <IF_score>  (846) 
0.625

>  <SuCOS_score>  (846) 
0.5663957948260671

>  <compound_ID>  (846) 
MOLPORT:009-080-204

$$$$

     RDKit          3D

 24 25  0  0  0  0  0  0  0  0999 V2000
   -6.8280    2.9380  -79.8750 C   0  0  0  0  0  0  0  0  0  0  0  0
   -7.7980    1.8680  -80.2470 C   0  0  0  0  0  0  0  0  0  0  0  0
   -8.5110    1.9360  -81.4440 C   0  0  0  0  0  0  0  0  0  0  0  0
   -7.9940    0.8010  -79.3900 C   0  0  0  0  0  0  0  0  0  0  0  0
   -9.4360    0.9360  -81.7720 C   0  0  0  0  0  0  0  0  0  0  0  0
   -8.9010   -0.1860  -79.7030 C   0  0  0  0  0  0  0  0  0  0  0  0
   -9.6240   -0.1230  -80.8740 C   0  0  0  0  0  0  0  0  0  0  0  0
  -10.7640   -1.4520  -81.0930 S   0  0  0  0  0  0  0  0  0  0  0  0
  -10.0490   -2.6530  -81.4660 O   0  0  0  0  0  0  0  0  0  0  0  0
  -11.8800   -0.9530  -81.8630 O   0  0  0  0  0  0  0  0  0  0  0  0
  -11.3270   -1.6430  -79.5120 N   0  0  0  0  0  0  0  0  0  0  0  0
  -10.4110   -1.7370  -78.3340 C   0  0  0  0  0  0  0  0  0  0  0  0
  -10.7530   -0.6790  -77.2760 C   0  0  0  0  0  0  0  0  0  0  0  0
  -11.7650    0.0130  -77.3220 O   0  0  0  0  0  0  0  0  0  0  0  0
   -9.8090   -0.5960  -76.2580 O   0  0  0  0  0  0  0  0  0  0  0  0
   -8.4680   -0.2370  -76.6420 C   0  0  0  0  0  0  0  0  0  0  0  0
   -8.0890    1.2310  -76.3630 C   0  0  0  0  0  0  0  0  0  0  0  0
   -6.9440    1.5330  -76.0300 O   0  0  0  0  0  0  0  0  0  0  0  0
   -9.1040    2.3230  -76.5050 C   0  0  0  0  0  0  0  0  0  0  0  0
  -10.1400    2.4220  -75.5690 C   0  0  0  0  0  0  0  0  0  0  0  0
   -9.0500    3.2520  -77.5460 C   0  0  0  0  0  0  0  0  0  0  0  0
  -11.1090    3.4250  -75.6690 C   0  0  0  0  0  0  0  0  0  0  0  0
  -10.0200    4.2480  -77.6460 C   0  0  0  0  0  0  0  0  0  0  0  0
  -11.0500    4.3360  -76.7130 C   0  0  0  0  0  0  0  0  0  0  0  0
  1  2  1  0
  2  3  2  0
  2  4  1  0
  3  5  1  0
  4  6  2  0
  5  7  2  0
  6  7  1  0
  7  8  1  0
  8  9  2  0
  8 10  2  0
  8 11  1  0
 11 12  1  0
 12 13  1  0
 13 14  2  0
 13 15  1  0
 15 16  1  0
 16 17  1  0
 17 18  2  0
 17 19  1  0
 19 20  2  0
 19 21  1  0
 20 22  1  0
 21 23  2  0
 22 24  2  0
 23 24  1  0
M  END
>  <ref_url>  (847) 
https://fakepage.com

>  <submitter_name>  (847) 
Steph Wills

>  <submitter_email>  (847) 
stephanie.wills@dtc.ox.ac.uk

>  <submitter_institution>  (847) 
University of Oxford

>  <generation_date>  (847) 
2020-06-04

>  <method>  (847) 
Fragment network

>  <ref_mols>  (847) 
x0034_0B,x0212_0B

>  <ref_pdb>  (847) 
references/x0034-0B-x0212-0B-18842.holo_minimised_nolig.pdb

>  <original SMILES>  (847) 
Cc1ccc(S(=O)(=O)NCC(=O)OCC(=O)c2ccccc2)cc1

>  <synthon>  (847) 
[Xe]c1ccccc1

>  <original_name>  (847) 
x0034-0B-x0212-0B-18842

>  <comRMSD_score>  (847) 
0.6623638085031625

>  <IF_score>  (847) 
0.65

>  <SuCOS_score>  (847) 
0.4626319904951932

>  <compound_ID>  (847) 
MOLPORT:004-006-680

$$$$

     RDKit          3D

 22 23  0  0  0  0  0  0  0  0999 V2000
  -12.4240    5.4450  -77.4610 C   0  0  0  0  0  0  0  0  0  0  0  0
  -11.3790    4.4300  -77.1200 C   0  0  0  0  0  0  0  0  0  0  0  0
  -11.3770    3.7840  -75.8770 C   0  0  0  0  0  0  0  0  0  0  0  0
  -10.3910    4.1200  -78.0510 C   0  0  0  0  0  0  0  0  0  0  0  0
  -10.3990    2.8420  -75.5780 C   0  0  0  0  0  0  0  0  0  0  0  0
   -9.4150    3.1750  -77.7430 C   0  0  0  0  0  0  0  0  0  0  0  0
   -9.4150    2.5310  -76.4990 C   0  0  0  0  0  0  0  0  0  0  0  0
   -8.4040    1.5920  -76.2450 N   0  0  0  0  0  0  0  0  0  0  0  0
   -8.4820    0.2160  -76.1550 C   0  0  0  0  0  0  0  0  0  0  0  0
   -9.4310   -0.4900  -75.8110 O   0  0  0  0  0  0  0  0  0  0  0  0
   -7.2500   -0.2760  -76.5190 N   0  0  0  0  0  0  0  0  0  0  0  0
   -6.2000    0.5770  -76.8190 C   0  0  0  0  0  0  0  0  0  0  0  0
   -5.2610    1.0570  -75.5220 S   0  0  0  0  0  0  0  0  0  0  0  0
   -6.1030    0.9540  -78.1560 N   0  0  0  0  0  0  0  0  0  0  0  0
   -6.8640    1.8810  -78.8900 C   0  0  0  0  0  0  0  0  0  0  0  0
   -6.8280    3.0840  -78.7390 O   0  0  0  0  0  0  0  0  0  0  0  0
   -7.8020    1.2720  -79.9370 C   0  0  0  0  0  0  0  0  0  0  0  0
   -8.3250    0.0270  -79.6030 C   0  0  0  0  0  0  0  0  0  0  0  0
   -8.1400    1.8740  -81.1660 C   0  0  0  0  0  0  0  0  0  0  0  0
   -9.1840   -0.6320  -80.4720 C   0  0  0  0  0  0  0  0  0  0  0  0
   -9.0010    1.2030  -82.0350 C   0  0  0  0  0  0  0  0  0  0  0  0
   -9.5170   -0.0460  -81.6880 C   0  0  0  0  0  0  0  0  0  0  0  0
  1  2  1  0
  2  3  2  0
  2  4  1  0
  3  5  1  0
  4  6  2  0
  5  7  2  0
  6  7  1  0
  7  8  1  0
  8  9  1  0
  9 10  2  0
  9 11  1  0
 11 12  1  0
 12 13  2  0
 12 14  1  0
 14 15  1  0
 15 16  2  0
 15 17  1  0
 17 18  2  0
 17 19  1  0
 18 20  1  0
 19 21  2  0
 20 22  2  0
 21 22  1  0
M  END
>  <ref_url>  (848) 
https://fakepage.com

>  <submitter_name>  (848) 
Steph Wills

>  <submitter_email>  (848) 
stephanie.wills@dtc.ox.ac.uk

>  <submitter_institution>  (848) 
University of Oxford

>  <generation_date>  (848) 
2020-06-04

>  <method>  (848) 
Fragment network

>  <ref_mols>  (848) 
x0034_0B,x0212_0B

>  <ref_pdb>  (848) 
references/x0034-0B-x0212-0B-20610.holo_minimised_nolig.pdb

>  <original SMILES>  (848) 
Cc1ccc(NC(=O)NC(=S)NC(=O)c2ccccc2)cc1

>  <synthon>  (848) 
[Xe]c1ccccc1

>  <original_name>  (848) 
x0034-0B-x0212-0B-20610

>  <comRMSD_score>  (848) 
0.6197483957817681

>  <IF_score>  (848) 
0.875

>  <SuCOS_score>  (848) 
0.5253285446107643

>  <compound_ID>  (848) 
MOLPORT:002-831-655

$$$$

     RDKit          3D

 20 21  0  0  0  0  0  0  0  0999 V2000
  -13.0370    5.3710  -77.0880 C   0  0  0  0  0  0  0  0  0  0  0  0
  -11.7460    4.6330  -77.1170 C   0  0  0  0  0  0  0  0  0  0  0  0
  -11.0420    4.5730  -78.3140 C   0  0  0  0  0  0  0  0  0  0  0  0
  -11.2310    4.0080  -75.9730 C   0  0  0  0  0  0  0  0  0  0  0  0
   -9.8410    3.9070  -78.3930 C   0  0  0  0  0  0  0  0  0  0  0  0
  -10.0160    3.3420  -76.0550 C   0  0  0  0  0  0  0  0  0  0  0  0
   -9.3440    3.3010  -77.2590 C   0  0  0  0  0  0  0  0  0  0  0  0
   -9.3930    2.7710  -75.2440 O   0  0  0  0  0  0  0  0  0  0  0  0
   -8.1070    2.6860  -75.8530 C   0  0  0  0  0  0  0  0  0  0  0  0
   -8.3040    2.5510  -77.3200 C   0  0  2  0  0  0  0  0  0  0  0  0
   -9.3230    1.6640  -77.6910 C   0  0  0  0  0  0  0  0  0  0  0  0
   -7.1540    2.1640  -77.9640 N   0  0  0  0  0  0  0  0  0  0  0  0
   -7.0330    2.3370  -79.3000 C   0  0  0  0  0  0  0  0  0  0  0  0
   -6.2960    3.1770  -79.8040 O   0  0  0  0  0  0  0  0  0  0  0  0
   -7.7920    1.4950  -80.1210 C   0  0  0  0  0  0  0  0  0  0  0  0
   -8.2430    1.9750  -81.4870 C   0  0  0  0  0  0  0  0  0  0  0  0
   -8.1450    0.2010  -79.6930 C   0  0  0  0  0  0  0  0  0  0  0  0
   -8.9860    1.1260  -82.2830 C   0  0  0  0  0  0  0  0  0  0  0  0
   -8.8970   -0.6480  -80.5110 C   0  0  0  0  0  0  0  0  0  0  0  0
   -9.3190   -0.2290  -81.7710 C   0  0  0  0  0  0  0  0  0  0  0  0
  1  2  1  0
  2  3  2  0
  2  4  1  0
  3  5  1  0
  4  6  2  0
  5  7  2  0
  6  7  1  0
  6  8  1  0
  8  9  1  0
  9 10  1  0
 10 11  1  1
 10 12  1  0
 12 13  1  0
 13 14  2  0
 13 15  1  0
 15 16  2  0
 15 17  1  0
 16 18  1  0
 17 19  2  0
 18 20  2  0
 19 20  1  0
M  END
>  <ref_url>  (849) 
https://fakepage.com

>  <submitter_name>  (849) 
Steph Wills

>  <submitter_email>  (849) 
stephanie.wills@dtc.ox.ac.uk

>  <submitter_institution>  (849) 
University of Oxford

>  <generation_date>  (849) 
2020-06-04

>  <method>  (849) 
Fragment network

>  <ref_mols>  (849) 
x0034_0B,x0212_0B

>  <ref_pdb>  (849) 
references/x0034-0B-x0212-0B-20705.holo_minimised_nolig.pdb

>  <original SMILES>  (849) 
Cc1cccc(OCC(C)NC(=O)c2ccccc2)c1

>  <synthon>  (849) 
[Xe]c1ccccc1

>  <original_name>  (849) 
x0034-0B-x0212-0B-20705

>  <comRMSD_score>  (849) 
0.9977103579362762

>  <IF_score>  (849) 
0.375

>  <SuCOS_score>  (849) 
0.4673042946616619

>  <compound_ID>  (849) 
REAL:Z804230362

$$$$

     RDKit          3D

 29 30  0  0  0  0  0  0  0  0999 V2000
   -6.8680    2.9090  -79.7960 C   0  0  0  0  0  0  0  0  0  0  0  0
   -7.7040    1.7290  -80.2020 C   0  0  0  0  0  0  0  0  0  0  0  0
   -7.7600    0.5920  -79.3970 C   0  0  0  0  0  0  0  0  0  0  0  0
   -8.4340    1.7650  -81.3880 C   0  0  0  0  0  0  0  0  0  0  0  0
   -8.5400   -0.4990  -79.7650 C   0  0  0  0  0  0  0  0  0  0  0  0
   -9.2220    0.6710  -81.7630 C   0  0  0  0  0  0  0  0  0  0  0  0
   -9.2730   -0.4620  -80.9420 C   0  0  0  0  0  0  0  0  0  0  0  0
  -10.2600   -1.8780  -81.3710 S   0  0  0  0  0  0  0  0  0  0  0  0
  -11.3700   -1.4450  -82.1770 O   0  0  0  0  0  0  0  0  0  0  0  0
   -9.3890   -2.9430  -81.8290 O   0  0  0  0  0  0  0  0  0  0  0  0
  -10.9330   -2.4210  -79.9050 N   0  0  0  0  0  0  0  0  0  0  0  0
  -10.0290   -2.7030  -78.7640 C   0  0  0  0  0  0  0  0  0  0  0  0
  -12.2250   -1.7840  -79.5210 C   0  0  0  0  0  0  0  0  0  0  0  0
  -12.2890   -0.8590  -78.3110 C   0  0  0  0  0  0  0  0  0  0  0  0
  -12.9770   -1.1460  -77.3230 O   0  0  0  0  0  0  0  0  0  0  0  0
  -11.5500    0.3090  -78.3900 N   0  0  0  0  0  0  0  0  0  0  0  0
  -11.0430    0.8880  -77.2000 N   0  0  0  0  0  0  0  0  0  0  0  0
  -11.6190    0.5340  -75.9870 C   0  0  0  0  0  0  0  0  0  0  0  0
  -12.8350    0.3880  -75.8090 O   0  0  0  0  0  0  0  0  0  0  0  0
  -10.6170    0.3470  -74.8680 C   0  0  0  0  0  0  0  0  0  0  0  0
   -9.2560   -0.7830  -75.3110 S   0  0  0  0  0  0  0  0  0  0  0  0
   -8.3530    0.0570  -76.6810 C   0  0  0  0  0  0  0  0  0  0  0  0
   -8.0130    1.5640  -76.5620 C   0  0  0  0  0  0  0  0  0  0  0  0
   -9.1470    2.5550  -76.7520 C   0  0  0  0  0  0  0  0  0  0  0  0
   -9.3070    3.2460  -77.9640 C   0  0  0  0  0  0  0  0  0  0  0  0
  -10.0610    2.8070  -75.7250 C   0  0  0  0  0  0  0  0  0  0  0  0
  -10.3510    4.1580  -78.1350 C   0  0  0  0  0  0  0  0  0  0  0  0
  -11.1060    3.7150  -75.8950 C   0  0  0  0  0  0  0  0  0  0  0  0
  -11.2530    4.3930  -77.1030 C   0  0  0  0  0  0  0  0  0  0  0  0
  1  2  1  0
  2  3  2  0
  2  4  1  0
  3  5  1  0
  4  6  2  0
  5  7  2  0
  6  7  1  0
  7  8  1  0
  8  9  2  0
  8 10  2  0
  8 11  1  0
 11 12  1  0
 11 13  1  0
 13 14  1  0
 14 15  2  0
 14 16  1  0
 16 17  1  0
 17 18  1  0
 18 19  2  0
 18 20  1  0
 20 21  1  0
 21 22  1  0
 22 23  1  0
 23 24  1  0
 24 25  2  0
 24 26  1  0
 25 27  1  0
 26 28  2  0
 27 29  2  0
 28 29  1  0
M  END
>  <ref_url>  (850) 
https://fakepage.com

>  <submitter_name>  (850) 
Steph Wills

>  <submitter_email>  (850) 
stephanie.wills@dtc.ox.ac.uk

>  <submitter_institution>  (850) 
University of Oxford

>  <generation_date>  (850) 
2020-06-04

>  <method>  (850) 
Fragment network

>  <ref_mols>  (850) 
x0034_0B,x0212_0B

>  <ref_pdb>  (850) 
references/x0034-0B-x0212-0B-20843.holo_minimised_nolig.pdb

>  <original SMILES>  (850) 
Cc1ccc(S(=O)(=O)N(C)CC(=O)NNC(=O)CSCCc2ccccc2)cc1

>  <synthon>  (850) 
[Xe]c1ccccc1

>  <original_name>  (850) 
x0034-0B-x0212-0B-20843

>  <comRMSD_score>  (850) 
0.8083898491125114

>  <IF_score>  (850) 
0.5833333333333333

>  <SuCOS_score>  (850) 
0.4983400492910212

>  <compound_ID>  (850) 
MOLPORT:005-664-029

$$$$

     RDKit          3D

 26 27  0  0  0  0  0  0  0  0999 V2000
   -7.1060   -3.6380  -79.6440 C   0  0  0  0  0  0  0  0  0  0  0  0
   -8.1420   -2.8270  -78.9720 N   0  0  0  0  0  0  0  0  0  0  0  0
   -8.3630   -3.1850  -77.5310 C   0  0  0  0  0  0  0  0  0  0  0  0
   -9.4650   -2.3400  -79.9340 S   0  0  0  0  0  0  0  0  0  0  0  0
   -9.7600   -3.7260  -77.1750 C   0  0  0  0  0  0  0  0  0  0  0  0
   -9.4580   -3.1610  -81.1290 O   0  0  0  0  0  0  0  0  0  0  0  0
  -10.6300   -2.2610  -79.0840 O   0  0  0  0  0  0  0  0  0  0  0  0
   -9.0020   -0.6950  -80.4360 C   0  0  0  0  0  0  0  0  0  0  0  0
  -10.7690   -2.6970  -76.9680 N   0  0  0  0  0  0  0  0  0  0  0  0
   -9.3860   -0.2340  -81.6930 C   0  0  0  0  0  0  0  0  0  0  0  0
   -8.2550    0.1210  -79.5730 C   0  0  0  0  0  0  0  0  0  0  0  0
  -10.5920   -1.4330  -76.4660 C   0  0  0  0  0  0  0  0  0  0  0  0
   -9.0220    1.0480  -82.0950 C   0  0  0  0  0  0  0  0  0  0  0  0
   -7.8980    1.4020  -79.9870 C   0  0  0  0  0  0  0  0  0  0  0  0
  -11.2350   -1.0880  -75.4770 O   0  0  0  0  0  0  0  0  0  0  0  0
   -9.6000   -0.5210  -77.1740 C   0  0  0  0  0  0  0  0  0  0  0  0
   -8.2840    1.8470  -81.2370 C   0  0  0  0  0  0  0  0  0  0  0  0
   -8.5210    0.0250  -76.2360 C   0  0  0  0  0  0  0  0  0  0  0  0
   -7.9400    3.0690  -81.6210 F   0  0  0  0  0  0  0  0  0  0  0  0
   -8.0430    1.4570  -76.5780 C   0  0  0  0  0  0  0  0  0  0  0  0
   -9.1780    2.4470  -76.7400 C   0  0  0  0  0  0  0  0  0  0  0  0
   -9.3040    3.2080  -77.9160 C   0  0  0  0  0  0  0  0  0  0  0  0
  -10.1230    2.6280  -75.7240 C   0  0  0  0  0  0  0  0  0  0  0  0
  -10.3500    4.1200  -78.0680 C   0  0  0  0  0  0  0  0  0  0  0  0
  -11.1680    3.5410  -75.8730 C   0  0  0  0  0  0  0  0  0  0  0  0
  -11.2850    4.2880  -77.0480 C   0  0  0  0  0  0  0  0  0  0  0  0
  1  2  1  0
  2  3  1  0
  4  2  1  0
  3  5  1  0
  4  6  2  0
  4  7  2  0
  4  8  1  0
  5  9  1  0
  8 10  2  0
  8 11  1  0
  9 12  1  0
 10 13  1  0
 11 14  2  0
 12 15  2  0
 12 16  1  0
 13 17  2  0
 14 17  1  0
 16 18  1  0
 17 19  1  0
 18 20  1  0
 20 21  1  0
 21 22  2  0
 21 23  1  0
 22 24  1  0
 23 25  2  0
 24 26  2  0
 25 26  1  0
M  END
>  <ref_url>  (851) 
https://fakepage.com

>  <submitter_name>  (851) 
Steph Wills

>  <submitter_email>  (851) 
stephanie.wills@dtc.ox.ac.uk

>  <submitter_institution>  (851) 
University of Oxford

>  <generation_date>  (851) 
2020-06-04

>  <method>  (851) 
Fragment network

>  <ref_mols>  (851) 
x0034_0B,x0212_0B

>  <ref_pdb>  (851) 
references/x0034-0B-x0212-0B-21793.holo_minimised_nolig.pdb

>  <original SMILES>  (851) 
CN(CCNC(=O)CCCc1ccccc1)S(=O)(=O)c1ccc(F)cc1

>  <synthon>  (851) 
[Xe]c1ccccc1

>  <original_name>  (851) 
x0034-0B-x0212-0B-21793

>  <comRMSD_score>  (851) 
0.5564136151381549

>  <IF_score>  (851) 
0.625

>  <SuCOS_score>  (851) 
0.4973738811772699

>  <compound_ID>  (851) 
REAL:Z1974846457

$$$$

     RDKit          3D

 21 22  0  0  0  0  0  0  0  0999 V2000
  -12.5960    5.3730  -77.1950 C   0  0  0  0  0  0  0  0  0  0  0  0
  -11.5420    4.3310  -77.0110 C   0  0  0  0  0  0  0  0  0  0  0  0
  -10.7560    3.9680  -78.1000 C   0  0  0  0  0  0  0  0  0  0  0  0
  -11.3220    3.7110  -75.7740 C   0  0  0  0  0  0  0  0  0  0  0  0
   -9.7670    3.0090  -77.9590 C   0  0  0  0  0  0  0  0  0  0  0  0
  -10.3230    2.7510  -75.6390 C   0  0  0  0  0  0  0  0  0  0  0  0
   -9.5280    2.3890  -76.7260 C   0  0  0  0  0  0  0  0  0  0  0  0
   -8.5160    1.4300  -76.5280 N   0  0  0  0  0  0  0  0  0  0  0  0
   -8.6180    0.0460  -76.3930 C   0  0  0  0  0  0  0  0  0  0  0  0
   -7.2210    2.0420  -76.8310 C   0  0  0  0  0  0  0  0  0  0  0  0
   -7.3860    3.0020  -78.0210 C   0  0  1  0  0  0  0  0  0  0  0  0
   -8.2560    4.0560  -77.6280 O   0  0  0  0  0  0  0  0  0  0  0  0
   -6.1210    3.5560  -78.6630 C   0  0  0  0  0  0  0  0  0  0  0  0
   -5.8720    2.6860  -79.7420 O   0  0  0  0  0  0  0  0  0  0  0  0
   -6.5830    1.5360  -79.3260 C   0  0  0  0  0  0  0  0  0  0  0  0
   -7.5490    1.0770  -80.2070 C   0  0  0  0  0  0  0  0  0  0  0  0
   -7.9720    1.7740  -81.3460 C   0  0  0  0  0  0  0  0  0  0  0  0
   -8.1250   -0.1790  -79.9120 C   0  0  0  0  0  0  0  0  0  0  0  0
   -8.9950    1.1710  -82.2120 C   0  0  0  0  0  0  0  0  0  0  0  0
   -9.1040   -0.7840  -80.7100 C   0  0  0  0  0  0  0  0  0  0  0  0
   -9.5650   -0.1630  -81.8550 C   0  0  0  0  0  0  0  0  0  0  0  0
  1  2  1  0
  2  3  2  0
  2  4  1  0
  3  5  1  0
  4  6  2  0
  5  7  2  0
  6  7  1  0
  7  8  1  0
  8  9  1  0
  8 10  1  0
 10 11  1  0
 11 12  1  1
 11 13  1  0
 13 14  1  0
 14 15  1  0
 15 16  1  0
 16 17  2  0
 16 18  1  0
 17 19  1  0
 18 20  2  0
 19 21  2  0
 20 21  1  0
M  END
>  <ref_url>  (852) 
https://fakepage.com

>  <submitter_name>  (852) 
Steph Wills

>  <submitter_email>  (852) 
stephanie.wills@dtc.ox.ac.uk

>  <submitter_institution>  (852) 
University of Oxford

>  <generation_date>  (852) 
2020-06-04

>  <method>  (852) 
Fragment network

>  <ref_mols>  (852) 
x0034_0B,x0212_0B

>  <ref_pdb>  (852) 
references/x0034-0B-x0212-0B-22572.holo_minimised_nolig.pdb

>  <original SMILES>  (852) 
Cc1ccc(N(C)CC(O)COCc2ccccc2)cc1

>  <synthon>  (852) 
[Xe]c1ccccc1

>  <original_name>  (852) 
x0034-0B-x0212-0B-22572

>  <comRMSD_score>  (852) 
0.6514797685952256

>  <IF_score>  (852) 
0.625

>  <SuCOS_score>  (852) 
0.4538534438153785

>  <compound_ID>  (852) 
CHEMSPACE-BB:CSMB00108003450, CHEMSPACE-BB:CSMB00110448474, CHEMSPACE-BB:CSMB00110448492

$$$$

     RDKit          3D

 20 21  0  0  0  0  0  0  0  0999 V2000
  -12.3660    5.1900  -77.4130 C   0  0  0  0  0  0  0  0  0  0  0  0
  -11.2470    4.2590  -77.0660 C   0  0  0  0  0  0  0  0  0  0  0  0
  -11.2280    3.5550  -75.8520 C   0  0  0  0  0  0  0  0  0  0  0  0
  -10.1940    4.0840  -77.9590 C   0  0  0  0  0  0  0  0  0  0  0  0
  -10.1720    2.6910  -75.5430 C   0  0  0  0  0  0  0  0  0  0  0  0
   -9.1420    3.2240  -77.6400 C   0  0  0  0  0  0  0  0  0  0  0  0
   -9.1170    2.5180  -76.4320 C   0  0  0  0  0  0  0  0  0  0  0  0
   -8.0150    1.7110  -76.2450 O   0  0  0  0  0  0  0  0  0  0  0  0
   -8.1290    0.2810  -76.2700 C   0  0  0  0  0  0  0  0  0  0  0  0
   -7.4360   -0.2520  -77.5110 C   0  0  0  0  0  0  0  0  0  0  0  0
   -7.6390   -1.3760  -77.9860 O   0  0  0  0  0  0  0  0  0  0  0  0
   -6.5070    0.5910  -78.1110 N   0  0  0  0  0  0  0  0  0  0  0  0
   -6.5770    1.9510  -78.1630 N   0  0  0  0  0  0  0  0  0  0  0  0
   -7.3170    2.4380  -79.1140 C   0  0  0  0  0  0  0  0  0  0  0  0
   -8.0540    1.5680  -80.0510 C   0  0  0  0  0  0  0  0  0  0  0  0
   -8.3010    2.0050  -81.3510 C   0  0  0  0  0  0  0  0  0  0  0  0
   -8.5050    0.3140  -79.6370 C   0  0  0  0  0  0  0  0  0  0  0  0
   -9.0000    1.1760  -82.2260 C   0  0  0  0  0  0  0  0  0  0  0  0
   -9.2000   -0.5090  -80.5120 C   0  0  0  0  0  0  0  0  0  0  0  0
   -9.4480   -0.0750  -81.8040 C   0  0  0  0  0  0  0  0  0  0  0  0
  1  2  1  0
  2  3  2  0
  2  4  1  0
  3  5  1  0
  4  6  2  0
  5  7  2  0
  6  7  1  0
  7  8  1  0
  8  9  1  0
  9 10  1  0
 10 11  2  0
 10 12  1  0
 12 13  1  0
 13 14  2  3
 14 15  1  0
 15 16  2  0
 15 17  1  0
 16 18  1  0
 17 19  2  0
 18 20  2  0
 19 20  1  0
M  END
>  <ref_url>  (853) 
https://fakepage.com

>  <submitter_name>  (853) 
Steph Wills

>  <submitter_email>  (853) 
stephanie.wills@dtc.ox.ac.uk

>  <submitter_institution>  (853) 
University of Oxford

>  <generation_date>  (853) 
2020-06-04

>  <method>  (853) 
Fragment network

>  <ref_mols>  (853) 
x0034_0B,x0212_0B

>  <ref_pdb>  (853) 
references/x0034-0B-x0212-0B-23417.holo_minimised_nolig.pdb

>  <original SMILES>  (853) 
Cc1ccc(OCC(=O)NN=Cc2ccccc2)cc1

>  <synthon>  (853) 
[Xe]c1ccccc1

>  <original_name>  (853) 
x0034-0B-x0212-0B-23417

>  <comRMSD_score>  (853) 
0.6677091016636244

>  <IF_score>  (853) 
0.625

>  <SuCOS_score>  (853) 
0.4861675155257526

>  <compound_ID>  (853) 
MOLPORT:000-430-884, MOLPORT:039-062-349

$$$$

     RDKit          3D

 26 27  0  0  0  0  0  0  0  0999 V2000
   -6.7350    2.5170  -79.5530 C   0  0  0  0  0  0  0  0  0  0  0  0
   -7.8100    1.6200  -80.1580 C   0  0  0  0  0  0  0  0  0  0  0  0
   -8.0870    0.3430  -79.3510 C   0  0  0  0  0  0  0  0  0  0  0  0
   -8.5000    1.9110  -81.3340 C   0  0  0  0  0  0  0  0  0  0  0  0
   -9.1820   -0.5180  -79.9480 C   0  0  0  0  0  0  0  0  0  0  0  0
   -9.5060    1.0610  -81.8380 C   0  0  0  0  0  0  0  0  0  0  0  0
   -9.8790   -0.1260  -81.1780 C   0  0  0  0  0  0  0  0  0  0  0  0
  -11.1860   -1.1970  -81.7360 S   0  0  0  0  0  0  0  0  0  0  0  0
  -10.6240   -2.3840  -82.3380 O   0  0  0  0  0  0  0  0  0  0  0  0
  -12.1840   -0.3740  -82.3830 O   0  0  0  0  0  0  0  0  0  0  0  0
  -11.9120   -1.6950  -80.3010 N   0  0  0  0  0  0  0  0  0  0  0  0
  -11.3040   -1.3530  -79.0320 C   0  0  0  0  0  0  0  0  0  0  0  0
  -12.3160   -1.1090  -77.9060 C   0  0  0  0  0  0  0  0  0  0  0  0
  -11.7940    0.0210  -77.0940 N   0  0  0  0  0  0  0  0  0  0  0  0
  -12.5750    0.9740  -76.4190 C   0  0  0  0  0  0  0  0  0  0  0  0
  -10.4420    0.3240  -77.1290 C   0  0  0  0  0  0  0  0  0  0  0  0
   -9.9250    0.8750  -78.0860 O   0  0  0  0  0  0  0  0  0  0  0  0
   -9.6600   -0.0260  -76.0080 C   0  0  0  0  0  0  0  0  0  0  0  0
   -8.2900    0.2510  -76.2000 C   0  0  0  0  0  0  0  0  0  0  0  0
   -8.0110    1.5380  -76.7090 C   0  0  0  0  0  0  0  0  0  0  0  0
   -9.1220    2.5530  -76.7770 C   0  0  0  0  0  0  0  0  0  0  0  0
  -10.0480    2.6570  -75.7160 C   0  0  0  0  0  0  0  0  0  0  0  0
   -9.2260    3.3890  -77.9040 C   0  0  0  0  0  0  0  0  0  0  0  0
  -11.1040    3.5910  -75.7430 C   0  0  0  0  0  0  0  0  0  0  0  0
  -10.2400    4.3170  -77.9770 C   0  0  0  0  0  0  0  0  0  0  0  0
  -11.2300    4.4260  -76.8530 C   0  0  0  0  0  0  0  0  0  0  0  0
  1  2  1  0
  2  3  2  0
  2  4  1  0
  3  5  1  0
  4  6  2  0
  5  7  2  0
  6  7  1  0
  7  8  1  0
  8  9  2  0
  8 10  2  0
  8 11  1  0
 11 12  1  0
 12 13  1  0
 13 14  1  0
 14 15  1  0
 14 16  1  0
 16 17  2  0
 16 18  1  0
 18 19  1  0
 19 20  1  0
 20 21  1  0
 21 22  2  0
 21 23  1  0
 22 24  1  0
 23 25  2  0
 24 26  2  0
 25 26  1  0
M  END
>  <ref_url>  (854) 
https://fakepage.com

>  <submitter_name>  (854) 
Steph Wills

>  <submitter_email>  (854) 
stephanie.wills@dtc.ox.ac.uk

>  <submitter_institution>  (854) 
University of Oxford

>  <generation_date>  (854) 
2020-06-04

>  <method>  (854) 
Fragment network

>  <ref_mols>  (854) 
x0034_0B,x0212_0B

>  <ref_pdb>  (854) 
references/x0034-0B-x0212-0B-23700.holo_minimised_nolig.pdb

>  <original SMILES>  (854) 
Cc1ccc(S(=O)(=O)NCCN(C)C(=O)CCCc2ccccc2)cc1

>  <synthon>  (854) 
[Xe]c1ccccc1

>  <original_name>  (854) 
x0034-0B-x0212-0B-23700

>  <comRMSD_score>  (854) 
0.7273802306909363

>  <IF_score>  (854) 
0.65

>  <SuCOS_score>  (854) 
0.5010853691841437

>  <compound_ID>  (854) 
REAL:Z1275851761

$$$$

     RDKit          3D

 19 20  0  0  0  0  0  0  0  0999 V2000
  -12.3560    5.1640  -77.5660 C   0  0  0  0  0  0  0  0  0  0  0  0
  -11.2190    4.3080  -77.0990 C   0  0  0  0  0  0  0  0  0  0  0  0
  -11.2830    3.6120  -75.8890 C   0  0  0  0  0  0  0  0  0  0  0  0
  -10.0680    4.1960  -77.8750 C   0  0  0  0  0  0  0  0  0  0  0  0
  -10.2180    2.8190  -75.4650 C   0  0  0  0  0  0  0  0  0  0  0  0
   -8.9940    3.4060  -77.4400 C   0  0  0  0  0  0  0  0  0  0  0  0
   -9.0550    2.7010  -76.2220 C   0  0  0  0  0  0  0  0  0  0  0  0
   -7.9440    1.9400  -75.8790 O   0  0  0  0  0  0  0  0  0  0  0  0
   -8.1420    0.5280  -75.9530 C   0  0  0  0  0  0  0  0  0  0  0  0
   -8.8730    0.1660  -77.1880 C   0  0  0  0  0  0  0  0  0  0  0  0
   -9.3500   -0.9320  -77.4620 O   0  0  0  0  0  0  0  0  0  0  0  0
   -8.8880    1.3370  -77.9110 O   0  0  0  0  0  0  0  0  0  0  0  0
   -7.7570    1.7170  -78.7380 C   0  0  0  0  0  0  0  0  0  0  0  0
   -8.2390    1.1140  -79.9980 C   0  0  0  0  0  0  0  0  0  0  0  0
   -8.3840    1.8290  -81.1910 C   0  0  0  0  0  0  0  0  0  0  0  0
   -8.5550   -0.2150  -79.8780 C   0  0  0  0  0  0  0  0  0  0  0  0
   -8.8850    1.1390  -82.2800 C   0  0  0  0  0  0  0  0  0  0  0  0
   -9.0500   -0.8860  -80.9590 C   0  0  0  0  0  0  0  0  0  0  0  0
   -9.2150   -0.2080  -82.1490 C   0  0  0  0  0  0  0  0  0  0  0  0
  1  2  1  0
  2  3  2  0
  2  4  1  0
  3  5  1  0
  4  6  2  0
  5  7  2  0
  6  7  1  0
  7  8  1  0
  8  9  1  0
  9 10  1  0
 10 11  2  0
 10 12  1  0
 12 13  1  0
 13 14  1  0
 14 15  2  0
 14 16  1  0
 15 17  1  0
 16 18  2  0
 17 19  2  0
 18 19  1  0
M  END
>  <ref_url>  (855) 
https://fakepage.com

>  <submitter_name>  (855) 
Steph Wills

>  <submitter_email>  (855) 
stephanie.wills@dtc.ox.ac.uk

>  <submitter_institution>  (855) 
University of Oxford

>  <generation_date>  (855) 
2020-06-04

>  <method>  (855) 
Fragment network

>  <ref_mols>  (855) 
x0034_0B,x0212_0B

>  <ref_pdb>  (855) 
references/x0034-0B-x0212-0B-23937.holo_minimised_nolig.pdb

>  <original SMILES>  (855) 
Cc1ccc(OCC(=O)OCc2ccccc2)cc1

>  <synthon>  (855) 
[Xe]c1ccccc1

>  <original_name>  (855) 
x0034-0B-x0212-0B-23937

>  <comRMSD_score>  (855) 
0.8009815275069752

>  <IF_score>  (855) 
0.625

>  <SuCOS_score>  (855) 
0.4676210289889652

>  <compound_ID>  (855) 
CHEMSPACE-BB:CSMB00103804363

$$$$

     RDKit          3D

 30 31  0  0  0  0  0  0  0  0999 V2000
   -7.0420    2.7450  -79.4850 C   0  0  0  0  0  0  0  0  0  0  0  0
   -7.8540    1.6320  -80.0780 C   0  0  0  0  0  0  0  0  0  0  0  0
   -8.0790    0.4810  -79.3240 C   0  0  0  0  0  0  0  0  0  0  0  0
   -8.3970    1.7190  -81.3730 C   0  0  0  0  0  0  0  0  0  0  0  0
   -8.8230   -0.5590  -79.8110 C   0  0  0  0  0  0  0  0  0  0  0  0
   -9.1610    0.6510  -81.8830 C   0  0  0  0  0  0  0  0  0  0  0  0
   -9.3670   -0.4890  -81.0700 C   0  0  0  0  0  0  0  0  0  0  0  0
  -10.3010   -1.9330  -81.4900 S   0  0  0  0  0  0  0  0  0  0  0  0
  -11.5030   -1.5540  -82.1820 O   0  0  0  0  0  0  0  0  0  0  0  0
  -10.3940   -2.7340  -80.2930 O   0  0  0  0  0  0  0  0  0  0  0  0
   -9.2140   -2.7320  -82.4900 N   0  0  0  0  0  0  0  0  0  0  0  0
   -8.9100   -4.1480  -82.1550 C   0  0  1  0  0  0  0  0  0  0  0  0
   -8.7070   -4.9050  -83.4600 C   0  0  0  0  0  0  0  0  0  0  0  0
   -7.6370   -4.2460  -81.2990 C   0  0  0  0  0  0  0  0  0  0  0  0
   -6.5040   -4.3220  -81.7650 O   0  0  0  0  0  0  0  0  0  0  0  0
   -7.9350   -4.2440  -79.9620 O   0  0  0  0  0  0  0  0  0  0  0  0
   -6.8880   -3.7730  -79.1000 C   0  0  0  0  0  0  0  0  0  0  0  0
   -7.4510   -3.0730  -77.8540 C   0  0  0  0  0  0  0  0  0  0  0  0
   -8.1490   -3.6390  -77.0140 O   0  0  0  0  0  0  0  0  0  0  0  0
   -7.0920   -1.7350  -77.7680 N   0  0  0  0  0  0  0  0  0  0  0  0
   -7.0670   -1.0060  -76.4950 C   0  0  1  0  0  0  0  0  0  0  0  0
   -5.7410   -0.2490  -76.4050 C   0  0  0  0  0  0  0  0  0  0  0  0
   -8.2990   -0.0920  -76.4120 C   0  0  0  0  0  0  0  0  0  0  0  0
   -8.0060    1.4120  -76.6280 C   0  0  0  0  0  0  0  0  0  0  0  0
   -9.1600    2.3930  -76.7620 C   0  0  0  0  0  0  0  0  0  0  0  0
  -10.0880    2.5710  -75.7260 C   0  0  0  0  0  0  0  0  0  0  0  0
   -9.3260    3.1560  -77.9320 C   0  0  0  0  0  0  0  0  0  0  0  0
  -11.1420    3.4830  -75.8560 C   0  0  0  0  0  0  0  0  0  0  0  0
  -10.3760    4.0650  -78.0650 C   0  0  0  0  0  0  0  0  0  0  0  0
  -11.2870    4.2310  -77.0260 C   0  0  0  0  0  0  0  0  0  0  0  0
  1  2  1  0
  2  3  2  0
  2  4  1  0
  3  5  1  0
  4  6  2  0
  5  7  2  0
  6  7  1  0
  7  8  1  0
  8  9  2  0
  8 10  2  0
  8 11  1  0
 11 12  1  0
 12 13  1  6
 12 14  1  0
 14 15  2  0
 14 16  1  0
 16 17  1  0
 17 18  1  0
 18 19  2  0
 18 20  1  0
 20 21  1  0
 21 22  1  6
 21 23  1  0
 23 24  1  0
 24 25  1  0
 25 26  2  0
 25 27  1  0
 26 28  1  0
 27 29  2  0
 28 30  2  0
 29 30  1  0
M  END
>  <ref_url>  (856) 
https://fakepage.com

>  <submitter_name>  (856) 
Steph Wills

>  <submitter_email>  (856) 
stephanie.wills@dtc.ox.ac.uk

>  <submitter_institution>  (856) 
University of Oxford

>  <generation_date>  (856) 
2020-06-04

>  <method>  (856) 
Fragment network

>  <ref_mols>  (856) 
x0034_0B,x0212_0B

>  <ref_pdb>  (856) 
references/x0034-0B-x0212-0B-24354.holo_minimised_nolig.pdb

>  <original SMILES>  (856) 
Cc1ccc(S(=O)(=O)NC(C)C(=O)OCC(=O)NC(C)CCc2ccccc2)cc1

>  <synthon>  (856) 
[Xe]c1ccccc1

>  <original_name>  (856) 
x0034-0B-x0212-0B-24354

>  <comRMSD_score>  (856) 
0.7281549997793761

>  <IF_score>  (856) 
0.6333333333333333

>  <SuCOS_score>  (856) 
0.4969998136275929

>  <compound_ID>  (856) 
MOLPORT:005-715-977

$$$$

     RDKit          3D

 19 20  0  0  0  0  0  0  0  0999 V2000
  -12.5660    5.3150  -77.5160 C   0  0  0  0  0  0  0  0  0  0  0  0
  -11.3620    4.4500  -77.3220 C   0  0  0  0  0  0  0  0  0  0  0  0
  -10.3790    4.4230  -78.3000 C   0  0  0  0  0  0  0  0  0  0  0  0
  -11.1950    3.6630  -76.1770 C   0  0  0  0  0  0  0  0  0  0  0  0
   -9.2490    3.6420  -78.1490 C   0  0  0  0  0  0  0  0  0  0  0  0
  -10.0580    2.8610  -76.0170 C   0  0  0  0  0  0  0  0  0  0  0  0
   -9.0970    2.8690  -77.0080 C   0  0  0  0  0  0  0  0  0  0  0  0
   -9.8420    2.1530  -75.0810 O   0  0  0  0  0  0  0  0  0  0  0  0
   -9.2990    0.8530  -75.3670 C   0  0  0  0  0  0  0  0  0  0  0  0
   -9.6500    0.4070  -76.7540 C   0  0  0  0  0  0  0  0  0  0  0  0
   -8.7270    0.6010  -77.7820 C   0  0  0  0  0  0  0  0  0  0  0  0
   -7.6800    1.2470  -77.6280 O   0  0  0  0  0  0  0  0  0  0  0  0
   -7.2340    1.8380  -78.8520 C   0  0  0  0  0  0  0  0  0  0  0  0
   -7.8960    1.2730  -79.9360 C   0  0  0  0  0  0  0  0  0  0  0  0
   -8.2150    1.9970  -81.2380 C   0  0  0  0  0  0  0  0  0  0  0  0
   -8.2870   -0.0640  -79.7750 C   0  0  0  0  0  0  0  0  0  0  0  0
   -8.8940    1.2930  -82.2140 C   0  0  0  0  0  0  0  0  0  0  0  0
   -8.9650   -0.7490  -80.7560 C   0  0  0  0  0  0  0  0  0  0  0  0
   -9.2710   -0.1170  -81.9420 C   0  0  0  0  0  0  0  0  0  0  0  0
  1  2  1  0
  2  3  2  0
  2  4  1  0
  3  5  1  0
  4  6  2  0
  5  7  2  0
  6  7  1  0
  6  8  1  0
  8  9  1  0
  9 10  1  0
 10 11  1  0
 11 12  1  0
 12 13  1  0
 13 14  1  0
 14 15  2  0
 14 16  1  0
 15 17  1  0
 16 18  2  0
 17 19  2  0
 18 19  1  0
M  END
>  <ref_url>  (857) 
https://fakepage.com

>  <submitter_name>  (857) 
Steph Wills

>  <submitter_email>  (857) 
stephanie.wills@dtc.ox.ac.uk

>  <submitter_institution>  (857) 
University of Oxford

>  <generation_date>  (857) 
2020-06-04

>  <method>  (857) 
Fragment network

>  <ref_mols>  (857) 
x0034_0B,x0212_0B

>  <ref_pdb>  (857) 
references/x0034-0B-x0212-0B-27005.holo_minimised_nolig.pdb

>  <original SMILES>  (857) 
Cc1cccc(OCCCOCc2ccccc2)c1

>  <synthon>  (857) 
[Xe]c1ccccc1

>  <original_name>  (857) 
x0034-0B-x0212-0B-27005

>  <comRMSD_score>  (857) 
0.78845245893459

>  <IF_score>  (857) 
0.375

>  <SuCOS_score>  (857) 
0.4551695527962595

>  <compound_ID>  (857) 
CHEMSPACE-BB:CSMB00015071368

$$$$

     RDKit          3D

 24 25  0  0  0  0  0  0  0  0999 V2000
  -12.6890    4.8920  -77.9700 C   0  0  0  0  0  0  0  0  0  0  0  0
  -11.3680    4.3060  -77.5460 C   0  0  0  0  0  0  0  0  0  0  0  0
  -11.2240    3.7590  -76.2590 C   0  0  0  0  0  0  0  0  0  0  0  0
  -10.2750    4.2970  -78.4060 C   0  0  0  0  0  0  0  0  0  0  0  0
  -10.0030    3.2240  -75.8510 C   0  0  0  0  0  0  0  0  0  0  0  0
   -9.0560    3.7610  -77.9970 C   0  0  0  0  0  0  0  0  0  0  0  0
   -8.9080    3.2240  -76.7120 C   0  0  0  0  0  0  0  0  0  0  0  0
   -7.3280    2.5680  -76.1870 S   0  0  0  0  0  0  0  0  0  0  0  0
   -6.8880    3.3420  -75.0560 O   0  0  0  0  0  0  0  0  0  0  0  0
   -6.4870    2.5460  -77.3650 O   0  0  0  0  0  0  0  0  0  0  0  0
   -7.5520    0.9130  -75.7940 N   0  0  0  0  0  0  0  0  0  0  0  0
   -6.5610    0.0470  -76.2230 C   0  0  0  0  0  0  0  0  0  0  0  0
   -8.8520    0.4770  -75.7540 C   0  0  0  0  0  0  0  0  0  0  0  0
   -9.2350   -0.0540  -77.1170 C   0  0  1  0  0  0  0  0  0  0  0  0
  -10.6550   -0.2130  -77.0790 O   0  0  0  0  0  0  0  0  0  0  0  0
   -8.9820    0.8530  -78.1350 C   0  0  0  0  0  0  0  0  0  0  0  0
   -7.6380    1.3670  -77.9960 O   0  0  0  0  0  0  0  0  0  0  0  0
   -6.9830    1.6630  -79.2270 C   0  0  0  0  0  0  0  0  0  0  0  0
   -7.8250    0.9360  -80.2390 C   0  0  0  0  0  0  0  0  0  0  0  0
   -8.2680    1.7640  -81.4180 C   0  0  0  0  0  0  0  0  0  0  0  0
   -8.1910   -0.4050  -80.1050 C   0  0  0  0  0  0  0  0  0  0  0  0
   -9.1230    1.0560  -82.4230 C   0  0  0  0  0  0  0  0  0  0  0  0
   -8.9870   -1.0080  -81.0670 C   0  0  0  0  0  0  0  0  0  0  0  0
   -9.4280   -0.2900  -82.1740 C   0  0  0  0  0  0  0  0  0  0  0  0
  1  2  1  0
  2  3  2  0
  2  4  1  0
  3  5  1  0
  4  6  2  0
  5  7  2  0
  6  7  1  0
  7  8  1  0
  8  9  2  0
  8 10  2  0
  8 11  1  0
 11 12  1  0
 11 13  1  0
 13 14  1  0
 14 15  1  1
 14 16  1  0
 16 17  1  0
 17 18  1  0
 18 19  1  0
 19 20  2  0
 19 21  1  0
 20 22  1  0
 21 23  2  0
 22 24  2  0
 23 24  1  0
M  END
>  <ref_url>  (858) 
https://fakepage.com

>  <submitter_name>  (858) 
Steph Wills

>  <submitter_email>  (858) 
stephanie.wills@dtc.ox.ac.uk

>  <submitter_institution>  (858) 
University of Oxford

>  <generation_date>  (858) 
2020-06-04

>  <method>  (858) 
Fragment network

>  <ref_mols>  (858) 
x0034_0B,x0212_0B

>  <ref_pdb>  (858) 
references/x0034-0B-x0212-0B-32606.holo_minimised_nolig.pdb

>  <original SMILES>  (858) 
Cc1ccc(S(=O)(=O)N(C)CC(O)COCc2ccccc2)cc1

>  <synthon>  (858) 
[Xe]c1ccccc1

>  <original_name>  (858) 
x0034-0B-x0212-0B-32606

>  <comRMSD_score>  (858) 
0.9181066265841784

>  <IF_score>  (858) 
0.625

>  <SuCOS_score>  (858) 
0.471911561366891

>  <compound_ID>  (858) 
REAL:Z1496885669

$$$$

     RDKit          3D

 21 22  0  0  0  0  0  0  0  0999 V2000
  -10.0550    4.4160  -79.0130 C   0  0  0  0  0  0  0  0  0  0  0  0
  -10.1450    3.7550  -77.7170 C   0  0  0  0  0  0  0  0  0  0  0  0
  -11.1750    4.0260  -76.8130 C   0  0  0  0  0  0  0  0  0  0  0  0
   -9.1720    2.8470  -77.4330 C   0  0  0  0  0  0  0  0  0  0  0  0
  -11.1890    3.3310  -75.6080 C   0  0  0  0  0  0  0  0  0  0  0  0
   -9.1610    2.1390  -76.2450 C   0  0  0  0  0  0  0  0  0  0  0  0
  -10.1890    2.3880  -75.3320 C   0  0  0  0  0  0  0  0  0  0  0  0
   -8.1180    1.2060  -76.0150 C   0  0  0  0  0  0  0  0  0  0  0  0
   -8.4760   -0.2720  -75.8770 C   0  0  0  0  0  0  0  0  0  0  0  0
   -8.5800   -0.7700  -77.2270 N   0  0  0  0  0  0  0  0  0  0  0  0
   -8.4220    0.4970  -77.9340 C   0  0  0  0  0  0  0  0  0  0  0  0
   -9.5510    1.2430  -78.3840 O   0  0  0  0  0  0  0  0  0  0  0  0
   -6.9230    0.9130  -78.0680 C   0  0  0  0  0  0  0  0  0  0  0  0
   -6.7650    1.9120  -79.2100 C   0  0  2  0  0  0  0  0  0  0  0  0
   -7.1150    3.2430  -78.6990 N   0  0  0  0  0  0  0  0  0  0  0  0
   -7.7130    1.3410  -80.2430 C   0  0  0  0  0  0  0  0  0  0  0  0
   -8.1700   -0.0590  -79.8700 C   0  0  0  0  0  0  0  0  0  0  0  0
   -8.1720    1.9370  -81.4220 C   0  0  0  0  0  0  0  0  0  0  0  0
   -9.0380   -0.7050  -80.7090 C   0  0  0  0  0  0  0  0  0  0  0  0
   -9.0530    1.2510  -82.2650 C   0  0  0  0  0  0  0  0  0  0  0  0
   -9.5230   -0.0410  -81.9810 C   0  0  0  0  0  0  0  0  0  0  0  0
  1  2  1  0
  2  3  2  0
  2  4  1  0
  3  5  1  0
  4  6  2  0
  5  7  2  0
  6  7  1  0
  6  8  1  0
  8  9  1  0
  9 10  1  0
 10 11  1  0
 11 12  2  0
 11 13  1  0
 13 14  1  0
 14 15  1  1
 14 16  1  0
 16 17  2  0
 16 18  1  0
 17 19  1  0
 18 20  2  0
 19 21  2  0
 20 21  1  0
M  END
>  <ref_url>  (859) 
https://fakepage.com

>  <submitter_name>  (859) 
Steph Wills

>  <submitter_email>  (859) 
stephanie.wills@dtc.ox.ac.uk

>  <submitter_institution>  (859) 
University of Oxford

>  <generation_date>  (859) 
2020-06-04

>  <method>  (859) 
Fragment network

>  <ref_mols>  (859) 
x0034_0B,x0212_0B

>  <ref_pdb>  (859) 
references/x0034-0B-x0212-0B-36750.holo_minimised_nolig.pdb

>  <original SMILES>  (859) 
Cc1cccc(CCNC(=O)CC(N)c2ccccc2)c1

>  <synthon>  (859) 
[Xe]c1ccccc1

>  <original_name>  (859) 
x0034-0B-x0212-0B-36750

>  <comRMSD_score>  (859) 
0.8289094352532438

>  <IF_score>  (859) 
0.7083333333333333

>  <SuCOS_score>  (859) 
0.5176408290657517

>  <compound_ID>  (859) 
REAL:Z2436353379

$$$$

     RDKit          3D

 21 22  0  0  0  0  0  0  0  0999 V2000
  -11.9510    5.2160  -77.4650 C   0  0  0  0  0  0  0  0  0  0  0  0
  -10.9480    4.1670  -77.0800 C   0  0  0  0  0  0  0  0  0  0  0  0
  -11.1610    3.3960  -75.9270 C   0  0  0  0  0  0  0  0  0  0  0  0
   -9.7860    3.9240  -77.8430 C   0  0  0  0  0  0  0  0  0  0  0  0
  -10.2470    2.4140  -75.5580 C   0  0  0  0  0  0  0  0  0  0  0  0
   -8.8980    2.9490  -77.4620 C   0  0  0  0  0  0  0  0  0  0  0  0
   -9.5630    4.6710  -78.9490 O   0  0  0  0  0  0  0  0  0  0  0  0
   -9.1160    2.1910  -76.3280 C   0  0  0  0  0  0  0  0  0  0  0  0
   -8.7220    4.0700  -79.9640 C   0  0  0  0  0  0  0  0  0  0  0  0
   -7.1720    4.3170  -79.8660 C   0  0  0  0  0  0  0  0  0  0  0  0
   -6.5110    4.1950  -78.5340 N   0  0  0  0  0  0  0  0  0  0  0  0
   -5.6000    3.2270  -78.2020 C   0  0  0  0  0  0  0  0  0  0  0  0
   -4.5930    3.3910  -77.5090 O   0  0  0  0  0  0  0  0  0  0  0  0
   -5.9890    1.9740  -78.8100 C   0  0  0  0  0  0  0  0  0  0  0  0
   -7.1790    2.1140  -79.3620 C   0  0  0  0  0  0  0  0  0  0  0  0
   -7.9840    1.2020  -80.1100 C   0  0  0  0  0  0  0  0  0  0  0  0
   -8.3590   -0.0310  -79.5870 C   0  0  0  0  0  0  0  0  0  0  0  0
   -8.3960    1.5840  -81.3800 C   0  0  0  0  0  0  0  0  0  0  0  0
   -9.1520   -0.8820  -80.3460 C   0  0  0  0  0  0  0  0  0  0  0  0
   -9.1800    0.7460  -82.1290 C   0  0  0  0  0  0  0  0  0  0  0  0
   -9.5640   -0.4930  -81.6210 C   0  0  0  0  0  0  0  0  0  0  0  0
  1  2  1  0
  2  3  2  0
  2  4  1  0
  3  5  1  0
  4  6  2  0
  4  7  1  0
  5  8  2  0
  6  8  1  0
  7  9  1  0
  9 10  1  0
 10 11  1  0
 11 12  1  0
 12 13  2  0
 12 14  1  0
 14 15  2  3
 15 16  1  0
 16 17  2  0
 16 18  1  0
 17 19  1  0
 18 20  2  0
 19 21  2  0
 20 21  1  0
M  END
>  <ref_url>  (860) 
https://fakepage.com

>  <submitter_name>  (860) 
Steph Wills

>  <submitter_email>  (860) 
stephanie.wills@dtc.ox.ac.uk

>  <submitter_institution>  (860) 
University of Oxford

>  <generation_date>  (860) 
2020-06-04

>  <method>  (860) 
Fragment network

>  <ref_mols>  (860) 
x0034_0B,x0212_0B

>  <ref_pdb>  (860) 
references/x0034-0B-x0212-0B-39749.holo_minimised_nolig.pdb

>  <original SMILES>  (860) 
Cc1ccccc1OCCNC(=O)C=Cc1ccccc1

>  <synthon>  (860) 
[Xe]c1ccccc1

>  <original_name>  (860) 
x0034-0B-x0212-0B-39749

>  <comRMSD_score>  (860) 
0.5767499458170763

>  <IF_score>  (860) 
0.75

>  <SuCOS_score>  (860) 
0.4355525750656581

>  <compound_ID>  (860) 
MOLPORT:001-018-114

$$$$

     RDKit          3D

 23 24  0  0  0  0  0  0  0  0999 V2000
  -12.1180    5.2460  -77.4600 C   0  0  0  0  0  0  0  0  0  0  0  0
  -11.1350    4.2060  -77.0330 C   0  0  0  0  0  0  0  0  0  0  0  0
  -11.2850    3.5380  -75.8050 C   0  0  0  0  0  0  0  0  0  0  0  0
  -10.0270    3.8540  -77.8320 C   0  0  0  0  0  0  0  0  0  0  0  0
  -10.3670    2.5570  -75.3990 C   0  0  0  0  0  0  0  0  0  0  0  0
   -9.1460    2.8830  -77.3990 C   0  0  0  0  0  0  0  0  0  0  0  0
   -9.8320    4.3870  -78.8960 O   0  0  0  0  0  0  0  0  0  0  0  0
   -9.2830    2.2250  -76.2070 C   0  0  0  0  0  0  0  0  0  0  0  0
   -8.8930    3.4540  -79.2820 C   0  0  0  0  0  0  0  0  0  0  0  0
   -7.5000    4.0020  -79.6150 C   0  0  2  0  0  0  0  0  0  0  0  0
   -7.1560    3.5780  -80.9240 O   0  0  0  0  0  0  0  0  0  0  0  0
   -6.5870    3.9290  -78.5240 C   0  0  0  0  0  0  0  0  0  0  0  0
   -6.9100    3.6490  -77.3690 O   0  0  0  0  0  0  0  0  0  0  0  0
   -5.1960    4.2330  -78.8920 N   0  0  0  0  0  0  0  0  0  0  0  0
   -4.5190    3.1000  -79.5840 C   0  0  0  0  0  0  0  0  0  0  0  0
   -5.4690    2.3510  -80.2570 C   0  0  0  0  0  0  0  0  0  0  0  0
   -6.6790    1.8680  -79.5180 C   0  0  0  0  0  0  0  0  0  0  0  0
   -7.7290    1.0890  -80.2390 C   0  0  0  0  0  0  0  0  0  0  0  0
   -8.2190   -0.1040  -79.7050 C   0  0  0  0  0  0  0  0  0  0  0  0
   -8.2240    1.5610  -81.4730 C   0  0  0  0  0  0  0  0  0  0  0  0
   -9.1770   -0.8010  -80.4200 C   0  0  0  0  0  0  0  0  0  0  0  0
   -9.1830    0.8410  -82.1660 C   0  0  0  0  0  0  0  0  0  0  0  0
   -9.6590   -0.3500  -81.6360 C   0  0  0  0  0  0  0  0  0  0  0  0
  1  2  1  0
  2  3  2  0
  2  4  1  0
  3  5  1  0
  4  6  2  0
  4  7  1  0
  5  8  2  0
  6  8  1  0
  7  9  1  0
  9 10  1  0
 10 11  1  6
 10 12  1  0
 12 13  2  0
 12 14  1  0
 14 15  1  0
 15 16  1  0
 16 17  2  3
 17 18  1  0
 18 19  2  0
 18 20  1  0
 19 21  1  0
 20 22  2  0
 21 23  2  0
 22 23  1  0
M  END
>  <ref_url>  (861) 
https://fakepage.com

>  <submitter_name>  (861) 
Steph Wills

>  <submitter_email>  (861) 
stephanie.wills@dtc.ox.ac.uk

>  <submitter_institution>  (861) 
University of Oxford

>  <generation_date>  (861) 
2020-06-04

>  <method>  (861) 
Fragment network

>  <ref_mols>  (861) 
x0034_0B,x0212_0B

>  <ref_pdb>  (861) 
references/x0034-0B-x0212-0B-40119.holo_minimised_nolig.pdb

>  <original SMILES>  (861) 
Cc1ccccc1OCC(O)C(=O)NCC=Cc1ccccc1

>  <synthon>  (861) 
[Xe]c1ccccc1

>  <original_name>  (861) 
x0034-0B-x0212-0B-40119

>  <comRMSD_score>  (861) 
0.6632510208561057

>  <IF_score>  (861) 
0.5416666666666666

>  <SuCOS_score>  (861) 
0.4398920150562463

>  <compound_ID>  (861) 
MOLPORT:045-959-731

$$$$

     RDKit          3D

 18 19  0  0  0  0  0  0  0  0999 V2000
   -7.8680    2.9640  -81.7980 F   0  0  0  0  0  0  0  0  0  0  0  0
   -8.2610    1.8290  -81.2550 C   0  0  0  0  0  0  0  0  0  0  0  0
   -9.1430    0.8880  -81.9730 C   0  0  0  0  0  0  0  0  0  0  0  0
   -7.8580    1.4840  -79.9900 C   0  0  0  0  0  0  0  0  0  0  0  0
   -9.5730   -0.3020  -81.4200 C   0  0  0  0  0  0  0  0  0  0  0  0
   -8.2920    0.2810  -79.4390 C   0  0  0  0  0  0  0  0  0  0  0  0
   -9.1430   -0.6150  -80.1200 C   0  0  0  0  0  0  0  0  0  0  0  0
   -9.5610   -1.8010  -79.5130 N   0  0  0  0  0  0  0  0  0  0  0  0
   -9.7570   -1.8520  -78.0570 C   0  0  0  0  0  0  0  0  0  0  0  0
   -9.7610   -0.4700  -77.4680 C   0  0  0  0  0  0  0  0  0  0  0  0
   -8.4120   -0.2350  -76.2990 S   0  0  0  0  0  0  0  0  0  0  0  0
   -7.8930    1.4920  -76.6130 C   0  0  0  0  0  0  0  0  0  0  0  0
   -9.0850    2.4470  -76.7280 C   0  0  0  0  0  0  0  0  0  0  0  0
   -9.2210    3.2710  -77.9900 C   0  0  0  0  0  0  0  0  0  0  0  0
  -10.0660    2.6100  -75.7320 C   0  0  0  0  0  0  0  0  0  0  0  0
  -10.2850    4.1360  -78.1180 C   0  0  0  0  0  0  0  0  0  0  0  0
  -11.1300    3.5160  -75.9250 C   0  0  0  0  0  0  0  0  0  0  0  0
  -11.2280    4.2630  -77.1110 C   0  0  0  0  0  0  0  0  0  0  0  0
  1  2  1  0
  2  3  2  0
  2  4  1  0
  3  5  1  0
  4  6  2  0
  5  7  2  0
  6  7  1  0
  7  8  1  0
  8  9  1  0
  9 10  1  0
 10 11  1  0
 11 12  1  0
 12 13  1  0
 13 14  2  0
 13 15  1  0
 14 16  1  0
 15 17  2  0
 16 18  2  0
 17 18  1  0
M  END
>  <ref_url>  (862) 
https://fakepage.com

>  <submitter_name>  (862) 
Steph Wills

>  <submitter_email>  (862) 
stephanie.wills@dtc.ox.ac.uk

>  <submitter_institution>  (862) 
University of Oxford

>  <generation_date>  (862) 
2020-06-04

>  <method>  (862) 
Fragment network

>  <ref_mols>  (862) 
x0034_0B,x0212_0B

>  <ref_pdb>  (862) 
references/x0034-0B-x0212-0B-41049.holo_minimised_nolig.pdb

>  <original SMILES>  (862) 
Fc1ccc(NCCSCc2ccccc2)cc1

>  <synthon>  (862) 
[Xe]c1ccccc1

>  <original_name>  (862) 
x0034-0B-x0212-0B-41049

>  <comRMSD_score>  (862) 
0.5504576277970895

>  <IF_score>  (862) 
0.625

>  <SuCOS_score>  (862) 
0.4940662105249208

>  <compound_ID>  (862) 
CHEMSPACE-BB:CSMB00003314308

$$$$

     RDKit          3D

 24 25  0  0  0  0  0  0  0  0999 V2000
  -12.3170    5.1570  -77.5700 C   0  0  0  0  0  0  0  0  0  0  0  0
  -11.1920    4.2090  -77.1790 C   0  0  0  0  0  0  0  0  0  0  0  0
  -10.0810    4.0680  -78.0070 C   0  0  0  0  0  0  0  0  0  0  0  0
  -11.2410    3.4650  -75.9940 C   0  0  0  0  0  0  0  0  0  0  0  0
   -8.9780    3.1520  -77.6260 C   0  0  0  0  0  0  0  0  0  0  0  0
  -10.2050    2.6010  -75.6440 C   0  0  0  0  0  0  0  0  0  0  0  0
   -9.0590    2.4230  -76.4290 C   0  0  0  0  0  0  0  0  0  0  0  0
   -8.0300    1.5440  -76.0090 C   0  0  1  0  0  0  0  0  0  0  0  0
   -8.1700    0.2190  -76.4490 C   0  0  0  0  0  0  0  0  0  0  0  0
   -6.7540    2.0070  -76.2900 N   0  0  0  0  0  0  0  0  0  0  0  0
   -7.7000   -0.0010  -77.7240 N   0  0  0  0  0  0  0  0  0  0  0  0
   -5.6660    1.3180  -75.5840 C   0  0  0  0  0  0  0  0  0  0  0  0
   -6.6500    3.4480  -76.0410 C   0  0  0  0  0  0  0  0  0  0  0  0
   -6.2760    0.0610  -78.0580 C   0  0  0  0  0  0  0  0  0  0  0  0
   -5.4180   -0.7780  -77.7690 O   0  0  0  0  0  0  0  0  0  0  0  0
   -5.8680    1.3140  -78.8740 C   0  0  0  0  0  0  0  0  0  0  0  0
   -6.9160    2.2030  -79.1110 C   0  0  2  0  0  0  0  0  0  0  0  0
   -7.7620    2.9300  -78.8250 N   0  0  0  0  0  0  0  0  0  0  0  0
   -7.8220    1.3810  -80.0170 C   0  0  0  0  0  0  0  0  0  0  0  0
   -8.1720    1.9610  -81.3530 C   0  0  0  0  0  0  0  0  0  0  0  0
   -8.3310    0.1290  -79.6660 C   0  0  0  0  0  0  0  0  0  0  0  0
   -8.9980    1.2100  -82.2000 C   0  0  0  0  0  0  0  0  0  0  0  0
   -9.1440   -0.5540  -80.5530 C   0  0  0  0  0  0  0  0  0  0  0  0
   -9.4760   -0.0390  -81.7940 C   0  0  0  0  0  0  0  0  0  0  0  0
  1  2  1  0
  2  3  2  0
  2  4  1  0
  3  5  1  0
  4  6  2  0
  5  7  2  0
  6  7  1  0
  7  8  1  0
  8  9  1  6
  8 10  1  0
  9 11  1  0
 10 12  1  0
 10 13  1  0
 11 14  1  0
 14 15  2  0
 14 16  1  0
 16 17  1  0
 17 18  1  1
 17 19  1  0
 19 20  2  0
 19 21  1  0
 20 22  1  0
 21 23  2  0
 22 24  2  0
 23 24  1  0
M  END
>  <ref_url>  (863) 
https://fakepage.com

>  <submitter_name>  (863) 
Steph Wills

>  <submitter_email>  (863) 
stephanie.wills@dtc.ox.ac.uk

>  <submitter_institution>  (863) 
University of Oxford

>  <generation_date>  (863) 
2020-06-04

>  <method>  (863) 
Fragment network

>  <ref_mols>  (863) 
x0034_0B,x0212_0B

>  <ref_pdb>  (863) 
references/x0034-0B-x0212-0B-45548.holo_minimised_nolig.pdb

>  <original SMILES>  (863) 
Cc1ccc(C(CNC(=O)CC(N)c2ccccc2)N(C)C)cc1

>  <synthon>  (863) 
[Xe]c1ccccc1

>  <original_name>  (863) 
x0034-0B-x0212-0B-45548

>  <comRMSD_score>  (863) 
0.5879927878116521

>  <IF_score>  (863) 
0.625

>  <SuCOS_score>  (863) 
0.5348804898647703

>  <compound_ID>  (863) 
REAL:Z2436049879

$$$$

     RDKit          3D

 20 21  0  0  0  0  0  0  0  0999 V2000
  -12.3920    5.3680  -77.4400 C   0  0  0  0  0  0  0  0  0  0  0  0
  -11.3410    4.3520  -77.1120 C   0  0  0  0  0  0  0  0  0  0  0  0
  -10.3350    4.0770  -78.0360 C   0  0  0  0  0  0  0  0  0  0  0  0
  -11.3370    3.6670  -75.8890 C   0  0  0  0  0  0  0  0  0  0  0  0
   -9.3510    3.1390  -77.7460 C   0  0  0  0  0  0  0  0  0  0  0  0
  -10.3540    2.7270  -75.5990 C   0  0  0  0  0  0  0  0  0  0  0  0
   -9.3470    2.4530  -76.5250 C   0  0  0  0  0  0  0  0  0  0  0  0
   -8.3160    1.5140  -76.3030 N   0  0  0  0  0  0  0  0  0  0  0  0
   -8.2830    0.1410  -76.2480 C   0  0  0  0  0  0  0  0  0  0  0  0
   -9.1810   -0.6080  -75.8500 O   0  0  0  0  0  0  0  0  0  0  0  0
   -6.9930   -0.5140  -76.7230 C   0  0  0  0  0  0  0  0  0  0  0  0
   -6.2450    0.2670  -77.5940 N   0  0  0  0  0  0  0  0  0  0  0  0
   -6.9690    1.5480  -77.6050 O   0  0  0  0  0  0  0  0  0  0  0  0
   -7.0290    2.1400  -78.9130 C   0  0  0  0  0  0  0  0  0  0  0  0
   -7.8110    1.4220  -79.8450 C   0  0  0  0  0  0  0  0  0  0  0  0
   -8.1530    1.9520  -81.2320 C   0  0  0  0  0  0  0  0  0  0  0  0
   -8.3090    0.1500  -79.5070 C   0  0  0  0  0  0  0  0  0  0  0  0
   -8.9150    1.2070  -82.1180 C   0  0  0  0  0  0  0  0  0  0  0  0
   -9.0860   -0.6140  -80.4000 C   0  0  0  0  0  0  0  0  0  0  0  0
   -9.4120   -0.1530  -81.6800 C   0  0  0  0  0  0  0  0  0  0  0  0
  1  2  1  0
  2  3  2  0
  2  4  1  0
  3  5  1  0
  4  6  2  0
  5  7  2  0
  6  7  1  0
  7  8  1  0
  8  9  1  0
  9 10  2  0
  9 11  1  0
 11 12  1  0
 12 13  1  0
 13 14  1  0
 14 15  1  0
 15 16  2  0
 15 17  1  0
 16 18  1  0
 17 19  2  0
 18 20  2  0
 19 20  1  0
M  END
>  <ref_url>  (864) 
https://fakepage.com

>  <submitter_name>  (864) 
Steph Wills

>  <submitter_email>  (864) 
stephanie.wills@dtc.ox.ac.uk

>  <submitter_institution>  (864) 
University of Oxford

>  <generation_date>  (864) 
2020-06-04

>  <method>  (864) 
Fragment network

>  <ref_mols>  (864) 
x0034_0B,x0212_0B

>  <ref_pdb>  (864) 
references/x0034-0B-x0212-0B-46775.holo_minimised_nolig.pdb

>  <original SMILES>  (864) 
Cc1ccc(NC(=O)CNOCc2ccccc2)cc1

>  <synthon>  (864) 
[Xe]c1ccccc1

>  <original_name>  (864) 
x0034-0B-x0212-0B-46775

>  <comRMSD_score>  (864) 
0.5668405288837286

>  <IF_score>  (864) 
0.625

>  <SuCOS_score>  (864) 
0.5116667884018578

>  <compound_ID>  (864) 
CHEMSPACE-BB:CSMB00012174096

$$$$

     RDKit          3D

 18 19  0  0  0  0  0  0  0  0999 V2000
  -12.5520    6.0830  -76.6540 C   0  0  0  0  0  0  0  0  0  0  0  0
  -11.7470    4.8280  -76.7120 C   0  0  0  0  0  0  0  0  0  0  0  0
  -11.1410    4.5010  -77.9120 C   0  0  0  0  0  0  0  0  0  0  0  0
  -11.5950    3.9930  -75.5910 C   0  0  0  0  0  0  0  0  0  0  0  0
  -10.4100    3.3570  -77.9930 C   0  0  0  0  0  0  0  0  0  0  0  0
  -10.8490    2.8320  -75.6720 C   0  0  0  0  0  0  0  0  0  0  0  0
  -10.2730    2.5320  -76.8850 C   0  0  0  0  0  0  0  0  0  0  0  0
   -9.4750    1.3540  -77.1560 C   0  0  0  0  0  0  0  0  0  0  0  0
   -8.9300    1.9710  -78.3840 C   0  0  0  0  0  0  0  0  0  0  0  0
   -8.0160    3.0630  -78.0880 C   0  0  0  0  0  0  0  0  0  0  0  0
   -6.7680    2.5710  -78.1220 N   0  0  0  0  0  0  0  0  0  0  0  0
   -6.4230    2.2300  -79.4960 C   0  0  0  0  0  0  0  0  0  0  0  0
   -7.5090    1.4190  -80.1870 C   0  0  0  0  0  0  0  0  0  0  0  0
   -8.1210    1.9070  -81.4850 C   0  0  0  0  0  0  0  0  0  0  0  0
   -7.9880    0.1940  -79.6650 C   0  0  0  0  0  0  0  0  0  0  0  0
   -9.0880    1.1850  -82.1420 C   0  0  0  0  0  0  0  0  0  0  0  0
   -8.9840   -0.5560  -80.3250 C   0  0  0  0  0  0  0  0  0  0  0  0
   -9.5440   -0.1270  -81.5290 C   0  0  0  0  0  0  0  0  0  0  0  0
  1  2  1  0
  2  3  2  0
  2  4  1  0
  3  5  1  0
  4  6  2  0
  5  7  2  0
  6  7  1  0
  7  8  1  0
  8  9  3  0
  9 10  1  0
 10 11  1  0
 11 12  1  0
 12 13  1  0
 13 14  2  0
 13 15  1  0
 14 16  1  0
 15 17  2  0
 16 18  2  0
 17 18  1  0
M  END
>  <ref_url>  (865) 
https://fakepage.com

>  <submitter_name>  (865) 
Steph Wills

>  <submitter_email>  (865) 
stephanie.wills@dtc.ox.ac.uk

>  <submitter_institution>  (865) 
University of Oxford

>  <generation_date>  (865) 
2020-06-04

>  <method>  (865) 
Fragment network

>  <ref_mols>  (865) 
x0034_0B,x0212_0B

>  <ref_pdb>  (865) 
references/x0034-0B-x0212-0B-49138.holo_minimised_nolig.pdb

>  <original SMILES>  (865) 
Cc1ccc(C#CCNCc2ccccc2)cc1

>  <synthon>  (865) 
[Xe]c1ccccc1

>  <original_name>  (865) 
x0034-0B-x0212-0B-49138

>  <comRMSD_score>  (865) 
0.980417555602374

>  <IF_score>  (865) 
0.625

>  <SuCOS_score>  (865) 
0.4566919635384743

>  <compound_ID>  (865) 
CHEMSPACE-BB:CSMB00109393375

$$$$

     RDKit          3D

 25 26  0  0  0  0  0  0  0  0999 V2000
  -11.1970    0.0290  -77.7150 C   0  0  0  0  0  0  0  0  0  0  0  0
  -10.4700   -1.2460  -77.3190 C   0  0  2  0  0  0  0  0  0  0  0  0
   -9.5710   -1.0040  -76.2120 N   0  0  0  0  0  0  0  0  0  0  0  0
   -9.5830   -1.7380  -78.4800 C   0  0  0  0  0  0  0  0  0  0  0  0
   -9.5980    0.2120  -75.6280 C   0  0  0  0  0  0  0  0  0  0  0  0
   -8.1600   -1.6600  -78.3630 O   0  0  0  0  0  0  0  0  0  0  0  0
  -10.3340   -2.2550  -79.6200 N   0  0  0  0  0  0  0  0  0  0  0  0
  -10.6140    0.7300  -75.1800 O   0  0  0  0  0  0  0  0  0  0  0  0
   -8.3290    0.6790  -75.6510 O   0  0  0  0  0  0  0  0  0  0  0  0
   -9.5850   -2.9130  -80.5150 N   0  0  0  0  0  0  0  0  0  0  0  0
   -7.9800    1.8340  -76.4370 C   0  0  0  0  0  0  0  0  0  0  0  0
   -8.7440   -2.1990  -81.1920 C   0  0  0  0  0  0  0  0  0  0  0  0
   -9.0790    2.6980  -76.6250 C   0  0  0  0  0  0  0  0  0  0  0  0
   -8.5830   -0.7940  -81.0760 C   0  0  0  0  0  0  0  0  0  0  0  0
   -9.2040    3.4420  -77.7930 C   0  0  0  0  0  0  0  0  0  0  0  0
  -10.0730    2.8400  -75.6490 C   0  0  0  0  0  0  0  0  0  0  0  0
   -9.1770   -0.0390  -82.0680 C   0  0  0  0  0  0  0  0  0  0  0  0
   -7.8630   -0.1170  -80.0650 C   0  0  0  0  0  0  0  0  0  0  0  0
  -10.2690    4.3040  -78.0130 C   0  0  0  0  0  0  0  0  0  0  0  0
  -11.1550    3.7000  -75.8460 C   0  0  0  0  0  0  0  0  0  0  0  0
   -9.0700    1.3340  -82.1090 C   0  0  0  0  0  0  0  0  0  0  0  0
   -7.7590    1.2810  -80.1060 C   0  0  0  0  0  0  0  0  0  0  0  0
  -11.2570    4.4310  -77.0240 C   0  0  0  0  0  0  0  0  0  0  0  0
   -8.3560    1.9950  -81.1300 C   0  0  0  0  0  0  0  0  0  0  0  0
   -8.2360    3.3290  -81.1690 F   0  0  0  0  0  0  0  0  0  0  0  0
  2  1  1  6
  2  3  1  0
  2  4  1  0
  3  5  1  0
  4  6  2  0
  4  7  1  0
  5  8  2  0
  5  9  1  0
  7 10  1  0
  9 11  1  0
 10 12  2  3
 11 13  1  0
 12 14  1  0
 13 15  2  0
 13 16  1  0
 14 17  2  0
 14 18  1  0
 15 19  1  0
 16 20  2  0
 17 21  1  0
 18 22  2  0
 19 23  2  0
 20 23  1  0
 21 24  2  0
 22 24  1  0
 24 25  1  0
M  END
>  <ref_url>  (866) 
https://fakepage.com

>  <submitter_name>  (866) 
Steph Wills

>  <submitter_email>  (866) 
stephanie.wills@dtc.ox.ac.uk

>  <submitter_institution>  (866) 
University of Oxford

>  <generation_date>  (866) 
2020-06-04

>  <method>  (866) 
Fragment network

>  <ref_mols>  (866) 
x0034_0B,x0212_0B

>  <ref_pdb>  (866) 
references/x0034-0B-x0212-0B-49255.holo_minimised_nolig.pdb

>  <original SMILES>  (866) 
CC(NC(=O)OCc1ccccc1)C(=O)NN=Cc1ccc(F)cc1

>  <synthon>  (866) 
[Xe]c1ccccc1

>  <original_name>  (866) 
x0034-0B-x0212-0B-49255

>  <comRMSD_score>  (866) 
0.7384571253132618

>  <IF_score>  (866) 
0.65

>  <SuCOS_score>  (866) 
0.4624714992491009

>  <compound_ID>  (866) 
MOLPORT:002-687-932

$$$$

     RDKit          3D

 22 23  0  0  0  0  0  0  0  0999 V2000
   -7.0230    2.7720  -79.3670 C   0  0  0  0  0  0  0  0  0  0  0  0
   -7.7850    1.7070  -80.1060 C   0  0  0  0  0  0  0  0  0  0  0  0
   -8.3210    1.9770  -81.3730 C   0  0  0  0  0  0  0  0  0  0  0  0
   -7.9700    0.4460  -79.5540 C   0  0  0  0  0  0  0  0  0  0  0  0
   -9.0320    0.9990  -82.0740 C   0  0  0  0  0  0  0  0  0  0  0  0
   -8.6750   -0.5160  -80.2560 C   0  0  0  0  0  0  0  0  0  0  0  0
   -9.2190   -0.2690  -81.5170 C   0  0  0  0  0  0  0  0  0  0  0  0
   -8.8450   -1.8090  -79.6680 O   0  0  0  0  0  0  0  0  0  0  0  0
   -7.6930   -2.4120  -79.0490 C   0  0  0  0  0  0  0  0  0  0  0  0
   -7.6100   -2.4620  -77.5220 C   0  0  2  0  0  0  0  0  0  0  0  0
   -8.7330   -3.1250  -77.1130 O   0  0  0  0  0  0  0  0  0  0  0  0
   -7.2960   -1.2850  -76.8280 C   0  0  0  0  0  0  0  0  0  0  0  0
   -8.7870   -0.2560  -76.6500 S   0  0  0  0  0  0  0  0  0  0  0  0
   -9.4000   -0.5000  -75.3600 O   0  0  0  0  0  0  0  0  0  0  0  0
   -9.5690   -0.4720  -77.8530 O   0  0  0  0  0  0  0  0  0  0  0  0
   -8.1800    1.4180  -76.6860 C   0  0  0  0  0  0  0  0  0  0  0  0
   -9.2580    2.4960  -76.9040 C   0  0  0  0  0  0  0  0  0  0  0  0
  -10.1900    2.6760  -75.7210 C   0  0  0  0  0  0  0  0  0  0  0  0
   -9.4360    3.2780  -78.0610 C   0  0  0  0  0  0  0  0  0  0  0  0
  -11.2710    3.7180  -75.8940 C   0  0  0  0  0  0  0  0  0  0  0  0
  -10.4690    4.2300  -78.1470 C   0  0  0  0  0  0  0  0  0  0  0  0
  -11.3620    4.4380  -77.0870 C   0  0  0  0  0  0  0  0  0  0  0  0
  1  2  1  0
  2  3  2  0
  2  4  1  0
  3  5  1  0
  4  6  2  0
  5  7  2  0
  6  7  1  0
  6  8  1  0
  8  9  1  0
  9 10  1  0
 10 11  1  1
 10 12  1  0
 13 12  1  0
 13 14  2  0
 13 15  2  0
 13 16  1  0
 16 17  1  0
 17 18  2  0
 17 19  1  0
 18 20  1  0
 19 21  2  0
 20 22  2  0
 21 22  1  0
M  END
>  <ref_url>  (867) 
https://fakepage.com

>  <submitter_name>  (867) 
Steph Wills

>  <submitter_email>  (867) 
stephanie.wills@dtc.ox.ac.uk

>  <submitter_institution>  (867) 
University of Oxford

>  <generation_date>  (867) 
2020-06-04

>  <method>  (867) 
Fragment network

>  <ref_mols>  (867) 
x0034_0B,x0212_0B

>  <ref_pdb>  (867) 
references/x0034-0B-x0212-0B-49745.holo_minimised_nolig.pdb

>  <original SMILES>  (867) 
Cc1cccc(OCC(O)CS(=O)(=O)Cc2ccccc2)c1

>  <synthon>  (867) 
[Xe]c1ccccc1

>  <original_name>  (867) 
x0034-0B-x0212-0B-49745

>  <comRMSD_score>  (867) 
0.5698815666434568

>  <IF_score>  (867) 
0.625

>  <SuCOS_score>  (867) 
0.5516425037449213

>  <compound_ID>  (867) 
REAL:Z822341062

$$$$

     RDKit          3D

 22 23  0  0  0  0  0  0  0  0999 V2000
   -6.7960    2.4730  -79.2080 C   0  0  0  0  0  0  0  0  0  0  0  0
   -7.8000    1.6270  -79.9340 C   0  0  0  0  0  0  0  0  0  0  0  0
   -8.1110    1.8840  -81.2770 C   0  0  0  0  0  0  0  0  0  0  0  0
   -8.4390    0.5800  -79.2840 C   0  0  0  0  0  0  0  0  0  0  0  0
   -9.0410    1.0900  -81.9470 C   0  0  0  0  0  0  0  0  0  0  0  0
   -9.3730   -0.1910  -79.9510 C   0  0  0  0  0  0  0  0  0  0  0  0
   -9.6830    0.0440  -81.2880 C   0  0  0  0  0  0  0  0  0  0  0  0
  -10.0750   -1.2650  -79.2830 N   0  0  0  0  0  0  0  0  0  0  0  0
  -11.1050   -0.9480  -78.4100 C   0  0  0  0  0  0  0  0  0  0  0  0
  -10.7690    0.2350  -77.4810 C   0  0  0  0  0  0  0  0  0  0  0  0
  -10.0110    0.0670  -76.5070 O   0  0  0  0  0  0  0  0  0  0  0  0
  -11.4240    1.5430  -77.8730 N   0  0  0  0  0  0  0  0  0  0  0  0
  -12.7700    1.9240  -77.3200 C   0  0  0  0  0  0  0  0  0  0  0  0
  -13.3800    1.2210  -76.3450 O   0  0  0  0  0  0  0  0  0  0  0  0
  -13.2530    2.9600  -77.8650 O   0  0  0  0  0  0  0  0  0  0  0  0
  -12.6500    4.2350  -77.5020 C   0  0  0  0  0  0  0  0  0  0  0  0
  -11.2590    3.7760  -77.1470 C   0  0  0  0  0  0  0  0  0  0  0  0
  -10.1890    4.0660  -78.1680 C   0  0  0  0  0  0  0  0  0  0  0  0
  -10.9680    3.1070  -75.9780 C   0  0  0  0  0  0  0  0  0  0  0  0
   -8.8100    3.5600  -77.8350 C   0  0  0  0  0  0  0  0  0  0  0  0
   -9.6800    2.6590  -75.7300 C   0  0  0  0  0  0  0  0  0  0  0  0
   -8.6250    2.8710  -76.6280 C   0  0  0  0  0  0  0  0  0  0  0  0
  1  2  1  0
  2  3  2  0
  2  4  1  0
  3  5  1  0
  4  6  2  0
  5  7  2  0
  6  7  1  0
  6  8  1  0
  8  9  1  0
  9 10  1  0
 10 11  2  0
 10 12  1  0
 12 13  1  0
 13 14  2  0
 13 15  1  0
 15 16  1  0
 16 17  1  0
 17 18  2  0
 17 19  1  0
 18 20  1  0
 19 21  2  0
 20 22  2  0
 21 22  1  0
M  END
>  <ref_url>  (868) 
https://fakepage.com

>  <submitter_name>  (868) 
Steph Wills

>  <submitter_email>  (868) 
stephanie.wills@dtc.ox.ac.uk

>  <submitter_institution>  (868) 
University of Oxford

>  <generation_date>  (868) 
2020-06-04

>  <method>  (868) 
Fragment network

>  <ref_mols>  (868) 
x0034_0B,x0212_0B

>  <ref_pdb>  (868) 
references/x0034-0B-x0212-0B-50375.holo_minimised_nolig.pdb

>  <original SMILES>  (868) 
Cc1cccc(NCC(=O)NC(=O)OCc2ccccc2)c1

>  <synthon>  (868) 
[Xe]c1ccccc1

>  <original_name>  (868) 
x0034-0B-x0212-0B-50375

>  <comRMSD_score>  (868) 
0.8669045728692055

>  <IF_score>  (868) 
0.5

>  <SuCOS_score>  (868) 
0.4273669270157857

>  <compound_ID>  (868) 
CHEMSPACE-BB:CSMB00114204965

$$$$

     RDKit          3D

 21 22  0  0  0  0  0  0  0  0999 V2000
   -6.4950   -2.0480  -78.9380 O   0  0  0  0  0  0  0  0  0  0  0  0
   -7.3180   -1.7890  -78.0620 C   0  0  0  0  0  0  0  0  0  0  0  0
   -7.0340   -0.9260  -76.8830 C   0  0  0  0  0  0  0  0  0  0  0  0
   -8.6820   -2.2920  -78.0460 N   0  0  0  0  0  0  0  0  0  0  0  0
   -8.4860   -0.0090  -76.3240 S   0  0  0  0  0  0  0  0  0  0  0  0
   -9.3570   -2.8170  -79.1060 N   0  0  0  0  0  0  0  0  0  0  0  0
   -7.9670    1.7090  -76.6490 C   0  0  0  0  0  0  0  0  0  0  0  0
   -9.5700   -2.0700  -80.3450 C   0  0  0  0  0  0  0  0  0  0  0  0
   -9.0560    2.5710  -76.7900 C   0  0  0  0  0  0  0  0  0  0  0  0
   -9.1060   -0.7580  -80.5600 C   0  0  0  0  0  0  0  0  0  0  0  0
  -10.0040    2.6900  -75.7710 C   0  0  0  0  0  0  0  0  0  0  0  0
   -9.2510    3.3530  -77.9570 C   0  0  0  0  0  0  0  0  0  0  0  0
   -9.3760   -0.2490  -81.8200 C   0  0  0  0  0  0  0  0  0  0  0  0
   -8.4070    0.0470  -79.6190 C   0  0  0  0  0  0  0  0  0  0  0  0
  -11.1620    3.5830  -75.8780 C   0  0  0  0  0  0  0  0  0  0  0  0
  -10.3450    4.2190  -78.1070 C   0  0  0  0  0  0  0  0  0  0  0  0
   -8.9440    1.1130  -82.1880 C   0  0  0  0  0  0  0  0  0  0  0  0
   -7.9790    1.3570  -79.9360 C   0  0  0  0  0  0  0  0  0  0  0  0
  -11.3340    4.4020  -77.1460 C   0  0  0  0  0  0  0  0  0  0  0  0
   -8.2180    1.9170  -81.1740 C   0  0  0  0  0  0  0  0  0  0  0  0
   -7.8100    3.1470  -81.4550 F   0  0  0  0  0  0  0  0  0  0  0  0
  1  2  2  0
  2  3  1  0
  2  4  1  0
  3  5  1  0
  4  6  1  0
  5  7  1  0
  6  8  2  3
  7  9  1  0
  8 10  1  0
  9 11  2  0
  9 12  1  0
 10 13  2  0
 10 14  1  0
 11 15  1  0
 12 16  2  0
 13 17  1  0
 14 18  2  0
 15 19  2  0
 16 19  1  0
 17 20  2  0
 18 20  1  0
 20 21  1  0
M  END
>  <ref_url>  (869) 
https://fakepage.com

>  <submitter_name>  (869) 
Steph Wills

>  <submitter_email>  (869) 
stephanie.wills@dtc.ox.ac.uk

>  <submitter_institution>  (869) 
University of Oxford

>  <generation_date>  (869) 
2020-06-04

>  <method>  (869) 
Fragment network

>  <ref_mols>  (869) 
x0034_0B,x0212_0B

>  <ref_pdb>  (869) 
references/x0034-0B-x0212-0B-51750.holo_minimised_nolig.pdb

>  <original SMILES>  (869) 
O=C(CSCc1ccccc1)NN=Cc1ccc(F)cc1

>  <synthon>  (869) 
[Xe]c1ccccc1

>  <original_name>  (869) 
x0034-0B-x0212-0B-51750

>  <comRMSD_score>  (869) 
0.5633198981860199

>  <IF_score>  (869) 
0.5416666666666666

>  <SuCOS_score>  (869) 
0.5000388735495052

>  <compound_ID>  (869) 
MOLPORT:006-780-280

$$$$

     RDKit          3D

 26 27  0  0  0  0  0  0  0  0999 V2000
   -6.9640    2.7900  -79.4420 C   0  0  0  0  0  0  0  0  0  0  0  0
   -7.8020    1.7370  -80.0890 C   0  0  0  0  0  0  0  0  0  0  0  0
   -8.0670    0.5700  -79.3950 C   0  0  0  0  0  0  0  0  0  0  0  0
   -8.3370    1.8890  -81.3720 C   0  0  0  0  0  0  0  0  0  0  0  0
   -8.8470   -0.4120  -79.9400 C   0  0  0  0  0  0  0  0  0  0  0  0
   -9.1310    0.8680  -81.9210 C   0  0  0  0  0  0  0  0  0  0  0  0
   -9.3940   -0.3050  -81.1830 C   0  0  0  0  0  0  0  0  0  0  0  0
  -10.1790   -1.3860  -81.6020 N   0  0  0  0  0  0  0  0  0  0  0  0
  -10.6380   -2.3640  -80.7200 C   0  0  0  0  0  0  0  0  0  0  0  0
  -11.8040   -2.7520  -80.6970 O   0  0  0  0  0  0  0  0  0  0  0  0
   -9.5750   -2.9670  -79.7340 C   0  0  0  0  0  0  0  0  0  0  0  0
   -8.5990   -2.3320  -78.9650 N   0  0  0  0  0  0  0  0  0  0  0  0
   -7.2170   -2.3840  -79.4260 C   0  0  0  0  0  0  0  0  0  0  0  0
   -8.8510   -2.1050  -77.5250 C   0  0  0  0  0  0  0  0  0  0  0  0
  -10.0500   -2.6010  -76.9110 O   0  0  0  0  0  0  0  0  0  0  0  0
   -7.8110   -1.3850  -76.8840 C   0  0  0  0  0  0  0  0  0  0  0  0
   -8.4730    0.1320  -76.2530 S   0  0  0  0  0  0  0  0  0  0  0  0
   -7.3580    0.8920  -75.7720 O   0  0  0  0  0  0  0  0  0  0  0  0
   -9.6010   -0.1980  -75.4040 O   0  0  0  0  0  0  0  0  0  0  0  0
   -9.0120    1.0220  -77.6900 C   0  0  0  0  0  0  0  0  0  0  0  0
   -9.7600    2.1480  -77.3740 C   0  0  0  0  0  0  0  0  0  0  0  0
  -10.4170    2.3600  -76.0570 C   0  0  0  0  0  0  0  0  0  0  0  0
   -9.9140    3.1270  -78.3590 C   0  0  0  0  0  0  0  0  0  0  0  0
  -11.2290    3.6070  -75.8630 C   0  0  0  0  0  0  0  0  0  0  0  0
  -10.6700    4.2690  -78.1460 C   0  0  0  0  0  0  0  0  0  0  0  0
  -11.3250    4.5130  -76.9320 C   0  0  0  0  0  0  0  0  0  0  0  0
  1  2  1  0
  2  3  2  0
  2  4  1  0
  3  5  1  0
  4  6  2  0
  5  7  2  0
  6  7  1  0
  7  8  1  0
  8  9  1  0
  9 10  2  0
  9 11  1  0
 11 12  1  0
 12 13  1  0
 12 14  1  0
 14 15  2  0
 14 16  1  0
 17 16  1  0
 17 18  2  0
 17 19  2  0
 17 20  1  0
 20 21  1  0
 21 22  2  0
 21 23  1  0
 22 24  1  0
 23 25  2  0
 24 26  2  0
 25 26  1  0
M  END
>  <ref_url>  (870) 
https://fakepage.com

>  <submitter_name>  (870) 
Steph Wills

>  <submitter_email>  (870) 
stephanie.wills@dtc.ox.ac.uk

>  <submitter_institution>  (870) 
University of Oxford

>  <generation_date>  (870) 
2020-06-04

>  <method>  (870) 
Fragment network

>  <ref_mols>  (870) 
x0034_0B,x0212_0B

>  <ref_pdb>  (870) 
references/x0034-0B-x0212-0B-52756.holo_minimised_nolig.pdb

>  <original SMILES>  (870) 
Cc1ccc(NC(=O)CN(C)C(=O)CS(=O)(=O)Cc2ccccc2)cc1

>  <synthon>  (870) 
[Xe]c1ccccc1

>  <original_name>  (870) 
x0034-0B-x0212-0B-52756

>  <comRMSD_score>  (870) 
0.8199009199400352

>  <IF_score>  (870) 
0.375

>  <SuCOS_score>  (870) 
0.4629844343424371

>  <compound_ID>  (870) 
REAL:Z339636430

$$$$

     RDKit          3D

 20 21  0  0  0  0  0  0  0  0999 V2000
  -12.1930    5.4070  -77.2670 C   0  0  0  0  0  0  0  0  0  0  0  0
  -11.3960    4.1480  -76.9320 C   0  0  0  0  0  0  0  0  0  0  0  0
  -11.5520    3.6200  -75.4850 C   0  0  0  0  0  0  0  0  0  0  0  0
  -10.5620    3.4800  -77.8310 C   0  0  0  0  0  0  0  0  0  0  0  0
  -10.7270    2.3520  -75.1940 C   0  0  0  0  0  0  0  0  0  0  0  0
   -9.8460    2.3240  -77.4900 C   0  0  0  0  0  0  0  0  0  0  0  0
  -10.4220    3.9000  -78.9310 O   0  0  0  0  0  0  0  0  0  0  0  0
   -9.8930    1.7530  -76.2430 C   0  0  0  0  0  0  0  0  0  0  0  0
   -9.0400    3.8520  -79.0700 C   0  0  0  0  0  0  0  0  0  0  0  0
   -8.2420    3.3670  -77.8630 C   0  0  0  0  0  0  0  0  0  0  0  0
   -8.7570    3.6100  -76.5500 O   0  0  0  0  0  0  0  0  0  0  0  0
   -7.0160    2.6400  -78.0800 N   0  0  0  0  0  0  0  0  0  0  0  0
   -6.6540    2.3680  -79.4590 C   0  0  1  0  0  0  0  0  0  0  0  0
   -5.3900    1.7650  -79.5120 C   0  0  0  0  0  0  0  0  0  0  0  0
   -7.6820    1.4390  -80.1540 C   0  0  0  0  0  0  0  0  0  0  0  0
   -8.2160    1.8640  -81.4850 C   0  0  0  0  0  0  0  0  0  0  0  0
   -8.1350    0.2270  -79.6160 C   0  0  0  0  0  0  0  0  0  0  0  0
   -9.1270    1.0700  -82.1710 C   0  0  0  0  0  0  0  0  0  0  0  0
   -9.1320   -0.6030  -80.4000 C   0  0  0  0  0  0  0  0  0  0  0  0
   -9.5790   -0.1480  -81.6380 C   0  0  0  0  0  0  0  0  0  0  0  0
  1  2  1  0
  2  3  2  0
  2  4  1  0
  3  5  1  0
  4  6  2  0
  4  7  1  0
  5  8  2  0
  6  8  1  0
  7  9  1  0
  9 10  1  0
 10 11  2  0
 10 12  1  0
 12 13  1  0
 13 14  1  1
 13 15  1  0
 15 16  2  0
 15 17  1  0
 16 18  1  0
 17 19  2  0
 18 20  2  0
 19 20  1  0
M  END
>  <ref_url>  (871) 
https://fakepage.com

>  <submitter_name>  (871) 
Steph Wills

>  <submitter_email>  (871) 
stephanie.wills@dtc.ox.ac.uk

>  <submitter_institution>  (871) 
University of Oxford

>  <generation_date>  (871) 
2020-06-04

>  <method>  (871) 
Fragment network

>  <ref_mols>  (871) 
x0034_0B,x0212_0B

>  <ref_pdb>  (871) 
references/x0034-0B-x0212-0B-52768.holo_minimised_nolig.pdb

>  <original SMILES>  (871) 
Cc1ccccc1OCC(=O)NC(C)c1ccccc1

>  <synthon>  (871) 
[Xe]c1ccccc1

>  <original_name>  (871) 
x0034-0B-x0212-0B-52768

>  <comRMSD_score>  (871) 
0.8012585412961285

>  <IF_score>  (871) 
0.625

>  <SuCOS_score>  (871) 
0.4659202357089007

>  <compound_ID>  (871) 
REAL:Z1147904095, MOLPORT:002-951-843, REAL:Z19734035, REAL:Z1147899594, MOLPORT:002-046-558

$$$$

     RDKit          3D

 26 27  0  0  0  0  0  0  0  0999 V2000
   -6.7750    2.8680  -79.8330 C   0  0  0  0  0  0  0  0  0  0  0  0
   -7.8030    1.8340  -80.2570 C   0  0  0  0  0  0  0  0  0  0  0  0
   -8.0590    0.7360  -79.4520 C   0  0  0  0  0  0  0  0  0  0  0  0
   -8.5040    1.9760  -81.4600 C   0  0  0  0  0  0  0  0  0  0  0  0
   -9.0660   -0.2500  -79.8640 C   0  0  0  0  0  0  0  0  0  0  0  0
   -9.4660    1.0360  -81.8630 C   0  0  0  0  0  0  0  0  0  0  0  0
   -9.7540   -0.0760  -81.0580 C   0  0  0  0  0  0  0  0  0  0  0  0
  -10.9850   -1.2840  -81.4980 S   0  0  0  0  0  0  0  0  0  0  0  0
  -10.3480   -2.4380  -82.5040 O   0  0  0  0  0  0  0  0  0  0  0  0
  -12.2260   -0.5800  -81.7860 O   0  0  0  0  0  0  0  0  0  0  0  0
  -11.2390   -2.0310  -79.9590 N   0  0  0  0  0  0  0  0  0  0  0  0
  -10.1290   -2.6700  -79.2480 C   0  0  0  0  0  0  0  0  0  0  0  0
   -9.8370   -1.9290  -78.1000 C   0  0  0  0  0  0  0  0  0  0  0  0
  -10.0160   -2.6930  -76.9380 C   0  0  0  0  0  0  0  0  0  0  0  0
   -9.4640   -3.7850  -76.7950 O   0  0  0  0  0  0  0  0  0  0  0  0
  -10.8510   -2.1310  -75.9930 N   0  0  0  0  0  0  0  0  0  0  0  0
  -10.9940   -0.6920  -75.8490 C   0  0  0  0  0  0  0  0  0  0  0  0
   -9.8630   -0.1460  -75.2460 C   0  0  0  0  0  0  0  0  0  0  0  0
   -8.4370   -0.1150  -76.4030 S   0  0  0  0  0  0  0  0  0  0  0  0
   -7.9230    1.6380  -76.4350 C   0  0  0  0  0  0  0  0  0  0  0  0
   -9.0700    2.5960  -76.6230 C   0  0  0  0  0  0  0  0  0  0  0  0
   -9.1850    3.3900  -77.7630 C   0  0  0  0  0  0  0  0  0  0  0  0
  -10.0730    2.7310  -75.6570 C   0  0  0  0  0  0  0  0  0  0  0  0
  -10.2110    4.2840  -77.9990 C   0  0  0  0  0  0  0  0  0  0  0  0
  -11.1300    3.6250  -75.8540 C   0  0  0  0  0  0  0  0  0  0  0  0
  -11.1910    4.3900  -77.0200 C   0  0  0  0  0  0  0  0  0  0  0  0
  1  2  1  0
  2  3  2  0
  2  4  1  0
  3  5  1  0
  4  6  2  0
  5  7  2  0
  6  7  1  0
  7  8  1  0
  8  9  2  0
  8 10  2  0
  8 11  1  0
 11 12  1  0
 12 13  1  0
 13 14  1  0
 14 15  2  0
 14 16  1  0
 16 17  1  0
 17 18  1  0
 18 19  1  0
 19 20  1  0
 20 21  1  0
 21 22  2  0
 21 23  1  0
 22 24  1  0
 23 25  2  0
 24 26  2  0
 25 26  1  0
M  END
>  <ref_url>  (872) 
https://fakepage.com

>  <submitter_name>  (872) 
Steph Wills

>  <submitter_email>  (872) 
stephanie.wills@dtc.ox.ac.uk

>  <submitter_institution>  (872) 
University of Oxford

>  <generation_date>  (872) 
2020-06-04

>  <method>  (872) 
Fragment network

>  <ref_mols>  (872) 
x0034_0B,x0212_0B

>  <ref_pdb>  (872) 
references/x0034-0B-x0212-0B-53593.holo_minimised_nolig.pdb

>  <original SMILES>  (872) 
Cc1ccc(S(=O)(=O)NCCC(=O)NCCSCc2ccccc2)cc1

>  <synthon>  (872) 
[Xe]c1ccccc1

>  <original_name>  (872) 
x0034-0B-x0212-0B-53593

>  <comRMSD_score>  (872) 
0.6360857162847932

>  <IF_score>  (872) 
0.65

>  <SuCOS_score>  (872) 
0.4975836913155075

>  <compound_ID>  (872) 
MOLPORT:009-125-713

$$$$

     RDKit          3D

 22 23  0  0  0  0  0  0  0  0999 V2000
  -11.9760   -0.6230  -81.2770 O   0  0  0  0  0  0  0  0  0  0  0  0
  -10.7510   -1.3090  -80.9100 S   0  0  0  0  0  0  0  0  0  0  0  0
  -10.2430   -2.4320  -81.6780 O   0  0  0  0  0  0  0  0  0  0  0  0
  -10.8150   -1.6940  -79.2300 N   0  0  0  0  0  0  0  0  0  0  0  0
   -9.4900   -0.1120  -80.7780 C   0  0  0  0  0  0  0  0  0  0  0  0
  -10.2610   -0.8620  -78.1450 C   0  0  0  0  0  0  0  0  0  0  0  0
   -8.5680   -0.3590  -79.7790 C   0  0  0  0  0  0  0  0  0  0  0  0
   -9.3840    1.0180  -81.5660 C   0  0  0  0  0  0  0  0  0  0  0  0
   -9.2090   -1.6660  -77.4090 C   0  0  0  0  0  0  0  0  0  0  0  0
   -7.5400    0.5150  -79.5270 C   0  0  0  0  0  0  0  0  0  0  0  0
   -8.3410    1.9000  -81.2970 C   0  0  0  0  0  0  0  0  0  0  0  0
   -8.0290   -0.9420  -76.6870 C   0  0  0  0  0  0  0  0  0  0  0  0
   -7.4280    1.6550  -80.2820 C   0  0  0  0  0  0  0  0  0  0  0  0
   -8.2170    2.9960  -82.0120 F   0  0  0  0  0  0  0  0  0  0  0  0
   -8.4620    0.2390  -76.0240 O   0  0  0  0  0  0  0  0  0  0  0  0
   -7.9380    1.4850  -76.5120 C   0  0  0  0  0  0  0  0  0  0  0  0
   -9.0370    2.4910  -76.6720 C   0  0  0  0  0  0  0  0  0  0  0  0
  -10.0970    2.6250  -75.6430 C   0  0  0  0  0  0  0  0  0  0  0  0
   -9.1250    3.3410  -77.7780 C   0  0  0  0  0  0  0  0  0  0  0  0
  -11.2370    3.6060  -75.7270 C   0  0  0  0  0  0  0  0  0  0  0  0
  -10.1730    4.2800  -77.9160 C   0  0  0  0  0  0  0  0  0  0  0  0
  -11.2220    4.4710  -76.9850 C   0  0  0  0  0  0  0  0  0  0  0  0
  1  2  2  0
  2  3  2  0
  2  4  1  0
  2  5  1  0
  4  6  1  0
  5  7  2  0
  5  8  1  0
  6  9  1  0
  7 10  1  0
  8 11  2  0
  9 12  1  0
 10 13  2  0
 11 13  1  0
 11 14  1  0
 12 15  1  0
 15 16  1  0
 16 17  1  0
 17 18  2  0
 17 19  1  0
 18 20  1  0
 19 21  2  0
 20 22  2  0
 21 22  1  0
M  END
>  <ref_url>  (873) 
https://fakepage.com

>  <submitter_name>  (873) 
Steph Wills

>  <submitter_email>  (873) 
stephanie.wills@dtc.ox.ac.uk

>  <submitter_institution>  (873) 
University of Oxford

>  <generation_date>  (873) 
2020-06-04

>  <method>  (873) 
Fragment network

>  <ref_mols>  (873) 
x0034_0B,x0212_0B

>  <ref_pdb>  (873) 
references/x0034-0B-x0212-0B-55046.holo_minimised_nolig.pdb

>  <original SMILES>  (873) 
O=S(=O)(NCCCOCc1ccccc1)c1cccc(F)c1

>  <synthon>  (873) 
[Xe]c1ccccc1

>  <original_name>  (873) 
x0034-0B-x0212-0B-55046

>  <comRMSD_score>  (873) 
0.8361141346454115

>  <IF_score>  (873) 
0.65

>  <SuCOS_score>  (873) 
0.4687891947725254

>  <compound_ID>  (873) 
CHEMSPACE-BB:CSMB00000222680

$$$$

     RDKit          3D

 19 20  0  0  0  0  0  0  0  0999 V2000
  -10.7870   -2.1520  -79.3730 O   0  0  0  0  0  0  0  0  0  0  0  0
   -9.8750   -1.4180  -78.9950 C   0  0  0  0  0  0  0  0  0  0  0  0
   -9.2040   -1.5040  -77.8010 O   0  0  0  0  0  0  0  0  0  0  0  0
   -9.3950   -0.3920  -79.7290 C   0  0  0  0  0  0  0  0  0  0  0  0
   -9.4370   -0.5270  -76.7550 C   0  0  0  0  0  0  0  0  0  0  0  0
   -8.3600    0.5160  -79.0970 C   0  0  0  0  0  0  0  0  0  0  0  0
   -9.8390   -0.1550  -81.0490 C   0  0  0  0  0  0  0  0  0  0  0  0
   -8.1860    0.0290  -76.4460 C   0  0  0  0  0  0  0  0  0  0  0  0
   -7.8890    1.6440  -79.9700 C   0  0  0  0  0  0  0  0  0  0  0  0
   -9.3440    0.9180  -81.7910 C   0  0  0  0  0  0  0  0  0  0  0  0
   -7.9810    1.4160  -76.3350 C   0  0  0  0  0  0  0  0  0  0  0  0
   -8.3960    1.7900  -81.2520 C   0  0  0  0  0  0  0  0  0  0  0  0
   -8.9800    2.3780  -76.4970 C   0  0  0  0  0  0  0  0  0  0  0  0
   -7.9520    2.7970  -81.9630 F   0  0  0  0  0  0  0  0  0  0  0  0
  -10.0760    2.4940  -75.5040 C   0  0  0  0  0  0  0  0  0  0  0  0
   -8.9990    3.2800  -77.5860 C   0  0  0  0  0  0  0  0  0  0  0  0
  -11.0780    3.4390  -75.6210 C   0  0  0  0  0  0  0  0  0  0  0  0
  -10.0170    4.2420  -77.7120 C   0  0  0  0  0  0  0  0  0  0  0  0
  -11.0570    4.3720  -76.7910 C   0  0  0  0  0  0  0  0  0  0  0  0
  1  2  2  0
  2  3  1  0
  2  4  1  0
  3  5  1  0
  4  6  2  0
  4  7  1  0
  5  8  1  0
  6  9  1  0
  7 10  2  0
  8 11  2  3
  9 12  2  0
 10 12  1  0
 11 13  1  0
 12 14  1  0
 13 15  2  0
 13 16  1  0
 15 17  1  0
 16 18  2  0
 17 19  2  0
 18 19  1  0
M  END
>  <ref_url>  (874) 
https://fakepage.com

>  <submitter_name>  (874) 
Steph Wills

>  <submitter_email>  (874) 
stephanie.wills@dtc.ox.ac.uk

>  <submitter_institution>  (874) 
University of Oxford

>  <generation_date>  (874) 
2020-06-04

>  <method>  (874) 
Fragment network

>  <ref_mols>  (874) 
x0034_0B,x0212_0B

>  <ref_pdb>  (874) 
references/x0034-0B-x0212-0B-63100.holo_minimised_nolig.pdb

>  <original SMILES>  (874) 
O=C(OCC=Cc1ccccc1)c1ccc(F)cc1

>  <synthon>  (874) 
[Xe]c1ccccc1

>  <original_name>  (874) 
x0034-0B-x0212-0B-63100

>  <comRMSD_score>  (874) 
0.6178603761728403

>  <IF_score>  (874) 
0.55

>  <SuCOS_score>  (874) 
0.4860009738965631

>  <compound_ID>  (874) 
MOLPORT:002-827-863

$$$$

     RDKit          3D

 24 25  0  0  0  0  0  0  0  0999 V2000
  -10.0400    4.7600  -79.0160 C   0  0  0  0  0  0  0  0  0  0  0  0
  -10.3260    3.7810  -78.0170 C   0  0  0  0  0  0  0  0  0  0  0  0
  -11.2430    4.0200  -77.0120 C   0  0  0  0  0  0  0  0  0  0  0  0
   -9.6410    2.6220  -78.1220 C   0  0  0  0  0  0  0  0  0  0  0  0
  -11.4500    3.0300  -76.0790 C   0  0  0  0  0  0  0  0  0  0  0  0
   -9.8340    1.6190  -77.2190 C   0  0  0  0  0  0  0  0  0  0  0  0
  -10.7490    1.8240  -76.1690 C   0  0  0  0  0  0  0  0  0  0  0  0
   -9.0520    0.3560  -77.4270 C   0  0  0  0  0  0  0  0  0  0  0  0
   -8.8190   -0.4040  -76.1820 C   0  0  0  0  0  0  0  0  0  0  0  0
   -9.3960   -1.4470  -75.9120 O   0  0  0  0  0  0  0  0  0  0  0  0
   -7.9370    0.1870  -75.3520 N   0  0  0  0  0  0  0  0  0  0  0  0
   -8.4470    0.3260  -74.0100 C   0  0  0  0  0  0  0  0  0  0  0  0
   -7.3460    1.3740  -75.6950 C   0  0  2  0  0  0  0  0  0  0  0  0
   -8.1240    2.5380  -75.5350 C   0  0  0  0  0  0  0  0  0  0  0  0
   -6.6940    1.3710  -77.0990 C   0  0  0  0  0  0  0  0  0  0  0  0
   -7.1470    2.4660  -77.9350 N   0  0  0  0  0  0  0  0  0  0  0  0
   -6.9280    2.4520  -79.2960 C   0  0  0  0  0  0  0  0  0  0  0  0
   -6.0780    3.1600  -79.8340 O   0  0  0  0  0  0  0  0  0  0  0  0
   -7.7610    1.5280  -80.1230 C   0  0  0  0  0  0  0  0  0  0  0  0
   -8.1190    0.2420  -79.7050 C   0  0  0  0  0  0  0  0  0  0  0  0
   -8.1930    1.9830  -81.3740 C   0  0  0  0  0  0  0  0  0  0  0  0
   -8.8970   -0.5800  -80.5190 C   0  0  0  0  0  0  0  0  0  0  0  0
   -8.9660    1.1580  -82.1870 C   0  0  0  0  0  0  0  0  0  0  0  0
   -9.3160   -0.1190  -81.7580 C   0  0  0  0  0  0  0  0  0  0  0  0
  1  2  1  0
  2  3  2  0
  2  4  1  0
  3  5  1  0
  4  6  2  0
  5  7  2  0
  6  7  1  0
  6  8  1  0
  8  9  1  0
  9 10  2  0
  9 11  1  0
 11 12  1  0
 11 13  1  0
 13 14  1  6
 13 15  1  0
 15 16  1  0
 16 17  1  0
 17 18  2  0
 17 19  1  0
 19 20  2  0
 19 21  1  0
 20 22  1  0
 21 23  2  0
 22 24  2  0
 23 24  1  0
M  END
>  <ref_url>  (875) 
https://fakepage.com

>  <submitter_name>  (875) 
Steph Wills

>  <submitter_email>  (875) 
stephanie.wills@dtc.ox.ac.uk

>  <submitter_institution>  (875) 
University of Oxford

>  <generation_date>  (875) 
2020-06-04

>  <method>  (875) 
Fragment network

>  <ref_mols>  (875) 
x0034_0B,x0212_0B

>  <ref_pdb>  (875) 
references/x0034-0B-x0212-0B-63684.holo_minimised_nolig.pdb

>  <original SMILES>  (875) 
Cc1cccc(CC(=O)N(C)C(C)CNC(=O)c2ccccc2)c1

>  <synthon>  (875) 
[Xe]c1ccccc1

>  <original_name>  (875) 
x0034-0B-x0212-0B-63684

>  <comRMSD_score>  (875) 
0.9699693007742276

>  <IF_score>  (875) 
0.575

>  <SuCOS_score>  (875) 
0.4856071710990809

>  <compound_ID>  (875) 
REAL:PV-001056043147

$$$$

     RDKit          3D

 21 22  0  0  0  0  0  0  0  0999 V2000
  -12.4590    5.3910  -77.4920 C   0  0  0  0  0  0  0  0  0  0  0  0
  -11.3910    4.4070  -77.1240 C   0  0  0  0  0  0  0  0  0  0  0  0
  -10.3610    4.1430  -78.0210 C   0  0  0  0  0  0  0  0  0  0  0  0
  -11.3940    3.7420  -75.8950 C   0  0  0  0  0  0  0  0  0  0  0  0
   -9.3560    3.2360  -77.6930 C   0  0  0  0  0  0  0  0  0  0  0  0
  -10.3940    2.8400  -75.5750 C   0  0  0  0  0  0  0  0  0  0  0  0
   -9.3500    2.5620  -76.4610 C   0  0  0  0  0  0  0  0  0  0  0  0
   -8.3440    1.6450  -76.1040 N   0  0  0  0  0  0  0  0  0  0  0  0
   -8.3070    0.2770  -76.2910 C   0  0  0  0  0  0  0  0  0  0  0  0
   -9.2430   -0.5120  -76.1280 O   0  0  0  0  0  0  0  0  0  0  0  0
   -6.8780   -0.1260  -76.7170 C   0  0  1  0  0  0  0  0  0  0  0  0
   -6.8800   -1.2110  -77.7950 C   0  0  0  0  0  0  0  0  0  0  0  0
   -5.8700    0.7930  -76.9770 N   0  0  0  0  0  0  0  0  0  0  0  0
   -5.9070    1.2830  -78.3720 O   0  0  0  0  0  0  0  0  0  0  0  0
   -7.1480    1.7580  -78.7420 C   0  0  0  0  0  0  0  0  0  0  0  0
   -7.8390    1.2290  -79.8430 C   0  0  0  0  0  0  0  0  0  0  0  0
   -8.3180   -0.0560  -79.6370 C   0  0  0  0  0  0  0  0  0  0  0  0
   -8.0570    1.8960  -81.0830 C   0  0  0  0  0  0  0  0  0  0  0  0
   -9.0090   -0.7300  -80.6220 C   0  0  0  0  0  0  0  0  0  0  0  0
   -8.7530    1.2480  -82.1080 C   0  0  0  0  0  0  0  0  0  0  0  0
   -9.2260   -0.0410  -81.9050 C   0  0  0  0  0  0  0  0  0  0  0  0
  1  2  1  0
  2  3  2  0
  2  4  1  0
  3  5  1  0
  4  6  2  0
  5  7  2  0
  6  7  1  0
  7  8  1  0
  8  9  1  0
  9 10  2  0
  9 11  1  0
 11 12  1  6
 11 13  1  0
 13 14  1  0
 14 15  1  0
 15 16  1  0
 16 17  2  0
 16 18  1  0
 17 19  1  0
 18 20  2  0
 19 21  2  0
 20 21  1  0
M  END
>  <ref_url>  (876) 
https://fakepage.com

>  <submitter_name>  (876) 
Steph Wills

>  <submitter_email>  (876) 
stephanie.wills@dtc.ox.ac.uk

>  <submitter_institution>  (876) 
University of Oxford

>  <generation_date>  (876) 
2020-06-04

>  <method>  (876) 
Fragment network

>  <ref_mols>  (876) 
x0034_0B,x0212_0B

>  <ref_pdb>  (876) 
references/x0034-0B-x0212-0B-65246.holo_minimised_nolig.pdb

>  <original SMILES>  (876) 
Cc1ccc(NC(=O)C(C)NOCc2ccccc2)cc1

>  <synthon>  (876) 
[Xe]c1ccccc1

>  <original_name>  (876) 
x0034-0B-x0212-0B-65246

>  <comRMSD_score>  (876) 
0.6542787377461283

>  <IF_score>  (876) 
0.5416666666666666

>  <SuCOS_score>  (876) 
0.4917248402806338

>  <compound_ID>  (876) 
CHEMSPACE-BB:CSMB00000222844

$$$$

     RDKit          3D

 21 22  0  0  0  0  0  0  0  0999 V2000
  -10.5050   -1.0850  -76.3810 O   0  0  0  0  0  0  0  0  0  0  0  0
   -9.8490   -0.8960  -77.3910 C   0  0  0  0  0  0  0  0  0  0  0  0
   -8.3570   -0.6660  -77.3290 C   0  0  0  0  0  0  0  0  0  0  0  0
  -10.4690   -0.8790  -78.7190 N   0  0  0  0  0  0  0  0  0  0  0  0
   -8.0920    0.3120  -75.8240 S   0  0  0  0  0  0  0  0  0  0  0  0
  -10.3040   -2.1900  -79.3620 C   0  0  0  0  0  0  0  0  0  0  0  0
   -7.7030    1.9220  -76.5700 C   0  0  0  0  0  0  0  0  0  0  0  0
   -9.1240   -2.1720  -80.2970 C   0  0  0  0  0  0  0  0  0  0  0  0
   -8.9010    2.7750  -76.7550 C   0  0  0  0  0  0  0  0  0  0  0  0
   -8.8480   -0.7270  -80.6150 C   0  0  0  0  0  0  0  0  0  0  0  0
   -9.9070    2.7750  -75.7530 C   0  0  0  0  0  0  0  0  0  0  0  0
   -9.0580    3.5790  -77.8950 C   0  0  0  0  0  0  0  0  0  0  0  0
   -9.4100   -0.1450  -81.7610 C   0  0  0  0  0  0  0  0  0  0  0  0
   -8.0370    0.0710  -79.8030 C   0  0  0  0  0  0  0  0  0  0  0  0
  -11.0630    3.5550  -75.8460 C   0  0  0  0  0  0  0  0  0  0  0  0
  -10.2070    4.3390  -77.9720 C   0  0  0  0  0  0  0  0  0  0  0  0
   -9.1630    1.1960  -82.0950 C   0  0  0  0  0  0  0  0  0  0  0  0
   -7.8140    1.3880  -80.1520 C   0  0  0  0  0  0  0  0  0  0  0  0
  -11.1630    4.3230  -76.9840 C   0  0  0  0  0  0  0  0  0  0  0  0
   -8.3500    1.9660  -81.2730 C   0  0  0  0  0  0  0  0  0  0  0  0
   -8.0990    3.2350  -81.5660 F   0  0  0  0  0  0  0  0  0  0  0  0
  1  2  2  0
  2  3  1  0
  2  4  1  0
  3  5  1  0
  4  6  1  0
  5  7  1  0
  6  8  1  0
  7  9  1  0
  8 10  1  0
  9 11  2  0
  9 12  1  0
 10 13  2  0
 10 14  1  0
 11 15  1  0
 12 16  2  0
 13 17  1  0
 14 18  2  0
 15 19  2  0
 16 19  1  0
 17 20  2  0
 18 20  1  0
 20 21  1  0
M  END
>  <ref_url>  (877) 
https://fakepage.com

>  <submitter_name>  (877) 
Steph Wills

>  <submitter_email>  (877) 
stephanie.wills@dtc.ox.ac.uk

>  <submitter_institution>  (877) 
University of Oxford

>  <generation_date>  (877) 
2020-06-04

>  <method>  (877) 
Fragment network

>  <ref_mols>  (877) 
x0034_0B,x0212_0B

>  <ref_pdb>  (877) 
references/x0034-0B-x0212-0B-67198.holo_minimised_nolig.pdb

>  <original SMILES>  (877) 
O=C(CSCc1ccccc1)NCCc1ccc(F)cc1

>  <synthon>  (877) 
[Xe]c1ccccc1

>  <original_name>  (877) 
x0034-0B-x0212-0B-67198

>  <comRMSD_score>  (877) 
0.7042425665866776

>  <IF_score>  (877) 
0.65

>  <SuCOS_score>  (877) 
0.4986181222839112

>  <compound_ID>  (877) 
MOLPORT:001-562-598

$$$$

     RDKit          3D

 22 23  0  0  0  0  0  0  0  0999 V2000
   -6.6790    2.3180  -79.4280 C   0  0  0  0  0  0  0  0  0  0  0  0
   -7.5270    1.4080  -80.2610 C   0  0  0  0  0  0  0  0  0  0  0  0
   -8.2560    1.9420  -81.3340 C   0  0  0  0  0  0  0  0  0  0  0  0
   -7.6280    0.0180  -80.0250 C   0  0  0  0  0  0  0  0  0  0  0  0
   -9.0620    1.1200  -82.1300 C   0  0  0  0  0  0  0  0  0  0  0  0
   -8.4500   -0.7760  -80.8200 C   0  0  0  0  0  0  0  0  0  0  0  0
   -6.9230   -0.7660  -78.9900 N   0  0  0  0  0  0  0  0  0  0  0  0
   -9.1700   -0.2440  -81.8670 C   0  0  0  0  0  0  0  0  0  0  0  0
   -5.8140   -1.5470  -79.5610 C   0  0  0  0  0  0  0  0  0  0  0  0
   -6.9990   -0.5200  -77.5750 C   0  0  0  0  0  0  0  0  0  0  0  0
   -8.2980   -0.7700  -77.1490 C   0  0  1  0  0  0  0  0  0  0  0  0
   -8.5680   -2.1300  -77.0780 C   0  0  0  0  0  0  0  0  0  0  0  0
   -8.3370   -0.2590  -75.7250 C   0  0  0  0  0  0  0  0  0  0  0  0
   -8.7760   -0.8950  -74.7940 O   0  0  0  0  0  0  0  0  0  0  0  0
   -7.7890    1.0450  -75.6300 O   0  0  0  0  0  0  0  0  0  0  0  0
   -8.0090    1.8620  -76.6770 C   0  0  0  0  0  0  0  0  0  0  0  0
   -9.1970    2.7590  -76.8220 C   0  0  0  0  0  0  0  0  0  0  0  0
  -10.1270    2.8640  -75.7890 C   0  0  0  0  0  0  0  0  0  0  0  0
   -9.3830    3.4950  -77.9970 C   0  0  0  0  0  0  0  0  0  0  0  0
  -11.2300    3.6950  -75.9210 C   0  0  0  0  0  0  0  0  0  0  0  0
  -10.4850    4.3220  -78.1310 C   0  0  0  0  0  0  0  0  0  0  0  0
  -11.4110    4.4250  -77.0970 C   0  0  0  0  0  0  0  0  0  0  0  0
  1  2  1  0
  2  3  2  0
  2  4  1  0
  3  5  1  0
  4  6  2  0
  4  7  1  0
  5  8  2  0
  6  8  1  0
  7  9  1  0
  7 10  1  0
 10 11  1  0
 11 12  1  1
 11 13  1  0
 13 14  2  0
 13 15  1  0
 15 16  1  0
 16 17  1  0
 17 18  2  0
 17 19  1  0
 18 20  1  0
 19 21  2  0
 20 22  2  0
 21 22  1  0
M  END
>  <ref_url>  (878) 
https://fakepage.com

>  <submitter_name>  (878) 
Steph Wills

>  <submitter_email>  (878) 
stephanie.wills@dtc.ox.ac.uk

>  <submitter_institution>  (878) 
University of Oxford

>  <generation_date>  (878) 
2020-06-04

>  <method>  (878) 
Fragment network

>  <ref_mols>  (878) 
x0034_0B,x0212_0B

>  <ref_pdb>  (878) 
references/x0034-0B-x0212-0B-67472.holo_minimised_nolig.pdb

>  <original SMILES>  (878) 
Cc1ccccc1N(C)CC(C)C(=O)OCc1ccccc1

>  <synthon>  (878) 
[Xe]c1ccccc1

>  <original_name>  (878) 
x0034-0B-x0212-0B-67472

>  <comRMSD_score>  (878) 
0.9248324572991994

>  <IF_score>  (878) 
0.5416666666666666

>  <SuCOS_score>  (878) 
0.461632810492009

>  <compound_ID>  (878) 
CHEMSPACE-BB:CSMB00014057452

$$$$

     RDKit          3D

 19 20  0  0  0  0  0  0  0  0999 V2000
  -12.2470    5.2450  -77.3530 C   0  0  0  0  0  0  0  0  0  0  0  0
  -11.3370    4.1410  -76.8960 C   0  0  0  0  0  0  0  0  0  0  0  0
  -11.4510    3.5550  -75.6260 C   0  0  0  0  0  0  0  0  0  0  0  0
  -10.3330    3.6580  -77.7350 C   0  0  0  0  0  0  0  0  0  0  0  0
  -10.5800    2.5220  -75.2310 C   0  0  0  0  0  0  0  0  0  0  0  0
   -9.5000    2.6450  -77.3230 C   0  0  0  0  0  0  0  0  0  0  0  0
  -10.1620    4.1820  -78.9390 O   0  0  0  0  0  0  0  0  0  0  0  0
   -9.5900    2.0640  -76.0990 C   0  0  0  0  0  0  0  0  0  0  0  0
   -8.7970    3.9630  -79.2650 C   0  0  0  0  0  0  0  0  0  0  0  0
   -7.9830    3.6250  -77.9780 C   0  0  0  0  0  0  0  0  0  0  0  0
   -7.3180    2.3560  -78.0210 N   0  0  0  0  0  0  0  0  0  0  0  0
   -6.7760    1.9970  -79.2170 C   0  0  0  0  0  0  0  0  0  0  0  0
   -5.6320    2.2730  -79.5660 O   0  0  0  0  0  0  0  0  0  0  0  0
   -7.6690    1.2210  -80.0930 C   0  0  0  0  0  0  0  0  0  0  0  0
   -8.0950    1.8240  -81.4190 C   0  0  0  0  0  0  0  0  0  0  0  0
   -8.1130   -0.0430  -79.7090 C   0  0  0  0  0  0  0  0  0  0  0  0
   -8.9860    0.9520  -82.2400 C   0  0  0  0  0  0  0  0  0  0  0  0
   -8.9480   -0.7950  -80.5340 C   0  0  0  0  0  0  0  0  0  0  0  0
   -9.3730   -0.3140  -81.7720 C   0  0  0  0  0  0  0  0  0  0  0  0
  1  2  1  0
  2  3  2  0
  2  4  1  0
  3  5  1  0
  4  6  2  0
  4  7  1  0
  5  8  2  0
  6  8  1  0
  7  9  1  0
  9 10  1  0
 10 11  1  0
 11 12  1  0
 12 13  2  0
 12 14  1  0
 14 15  2  0
 14 16  1  0
 15 17  1  0
 16 18  2  0
 17 19  2  0
 18 19  1  0
M  END
>  <ref_url>  (879) 
https://fakepage.com

>  <submitter_name>  (879) 
Steph Wills

>  <submitter_email>  (879) 
stephanie.wills@dtc.ox.ac.uk

>  <submitter_institution>  (879) 
University of Oxford

>  <generation_date>  (879) 
2020-06-04

>  <method>  (879) 
Fragment network

>  <ref_mols>  (879) 
x0034_0B,x0212_0B

>  <ref_pdb>  (879) 
references/x0034-0B-x0212-0B-67552.holo_minimised_nolig.pdb

>  <original SMILES>  (879) 
Cc1ccccc1OCCNC(=O)c1ccccc1

>  <synthon>  (879) 
[Xe]c1ccccc1

>  <original_name>  (879) 
x0034-0B-x0212-0B-67552

>  <comRMSD_score>  (879) 
0.7284260143167144

>  <IF_score>  (879) 
0.5416666666666666

>  <SuCOS_score>  (879) 
0.4618908306830619

>  <compound_ID>  (879) 
MOLPORT:020-184-824

$$$$

     RDKit          3D

 24 25  0  0  0  0  0  0  0  0999 V2000
   -6.7560    2.6930  -79.4520 C   0  0  0  0  0  0  0  0  0  0  0  0
   -7.6800    1.6240  -80.0080 C   0  0  0  0  0  0  0  0  0  0  0  0
   -8.3510    1.9240  -81.3570 C   0  0  0  0  0  0  0  0  0  0  0  0
   -7.9080    0.4410  -79.3180 C   0  0  0  0  0  0  0  0  0  0  0  0
   -9.2880    0.7820  -81.8000 C   0  0  0  0  0  0  0  0  0  0  0  0
   -8.7510   -0.5310  -79.7690 C   0  0  0  0  0  0  0  0  0  0  0  0
   -9.4520   -0.4270  -80.9470 C   0  0  0  0  0  0  0  0  0  0  0  0
  -10.4990   -1.8240  -81.2570 S   0  0  0  0  0  0  0  0  0  0  0  0
   -9.6850   -3.0130  -81.3840 O   0  0  0  0  0  0  0  0  0  0  0  0
  -11.4930   -1.4970  -82.2420 O   0  0  0  0  0  0  0  0  0  0  0  0
  -11.3000   -1.9020  -79.7610 N   0  0  0  0  0  0  0  0  0  0  0  0
  -12.7400   -1.7670  -79.8220 C   0  0  0  0  0  0  0  0  0  0  0  0
  -10.5370   -1.8900  -78.4950 C   0  0  0  0  0  0  0  0  0  0  0  0
  -10.3970   -0.4740  -77.8540 C   0  0  0  0  0  0  0  0  0  0  0  0
  -10.8340    0.4360  -78.5390 O   0  0  0  0  0  0  0  0  0  0  0  0
   -9.7890   -0.3540  -76.5070 N   0  0  0  0  0  0  0  0  0  0  0  0
   -8.4890    0.1430  -76.3840 C   0  0  0  0  0  0  0  0  0  0  0  0
   -8.1930    1.3980  -76.9680 C   0  0  0  0  0  0  0  0  0  0  0  0
   -9.2310    2.3500  -76.9590 C   0  0  0  0  0  0  0  0  0  0  0  0
   -9.4200    3.1640  -78.0810 C   0  0  0  0  0  0  0  0  0  0  0  0
  -10.0910    2.5270  -75.8480 C   0  0  0  0  0  0  0  0  0  0  0  0
  -10.5080    4.1740  -78.0800 C   0  0  0  0  0  0  0  0  0  0  0  0
  -11.1200    3.4930  -75.8630 C   0  0  0  0  0  0  0  0  0  0  0  0
  -11.3340    4.3200  -76.9790 C   0  0  0  0  0  0  0  0  0  0  0  0
  1  2  1  0
  2  3  2  0
  2  4  1  0
  3  5  1  0
  4  6  2  0
  5  7  2  0
  6  7  1  0
  7  8  1  0
  8  9  2  0
  8 10  2  0
  8 11  1  0
 11 12  1  0
 11 13  1  0
 13 14  1  0
 14 15  2  0
 14 16  1  0
 16 17  1  0
 17 18  1  0
 18 19  1  0
 19 20  2  0
 19 21  1  0
 20 22  1  0
 21 23  2  0
 22 24  2  0
 23 24  1  0
M  END
>  <ref_url>  (880) 
https://fakepage.com

>  <submitter_name>  (880) 
Steph Wills

>  <submitter_email>  (880) 
stephanie.wills@dtc.ox.ac.uk

>  <submitter_institution>  (880) 
University of Oxford

>  <generation_date>  (880) 
2020-06-04

>  <method>  (880) 
Fragment network

>  <ref_mols>  (880) 
x0034_0B,x0212_0B

>  <ref_pdb>  (880) 
references/x0034-0B-x0212-0B-68067.holo_minimised_nolig.pdb

>  <original SMILES>  (880) 
Cc1ccc(S(=O)(=O)N(C)CC(=O)NCCc2ccccc2)cc1

>  <synthon>  (880) 
[Xe]c1ccccc1

>  <original_name>  (880) 
x0034-0B-x0212-0B-68067

>  <comRMSD_score>  (880) 
0.7732265970402014

>  <IF_score>  (880) 
0.5833333333333333

>  <SuCOS_score>  (880) 
0.4829889750411728

>  <compound_ID>  (880) 
MOLPORT:002-957-537

$$$$

     RDKit          3D

 24 25  0  0  0  0  0  0  0  0999 V2000
   -7.0240    2.4140  -79.2360 C   0  0  0  0  0  0  0  0  0  0  0  0
   -7.8640    1.4690  -80.0450 C   0  0  0  0  0  0  0  0  0  0  0  0
   -8.2390    0.2130  -79.5640 C   0  0  0  0  0  0  0  0  0  0  0  0
   -8.2810    1.8430  -81.3090 C   0  0  0  0  0  0  0  0  0  0  0  0
   -9.0190   -0.6490  -80.3440 C   0  0  0  0  0  0  0  0  0  0  0  0
   -9.0490    1.0010  -82.0920 C   0  0  0  0  0  0  0  0  0  0  0  0
   -7.9380    3.0310  -81.7750 F   0  0  0  0  0  0  0  0  0  0  0  0
   -9.4110   -1.9160  -79.8920 C   0  0  0  0  0  0  0  0  0  0  0  0
   -9.4260   -0.2480  -81.6210 C   0  0  0  0  0  0  0  0  0  0  0  0
  -10.0730   -2.7880  -80.7110 O   0  0  0  0  0  0  0  0  0  0  0  0
   -9.1300   -2.3260  -78.5640 N   0  0  0  0  0  0  0  0  0  0  0  0
   -7.9250   -2.7920  -78.0790 C   0  0  0  0  0  0  0  0  0  0  0  0
   -6.9160   -1.6800  -77.7320 C   0  0  0  0  0  0  0  0  0  0  0  0
   -7.2580   -1.0530  -76.3730 C   0  0  0  0  0  0  0  0  0  0  0  0
   -8.8530   -0.1040  -76.4880 S   0  0  0  0  0  0  0  0  0  0  0  0
   -9.4930   -0.2210  -75.1930 O   0  0  0  0  0  0  0  0  0  0  0  0
   -9.5310   -0.4920  -77.7000 O   0  0  0  0  0  0  0  0  0  0  0  0
   -8.2320    1.5580  -76.6350 C   0  0  0  0  0  0  0  0  0  0  0  0
   -9.2760    2.4930  -76.7700 C   0  0  0  0  0  0  0  0  0  0  0  0
   -9.4020    3.2310  -77.9570 C   0  0  0  0  0  0  0  0  0  0  0  0
  -10.1910    2.6900  -75.7180 C   0  0  0  0  0  0  0  0  0  0  0  0
  -10.4240    4.1580  -78.1100 C   0  0  0  0  0  0  0  0  0  0  0  0
  -11.2340    3.6120  -75.8270 C   0  0  0  0  0  0  0  0  0  0  0  0
  -11.3820    4.3560  -76.9960 C   0  0  0  0  0  0  0  0  0  0  0  0
  1  2  1  0
  2  3  2  0
  2  4  1  0
  3  5  1  0
  4  6  2  0
  4  7  1  0
  5  8  1  0
  5  9  2  0
  6  9  1  0
  8 10  2  0
  8 11  1  0
 11 12  1  0
 12 13  1  0
 13 14  1  0
 15 14  1  0
 15 16  2  0
 15 17  2  0
 15 18  1  0
 18 19  1  0
 19 20  2  0
 19 21  1  0
 20 22  1  0
 21 23  2  0
 22 24  2  0
 23 24  1  0
M  END
>  <ref_url>  (881) 
https://fakepage.com

>  <submitter_name>  (881) 
Steph Wills

>  <submitter_email>  (881) 
stephanie.wills@dtc.ox.ac.uk

>  <submitter_institution>  (881) 
University of Oxford

>  <generation_date>  (881) 
2020-06-04

>  <method>  (881) 
Fragment network

>  <ref_mols>  (881) 
x0034_0B,x0212_0B

>  <ref_pdb>  (881) 
references/x0034-0B-x0212-0B-68130.holo_minimised_nolig.pdb

>  <original SMILES>  (881) 
Cc1cc(C(=O)NCCCS(=O)(=O)Cc2ccccc2)ccc1F

>  <synthon>  (881) 
[Xe]c1ccccc1

>  <original_name>  (881) 
x0034-0B-x0212-0B-68130

>  <comRMSD_score>  (881) 
0.5351801358213681

>  <IF_score>  (881) 
0.625

>  <SuCOS_score>  (881) 
0.6159845893411857

>  <compound_ID>  (881) 
MOLPORT:020-157-281

$$$$

     RDKit          3D

 22 23  0  0  0  0  0  0  0  0999 V2000
  -12.7250    5.5490  -77.4940 C   0  0  0  0  0  0  0  0  0  0  0  0
  -11.5350    4.6370  -77.3190 C   0  0  0  0  0  0  0  0  0  0  0  0
  -10.4820    4.7040  -78.2200 C   0  0  0  0  0  0  0  0  0  0  0  0
  -11.4650    3.7240  -76.2710 C   0  0  0  0  0  0  0  0  0  0  0  0
   -9.3010    3.8430  -78.0680 C   0  0  0  0  0  0  0  0  0  0  0  0
  -10.3640    2.8980  -76.1330 C   0  0  0  0  0  0  0  0  0  0  0  0
   -9.2860    2.9520  -77.0010 C   0  0  0  0  0  0  0  0  0  0  0  0
  -10.3600    2.0040  -75.1130 N   0  0  0  0  0  0  0  0  0  0  0  0
  -10.0050    0.6060  -75.3530 C   0  0  0  0  0  0  0  0  0  0  0  0
  -10.1290   -0.2750  -74.5090 O   0  0  0  0  0  0  0  0  0  0  0  0
   -9.5450    0.4490  -76.6390 N   0  0  0  0  0  0  0  0  0  0  0  0
   -8.5510    1.2910  -77.0750 N   0  0  0  0  0  0  0  0  0  0  0  0
   -7.2680    0.7240  -77.3240 C   0  0  0  0  0  0  0  0  0  0  0  0
   -6.8620   -0.5800  -76.8970 O   0  0  0  0  0  0  0  0  0  0  0  0
   -6.5730    1.5090  -77.9650 O   0  0  0  0  0  0  0  0  0  0  0  0
   -7.3080    2.2290  -78.9540 C   0  0  0  0  0  0  0  0  0  0  0  0
   -7.9920    1.5040  -79.9320 C   0  0  0  0  0  0  0  0  0  0  0  0
   -8.4500    0.1100  -79.5790 C   0  0  0  0  0  0  0  0  0  0  0  0
   -8.2690    2.0220  -81.2120 C   0  0  0  0  0  0  0  0  0  0  0  0
   -9.1850   -0.6280  -80.6500 C   0  0  0  0  0  0  0  0  0  0  0  0
   -8.9630    1.2660  -82.1650 C   0  0  0  0  0  0  0  0  0  0  0  0
   -9.4100   -0.0260  -81.8850 C   0  0  0  0  0  0  0  0  0  0  0  0
  1  2  1  0
  2  3  2  0
  2  4  1  0
  3  5  1  0
  4  6  2  0
  5  7  2  0
  6  7  1  0
  6  8  1  0
  8  9  1  0
  9 10  2  0
  9 11  1  0
 11 12  1  0
 12 13  1  0
 13 14  2  0
 13 15  1  0
 15 16  1  0
 16 17  1  0
 17 18  2  0
 17 19  1  0
 18 20  1  0
 19 21  2  0
 20 22  2  0
 21 22  1  0
M  END
>  <ref_url>  (882) 
https://fakepage.com

>  <submitter_name>  (882) 
Steph Wills

>  <submitter_email>  (882) 
stephanie.wills@dtc.ox.ac.uk

>  <submitter_institution>  (882) 
University of Oxford

>  <generation_date>  (882) 
2020-06-04

>  <method>  (882) 
Fragment network

>  <ref_mols>  (882) 
x0034_0B,x0212_0B

>  <ref_pdb>  (882) 
references/x0034-0B-x0212-0B-69596.holo_minimised_nolig.pdb

>  <original SMILES>  (882) 
Cc1cccc(NC(=O)NNC(=O)OCc2ccccc2)c1

>  <synthon>  (882) 
[Xe]c1ccccc1

>  <original_name>  (882) 
x0034-0B-x0212-0B-69596

>  <comRMSD_score>  (882) 
0.9150197629923992

>  <IF_score>  (882) 
0.375

>  <SuCOS_score>  (882) 
0.4884318750460173

>  <compound_ID>  (882) 
CHEMSPACE-BB:CSMB00114202783

$$$$

     RDKit          3D

 21 22  0  0  0  0  0  0  0  0999 V2000
  -12.6330    5.2350  -77.3620 C   0  0  0  0  0  0  0  0  0  0  0  0
  -11.4450    4.3320  -77.0980 C   0  0  0  0  0  0  0  0  0  0  0  0
  -10.4940    4.1560  -78.0910 C   0  0  0  0  0  0  0  0  0  0  0  0
  -11.2800    3.6710  -75.8730 C   0  0  0  0  0  0  0  0  0  0  0  0
   -9.3320    3.2860  -77.8420 C   0  0  0  0  0  0  0  0  0  0  0  0
  -10.1840    2.8440  -75.6290 C   0  0  0  0  0  0  0  0  0  0  0  0
   -9.2010    2.6430  -76.5980 C   0  0  0  0  0  0  0  0  0  0  0  0
   -7.7830    1.6040  -76.2670 S   0  0  0  0  0  0  0  0  0  0  0  0
   -8.3140   -0.1610  -76.1920 C   0  0  0  0  0  0  0  0  0  0  0  0
   -8.2390   -0.7570  -77.4400 C   0  0  0  0  0  0  0  0  0  0  0  0
   -9.0860   -1.5790  -77.7860 O   0  0  0  0  0  0  0  0  0  0  0  0
   -7.0870   -0.3030  -78.1780 O   0  0  0  0  0  0  0  0  0  0  0  0
   -6.7170    1.0070  -77.8430 N   0  0  0  0  0  0  0  0  0  0  0  0
   -7.2150    2.0000  -78.7810 C   0  0  0  0  0  0  0  0  0  0  0  0
   -7.0010    3.3290  -78.5720 N   0  0  0  0  0  0  0  0  0  0  0  0
   -8.0160    1.3760  -79.9460 C   0  0  0  0  0  0  0  0  0  0  0  0
   -8.2170    2.0040  -81.1790 C   0  0  0  0  0  0  0  0  0  0  0  0
   -8.5520    0.1060  -79.7020 C   0  0  0  0  0  0  0  0  0  0  0  0
   -9.0150    1.2620  -82.2080 C   0  0  0  0  0  0  0  0  0  0  0  0
   -9.3000   -0.6130  -80.6230 C   0  0  0  0  0  0  0  0  0  0  0  0
   -9.5550   -0.0850  -81.8640 C   0  0  0  0  0  0  0  0  0  0  0  0
  1  2  1  0
  2  3  2  0
  2  4  1  0
  3  5  1  0
  4  6  2  0
  5  7  2  0
  6  7  1  0
  7  8  1  0
  8  9  1  0
  9 10  1  0
 10 11  2  0
 10 12  1  0
 12 13  1  0
 13 14  2  3
 14 15  1  0
 14 16  1  0
 16 17  2  0
 16 18  1  0
 17 19  1  0
 18 20  2  0
 19 21  2  0
 20 21  1  0
M  END
>  <ref_url>  (883) 
https://fakepage.com

>  <submitter_name>  (883) 
Steph Wills

>  <submitter_email>  (883) 
stephanie.wills@dtc.ox.ac.uk

>  <submitter_institution>  (883) 
University of Oxford

>  <generation_date>  (883) 
2020-06-04

>  <method>  (883) 
Fragment network

>  <ref_mols>  (883) 
x0034_0B,x0212_0B

>  <ref_pdb>  (883) 
references/x0034-0B-x0212-0B-70321.holo_minimised_nolig.pdb

>  <original SMILES>  (883) 
Cc1ccc(SCC(=O)ON=C(N)c2ccccc2)cc1

>  <synthon>  (883) 
[Xe]c1ccccc1

>  <original_name>  (883) 
x0034-0B-x0212-0B-70321

>  <comRMSD_score>  (883) 
0.7755367317040636

>  <IF_score>  (883) 
0.625

>  <SuCOS_score>  (883) 
0.5379432568559319

>  <compound_ID>  (883) 
MOLPORT:001-636-251

$$$$

     RDKit          3D

 20 21  0  0  0  0  0  0  0  0999 V2000
  -12.3430    5.2250  -77.4440 C   0  0  0  0  0  0  0  0  0  0  0  0
  -11.2510    4.2320  -77.0880 C   0  0  0  0  0  0  0  0  0  0  0  0
  -10.2080    3.9830  -77.9900 C   0  0  0  0  0  0  0  0  0  0  0  0
  -11.2430    3.5430  -75.8690 C   0  0  0  0  0  0  0  0  0  0  0  0
   -9.1250    3.0150  -77.6500 C   0  0  0  0  0  0  0  0  0  0  0  0
  -10.2380    2.6390  -75.5460 C   0  0  0  0  0  0  0  0  0  0  0  0
   -9.1780    2.3590  -76.4060 C   0  0  0  0  0  0  0  0  0  0  0  0
   -8.2960    1.5520  -76.0770 O   0  0  0  0  0  0  0  0  0  0  0  0
   -8.5220    0.1340  -76.1310 C   0  0  0  0  0  0  0  0  0  0  0  0
   -8.3540   -0.3580  -77.3950 C   0  0  0  0  0  0  0  0  0  0  0  0
   -7.1310    0.1640  -77.8500 C   0  0  0  0  0  0  0  0  0  0  0  0
   -6.2290   -0.8280  -78.3590 O   0  0  0  0  0  0  0  0  0  0  0  0
   -6.9260    1.3760  -77.7860 O   0  0  0  0  0  0  0  0  0  0  0  0
   -7.0780    2.0320  -79.0420 C   0  0  0  0  0  0  0  0  0  0  0  0
   -7.8350    1.3750  -80.0150 C   0  0  0  0  0  0  0  0  0  0  0  0
   -8.1910    2.0410  -81.3160 C   0  0  0  0  0  0  0  0  0  0  0  0
   -8.2700    0.0670  -79.7690 C   0  0  0  0  0  0  0  0  0  0  0  0
   -9.0040    1.1950  -82.2460 C   0  0  0  0  0  0  0  0  0  0  0  0
   -9.0240   -0.6560  -80.6740 C   0  0  0  0  0  0  0  0  0  0  0  0
   -9.3820   -0.1040  -81.8830 C   0  0  0  0  0  0  0  0  0  0  0  0
  1  2  1  0
  2  3  2  0
  2  4  1  0
  3  5  1  0
  4  6  2  0
  5  7  2  0
  6  7  1  0
  7  8  1  0
  8  9  1  0
  9 10  1  0
 10 11  1  0
 11 12  2  0
 11 13  1  0
 13 14  1  0
 14 15  1  0
 15 16  2  0
 15 17  1  0
 16 18  1  0
 17 19  2  0
 18 20  2  0
 19 20  1  0
M  END
>  <ref_url>  (884) 
https://fakepage.com

>  <submitter_name>  (884) 
Steph Wills

>  <submitter_email>  (884) 
stephanie.wills@dtc.ox.ac.uk

>  <submitter_institution>  (884) 
University of Oxford

>  <generation_date>  (884) 
2020-06-04

>  <method>  (884) 
Fragment network

>  <ref_mols>  (884) 
x0034_0B,x0212_0B

>  <ref_pdb>  (884) 
references/x0034-0B-x0212-0B-73228.holo_minimised_nolig.pdb

>  <original SMILES>  (884) 
Cc1ccc(OCCC(=O)OCc2ccccc2)cc1

>  <synthon>  (884) 
[Xe]c1ccccc1

>  <original_name>  (884) 
x0034-0B-x0212-0B-73228

>  <comRMSD_score>  (884) 
0.6685644377376107

>  <IF_score>  (884) 
0.5416666666666666

>  <SuCOS_score>  (884) 
0.4742500254761937

>  <compound_ID>  (884) 
CHEMSPACE-BB:CSMB00119747173

$$$$

     RDKit          3D

 25 26  0  0  0  0  0  0  0  0999 V2000
  -12.5040    5.4320  -77.4070 C   0  0  0  0  0  0  0  0  0  0  0  0
  -11.4020    4.4700  -77.0950 C   0  0  0  0  0  0  0  0  0  0  0  0
  -10.3830    4.2650  -78.0240 C   0  0  0  0  0  0  0  0  0  0  0  0
  -11.3610    3.7700  -75.8840 C   0  0  0  0  0  0  0  0  0  0  0  0
   -9.3450    3.3810  -77.7480 C   0  0  0  0  0  0  0  0  0  0  0  0
  -10.3300    2.8830  -75.6170 C   0  0  0  0  0  0  0  0  0  0  0  0
   -9.3100    2.6780  -76.5350 C   0  0  0  0  0  0  0  0  0  0  0  0
   -8.2140    1.7270  -76.2120 C   0  0  0  0  0  0  0  0  0  0  0  0
   -8.5110    0.2140  -76.2710 C   0  0  0  0  0  0  0  0  0  0  0  0
   -9.5130   -0.3290  -75.7980 O   0  0  0  0  0  0  0  0  0  0  0  0
   -7.4300   -0.4950  -76.9700 N   0  0  0  0  0  0  0  0  0  0  0  0
   -6.7170    0.3810  -77.9390 C   0  0  0  0  0  0  0  0  0  0  0  0
   -7.5300    1.5100  -78.5810 C   0  0  1  0  0  0  0  0  0  0  0  0
   -6.7620    2.7510  -78.6000 N   0  0  0  0  0  0  0  0  0  0  0  0
   -8.1490    1.1250  -79.7590 C   0  0  0  0  0  0  0  0  0  0  0  0
   -5.4280    2.7840  -77.9940 C   0  0  0  0  0  0  0  0  0  0  0  0
   -8.7330   -0.1370  -79.6960 C   0  0  0  0  0  0  0  0  0  0  0  0
   -8.2290    1.8700  -80.9610 C   0  0  0  0  0  0  0  0  0  0  0  0
   -4.2440    2.5240  -78.6120 O   0  0  0  0  0  0  0  0  0  0  0  0
   -5.3090    3.1240  -76.6390 C   0  0  0  0  0  0  0  0  0  0  0  0
   -9.3890   -0.6730  -80.7740 C   0  0  0  0  0  0  0  0  0  0  0  0
   -8.9020    1.3120  -82.0470 C   0  0  0  0  0  0  0  0  0  0  0  0
   -6.1940    4.0800  -76.1270 C   0  0  0  0  0  0  0  0  0  0  0  0
   -5.2340    1.8560  -75.7530 C   0  0  0  0  0  0  0  0  0  0  0  0
   -9.4750    0.0530  -81.9340 C   0  0  0  0  0  0  0  0  0  0  0  0
  1  2  1  0
  2  3  2  0
  2  4  1  0
  3  5  1  0
  4  6  2  0
  5  7  2  0
  6  7  1  0
  7  8  1  0
  8  9  1  0
  9 10  2  0
  9 11  1  0
 11 12  1  0
 13 12  1  6
 13 14  1  0
 13 15  1  0
 14 16  1  0
 15 17  2  0
 15 18  1  0
 16 19  2  0
 16 20  1  0
 17 21  1  0
 18 22  2  0
 20 23  1  0
 20 24  1  0
 21 25  2  0
 22 25  1  0
M  END
>  <ref_url>  (885) 
https://fakepage.com

>  <submitter_name>  (885) 
Steph Wills

>  <submitter_email>  (885) 
stephanie.wills@dtc.ox.ac.uk

>  <submitter_institution>  (885) 
University of Oxford

>  <generation_date>  (885) 
2020-06-04

>  <method>  (885) 
Fragment network

>  <ref_mols>  (885) 
x0034_0B,x0212_0B

>  <ref_pdb>  (885) 
references/x0034-0B-x0212-0B-73532.holo_minimised_nolig.pdb

>  <original SMILES>  (885) 
Cc1ccc(CC(=O)NCC(NC(=O)C(C)C)c2ccccc2)cc1

>  <synthon>  (885) 
[Xe]c1ccccc1

>  <original_name>  (885) 
x0034-0B-x0212-0B-73532

>  <comRMSD_score>  (885) 
0.7751926164461269

>  <IF_score>  (885) 
0.625

>  <SuCOS_score>  (885) 
0.5884810230656512

>  <compound_ID>  (885) 
REAL:PV-001481196546

$$$$

     RDKit          3D

 25 26  0  0  0  0  0  0  0  0999 V2000
   -8.7510   -0.1000  -76.3080 C   0  0  0  0  0  0  0  0  0  0  0  0
   -8.4150    1.3600  -76.5040 C   0  0  2  0  0  0  0  0  0  0  0  0
   -7.4300    1.8570  -75.6150 C   0  0  0  0  0  0  0  0  0  0  0  0
   -9.4350    2.3050  -76.7640 C   0  0  0  0  0  0  0  0  0  0  0  0
   -7.5040    2.9040  -74.9890 O   0  0  0  0  0  0  0  0  0  0  0  0
   -6.2530    1.0000  -75.5430 N   0  0  0  0  0  0  0  0  0  0  0  0
   -9.5150    3.0500  -78.1100 C   0  0  0  0  0  0  0  0  0  0  0  0
  -10.3930    2.6030  -75.8030 C   0  0  0  0  0  0  0  0  0  0  0  0
   -5.2070    1.4920  -74.6460 C   0  0  0  0  0  0  0  0  0  0  0  0
   -5.8830    0.7120  -76.8090 C   0  0  0  0  0  0  0  0  0  0  0  0
  -10.5170    3.9880  -78.3120 C   0  0  0  0  0  0  0  0  0  0  0  0
  -11.3980    3.5450  -76.0080 C   0  0  0  0  0  0  0  0  0  0  0  0
   -5.6810    1.9780  -77.5460 C   0  0  0  0  0  0  0  0  0  0  0  0
  -11.4990    4.2480  -77.2120 C   0  0  0  0  0  0  0  0  0  0  0  0
  -12.2820    3.7820  -75.0320 F   0  0  0  0  0  0  0  0  0  0  0  0
   -6.9090    2.5500  -78.1080 N   0  0  0  0  0  0  0  0  0  0  0  0
   -7.7920    3.4190  -77.3120 C   0  0  0  0  0  0  0  0  0  0  0  0
   -6.8920    2.5550  -79.5510 C   0  0  0  0  0  0  0  0  0  0  0  0
   -6.1190    3.3900  -80.2970 O   0  0  0  0  0  0  0  0  0  0  0  0
   -7.7070    1.6390  -80.1880 C   0  0  0  0  0  0  0  0  0  0  0  0
   -8.2470    2.0430  -81.5330 C   0  0  0  0  0  0  0  0  0  0  0  0
   -8.0330    0.3840  -79.6440 C   0  0  0  0  0  0  0  0  0  0  0  0
   -9.1320    1.0520  -82.2580 C   0  0  0  0  0  0  0  0  0  0  0  0
   -8.8510   -0.5480  -80.2940 C   0  0  0  0  0  0  0  0  0  0  0  0
   -9.3950   -0.2700  -81.5480 C   0  0  0  0  0  0  0  0  0  0  0  0
  2  1  1  1
  2  3  1  0
  2  4  1  0
  3  5  2  0
  3  6  1  0
  4  7  2  0
  4  8  1  0
  6  9  1  0
  6 10  1  0
  7 11  1  0
  8 12  2  0
 10 13  1  0
 11 14  2  0
 12 14  1  0
 12 15  1  0
 13 16  1  0
 16 17  1  0
 16 18  1  0
 18 19  2  0
 18 20  1  0
 20 21  2  0
 20 22  1  0
 21 23  1  0
 22 24  2  0
 23 25  2  0
 24 25  1  0
M  END
>  <ref_url>  (886) 
https://fakepage.com

>  <submitter_name>  (886) 
Steph Wills

>  <submitter_email>  (886) 
stephanie.wills@dtc.ox.ac.uk

>  <submitter_institution>  (886) 
University of Oxford

>  <generation_date>  (886) 
2020-06-04

>  <method>  (886) 
Fragment network

>  <ref_mols>  (886) 
x0034_0B,x0212_0B

>  <ref_pdb>  (886) 
references/x0034-0B-x0212-0B-76053.holo_minimised_nolig.pdb

>  <original SMILES>  (886) 
CC(C(=O)N(C)CCN(C)C(=O)c1ccccc1)c1cccc(F)c1

>  <synthon>  (886) 
[Xe]c1ccccc1

>  <original_name>  (886) 
x0034-0B-x0212-0B-76053

>  <comRMSD_score>  (886) 
0.6089905734233647

>  <IF_score>  (886) 
0.625

>  <SuCOS_score>  (886) 
0.5379789192935382

>  <compound_ID>  (886) 
REAL:PV-001583865697

$$$$

     RDKit          3D

 20 21  0  0  0  0  0  0  0  0999 V2000
  -12.3440    5.3990  -77.5930 C   0  0  0  0  0  0  0  0  0  0  0  0
  -11.3880    4.3470  -77.1130 C   0  0  0  0  0  0  0  0  0  0  0  0
  -10.3460    3.9310  -77.9510 C   0  0  0  0  0  0  0  0  0  0  0  0
  -11.5070    3.7690  -75.8480 C   0  0  0  0  0  0  0  0  0  0  0  0
   -9.4460    2.9520  -77.5220 C   0  0  0  0  0  0  0  0  0  0  0  0
  -10.6140    2.8000  -75.4290 C   0  0  0  0  0  0  0  0  0  0  0  0
   -9.5840    2.3840  -76.2480 C   0  0  0  0  0  0  0  0  0  0  0  0
   -8.6650    1.4100  -75.8230 N   0  0  0  0  0  0  0  0  0  0  0  0
   -8.5530    0.0680  -76.1010 C   0  0  0  0  0  0  0  0  0  0  0  0
   -9.2890   -1.0770  -75.6730 O   0  0  0  0  0  0  0  0  0  0  0  0
   -7.5060   -0.0670  -76.9690 C   0  0  0  0  0  0  0  0  0  0  0  0
   -6.9820    1.1800  -77.2430 N   0  0  0  0  0  0  0  0  0  0  0  0
   -5.9910    1.3370  -78.1760 O   0  0  0  0  0  0  0  0  0  0  0  0
   -6.7680    2.1300  -79.1090 C   0  0  0  0  0  0  0  0  0  0  0  0
   -7.5800    1.4290  -80.0080 C   0  0  0  0  0  0  0  0  0  0  0  0
   -8.0510    0.0460  -79.6060 C   0  0  0  0  0  0  0  0  0  0  0  0
   -7.9800    1.9380  -81.2590 C   0  0  0  0  0  0  0  0  0  0  0  0
   -8.9250   -0.7700  -80.5360 C   0  0  0  0  0  0  0  0  0  0  0  0
   -8.7900    1.1860  -82.1340 C   0  0  0  0  0  0  0  0  0  0  0  0
   -9.2750   -0.1070  -81.8600 C   0  0  0  0  0  0  0  0  0  0  0  0
  1  2  1  0
  2  3  2  0
  2  4  1  0
  3  5  1  0
  4  6  2  0
  5  7  2  0
  6  7  1  0
  7  8  1  0
  8  9  1  0
  9 10  2  0
  9 11  1  0
 11 12  2  3
 12 13  1  0
 13 14  1  0
 14 15  1  0
 15 16  2  0
 15 17  1  0
 16 18  1  0
 17 19  2  0
 18 20  2  0
 19 20  1  0
M  END
>  <ref_url>  (887) 
https://fakepage.com

>  <submitter_name>  (887) 
Steph Wills

>  <submitter_email>  (887) 
stephanie.wills@dtc.ox.ac.uk

>  <submitter_institution>  (887) 
University of Oxford

>  <generation_date>  (887) 
2020-06-04

>  <method>  (887) 
Fragment network

>  <ref_mols>  (887) 
x0034_0B,x0212_0B

>  <ref_pdb>  (887) 
references/x0034-0B-x0212-0B-78225.holo_minimised_nolig.pdb

>  <original SMILES>  (887) 
Cc1ccc(NC(=O)C=NOCc2ccccc2)cc1

>  <synthon>  (887) 
[Xe]c1ccccc1

>  <original_name>  (887) 
x0034-0B-x0212-0B-78225

>  <comRMSD_score>  (887) 
0.8133636834045892

>  <IF_score>  (887) 
0.5416666666666666

>  <SuCOS_score>  (887) 
0.4774635101985282

>  <compound_ID>  (887) 
MOLPORT:044-276-826

$$$$

     RDKit          3D

 17 18  0  0  0  0  0  0  0  0999 V2000
  -12.4250    5.5420  -77.3070 C   0  0  0  0  0  0  0  0  0  0  0  0
  -11.4130    4.4650  -77.0910 C   0  0  0  0  0  0  0  0  0  0  0  0
  -10.5320    4.1290  -78.1150 C   0  0  0  0  0  0  0  0  0  0  0  0
  -11.3340    3.7810  -75.8650 C   0  0  0  0  0  0  0  0  0  0  0  0
   -9.5940    3.1280  -77.9210 C   0  0  0  0  0  0  0  0  0  0  0  0
  -10.3890    2.7780  -75.6720 C   0  0  0  0  0  0  0  0  0  0  0  0
   -9.5100    2.4400  -76.6970 C   0  0  0  0  0  0  0  0  0  0  0  0
   -8.4830    1.3630  -76.5050 C   0  0  0  0  0  0  0  0  0  0  0  0
   -7.2130    1.5130  -77.1900 N   0  0  0  0  0  0  0  0  0  0  0  0
   -7.1630    2.6670  -77.9250 N   0  0  0  0  0  0  0  0  0  0  0  0
   -6.8910    2.5980  -79.3590 C   0  0  0  0  0  0  0  0  0  0  0  0
   -7.7970    1.6210  -80.1290 C   0  0  0  0  0  0  0  0  0  0  0  0
   -8.2210    0.2640  -79.5690 C   0  0  0  0  0  0  0  0  0  0  0  0
   -8.2640    1.9650  -81.4030 C   0  0  0  0  0  0  0  0  0  0  0  0
   -9.0370   -0.5840  -80.3180 C   0  0  0  0  0  0  0  0  0  0  0  0
   -9.0810    1.1070  -82.1480 C   0  0  0  0  0  0  0  0  0  0  0  0
   -9.4830   -0.1440  -81.6630 C   0  0  0  0  0  0  0  0  0  0  0  0
  1  2  1  0
  2  3  2  0
  2  4  1  0
  3  5  1  0
  4  6  2  0
  5  7  2  0
  6  7  1  0
  7  8  1  0
  8  9  2  3
  9 10  1  0
 10 11  1  0
 11 12  1  0
 12 13  2  0
 12 14  1  0
 13 15  1  0
 14 16  2  0
 15 17  2  0
 16 17  1  0
M  END
>  <ref_url>  (888) 
https://fakepage.com

>  <submitter_name>  (888) 
Steph Wills

>  <submitter_email>  (888) 
stephanie.wills@dtc.ox.ac.uk

>  <submitter_institution>  (888) 
University of Oxford

>  <generation_date>  (888) 
2020-06-04

>  <method>  (888) 
Fragment network

>  <ref_mols>  (888) 
x0034_0B,x0212_0B

>  <ref_pdb>  (888) 
references/x0034-0B-x0212-0B-80439.holo_minimised_nolig.pdb

>  <original SMILES>  (888) 
Cc1ccc(C=NNCc2ccccc2)cc1

>  <synthon>  (888) 
[Xe]c1ccccc1

>  <original_name>  (888) 
x0034-0B-x0212-0B-80439

>  <comRMSD_score>  (888) 
0.6240437684970505

>  <IF_score>  (888) 
0.5416666666666666

>  <SuCOS_score>  (888) 
0.5128353940867965

>  <compound_ID>  (888) 
CHEMSPACE-BB:CSMB00103410327

$$$$

     RDKit          3D

 20 21  0  0  0  0  0  0  0  0999 V2000
  -12.3580    5.1780  -77.4800 C   0  0  0  0  0  0  0  0  0  0  0  0
  -11.1640    4.3280  -77.1330 C   0  0  0  0  0  0  0  0  0  0  0  0
  -11.1100    3.6170  -75.9220 C   0  0  0  0  0  0  0  0  0  0  0  0
  -10.0880    4.2390  -78.0080 C   0  0  0  0  0  0  0  0  0  0  0  0
   -9.9970    2.8360  -75.6100 C   0  0  0  0  0  0  0  0  0  0  0  0
   -8.9690    3.4660  -77.6930 C   0  0  0  0  0  0  0  0  0  0  0  0
   -8.9090    2.7450  -76.4770 C   0  0  0  0  0  0  0  0  0  0  0  0
   -7.8300    1.9380  -76.0830 N   0  0  0  0  0  0  0  0  0  0  0  0
   -7.8470    0.4690  -76.1780 C   0  0  0  0  0  0  0  0  0  0  0  0
   -9.2400    0.0800  -75.8280 C   0  0  0  0  0  0  0  0  0  0  0  0
   -9.6520   -0.8420  -74.8990 O   0  0  0  0  0  0  0  0  0  0  0  0
  -10.0140    0.8000  -76.6420 N   0  0  0  0  0  0  0  0  0  0  0  0
   -9.6330    0.8360  -77.9760 N   0  0  0  0  0  0  0  0  0  0  0  0
   -8.5470    1.5580  -78.5130 C   0  0  0  0  0  0  0  0  0  0  0  0
   -8.5130    1.1970  -79.9440 C   0  0  0  0  0  0  0  0  0  0  0  0
   -8.7000   -0.2650  -79.9720 C   0  0  0  0  0  0  0  0  0  0  0  0
   -8.3750    1.9310  -81.1240 C   0  0  0  0  0  0  0  0  0  0  0  0
   -8.7400   -0.9380  -81.2730 C   0  0  0  0  0  0  0  0  0  0  0  0
   -8.4260    1.2300  -82.3310 C   0  0  0  0  0  0  0  0  0  0  0  0
   -8.5990   -0.1630  -82.3940 C   0  0  0  0  0  0  0  0  0  0  0  0
  1  2  1  0
  2  3  2  0
  2  4  1  0
  3  5  1  0
  4  6  2  0
  5  7  2  0
  6  7  1  0
  7  8  1  0
  8  9  1  0
  9 10  1  0
 10 11  2  0
 10 12  1  0
 12 13  1  0
 13 14  2  3
 14 15  1  0
 15 16  2  0
 15 17  1  0
 16 18  1  0
 17 19  2  0
 18 20  2  0
 19 20  1  0
M  END
>  <ref_url>  (889) 
https://fakepage.com

>  <submitter_name>  (889) 
Steph Wills

>  <submitter_email>  (889) 
stephanie.wills@dtc.ox.ac.uk

>  <submitter_institution>  (889) 
University of Oxford

>  <generation_date>  (889) 
2020-06-04

>  <method>  (889) 
Fragment network

>  <ref_mols>  (889) 
x0034_0B,x0212_0B

>  <ref_pdb>  (889) 
references/x0034-0B-x0212-0B-84540.holo_minimised_nolig.pdb

>  <original SMILES>  (889) 
Cc1ccc(NCC(=O)NN=Cc2ccccc2)cc1

>  <synthon>  (889) 
[Xe]c1ccccc1

>  <original_name>  (889) 
x0034-0B-x0212-0B-84540

>  <comRMSD_score>  (889) 
0.90708011406564

>  <IF_score>  (889) 
0.375

>  <SuCOS_score>  (889) 
0.4629447234509081

>  <compound_ID>  (889) 
MOLPORT:002-685-997

$$$$

     RDKit          3D

 23 24  0  0  0  0  0  0  0  0999 V2000
   -7.1000    2.2490  -75.8800 C   0  0  0  0  0  0  0  0  0  0  0  0
   -8.2330    1.6290  -76.6190 C   0  0  0  0  0  0  0  0  0  0  0  0
   -8.6200    0.2960  -76.3300 C   0  0  0  0  0  0  0  0  0  0  0  0
   -7.9300    1.7360  -78.1200 C   0  0  0  0  0  0  0  0  0  0  0  0
   -9.4450    2.5750  -76.6090 C   0  0  0  0  0  0  0  0  0  0  0  0
   -8.9190    1.6660  -79.1530 O   0  0  0  0  0  0  0  0  0  0  0  0
   -6.5000    1.9470  -78.3500 N   0  0  0  0  0  0  0  0  0  0  0  0
   -9.5760    3.3980  -77.7400 C   0  0  0  0  0  0  0  0  0  0  0  0
  -10.3870    2.6760  -75.5930 C   0  0  0  0  0  0  0  0  0  0  0  0
   -5.5370    1.0690  -77.9550 C   0  0  0  0  0  0  0  0  0  0  0  0
  -10.6200    4.2950  -77.8680 C   0  0  0  0  0  0  0  0  0  0  0  0
  -11.4430    3.5840  -75.7120 C   0  0  0  0  0  0  0  0  0  0  0  0
   -5.9220   -0.4010  -78.0600 C   0  0  0  0  0  0  0  0  0  0  0  0
  -11.5590    4.3890  -76.8510 C   0  0  0  0  0  0  0  0  0  0  0  0
   -5.1250   -1.3010  -77.8050 O   0  0  0  0  0  0  0  0  0  0  0  0
   -7.3370   -0.5120  -78.5060 N   0  0  0  0  0  0  0  0  0  0  0  0
   -7.9570   -0.0060  -79.7340 C   0  0  0  0  0  0  0  0  0  0  0  0
   -8.9380   -0.9170  -80.4480 C   0  0  0  0  0  0  0  0  0  0  0  0
   -7.6850    1.2730  -80.2630 C   0  0  0  0  0  0  0  0  0  0  0  0
   -9.5680   -0.3850  -81.7090 C   0  0  0  0  0  0  0  0  0  0  0  0
   -8.3080    1.7010  -81.4320 C   0  0  0  0  0  0  0  0  0  0  0  0
   -9.2120    0.9020  -82.1300 C   0  0  0  0  0  0  0  0  0  0  0  0
   -8.0230    2.9100  -81.8750 F   0  0  0  0  0  0  0  0  0  0  0  0
  1  2  1  0
  2  3  1  0
  2  4  1  0
  2  5  1  0
  4  6  2  0
  4  7  1  0
  5  8  2  0
  5  9  1  0
  7 10  1  0
  8 11  1  0
  9 12  2  0
 10 13  1  0
 11 14  2  0
 12 14  1  0
 13 15  2  0
 13 16  1  0
 16 17  1  0
 17 18  2  0
 17 19  1  0
 18 20  1  0
 19 21  2  0
 20 22  2  0
 21 22  1  0
 21 23  1  0
M  END
>  <ref_url>  (890) 
https://fakepage.com

>  <submitter_name>  (890) 
Steph Wills

>  <submitter_email>  (890) 
stephanie.wills@dtc.ox.ac.uk

>  <submitter_institution>  (890) 
University of Oxford

>  <generation_date>  (890) 
2020-06-04

>  <method>  (890) 
Fragment network

>  <ref_mols>  (890) 
x0034_0B,x0212_0B

>  <ref_pdb>  (890) 
references/x0034-0B-x0212-0B-86896.holo_minimised_nolig.pdb

>  <original SMILES>  (890) 
CC(C)(C(=O)NCC(=O)Nc1cccc(F)c1)c1ccccc1

>  <synthon>  (890) 
[Xe]c1ccccc1

>  <original_name>  (890) 
x0034-0B-x0212-0B-86896

>  <comRMSD_score>  (890) 
0.660414488254381

>  <IF_score>  (890) 
0.625

>  <SuCOS_score>  (890) 
0.5014852621690056

>  <compound_ID>  (890) 
REAL:Z959861476

$$$$

     RDKit          3D

 22 23  0  0  0  0  0  0  0  0999 V2000
  -12.4890    5.1270  -77.3100 C   0  0  0  0  0  0  0  0  0  0  0  0
  -11.3090    4.2360  -77.0760 C   0  0  0  0  0  0  0  0  0  0  0  0
  -11.1370    3.5320  -75.8710 C   0  0  0  0  0  0  0  0  0  0  0  0
  -10.3560    4.1070  -78.0840 C   0  0  0  0  0  0  0  0  0  0  0  0
  -10.0160    2.7120  -75.6920 C   0  0  0  0  0  0  0  0  0  0  0  0
   -9.2430    3.3020  -77.9050 C   0  0  0  0  0  0  0  0  0  0  0  0
   -9.0600    2.5970  -76.7070 C   0  0  0  0  0  0  0  0  0  0  0  0
   -7.6090    1.5530  -76.4080 S   0  0  0  0  0  0  0  0  0  0  0  0
   -8.1120   -0.2050  -76.2960 C   0  0  1  0  0  0  0  0  0  0  0  0
   -9.5470   -0.3810  -75.8410 C   0  0  0  0  0  0  0  0  0  0  0  0
   -7.8650   -1.0760  -77.5780 C   0  0  0  0  0  0  0  0  0  0  0  0
   -8.6950   -2.1950  -77.9220 O   0  0  0  0  0  0  0  0  0  0  0  0
   -6.7040   -0.6270  -78.3350 O   0  0  0  0  0  0  0  0  0  0  0  0
   -6.4310    0.7040  -78.0330 N   0  0  0  0  0  0  0  0  0  0  0  0
   -7.1150    1.6760  -78.9010 C   0  0  0  0  0  0  0  0  0  0  0  0
   -6.9790    3.0850  -78.6210 N   0  0  0  0  0  0  0  0  0  0  0  0
   -7.9260    1.2040  -79.9460 C   0  0  0  0  0  0  0  0  0  0  0  0
   -8.5710   -0.0920  -79.6930 C   0  0  0  0  0  0  0  0  0  0  0  0
   -8.1410    1.8700  -81.1700 C   0  0  0  0  0  0  0  0  0  0  0  0
   -9.4530   -0.7130  -80.7430 C   0  0  0  0  0  0  0  0  0  0  0  0
   -8.9560    1.3060  -82.1640 C   0  0  0  0  0  0  0  0  0  0  0  0
   -9.5990    0.0820  -81.9980 C   0  0  0  0  0  0  0  0  0  0  0  0
  1  2  1  0
  2  3  2  0
  2  4  1  0
  3  5  1  0
  4  6  2  0
  5  7  2  0
  6  7  1  0
  7  8  1  0
  8  9  1  0
  9 10  1  6
  9 11  1  0
 11 12  2  0
 11 13  1  0
 13 14  1  0
 14 15  2  3
 15 16  1  0
 15 17  1  0
 17 18  2  0
 17 19  1  0
 18 20  1  0
 19 21  2  0
 20 22  2  0
 21 22  1  0
M  END
>  <ref_url>  (891) 
https://fakepage.com

>  <submitter_name>  (891) 
Steph Wills

>  <submitter_email>  (891) 
stephanie.wills@dtc.ox.ac.uk

>  <submitter_institution>  (891) 
University of Oxford

>  <generation_date>  (891) 
2020-06-04

>  <method>  (891) 
Fragment network

>  <ref_mols>  (891) 
x0034_0B,x0212_0B

>  <ref_pdb>  (891) 
references/x0034-0B-x0212-0B-88949.holo_minimised_nolig.pdb

>  <original SMILES>  (891) 
Cc1ccc(SC(C)C(=O)ON=C(N)c2ccccc2)cc1

>  <synthon>  (891) 
[Xe]c1ccccc1

>  <original_name>  (891) 
x0034-0B-x0212-0B-88949

>  <comRMSD_score>  (891) 
0.7353931425258698

>  <IF_score>  (891) 
0.625

>  <SuCOS_score>  (891) 
0.5459655286983827

>  <compound_ID>  (891) 
MOLPORT:002-293-840

$$$$

     RDKit          3D

 19 20  0  0  0  0  0  0  0  0999 V2000
   -8.6610    3.7000  -79.2140 C   0  0  0  0  0  0  0  0  0  0  0  0
   -9.5280    3.6390  -77.9900 C   0  0  0  0  0  0  0  0  0  0  0  0
  -10.6960    4.3950  -78.0520 C   0  0  0  0  0  0  0  0  0  0  0  0
   -9.2420    2.8910  -76.8200 C   0  0  0  0  0  0  0  0  0  0  0  0
  -11.5880    4.4320  -76.9880 C   0  0  0  0  0  0  0  0  0  0  0  0
  -10.1600    2.9360  -75.7520 C   0  0  0  0  0  0  0  0  0  0  0  0
   -7.9970    2.0370  -76.6240 C   0  0  0  0  0  0  0  0  0  0  0  0
  -11.3230    3.7020  -75.8350 C   0  0  0  0  0  0  0  0  0  0  0  0
   -8.4120    0.2960  -76.5530 S   0  0  0  0  0  0  0  0  0  0  0  0
   -6.9300   -0.2460  -77.3720 C   0  0  0  0  0  0  0  0  0  0  0  0
   -6.4410   -1.6260  -77.3650 N   0  0  0  0  0  0  0  0  0  0  0  0
   -6.1510    0.7860  -78.1090 N   0  0  0  0  0  0  0  0  0  0  0  0
   -6.7850    1.7250  -78.9150 C   0  0  0  0  0  0  0  0  0  0  0  0
   -7.7280    1.0630  -79.9310 C   0  0  0  0  0  0  0  0  0  0  0  0
   -8.0210    1.8000  -81.2350 C   0  0  0  0  0  0  0  0  0  0  0  0
   -8.3070   -0.1760  -79.6900 C   0  0  0  0  0  0  0  0  0  0  0  0
   -8.9430    1.0750  -82.1860 C   0  0  0  0  0  0  0  0  0  0  0  0
   -9.1550   -0.7820  -80.6270 C   0  0  0  0  0  0  0  0  0  0  0  0
   -9.4660   -0.1750  -81.8490 C   0  0  0  0  0  0  0  0  0  0  0  0
  1  2  1  0
  2  3  2  0
  2  4  1  0
  3  5  1  0
  4  6  2  0
  4  7  1  0
  5  8  2  0
  6  8  1  0
  7  9  1  0
  9 10  1  0
 10 11  2  3
 10 12  1  0
 12 13  1  0
 13 14  1  0
 14 15  2  0
 14 16  1  0
 15 17  1  0
 16 18  2  0
 17 19  2  0
 18 19  1  0
M  END
>  <ref_url>  (892) 
https://fakepage.com

>  <submitter_name>  (892) 
Steph Wills

>  <submitter_email>  (892) 
stephanie.wills@dtc.ox.ac.uk

>  <submitter_institution>  (892) 
University of Oxford

>  <generation_date>  (892) 
2020-06-04

>  <method>  (892) 
Fragment network

>  <ref_mols>  (892) 
x0034_0B,x0212_0B

>  <ref_pdb>  (892) 
references/x0034-0B-x0212-0B-89863.holo_minimised_nolig.pdb

>  <original SMILES>  (892) 
Cc1ccccc1CSC(=N)NCc1ccccc1

>  <synthon>  (892) 
[Xe]c1ccccc1

>  <original_name>  (892) 
x0034-0B-x0212-0B-89863

>  <comRMSD_score>  (892) 
0.7315095298816633

>  <IF_score>  (892) 
0.5416666666666666

>  <SuCOS_score>  (892) 
0.4816541073630961

>  <compound_ID>  (892) 
CHEMSPACE-BB:CSMB00024924774

$$$$

     RDKit          3D

 23 24  0  0  0  0  0  0  0  0999 V2000
   -8.6230   -0.3970  -74.6820 O   0  0  0  0  0  0  0  0  0  0  0  0
   -8.6410   -0.1720  -76.0940 S   0  0  0  0  0  0  0  0  0  0  0  0
  -10.0560   -0.4680  -76.8910 O   0  0  0  0  0  0  0  0  0  0  0  0
   -8.1350    1.5170  -76.4610 C   0  0  0  0  0  0  0  0  0  0  0  0
   -7.3470   -1.2530  -76.7460 C   0  0  0  0  0  0  0  0  0  0  0  0
   -9.2670    2.4900  -76.6750 C   0  0  0  0  0  0  0  0  0  0  0  0
   -6.0510   -0.5250  -77.1400 C   0  0  2  0  0  0  0  0  0  0  0  0
  -10.2420    2.7120  -75.6970 C   0  0  0  0  0  0  0  0  0  0  0  0
   -9.4090    3.2360  -77.8630 C   0  0  0  0  0  0  0  0  0  0  0  0
   -5.1020   -0.6500  -76.1790 O   0  0  0  0  0  0  0  0  0  0  0  0
   -6.2310    0.9440  -77.4430 C   0  0  0  0  0  0  0  0  0  0  0  0
  -11.3120    3.6040  -75.8240 C   0  0  0  0  0  0  0  0  0  0  0  0
  -10.4710    4.1240  -77.9990 C   0  0  0  0  0  0  0  0  0  0  0  0
   -5.9530    1.2260  -78.6070 O   0  0  0  0  0  0  0  0  0  0  0  0
  -11.4320    4.3330  -77.0120 C   0  0  0  0  0  0  0  0  0  0  0  0
   -6.9160    2.0940  -79.2220 C   0  0  0  0  0  0  0  0  0  0  0  0
   -7.7850    1.3540  -80.0270 C   0  0  0  0  0  0  0  0  0  0  0  0
   -8.2880    0.0040  -79.5660 C   0  0  0  0  0  0  0  0  0  0  0  0
   -8.2110    1.8090  -81.2630 C   0  0  0  0  0  0  0  0  0  0  0  0
   -9.1400   -0.7240  -80.3860 C   0  0  0  0  0  0  0  0  0  0  0  0
   -9.0640    1.0410  -82.0550 C   0  0  0  0  0  0  0  0  0  0  0  0
   -7.7990    2.9890  -81.7000 F   0  0  0  0  0  0  0  0  0  0  0  0
   -9.5240   -0.2100  -81.6260 C   0  0  0  0  0  0  0  0  0  0  0  0
  1  2  2  0
  2  3  2  0
  2  4  1  0
  2  5  1  0
  4  6  1  0
  5  7  1  0
  6  8  2  0
  6  9  1  0
  7 10  1  1
  7 11  1  0
  8 12  1  0
  9 13  2  0
 11 14  1  0
 12 15  2  0
 13 15  1  0
 14 16  1  0
 16 17  1  0
 17 18  2  0
 17 19  1  0
 18 20  1  0
 19 21  2  0
 19 22  1  0
 20 23  2  0
 21 23  1  0
M  END
>  <ref_url>  (893) 
https://fakepage.com

>  <submitter_name>  (893) 
Steph Wills

>  <submitter_email>  (893) 
stephanie.wills@dtc.ox.ac.uk

>  <submitter_institution>  (893) 
University of Oxford

>  <generation_date>  (893) 
2020-06-04

>  <method>  (893) 
Fragment network

>  <ref_mols>  (893) 
x0034_0B,x0212_0B

>  <ref_pdb>  (893) 
references/x0034-0B-x0212-0B-90068.holo_minimised_nolig.pdb

>  <original SMILES>  (893) 
O=S(=O)(Cc1ccccc1)CC(O)COCc1ccccc1F

>  <synthon>  (893) 
[Xe]c1ccccc1

>  <original_name>  (893) 
x0034-0B-x0212-0B-90068

>  <comRMSD_score>  (893) 
0.6006850102020864

>  <IF_score>  (893) 
0.625

>  <SuCOS_score>  (893) 
0.5719405106172584

>  <compound_ID>  (893) 
REAL:Z822341082

$$$$

     RDKit          3D

 22 23  0  0  0  0  0  0  0  0999 V2000
   -9.7130    4.1990  -79.2250 C   0  0  0  0  0  0  0  0  0  0  0  0
  -10.0050    3.6600  -77.8830 C   0  0  0  0  0  0  0  0  0  0  0  0
  -11.0390    4.1260  -77.0530 C   0  0  0  0  0  0  0  0  0  0  0  0
   -9.1830    2.6350  -77.4670 C   0  0  0  0  0  0  0  0  0  0  0  0
  -11.2120    3.5340  -75.7990 C   0  0  0  0  0  0  0  0  0  0  0  0
   -9.3460    2.0520  -76.2390 C   0  0  0  0  0  0  0  0  0  0  0  0
  -10.3660    2.5020  -75.4020 C   0  0  0  0  0  0  0  0  0  0  0  0
   -8.4060    0.9450  -75.8490 C   0  0  1  0  0  0  0  0  0  0  0  0
   -8.5800   -0.3270  -76.5920 C   0  0  0  0  0  0  0  0  0  0  0  0
   -6.9150    1.3790  -75.9660 C   0  0  0  0  0  0  0  0  0  0  0  0
   -6.2010    0.9080  -77.1490 N   0  0  0  0  0  0  0  0  0  0  0  0
   -5.4490    1.9060  -77.6750 C   0  0  0  0  0  0  0  0  0  0  0  0
   -4.6910    2.5950  -76.9830 O   0  0  0  0  0  0  0  0  0  0  0  0
   -5.5530    2.1510  -79.0420 C   0  0  0  0  0  0  0  0  0  0  0  0
   -6.9020    2.6820  -79.4980 C   0  0  2  0  0  0  0  0  0  0  0  0
   -7.5210    3.2700  -78.3240 N   0  0  0  0  0  0  0  0  0  0  0  0
   -7.7040    1.7470  -80.1750 C   0  0  0  0  0  0  0  0  0  0  0  0
   -8.0730    0.4130  -79.6110 C   0  0  0  0  0  0  0  0  0  0  0  0
   -8.1840    2.0510  -81.4470 C   0  0  0  0  0  0  0  0  0  0  0  0
   -8.8630   -0.4740  -80.3500 C   0  0  0  0  0  0  0  0  0  0  0  0
   -8.9660    1.1410  -82.1540 C   0  0  0  0  0  0  0  0  0  0  0  0
   -9.3040   -0.1060  -81.6220 C   0  0  0  0  0  0  0  0  0  0  0  0
  1  2  1  0
  2  3  2  0
  2  4  1  0
  3  5  1  0
  4  6  2  0
  5  7  2  0
  6  7  1  0
  6  8  1  0
  8  9  1  6
  8 10  1  0
 10 11  1  0
 11 12  1  0
 12 13  2  0
 12 14  1  0
 14 15  1  0
 15 16  1  1
 15 17  1  0
 17 18  2  0
 17 19  1  0
 18 20  1  0
 19 21  2  0
 20 22  2  0
 21 22  1  0
M  END
>  <ref_url>  (894) 
https://fakepage.com

>  <submitter_name>  (894) 
Steph Wills

>  <submitter_email>  (894) 
stephanie.wills@dtc.ox.ac.uk

>  <submitter_institution>  (894) 
University of Oxford

>  <generation_date>  (894) 
2020-06-04

>  <method>  (894) 
Fragment network

>  <ref_mols>  (894) 
x0034_0B,x0212_0B

>  <ref_pdb>  (894) 
references/x0034-0B-x0212-0B-90187.holo_minimised_nolig.pdb

>  <original SMILES>  (894) 
Cc1cccc(C(C)CNC(=O)CC(N)c2ccccc2)c1

>  <synthon>  (894) 
[Xe]c1ccccc1

>  <original_name>  (894) 
x0034-0B-x0212-0B-90187

>  <comRMSD_score>  (894) 
0.7910468919003373

>  <IF_score>  (894) 
0.5416666666666666

>  <SuCOS_score>  (894) 
0.4891733639822312

>  <compound_ID>  (894) 
REAL:Z2438112057

$$$$

     RDKit          3D

 24 25  0  0  0  0  0  0  0  0999 V2000
   -7.2580   -0.4880  -78.6590 C   0  0  0  0  0  0  0  0  0  0  0  0
   -7.9270    0.0920  -79.8800 C   0  0  0  0  0  0  0  0  0  0  0  0
   -8.9000   -0.6710  -80.5230 C   0  0  0  0  0  0  0  0  0  0  0  0
   -7.5910    1.3740  -80.3880 C   0  0  0  0  0  0  0  0  0  0  0  0
   -9.5670   -0.1510  -81.7230 C   0  0  0  0  0  0  0  0  0  0  0  0
   -8.2350    1.8600  -81.5270 C   0  0  0  0  0  0  0  0  0  0  0  0
   -6.6220    2.1990  -79.8030 C   0  0  0  0  0  0  0  0  0  0  0  0
   -9.2000    1.1130  -82.1840 C   0  0  0  0  0  0  0  0  0  0  0  0
   -6.8620    2.3210  -78.3610 N   0  0  0  0  0  0  0  0  0  0  0  0
   -8.0530    3.0480  -77.9730 C   0  0  0  0  0  0  0  0  0  0  0  0
   -7.9950    3.2260  -76.6220 C   0  0  1  0  0  0  0  0  0  0  0  0
   -9.2530    3.6870  -76.1500 O   0  0  0  0  0  0  0  0  0  0  0  0
   -7.5170    2.0610  -75.7700 C   0  0  0  0  0  0  0  0  0  0  0  0
   -7.4890    0.7510  -76.4330 N   0  0  0  0  0  0  0  0  0  0  0  0
   -6.4770   -0.1590  -76.2420 C   0  0  0  0  0  0  0  0  0  0  0  0
   -8.8120    0.1150  -76.4110 C   0  0  0  0  0  0  0  0  0  0  0  0
   -9.1680   -0.7620  -75.6240 O   0  0  0  0  0  0  0  0  0  0  0  0
   -9.6510    0.5940  -77.4060 C   0  0  0  0  0  0  0  0  0  0  0  0
  -10.2240    1.8590  -77.1710 C   0  0  0  0  0  0  0  0  0  0  0  0
  -10.1510    2.8260  -78.1910 C   0  0  0  0  0  0  0  0  0  0  0  0
  -10.8740    2.1810  -75.9710 C   0  0  0  0  0  0  0  0  0  0  0  0
  -10.7310    4.0840  -78.0380 C   0  0  0  0  0  0  0  0  0  0  0  0
  -11.4480    3.4440  -75.8310 C   0  0  0  0  0  0  0  0  0  0  0  0
  -11.3870    4.3910  -76.8580 C   0  0  0  0  0  0  0  0  0  0  0  0
  1  2  1  0
  2  3  2  0
  2  4  1  0
  3  5  1  0
  4  6  2  0
  4  7  1  0
  5  8  2  0
  6  8  1  0
  7  9  1  0
  9 10  1  0
 10 11  1  0
 11 12  1  1
 11 13  1  0
 13 14  1  0
 14 15  1  0
 14 16  1  0
 16 17  2  0
 16 18  1  0
 18 19  1  0
 19 20  2  0
 19 21  1  0
 20 22  1  0
 21 23  2  0
 22 24  2  0
 23 24  1  0
M  END
>  <ref_url>  (895) 
https://fakepage.com

>  <submitter_name>  (895) 
Steph Wills

>  <submitter_email>  (895) 
stephanie.wills@dtc.ox.ac.uk

>  <submitter_institution>  (895) 
University of Oxford

>  <generation_date>  (895) 
2020-06-04

>  <method>  (895) 
Fragment network

>  <ref_mols>  (895) 
x0034_0B,x0212_0B

>  <ref_pdb>  (895) 
references/x0034-0B-x0212-0B-92036.holo_minimised_nolig.pdb

>  <original SMILES>  (895) 
Cc1ccccc1CNCC(O)CN(C)C(=O)Cc1ccccc1

>  <synthon>  (895) 
[Xe]c1ccccc1

>  <original_name>  (895) 
x0034-0B-x0212-0B-92036

>  <comRMSD_score>  (895) 
0.958135979679062

>  <IF_score>  (895) 
0.375

>  <SuCOS_score>  (895) 
0.5200687343947369

>  <compound_ID>  (895) 
REAL:PV-001025320187

$$$$

     RDKit          3D

 21 22  0  0  0  0  0  0  0  0999 V2000
   -7.8610   -1.5330  -75.9440 C   0  0  0  0  0  0  0  0  0  0  0  0
   -8.8780   -0.1280  -75.4740 S   0  0  0  0  0  0  0  0  0  0  0  0
   -8.0060    1.1590  -76.4480 C   0  0  1  0  0  0  0  0  0  0  0  0
   -7.5000    0.4390  -77.5310 C   0  0  0  0  0  0  0  0  0  0  0  0
   -9.0450    2.2550  -76.7400 C   0  0  0  0  0  0  0  0  0  0  0  0
   -6.1000    0.6720  -77.8640 O   0  0  0  0  0  0  0  0  0  0  0  0
   -8.4770   -0.4920  -78.1440 N   0  0  0  0  0  0  0  0  0  0  0  0
  -10.0850    2.5450  -75.6880 C   0  0  0  0  0  0  0  0  0  0  0  0
   -9.1090    3.0090  -77.9240 C   0  0  0  0  0  0  0  0  0  0  0  0
   -8.1270   -1.8580  -78.6030 C   0  0  0  0  0  0  0  0  0  0  0  0
  -11.0520    3.5260  -75.9040 C   0  0  0  0  0  0  0  0  0  0  0  0
  -10.1070    3.9850  -78.0930 C   0  0  0  0  0  0  0  0  0  0  0  0
   -8.5850   -1.9940  -79.9200 C   0  0  0  0  0  0  0  0  0  0  0  0
  -11.0670    4.2380  -77.1020 C   0  0  0  0  0  0  0  0  0  0  0  0
   -8.5870   -0.6610  -80.5760 C   0  0  0  0  0  0  0  0  0  0  0  0
   -7.7780    0.3000  -79.7750 C   0  0  0  0  0  0  0  0  0  0  0  0
   -9.2260   -0.2540  -81.7710 C   0  0  0  0  0  0  0  0  0  0  0  0
   -7.6520    1.6910  -80.2510 C   0  0  0  0  0  0  0  0  0  0  0  0
   -9.0980    1.0810  -82.2140 C   0  0  0  0  0  0  0  0  0  0  0  0
   -8.3570    2.0460  -81.5160 C   0  0  0  0  0  0  0  0  0  0  0  0
   -8.2590    3.2750  -81.9390 F   0  0  0  0  0  0  0  0  0  0  0  0
  1  2  1  0
  3  2  1  1
  3  4  1  0
  3  5  1  0
  4  6  2  0
  4  7  1  0
  5  8  2  0
  5  9  1  0
  7 10  1  0
  8 11  1  0
  9 12  2  0
 10 13  1  0
 11 14  2  0
 12 14  1  0
 13 15  1  0
 15 16  2  0
 15 17  1  0
 16 18  1  0
 17 19  2  0
 18 20  2  0
 19 20  1  0
 20 21  1  0
M  END
>  <ref_url>  (896) 
https://fakepage.com

>  <submitter_name>  (896) 
Steph Wills

>  <submitter_email>  (896) 
stephanie.wills@dtc.ox.ac.uk

>  <submitter_institution>  (896) 
University of Oxford

>  <generation_date>  (896) 
2020-06-04

>  <method>  (896) 
Fragment network

>  <ref_mols>  (896) 
x0034_0B,x0212_0B

>  <ref_pdb>  (896) 
references/x0034-0B-x0212-0B-94865.holo_minimised_nolig.pdb

>  <original SMILES>  (896) 
CSC(C(=O)NCCc1ccc(F)cc1)c1ccccc1

>  <synthon>  (896) 
[Xe]c1ccccc1

>  <original_name>  (896) 
x0034-0B-x0212-0B-94865

>  <comRMSD_score>  (896) 
0.6376467251965205

>  <IF_score>  (896) 
0.5416666666666666

>  <SuCOS_score>  (896) 
0.5204296836120189

>  <compound_ID>  (896) 
REAL:Z1245850200

$$$$

     RDKit          3D

 19 20  0  0  0  0  0  0  0  0999 V2000
  -12.5020    5.3090  -77.5070 C   0  0  0  0  0  0  0  0  0  0  0  0
  -11.3640    4.3940  -77.1650 C   0  0  0  0  0  0  0  0  0  0  0  0
  -10.3400    4.2310  -78.1090 C   0  0  0  0  0  0  0  0  0  0  0  0
  -11.2990    3.7120  -75.9410 C   0  0  0  0  0  0  0  0  0  0  0  0
   -9.2610    3.4010  -77.8370 C   0  0  0  0  0  0  0  0  0  0  0  0
  -10.2200    2.8790  -75.6720 C   0  0  0  0  0  0  0  0  0  0  0  0
   -9.2080    2.7330  -76.6210 C   0  0  0  0  0  0  0  0  0  0  0  0
   -8.1160    1.8940  -76.3320 N   0  0  0  0  0  0  0  0  0  0  0  0
   -7.9840    0.5310  -76.5340 C   0  0  0  0  0  0  0  0  0  0  0  0
   -9.2250   -0.4730  -75.7040 S   0  0  0  0  0  0  0  0  0  0  0  0
   -6.9170   -0.0710  -77.3410 N   0  0  0  0  0  0  0  0  0  0  0  0
   -6.0710    0.9280  -77.9370 O   0  0  0  0  0  0  0  0  0  0  0  0
   -6.8080    1.8560  -78.7880 C   0  0  0  0  0  0  0  0  0  0  0  0
   -7.7400    1.2310  -79.8310 C   0  0  0  0  0  0  0  0  0  0  0  0
   -8.3080    0.0040  -79.5270 C   0  0  0  0  0  0  0  0  0  0  0  0
   -8.0560    1.8310  -81.0970 C   0  0  0  0  0  0  0  0  0  0  0  0
   -9.2400   -0.7450  -80.4530 C   0  0  0  0  0  0  0  0  0  0  0  0
   -8.9190    1.1630  -81.9920 C   0  0  0  0  0  0  0  0  0  0  0  0
   -9.5340   -0.0710  -81.7760 C   0  0  0  0  0  0  0  0  0  0  0  0
  1  2  1  0
  2  3  2  0
  2  4  1  0
  3  5  1  0
  4  6  2  0
  5  7  2  0
  6  7  1  0
  7  8  1  0
  8  9  1  0
  9 10  2  0
  9 11  1  0
 11 12  1  0
 12 13  1  0
 13 14  1  0
 14 15  2  0
 14 16  1  0
 15 17  1  0
 16 18  2  0
 17 19  2  0
 18 19  1  0
M  END
>  <ref_url>  (897) 
https://fakepage.com

>  <submitter_name>  (897) 
Steph Wills

>  <submitter_email>  (897) 
stephanie.wills@dtc.ox.ac.uk

>  <submitter_institution>  (897) 
University of Oxford

>  <generation_date>  (897) 
2020-06-04

>  <method>  (897) 
Fragment network

>  <ref_mols>  (897) 
x0034_0B,x0212_0B

>  <ref_pdb>  (897) 
references/x0034-0B-x0212-0B-100611.holo_minimised_nolig.pdb

>  <original SMILES>  (897) 
Cc1ccc(NC(=S)NOCc2ccccc2)cc1

>  <synthon>  (897) 
[Xe]c1ccccc1

>  <original_name>  (897) 
x0034-0B-x0212-0B-100611

>  <comRMSD_score>  (897) 
0.7424439123347722

>  <IF_score>  (897) 
0.625

>  <SuCOS_score>  (897) 
0.4863458106587136

>  <compound_ID>  (897) 
CHEMSPACE-BB:CSMB00114218027

$$$$

     RDKit          3D

 21 22  0  0  0  0  0  0  0  0999 V2000
   -6.4180    3.3140  -77.5300 C   0  0  0  0  0  0  0  0  0  0  0  0
   -6.5250    2.7220  -78.8270 O   0  0  0  0  0  0  0  0  0  0  0  0
   -7.3750    1.6030  -78.6830 C   0  0  2  0  0  0  0  0  0  0  0  0
   -6.9080    0.5340  -77.9250 C   0  0  0  0  0  0  0  0  0  0  0  0
   -8.0150    1.1400  -79.9050 C   0  0  0  0  0  0  0  0  0  0  0  0
   -8.1060    0.1690  -76.5980 S   0  0  0  0  0  0  0  0  0  0  0  0
   -8.4820   -0.1500  -79.7650 C   0  0  0  0  0  0  0  0  0  0  0  0
   -8.1780    1.8690  -81.1110 C   0  0  0  0  0  0  0  0  0  0  0  0
   -7.4000   -0.6450  -75.6570 O   0  0  0  0  0  0  0  0  0  0  0  0
   -9.3870   -0.2580  -77.0950 O   0  0  0  0  0  0  0  0  0  0  0  0
   -8.2340    1.7520  -76.0230 N   0  0  0  0  0  0  0  0  0  0  0  0
   -9.1640   -0.8000  -80.8770 C   0  0  0  0  0  0  0  0  0  0  0  0
   -8.8300    1.2770  -82.2050 C   0  0  0  0  0  0  0  0  0  0  0  0
   -9.2710    2.6170  -76.3910 C   0  0  0  0  0  0  0  0  0  0  0  0
   -9.3210   -0.0180  -82.1210 C   0  0  0  0  0  0  0  0  0  0  0  0
  -10.3250    2.8320  -75.5240 C   0  0  0  0  0  0  0  0  0  0  0  0
   -9.2790    3.2920  -77.6260 C   0  0  0  0  0  0  0  0  0  0  0  0
  -11.4510    3.7330  -75.8270 C   0  0  0  0  0  0  0  0  0  0  0  0
  -10.3130    4.1550  -77.9780 C   0  0  0  0  0  0  0  0  0  0  0  0
  -11.4240    4.4510  -77.1840 C   0  0  0  0  0  0  0  0  0  0  0  0
  -12.5600    5.3950  -77.5480 C   0  0  0  0  0  0  0  0  0  0  0  0
  1  2  1  0
  2  3  1  0
  3  4  1  6
  3  5  1  0
  4  6  1  0
  5  7  2  0
  5  8  1  0
  6  9  2  0
  6 10  2  0
  6 11  1  0
  7 12  1  0
  8 13  2  0
 11 14  1  0
 12 15  2  0
 13 15  1  0
 14 16  2  0
 14 17  1  0
 16 18  1  0
 17 19  2  0
 18 20  2  0
 19 20  1  0
 20 21  1  0
M  END
>  <ref_url>  (898) 
https://fakepage.com

>  <submitter_name>  (898) 
Steph Wills

>  <submitter_email>  (898) 
stephanie.wills@dtc.ox.ac.uk

>  <submitter_institution>  (898) 
University of Oxford

>  <generation_date>  (898) 
2020-06-04

>  <method>  (898) 
Fragment network

>  <ref_mols>  (898) 
x0034_0B,x0212_0B

>  <ref_pdb>  (898) 
references/x0034-0B-x0212-0B-100923.holo_minimised_nolig.pdb

>  <original SMILES>  (898) 
COC(CS(=O)(=O)Nc1ccc(C)cc1)c1ccccc1

>  <synthon>  (898) 
[Xe]c1ccccc1

>  <original_name>  (898) 
x0034-0B-x0212-0B-100923

>  <comRMSD_score>  (898) 
0.7207443939993436

>  <IF_score>  (898) 
0.7083333333333333

>  <SuCOS_score>  (898) 
0.496851112436109

>  <compound_ID>  (898) 
REAL:Z2274915346

$$$$

     RDKit          3D

 21 22  0  0  0  0  0  0  0  0999 V2000
   -7.1020    2.7120  -79.3200 C   0  0  0  0  0  0  0  0  0  0  0  0
   -7.8660    1.6430  -80.1060 C   0  0  0  0  0  0  0  0  0  0  0  0
   -8.3100    2.1090  -81.5010 C   0  0  0  0  0  0  0  0  0  0  0  0
   -8.1460    0.3530  -79.6270 C   0  0  0  0  0  0  0  0  0  0  0  0
   -9.0690    1.0320  -82.2790 C   0  0  0  0  0  0  0  0  0  0  0  0
   -8.8440   -0.5810  -80.3940 C   0  0  0  0  0  0  0  0  0  0  0  0
   -9.3060   -0.2980  -81.6730 C   0  0  0  0  0  0  0  0  0  0  0  0
   -9.1020   -1.8810  -79.8690 O   0  0  0  0  0  0  0  0  0  0  0  0
   -8.9230   -1.9870  -78.5010 C   0  0  0  0  0  0  0  0  0  0  0  0
   -7.4260   -2.0550  -78.1160 C   0  0  1  0  0  0  0  0  0  0  0  0
   -6.6050   -1.7660  -79.2490 O   0  0  0  0  0  0  0  0  0  0  0  0
   -7.1800   -1.1350  -76.9350 C   0  0  0  0  0  0  0  0  0  0  0  0
   -6.4560    0.0810  -77.3230 N   0  0  0  0  0  0  0  0  0  0  0  0
   -7.4830    1.0960  -77.6230 O   0  0  0  0  0  0  0  0  0  0  0  0
   -8.0430    1.5700  -76.3990 C   0  0  0  0  0  0  0  0  0  0  0  0
   -9.0890    2.4820  -76.6610 C   0  0  0  0  0  0  0  0  0  0  0  0
   -9.1920    3.1970  -77.8630 C   0  0  0  0  0  0  0  0  0  0  0  0
  -10.0770    2.6880  -75.6820 C   0  0  0  0  0  0  0  0  0  0  0  0
  -10.3290    4.1410  -78.0530 C   0  0  0  0  0  0  0  0  0  0  0  0
  -11.1420    3.5820  -75.8740 C   0  0  0  0  0  0  0  0  0  0  0  0
  -11.2760    4.3100  -77.0610 C   0  0  0  0  0  0  0  0  0  0  0  0
  1  2  1  0
  2  3  2  0
  2  4  1  0
  3  5  1  0
  4  6  2  0
  5  7  2  0
  6  7  1  0
  6  8  1  0
  8  9  1  0
  9 10  1  0
 10 11  1  6
 10 12  1  0
 12 13  1  0
 13 14  1  0
 14 15  1  0
 15 16  1  0
 16 17  2  0
 16 18  1  0
 17 19  1  0
 18 20  2  0
 19 21  2  0
 20 21  1  0
M  END
>  <ref_url>  (899) 
https://fakepage.com

>  <submitter_name>  (899) 
Steph Wills

>  <submitter_email>  (899) 
stephanie.wills@dtc.ox.ac.uk

>  <submitter_institution>  (899) 
University of Oxford

>  <generation_date>  (899) 
2020-06-04

>  <method>  (899) 
Fragment network

>  <ref_mols>  (899) 
x0034_0B,x0212_0B

>  <ref_pdb>  (899) 
references/x0034-0B-x0212-0B-100942.holo_minimised_nolig.pdb

>  <original SMILES>  (899) 
Cc1cccc(OCC(O)CNOCc2ccccc2)c1

>  <synthon>  (899) 
[Xe]c1ccccc1

>  <original_name>  (899) 
x0034-0B-x0212-0B-100942

>  <comRMSD_score>  (899) 
0.5687166957281978

>  <IF_score>  (899) 
0.5416666666666666

>  <SuCOS_score>  (899) 
0.4700774561629771

>  <compound_ID>  (899) 
CHEMSPACE-BB:CSMB00012174012

$$$$

     RDKit          3D

 21 22  0  0  0  0  0  0  0  0999 V2000
  -12.3520    5.1960  -77.1910 C   0  0  0  0  0  0  0  0  0  0  0  0
  -11.2860    4.1260  -77.0320 C   0  0  0  0  0  0  0  0  0  0  0  0
  -10.4560    3.8310  -78.1050 C   0  0  0  0  0  0  0  0  0  0  0  0
  -11.1100    3.4210  -75.8310 C   0  0  0  0  0  0  0  0  0  0  0  0
   -9.4120    2.7960  -77.9650 C   0  0  0  0  0  0  0  0  0  0  0  0
  -10.1210    2.4330  -75.6830 C   0  0  0  0  0  0  0  0  0  0  0  0
   -9.2610    2.1120  -76.7410 C   0  0  0  0  0  0  0  0  0  0  0  0
   -8.3320    1.2780  -76.7500 O   0  0  0  0  0  0  0  0  0  0  0  0
   -8.4240   -0.1260  -76.4130 C   0  0  0  0  0  0  0  0  0  0  0  0
   -7.9850   -0.9880  -77.4360 C   0  0  0  0  0  0  0  0  0  0  0  0
   -8.7980   -2.1640  -77.4590 O   0  0  0  0  0  0  0  0  0  0  0  0
   -7.0180   -0.6960  -78.1630 O   0  0  0  0  0  0  0  0  0  0  0  0
   -6.6370    0.5940  -77.7720 N   0  0  0  0  0  0  0  0  0  0  0  0
   -7.1570    1.6560  -78.6280 C   0  0  0  0  0  0  0  0  0  0  0  0
   -6.9420    2.9410  -78.2790 N   0  0  0  0  0  0  0  0  0  0  0  0
   -7.9770    1.1600  -79.8380 C   0  0  0  0  0  0  0  0  0  0  0  0
   -8.1310    1.8570  -81.0520 C   0  0  0  0  0  0  0  0  0  0  0  0
   -8.5870   -0.0830  -79.6570 C   0  0  0  0  0  0  0  0  0  0  0  0
   -8.9620    1.2090  -82.1200 C   0  0  0  0  0  0  0  0  0  0  0  0
   -9.3630   -0.7130  -80.6140 C   0  0  0  0  0  0  0  0  0  0  0  0
   -9.5770   -0.1190  -81.8370 C   0  0  0  0  0  0  0  0  0  0  0  0
  1  2  1  0
  2  3  2  0
  2  4  1  0
  3  5  1  0
  4  6  2  0
  5  7  2  0
  6  7  1  0
  7  8  1  0
  8  9  1  0
  9 10  1  0
 10 11  2  0
 10 12  1  0
 12 13  1  0
 13 14  2  3
 14 15  1  0
 14 16  1  0
 16 17  2  0
 16 18  1  0
 17 19  1  0
 18 20  2  0
 19 21  2  0
 20 21  1  0
M  END
>  <ref_url>  (900) 
https://fakepage.com

>  <submitter_name>  (900) 
Steph Wills

>  <submitter_email>  (900) 
stephanie.wills@dtc.ox.ac.uk

>  <submitter_institution>  (900) 
University of Oxford

>  <generation_date>  (900) 
2020-06-04

>  <method>  (900) 
Fragment network

>  <ref_mols>  (900) 
x0034_0B,x0212_0B

>  <ref_pdb>  (900) 
references/x0034-0B-x0212-0B-101122.holo_minimised_nolig.pdb

>  <original SMILES>  (900) 
Cc1ccc(OCC(=O)ON=C(N)c2ccccc2)cc1

>  <synthon>  (900) 
[Xe]c1ccccc1

>  <original_name>  (900) 
x0034-0B-x0212-0B-101122

>  <comRMSD_score>  (900) 
0.7784521203668885

>  <IF_score>  (900) 
0.625

>  <SuCOS_score>  (900) 
0.4813753868859615

>  <compound_ID>  (900) 
MOLPORT:001-497-066

$$$$

     RDKit          3D

 21 22  0  0  0  0  0  0  0  0999 V2000
  -12.4880    5.1680  -77.4860 C   0  0  0  0  0  0  0  0  0  0  0  0
  -11.3020    4.3290  -77.0970 C   0  0  0  0  0  0  0  0  0  0  0  0
  -10.1820    4.3530  -77.9260 C   0  0  0  0  0  0  0  0  0  0  0  0
  -11.2760    3.5340  -75.9420 C   0  0  0  0  0  0  0  0  0  0  0  0
   -9.0510    3.6030  -77.6140 C   0  0  0  0  0  0  0  0  0  0  0  0
  -10.1430    2.7720  -75.6340 C   0  0  0  0  0  0  0  0  0  0  0  0
   -9.0140    2.7980  -76.4700 C   0  0  0  0  0  0  0  0  0  0  0  0
   -7.7820    1.9890  -76.1680 C   0  0  0  0  0  0  0  0  0  0  0  0
   -7.9820    0.5880  -76.0250 C   0  0  0  0  0  0  0  0  0  0  0  0
   -9.3260    0.1190  -76.3950 N   0  0  0  0  0  0  0  0  0  0  0  0
   -9.6490    0.4880  -77.7620 C   0  0  0  0  0  0  0  0  0  0  0  0
  -10.0790   -0.3320  -78.5730 O   0  0  0  0  0  0  0  0  0  0  0  0
   -9.4420    1.8500  -78.0290 C   0  0  0  0  0  0  0  0  0  0  0  0
   -8.2490    2.2040  -78.9490 C   0  0  1  0  0  0  0  0  0  0  0  0
   -7.0200    2.1330  -78.3550 N   0  0  0  0  0  0  0  0  0  0  0  0
   -8.3160    1.3370  -80.1850 C   0  0  0  0  0  0  0  0  0  0  0  0
   -8.3410   -0.1410  -79.8780 C   0  0  0  0  0  0  0  0  0  0  0  0
   -8.3640    1.8020  -81.4950 C   0  0  0  0  0  0  0  0  0  0  0  0
   -8.4310   -1.0790  -81.0430 C   0  0  0  0  0  0  0  0  0  0  0  0
   -8.4450    0.8870  -82.5430 C   0  0  0  0  0  0  0  0  0  0  0  0
   -8.4780   -0.4980  -82.3080 C   0  0  0  0  0  0  0  0  0  0  0  0
  1  2  1  0
  2  3  2  0
  2  4  1  0
  3  5  1  0
  4  6  2  0
  5  7  2  0
  6  7  1  0
  7  8  1  0
  8  9  1  0
  9 10  1  0
 10 11  1  0
 11 12  2  0
 11 13  1  0
 13 14  1  0
 14 15  1  1
 14 16  1  0
 16 17  2  0
 16 18  1  0
 17 19  1  0
 18 20  2  0
 19 21  2  0
 20 21  1  0
M  END
>  <ref_url>  (901) 
https://fakepage.com

>  <submitter_name>  (901) 
Steph Wills

>  <submitter_email>  (901) 
stephanie.wills@dtc.ox.ac.uk

>  <submitter_institution>  (901) 
University of Oxford

>  <generation_date>  (901) 
2020-06-04

>  <method>  (901) 
Fragment network

>  <ref_mols>  (901) 
x0034_0B,x0212_0B

>  <ref_pdb>  (901) 
references/x0034-0B-x0212-0B-102740.holo_minimised_nolig.pdb

>  <original SMILES>  (901) 
Cc1ccc(CCNC(=O)CC(N)c2ccccc2)cc1

>  <synthon>  (901) 
[Xe]c1ccccc1

>  <original_name>  (901) 
x0034-0B-x0212-0B-102740

>  <comRMSD_score>  (901) 
0.8811609135427853

>  <IF_score>  (901) 
0.375

>  <SuCOS_score>  (901) 
0.5665682979939568

>  <compound_ID>  (901) 
REAL:Z2437719677

$$$$

     RDKit          3D

 19 20  0  0  0  0  0  0  0  0999 V2000
  -12.6400    5.3840  -77.0010 C   0  0  0  0  0  0  0  0  0  0  0  0
  -11.4750    4.4650  -77.0970 C   0  0  0  0  0  0  0  0  0  0  0  0
  -10.6320    4.5580  -78.2020 C   0  0  0  0  0  0  0  0  0  0  0  0
  -11.2030    3.5070  -76.1060 C   0  0  0  0  0  0  0  0  0  0  0  0
   -9.5350    3.7260  -78.3310 C   0  0  0  0  0  0  0  0  0  0  0  0
  -10.0990    2.6680  -76.2490 C   0  0  0  0  0  0  0  0  0  0  0  0
   -9.2760    2.7840  -77.3470 C   0  0  0  0  0  0  0  0  0  0  0  0
   -9.5670    1.5950  -75.4490 N   0  0  0  0  0  0  0  0  0  0  0  0
   -8.6660    0.8950  -76.3910 C   0  0  0  0  0  0  0  0  0  0  0  0
   -7.1780    1.0550  -76.0650 C   0  0  0  0  0  0  0  0  0  0  0  0
   -6.2000    0.7920  -77.2170 C   0  0  0  0  0  0  0  0  0  0  0  0
   -5.9680    1.6250  -78.1000 O   0  0  0  0  0  0  0  0  0  0  0  0
   -7.1480    2.1670  -78.7080 C   0  0  0  0  0  0  0  0  0  0  0  0
   -7.9000    1.4220  -79.7610 C   0  0  0  0  0  0  0  0  0  0  0  0
   -8.1650    2.0330  -81.1360 C   0  0  0  0  0  0  0  0  0  0  0  0
   -8.3700    0.1400  -79.4720 C   0  0  0  0  0  0  0  0  0  0  0  0
   -8.9370    1.1540  -82.0830 C   0  0  0  0  0  0  0  0  0  0  0  0
   -9.0820   -0.6110  -80.4070 C   0  0  0  0  0  0  0  0  0  0  0  0
   -9.3590   -0.1180  -81.6790 C   0  0  0  0  0  0  0  0  0  0  0  0
  1  2  1  0
  2  3  2  0
  2  4  1  0
  3  5  1  0
  4  6  2  0
  5  7  2  0
  6  7  1  0
  6  8  1  0
  8  9  1  0
  9 10  1  0
 10 11  1  0
 11 12  1  0
 12 13  1  0
 13 14  1  0
 14 15  2  0
 14 16  1  0
 15 17  1  0
 16 18  2  0
 17 19  2  0
 18 19  1  0
M  END
>  <ref_url>  (902) 
https://fakepage.com

>  <submitter_name>  (902) 
Steph Wills

>  <submitter_email>  (902) 
stephanie.wills@dtc.ox.ac.uk

>  <submitter_institution>  (902) 
University of Oxford

>  <generation_date>  (902) 
2020-06-04

>  <method>  (902) 
Fragment network

>  <ref_mols>  (902) 
x0034_0B,x0212_0B

>  <ref_pdb>  (902) 
references/x0034-0B-x0212-0B-106394.holo_minimised_nolig.pdb

>  <original SMILES>  (902) 
Cc1cccc(NCCCOCc2ccccc2)c1

>  <synthon>  (902) 
[Xe]c1ccccc1

>  <original_name>  (902) 
x0034-0B-x0212-0B-106394

>  <comRMSD_score>  (902) 
0.7376162620224682

>  <IF_score>  (902) 
0.375

>  <SuCOS_score>  (902) 
0.4619194296003072

>  <compound_ID>  (902) 
CHEMSPACE-BB:CSMB00015067926

$$$$

     RDKit          3D

 23 24  0  0  0  0  0  0  0  0999 V2000
   -6.6820    0.0030  -78.0150 C   0  0  0  0  0  0  0  0  0  0  0  0
   -8.0290    0.7320  -78.1280 C   0  0  1  0  0  0  0  0  0  0  0  0
   -9.1030   -0.1790  -78.5390 N   0  0  0  0  0  0  0  0  0  0  0  0
   -8.3350    1.4240  -76.8100 C   0  0  0  0  0  0  0  0  0  0  0  0
   -9.2240   -1.4920  -78.0960 C   0  0  0  0  0  0  0  0  0  0  0  0
   -8.7460    0.5600  -75.8110 C   0  0  0  0  0  0  0  0  0  0  0  0
   -7.0230    2.0800  -76.3470 C   0  0  0  0  0  0  0  0  0  0  0  0
   -9.4280    2.5130  -76.9790 C   0  0  0  0  0  0  0  0  0  0  0  0
   -9.9380   -1.8180  -76.9060 O   0  0  0  0  0  0  0  0  0  0  0  0
   -8.5580   -2.6160  -78.9340 C   0  0  0  0  0  0  0  0  0  0  0  0
  -10.3170    2.7670  -75.9200 C   0  0  0  0  0  0  0  0  0  0  0  0
   -9.5810    3.2750  -78.1470 C   0  0  0  0  0  0  0  0  0  0  0  0
   -8.6160   -2.4250  -80.3490 O   0  0  0  0  0  0  0  0  0  0  0  0
  -11.3240    3.7500  -76.0320 C   0  0  0  0  0  0  0  0  0  0  0  0
  -10.5720    4.2360  -78.2430 C   0  0  0  0  0  0  0  0  0  0  0  0
   -8.4930   -1.1370  -80.7550 C   0  0  0  0  0  0  0  0  0  0  0  0
  -11.4530    4.4930  -77.2070 C   0  0  0  0  0  0  0  0  0  0  0  0
   -7.3300   -0.3410  -80.1940 C   0  0  0  0  0  0  0  0  0  0  0  0
   -9.3530   -0.4800  -81.6430 C   0  0  0  0  0  0  0  0  0  0  0  0
   -7.2030    1.1120  -80.6310 C   0  0  0  0  0  0  0  0  0  0  0  0
   -9.1950    0.8470  -82.0210 C   0  0  0  0  0  0  0  0  0  0  0  0
   -8.2100    1.7220  -81.6020 C   0  0  0  0  0  0  0  0  0  0  0  0
   -8.1360    2.9820  -81.9980 F   0  0  0  0  0  0  0  0  0  0  0  0
  2  1  1  1
  2  3  1  0
  2  4  1  0
  3  5  1  0
  4  6  1  0
  4  7  1  0
  4  8  1  0
  5  9  2  0
  5 10  1  0
  8 11  2  0
  8 12  1  0
 10 13  1  0
 11 14  1  0
 12 15  2  0
 13 16  1  0
 14 17  2  0
 15 17  1  0
 16 18  2  0
 16 19  1  0
 18 20  1  0
 19 21  2  0
 20 22  2  0
 21 22  1  0
 22 23  1  0
M  END
>  <ref_url>  (903) 
https://fakepage.com

>  <submitter_name>  (903) 
Steph Wills

>  <submitter_email>  (903) 
stephanie.wills@dtc.ox.ac.uk

>  <submitter_institution>  (903) 
University of Oxford

>  <generation_date>  (903) 
2020-06-04

>  <method>  (903) 
Fragment network

>  <ref_mols>  (903) 
x0034_0B,x0212_0B

>  <ref_pdb>  (903) 
references/x0034-0B-x0212-0B-107321.holo_minimised_nolig.pdb

>  <original SMILES>  (903) 
CC(NC(=O)COc1ccc(F)cc1)C(C)(C)c1ccccc1

>  <synthon>  (903) 
[Xe]c1ccccc1

>  <original_name>  (903) 
x0034-0B-x0212-0B-107321

>  <comRMSD_score>  (903) 
0.9942018058569556

>  <IF_score>  (903) 
0.625

>  <SuCOS_score>  (903) 
0.4870860926816928

>  <compound_ID>  (903) 
REAL:Z1090623836

$$$$

     RDKit          3D

 23 24  0  0  0  0  0  0  0  0999 V2000
   -7.0240    2.6510  -79.3000 C   0  0  0  0  0  0  0  0  0  0  0  0
   -7.8090    1.6070  -80.0330 C   0  0  0  0  0  0  0  0  0  0  0  0
   -8.0750    0.2180  -79.4290 C   0  0  0  0  0  0  0  0  0  0  0  0
   -8.3140    1.8840  -81.2910 C   0  0  0  0  0  0  0  0  0  0  0  0
   -8.8110   -0.7370  -80.1320 C   0  0  0  0  0  0  0  0  0  0  0  0
   -9.0470    0.9620  -82.0200 C   0  0  0  0  0  0  0  0  0  0  0  0
   -8.0770    3.0820  -81.8010 F   0  0  0  0  0  0  0  0  0  0  0  0
   -9.0870   -2.1010  -79.5730 C   0  0  0  0  0  0  0  0  0  0  0  0
   -9.3130   -0.3090  -81.5040 C   0  0  0  0  0  0  0  0  0  0  0  0
   -8.4500   -2.4630  -78.3570 N   0  0  0  0  0  0  0  0  0  0  0  0
   -7.2060   -2.0570  -77.8770 C   0  0  0  0  0  0  0  0  0  0  0  0
   -6.1170   -2.3720  -78.3510 O   0  0  0  0  0  0  0  0  0  0  0  0
   -7.3250   -1.1480  -76.6460 C   0  0  0  0  0  0  0  0  0  0  0  0
   -8.8220   -0.1700  -76.5780 S   0  0  0  0  0  0  0  0  0  0  0  0
   -9.5910   -0.4490  -77.7730 O   0  0  0  0  0  0  0  0  0  0  0  0
   -9.4470   -0.3330  -75.2800 O   0  0  0  0  0  0  0  0  0  0  0  0
   -8.2010    1.5110  -76.6530 C   0  0  0  0  0  0  0  0  0  0  0  0
   -9.2370    2.4630  -76.7870 C   0  0  0  0  0  0  0  0  0  0  0  0
   -9.4010    3.2250  -77.9510 C   0  0  0  0  0  0  0  0  0  0  0  0
  -10.1540    2.6690  -75.7300 C   0  0  0  0  0  0  0  0  0  0  0  0
  -10.4290    4.1450  -78.0490 C   0  0  0  0  0  0  0  0  0  0  0  0
  -11.1920    3.6080  -75.8460 C   0  0  0  0  0  0  0  0  0  0  0  0
  -11.3270    4.3480  -77.0160 C   0  0  0  0  0  0  0  0  0  0  0  0
  1  2  1  0
  2  3  2  0
  2  4  1  0
  3  5  1  0
  4  6  2  0
  4  7  1  0
  5  8  1  0
  5  9  2  0
  6  9  1  0
  8 10  1  0
 10 11  1  0
 11 12  2  0
 11 13  1  0
 14 13  1  0
 14 15  2  0
 14 16  2  0
 14 17  1  0
 17 18  1  0
 18 19  2  0
 18 20  1  0
 19 21  1  0
 20 22  2  0
 21 23  2  0
 22 23  1  0
M  END
>  <ref_url>  (904) 
https://fakepage.com

>  <submitter_name>  (904) 
Steph Wills

>  <submitter_email>  (904) 
stephanie.wills@dtc.ox.ac.uk

>  <submitter_institution>  (904) 
University of Oxford

>  <generation_date>  (904) 
2020-06-04

>  <method>  (904) 
Fragment network

>  <ref_mols>  (904) 
x0034_0B,x0212_0B

>  <ref_pdb>  (904) 
references/x0034-0B-x0212-0B-108184.holo_minimised_nolig.pdb

>  <original SMILES>  (904) 
Cc1cc(CNC(=O)CS(=O)(=O)Cc2ccccc2)ccc1F

>  <synthon>  (904) 
[Xe]c1ccccc1

>  <original_name>  (904) 
x0034-0B-x0212-0B-108184

>  <comRMSD_score>  (904) 
0.5093392960674825

>  <IF_score>  (904) 
0.5

>  <SuCOS_score>  (904) 
0.6094498308260421

>  <compound_ID>  (904) 
MOLPORT:009-315-953

$$$$

     RDKit          3D

 22 23  0  0  0  0  0  0  0  0999 V2000
  -12.4060    5.2660  -77.5590 C   0  0  0  0  0  0  0  0  0  0  0  0
  -11.4040    4.1950  -77.1750 C   0  0  0  0  0  0  0  0  0  0  0  0
  -11.3080    3.7280  -75.8690 C   0  0  0  0  0  0  0  0  0  0  0  0
  -10.5560    3.6600  -78.1480 C   0  0  0  0  0  0  0  0  0  0  0  0
  -10.3100    2.6930  -75.5410 C   0  0  0  0  0  0  0  0  0  0  0  0
   -9.6100    2.6730  -77.8380 C   0  0  0  0  0  0  0  0  0  0  0  0
   -9.4750    2.1920  -76.5390 C   0  0  0  0  0  0  0  0  0  0  0  0
   -8.5310    1.2310  -76.1580 C   0  0  0  0  0  0  0  0  0  0  0  0
   -8.5810    0.0040  -76.7690 C   0  0  0  0  0  0  0  0  0  0  0  0
   -9.5730   -0.7050  -76.6190 O   0  0  0  0  0  0  0  0  0  0  0  0
   -7.4470   -0.3590  -77.4800 N   0  0  0  0  0  0  0  0  0  0  0  0
   -6.4060    0.6210  -77.8360 C   0  0  0  0  0  0  0  0  0  0  0  0
   -6.7770    1.6450  -78.9730 C   0  0  1  0  0  0  0  0  0  0  0  0
   -7.6820    1.1500  -79.9280 C   0  0  0  0  0  0  0  0  0  0  0  0
   -7.4220    2.7660  -78.2400 N   0  0  0  0  0  0  0  0  0  0  0  0
   -8.0080    1.8880  -81.2170 C   0  0  0  0  0  0  0  0  0  0  0  0
   -8.2960   -0.0770  -79.6740 C   0  0  0  0  0  0  0  0  0  0  0  0
   -6.6850    3.4420  -77.1350 C   0  0  0  0  0  0  0  0  0  0  0  0
   -8.0970    3.7260  -78.9800 C   0  0  0  0  0  0  0  0  0  0  0  0
   -8.9820    1.1870  -82.1160 C   0  0  0  0  0  0  0  0  0  0  0  0
   -9.1940   -0.6620  -80.5540 C   0  0  0  0  0  0  0  0  0  0  0  0
   -9.5290   -0.0470  -81.7520 C   0  0  0  0  0  0  0  0  0  0  0  0
  1  2  1  0
  2  3  2  0
  2  4  1  0
  3  5  1  0
  4  6  2  0
  5  7  2  0
  6  7  1  0
  7  8  1  0
  8  9  1  0
  9 10  2  0
  9 11  1  0
 11 12  1  0
 13 12  1  1
 13 14  1  0
 13 15  1  0
 14 16  2  0
 14 17  1  0
 15 18  1  0
 15 19  1  0
 16 20  1  0
 17 21  2  0
 20 22  2  0
 21 22  1  0
M  END
>  <ref_url>  (905) 
https://fakepage.com

>  <submitter_name>  (905) 
Steph Wills

>  <submitter_email>  (905) 
stephanie.wills@dtc.ox.ac.uk

>  <submitter_institution>  (905) 
University of Oxford

>  <generation_date>  (905) 
2020-06-04

>  <method>  (905) 
Fragment network

>  <ref_mols>  (905) 
x0034_0B,x0212_0B

>  <ref_pdb>  (905) 
references/x0034-0B-x0212-0B-108809.holo_minimised_nolig.pdb

>  <original SMILES>  (905) 
Cc1ccc(CC(=O)NCC(c2ccccc2)N(C)C)cc1

>  <synthon>  (905) 
[Xe]c1ccccc1

>  <original_name>  (905) 
x0034-0B-x0212-0B-108809

>  <comRMSD_score>  (905) 
0.6962804352015385

>  <IF_score>  (905) 
0.625

>  <SuCOS_score>  (905) 
0.5871243398318684

>  <compound_ID>  (905) 
MOLPORT:004-241-297, REAL:Z101202518

$$$$

     RDKit          3D

 20 21  0  0  0  0  0  0  0  0999 V2000
   -8.8620    0.0840  -75.8900 C   0  0  0  0  0  0  0  0  0  0  0  0
   -9.6580    1.2820  -76.2770 C   0  0  0  0  0  0  0  0  0  0  0  0
   -9.5970    1.7150  -77.5830 C   0  0  0  0  0  0  0  0  0  0  0  0
  -10.4570    1.9830  -75.3550 C   0  0  0  0  0  0  0  0  0  0  0  0
  -10.2960    2.8270  -77.9720 C   0  0  0  0  0  0  0  0  0  0  0  0
  -11.1670    3.1160  -75.7500 C   0  0  0  0  0  0  0  0  0  0  0  0
  -11.0700    3.5360  -77.0700 C   0  0  0  0  0  0  0  0  0  0  0  0
  -11.6600    4.6370  -77.5940 C   0  0  0  0  0  0  0  0  0  0  0  0
  -10.7690    5.1590  -78.2540 O   0  0  0  0  0  0  0  0  0  0  0  0
   -9.7100    4.2580  -78.7450 C   0  0  0  0  0  0  0  0  0  0  0  0
   -8.7610    3.6410  -77.6690 C   0  0  0  0  0  0  0  0  0  0  0  0
   -9.1420    3.6740  -76.3730 O   0  0  0  0  0  0  0  0  0  0  0  0
   -7.5650    3.0420  -78.0600 N   0  0  0  0  0  0  0  0  0  0  0  0
   -7.1390    2.9690  -79.4440 C   0  0  0  0  0  0  0  0  0  0  0  0
   -7.8490    1.8180  -80.1520 C   0  0  0  0  0  0  0  0  0  0  0  0
   -8.0910    0.5670  -79.5660 C   0  0  0  0  0  0  0  0  0  0  0  0
   -8.2850    2.0180  -81.4640 C   0  0  0  0  0  0  0  0  0  0  0  0
   -8.8060   -0.5250  -80.3380 C   0  0  0  0  0  0  0  0  0  0  0  0
   -8.9430    1.0170  -82.1840 C   0  0  0  0  0  0  0  0  0  0  0  0
   -9.2050   -0.2420  -81.6370 C   0  0  0  0  0  0  0  0  0  0  0  0
  1  2  1  0
  2  3  2  0
  2  4  1  0
  3  5  1  0
  4  6  2  0
  5  7  2  0
  6  7  1  0
  7  8  1  0
  8  9  1  0
  9 10  1  0
 10 11  1  0
 11 12  2  0
 11 13  1  0
 13 14  1  0
 14 15  1  0
 15 16  2  0
 15 17  1  0
 16 18  1  0
 17 19  2  0
 18 20  2  0
 19 20  1  0
M  END
>  <ref_url>  (906) 
https://fakepage.com

>  <submitter_name>  (906) 
Steph Wills

>  <submitter_email>  (906) 
stephanie.wills@dtc.ox.ac.uk

>  <submitter_institution>  (906) 
University of Oxford

>  <generation_date>  (906) 
2020-06-04

>  <method>  (906) 
Fragment network

>  <ref_mols>  (906) 
x0034_0B,x0212_0B

>  <ref_pdb>  (906) 
references/x0034-0B-x0212-0B-109044.holo_minimised_nolig.pdb

>  <original SMILES>  (906) 
Cc1ccc(COCC(=O)NCc2ccccc2)cc1

>  <synthon>  (906) 
[Xe]c1ccccc1

>  <original_name>  (906) 
x0034-0B-x0212-0B-109044

>  <comRMSD_score>  (906) 
0.908755238407644

>  <IF_score>  (906) 
0.6666666666666666

>  <SuCOS_score>  (906) 
0.4608838779679384

>  <compound_ID>  (906) 
REAL:PV-001792021347

$$$$

     RDKit          3D

 20 21  0  0  0  0  0  0  0  0999 V2000
  -12.4560    5.3620  -77.4770 C   0  0  0  0  0  0  0  0  0  0  0  0
  -11.3620    4.3990  -77.1420 C   0  0  0  0  0  0  0  0  0  0  0  0
  -11.3360    3.7210  -75.9150 C   0  0  0  0  0  0  0  0  0  0  0  0
  -10.3440    4.1680  -78.0640 C   0  0  0  0  0  0  0  0  0  0  0  0
  -10.3080    2.8270  -75.6250 C   0  0  0  0  0  0  0  0  0  0  0  0
   -9.3170    3.2760  -77.7640 C   0  0  0  0  0  0  0  0  0  0  0  0
   -9.2900    2.5950  -76.5380 C   0  0  0  0  0  0  0  0  0  0  0  0
   -8.2230    1.7030  -76.2940 N   0  0  0  0  0  0  0  0  0  0  0  0
   -8.2150    0.3330  -76.4230 C   0  0  0  0  0  0  0  0  0  0  0  0
   -9.0630   -0.4210  -75.9360 O   0  0  0  0  0  0  0  0  0  0  0  0
   -7.0080   -0.1820  -77.2500 C   0  0  0  0  0  0  0  0  0  0  0  0
   -6.7410   -1.3770  -77.3360 O   0  0  0  0  0  0  0  0  0  0  0  0
   -6.2710    0.8240  -77.8740 O   0  0  0  0  0  0  0  0  0  0  0  0
   -6.9310    1.8550  -78.6850 C   0  0  0  0  0  0  0  0  0  0  0  0
   -7.8070    1.2450  -79.8050 C   0  0  0  0  0  0  0  0  0  0  0  0
   -8.3500   -0.0100  -79.5390 C   0  0  0  0  0  0  0  0  0  0  0  0
   -8.0770    1.8710  -81.0490 C   0  0  0  0  0  0  0  0  0  0  0  0
   -9.1470   -0.6530  -80.4780 C   0  0  0  0  0  0  0  0  0  0  0  0
   -8.8790    1.2120  -81.9880 C   0  0  0  0  0  0  0  0  0  0  0  0
   -9.4090   -0.0440  -81.7000 C   0  0  0  0  0  0  0  0  0  0  0  0
  1  2  1  0
  2  3  2  0
  2  4  1  0
  3  5  1  0
  4  6  2  0
  5  7  2  0
  6  7  1  0
  7  8  1  0
  8  9  1  0
  9 10  2  0
  9 11  1  0
 11 12  2  0
 11 13  1  0
 13 14  1  0
 14 15  1  0
 15 16  2  0
 15 17  1  0
 16 18  1  0
 17 19  2  0
 18 20  2  0
 19 20  1  0
M  END
>  <ref_url>  (907) 
https://fakepage.com

>  <submitter_name>  (907) 
Steph Wills

>  <submitter_email>  (907) 
stephanie.wills@dtc.ox.ac.uk

>  <submitter_institution>  (907) 
University of Oxford

>  <generation_date>  (907) 
2020-06-04

>  <method>  (907) 
Fragment network

>  <ref_mols>  (907) 
x0034_0B,x0212_0B

>  <ref_pdb>  (907) 
references/x0034-0B-x0212-0B-109978.holo_minimised_nolig.pdb

>  <original SMILES>  (907) 
Cc1ccc(NC(=O)C(=O)OCc2ccccc2)cc1

>  <synthon>  (907) 
[Xe]c1ccccc1

>  <original_name>  (907) 
x0034-0B-x0212-0B-109978

>  <comRMSD_score>  (907) 
0.6069294302745032

>  <IF_score>  (907) 
0.625

>  <SuCOS_score>  (907) 
0.5002055539918072

>  <compound_ID>  (907) 
CHEMSPACE-BB:CSMB00119747159

$$$$

     RDKit          3D

 22 23  0  0  0  0  0  0  0  0999 V2000
  -12.4520    5.1950  -77.1470 C   0  0  0  0  0  0  0  0  0  0  0  0
  -11.2310    4.3430  -77.2590 C   0  0  0  0  0  0  0  0  0  0  0  0
  -10.5180    4.2930  -78.4550 C   0  0  0  0  0  0  0  0  0  0  0  0
  -10.7830    3.5910  -76.1730 C   0  0  0  0  0  0  0  0  0  0  0  0
   -9.3820    3.5100  -78.5780 C   0  0  0  0  0  0  0  0  0  0  0  0
   -9.6330    2.8200  -76.3190 C   0  0  0  0  0  0  0  0  0  0  0  0
   -8.9460    2.7680  -77.4880 C   0  0  0  0  0  0  0  0  0  0  0  0
   -8.9860    1.9870  -75.3220 N   0  0  0  0  0  0  0  0  0  0  0  0
   -7.5090    2.0030  -75.5410 C   0  0  2  0  0  0  0  0  0  0  0  0
   -7.0300    3.4390  -75.7980 C   0  0  0  0  0  0  0  0  0  0  0  0
   -6.9960    0.9980  -76.6420 C   0  0  0  0  0  0  0  0  0  0  0  0
   -6.7760    1.6550  -74.2470 C   0  0  0  0  0  0  0  0  0  0  0  0
   -6.2750    1.4840  -77.5570 O   0  0  0  0  0  0  0  0  0  0  0  0
   -5.3730    1.8740  -74.5170 N   0  0  0  0  0  0  0  0  0  0  0  0
   -7.2460    1.2720  -73.1690 O   0  0  0  0  0  0  0  0  0  0  0  0
   -6.9420    2.1500  -78.6750 C   0  0  0  0  0  0  0  0  0  0  0  0
   -7.7210    1.4180  -79.7440 C   0  0  0  0  0  0  0  0  0  0  0  0
   -8.1890    0.0060  -79.4130 C   0  0  0  0  0  0  0  0  0  0  0  0
   -8.0420    1.9550  -81.0300 C   0  0  0  0  0  0  0  0  0  0  0  0
   -8.9500   -0.6830  -80.5100 C   0  0  0  0  0  0  0  0  0  0  0  0
   -8.7640    1.2410  -82.0100 C   0  0  0  0  0  0  0  0  0  0  0  0
   -9.1920   -0.0510  -81.7190 C   0  0  0  0  0  0  0  0  0  0  0  0
  1  2  1  0
  2  3  2  0
  2  4  1  0
  3  5  1  0
  4  6  2  0
  5  7  2  0
  6  7  1  0
  6  8  1  0
  8  9  1  0
  9 10  1  6
  9 11  1  0
  9 12  1  0
 11 13  1  0
 12 14  1  0
 12 15  2  0
 13 16  1  0
 16 17  1  0
 17 18  2  0
 17 19  1  0
 18 20  1  0
 19 21  2  0
 20 22  2  0
 21 22  1  0
M  END
>  <ref_url>  (908) 
https://fakepage.com

>  <submitter_name>  (908) 
Steph Wills

>  <submitter_email>  (908) 
stephanie.wills@dtc.ox.ac.uk

>  <submitter_institution>  (908) 
University of Oxford

>  <generation_date>  (908) 
2020-06-04

>  <method>  (908) 
Fragment network

>  <ref_mols>  (908) 
x0034_0B,x0212_0B

>  <ref_pdb>  (908) 
references/x0034-0B-x0212-0B-110435.holo_minimised_nolig.pdb

>  <original SMILES>  (908) 
Cc1cccc(NC(C)(COCc2ccccc2)C(N)=O)c1

>  <synthon>  (908) 
[Xe]c1ccccc1

>  <original_name>  (908) 
x0034-0B-x0212-0B-110435

>  <comRMSD_score>  (908) 
0.8738970191046544

>  <IF_score>  (908) 
0.575

>  <SuCOS_score>  (908) 
0.4386797813550096

>  <compound_ID>  (908) 
CHEMSPACE-BB:CSMB00018400765

$$$$

     RDKit          3D

 24 25  0  0  0  0  0  0  0  0999 V2000
   -4.7920    5.4070  -80.2430 C   0  0  0  0  0  0  0  0  0  0  0  0
   -5.1420    4.2030  -79.3720 C   0  0  0  0  0  0  0  0  0  0  0  0
   -5.0140    4.5110  -77.8610 C   0  0  0  0  0  0  0  0  0  0  0  0
   -6.5440    3.6560  -79.5900 C   0  0  0  0  0  0  0  0  0  0  0  0
   -6.5160    2.1950  -79.4080 C   0  0  1  0  0  0  0  0  0  0  0  0
   -6.3890    1.7740  -78.0950 N   0  0  0  0  0  0  0  0  0  0  0  0
   -7.5170    1.3340  -80.1660 C   0  0  0  0  0  0  0  0  0  0  0  0
   -7.3580    2.0740  -77.0680 C   0  0  0  0  0  0  0  0  0  0  0  0
   -8.0180    1.7760  -81.4040 C   0  0  0  0  0  0  0  0  0  0  0  0
   -7.9780    0.0810  -79.7090 C   0  0  0  0  0  0  0  0  0  0  0  0
   -7.7500    3.3990  -76.7290 O   0  0  0  0  0  0  0  0  0  0  0  0
   -7.8610    1.0670  -76.4340 N   0  0  0  0  0  0  0  0  0  0  0  0
   -8.9010    1.0200  -82.1570 C   0  0  0  0  0  0  0  0  0  0  0  0
   -8.8750   -0.6840  -80.4700 C   0  0  0  0  0  0  0  0  0  0  0  0
   -7.2200   -0.0530  -76.5530 C   0  0  0  0  0  0  0  0  0  0  0  0
   -9.2030    1.1030  -76.1590 C   0  0  0  0  0  0  0  0  0  0  0  0
   -9.3330   -0.2200  -81.6990 C   0  0  0  0  0  0  0  0  0  0  0  0
   -9.9840    2.3110  -76.5050 C   0  0  0  0  0  0  0  0  0  0  0  0
   -9.8900    2.9380  -77.7660 C   0  0  0  0  0  0  0  0  0  0  0  0
  -10.8340    2.8220  -75.5320 C   0  0  0  0  0  0  0  0  0  0  0  0
  -10.6460    4.0690  -78.0560 C   0  0  0  0  0  0  0  0  0  0  0  0
  -11.5910    3.9450  -75.8140 C   0  0  0  0  0  0  0  0  0  0  0  0
  -11.4830    4.5380  -77.0600 C   0  0  0  0  0  0  0  0  0  0  0  0
  -12.4080    4.4270  -74.8770 F   0  0  0  0  0  0  0  0  0  0  0  0
  1  2  1  0
  2  3  1  0
  2  4  1  0
  5  4  1  1
  5  6  1  0
  5  7  1  0
  6  8  1  0
  7  9  2  0
  7 10  1  0
  8 11  2  0
  8 12  1  0
  9 13  1  0
 10 14  2  0
 12 15  1  0
 12 16  1  0
 13 17  2  0
 14 17  1  0
 16 18  1  0
 18 19  2  0
 18 20  1  0
 19 21  1  0
 20 22  2  0
 21 23  2  0
 22 23  1  0
 22 24  1  0
M  END
>  <ref_url>  (909) 
https://fakepage.com

>  <submitter_name>  (909) 
Steph Wills

>  <submitter_email>  (909) 
stephanie.wills@dtc.ox.ac.uk

>  <submitter_institution>  (909) 
University of Oxford

>  <generation_date>  (909) 
2020-06-04

>  <method>  (909) 
Fragment network

>  <ref_mols>  (909) 
x0034_0B,x0212_0B

>  <ref_pdb>  (909) 
references/x0034-0B-x0212-0B-113427.holo_minimised_nolig.pdb

>  <original SMILES>  (909) 
CC(C)CC(NC(=O)N(C)Cc1cccc(F)c1)c1ccccc1

>  <synthon>  (909) 
[Xe]c1ccccc1

>  <original_name>  (909) 
x0034-0B-x0212-0B-113427

>  <comRMSD_score>  (909) 
0.9511301698505832

>  <IF_score>  (909) 
0.5416666666666666

>  <SuCOS_score>  (909) 
0.4459699678715813

>  <compound_ID>  (909) 
REAL:Z448598104

$$$$

     RDKit          3D

 24 25  0  0  0  0  0  0  0  0999 V2000
  -12.4880    5.2540  -77.4020 C   0  0  0  0  0  0  0  0  0  0  0  0
  -11.3240    4.3250  -77.1170 C   0  0  0  0  0  0  0  0  0  0  0  0
  -10.3190    4.1820  -78.0650 C   0  0  0  0  0  0  0  0  0  0  0  0
  -11.2360    3.6080  -75.9130 C   0  0  0  0  0  0  0  0  0  0  0  0
   -9.1740    3.2890  -77.7980 C   0  0  0  0  0  0  0  0  0  0  0  0
  -10.1610    2.7580  -75.6540 C   0  0  0  0  0  0  0  0  0  0  0  0
   -9.1240    2.5920  -76.5800 C   0  0  0  0  0  0  0  0  0  0  0  0
   -8.0470    1.7480  -76.2970 C   0  0  0  0  0  0  0  0  0  0  0  0
   -8.3750    0.3920  -76.1750 C   0  0  0  0  0  0  0  0  0  0  0  0
   -9.4880    0.0230  -75.7920 O   0  0  0  0  0  0  0  0  0  0  0  0
   -7.3670   -0.5020  -76.4950 N   0  0  0  0  0  0  0  0  0  0  0  0
   -7.5710   -1.9270  -76.3470 C   0  0  0  0  0  0  0  0  0  0  0  0
   -5.9600   -0.0490  -76.6650 C   0  0  2  0  0  0  0  0  0  0  0  0
   -5.5650    0.8350  -75.6640 C   0  0  0  0  0  0  0  0  0  0  0  0
   -5.8770    0.6860  -78.0320 C   0  0  0  0  0  0  0  0  0  0  0  0
   -6.7970    1.8390  -78.1440 N   0  0  0  0  0  0  0  0  0  0  0  0
   -7.0840    2.3490  -79.3800 C   0  0  0  0  0  0  0  0  0  0  0  0
   -6.6610    3.4170  -79.8090 O   0  0  0  0  0  0  0  0  0  0  0  0
   -7.8970    1.5260  -80.1550 C   0  0  0  0  0  0  0  0  0  0  0  0
   -8.2880    1.9250  -81.4250 C   0  0  0  0  0  0  0  0  0  0  0  0
   -8.3350    0.2800  -79.6670 C   0  0  0  0  0  0  0  0  0  0  0  0
   -9.0910    1.1100  -82.1960 C   0  0  0  0  0  0  0  0  0  0  0  0
   -9.1460   -0.5410  -80.4580 C   0  0  0  0  0  0  0  0  0  0  0  0
   -9.5270   -0.1240  -81.7310 C   0  0  0  0  0  0  0  0  0  0  0  0
  1  2  1  0
  2  3  2  0
  2  4  1  0
  3  5  1  0
  4  6  2  0
  5  7  2  0
  6  7  1  0
  7  8  1  0
  8  9  1  0
  9 10  2  0
  9 11  1  0
 11 12  1  0
 11 13  1  0
 13 14  1  1
 13 15  1  0
 15 16  1  0
 16 17  1  0
 17 18  2  0
 17 19  1  0
 19 20  2  0
 19 21  1  0
 20 22  1  0
 21 23  2  0
 22 24  2  0
 23 24  1  0
M  END
>  <ref_url>  (910) 
https://fakepage.com

>  <submitter_name>  (910) 
Steph Wills

>  <submitter_email>  (910) 
stephanie.wills@dtc.ox.ac.uk

>  <submitter_institution>  (910) 
University of Oxford

>  <generation_date>  (910) 
2020-06-04

>  <method>  (910) 
Fragment network

>  <ref_mols>  (910) 
x0034_0B,x0212_0B

>  <ref_pdb>  (910) 
references/x0034-0B-x0212-0B-117017.holo_minimised_nolig.pdb

>  <original SMILES>  (910) 
Cc1ccc(CC(=O)N(C)C(C)CNC(=O)c2ccccc2)cc1

>  <synthon>  (910) 
[Xe]c1ccccc1

>  <original_name>  (910) 
x0034-0B-x0212-0B-117017

>  <comRMSD_score>  (910) 
0.5824916467371176

>  <IF_score>  (910) 
0.875

>  <SuCOS_score>  (910) 
0.6207920192798823

>  <compound_ID>  (910) 
REAL:PV-001056045172

$$$$

     RDKit          3D

 19 20  0  0  0  0  0  0  0  0999 V2000
  -10.3290    1.3830  -77.6320 O   0  0  0  0  0  0  0  0  0  0  0  0
   -9.2310    0.8300  -77.6130 C   0  0  0  0  0  0  0  0  0  0  0  0
   -8.9250   -0.3090  -76.7080 C   0  0  0  0  0  0  0  0  0  0  0  0
   -8.1520    1.2350  -78.4670 N   0  0  0  0  0  0  0  0  0  0  0  0
   -7.6120    0.3280  -75.7260 S   0  0  0  0  0  0  0  0  0  0  0  0
   -8.4360    0.9880  -79.8120 C   0  0  0  0  0  0  0  0  0  0  0  0
   -7.5710    2.0230  -76.3290 C   0  0  0  0  0  0  0  0  0  0  0  0
   -8.9710   -0.2730  -79.7620 C   0  0  0  0  0  0  0  0  0  0  0  0
   -8.2950    1.7300  -80.9980 C   0  0  0  0  0  0  0  0  0  0  0  0
   -8.7850    2.7120  -76.5920 C   0  0  0  0  0  0  0  0  0  0  0  0
   -9.4000   -0.8510  -80.8980 C   0  0  0  0  0  0  0  0  0  0  0  0
   -8.7350    1.1320  -82.1510 C   0  0  0  0  0  0  0  0  0  0  0  0
   -7.7710    2.9600  -81.0350 F   0  0  0  0  0  0  0  0  0  0  0  0
   -9.9070    2.6670  -75.6010 C   0  0  0  0  0  0  0  0  0  0  0  0
   -8.9740    3.4620  -77.7890 C   0  0  0  0  0  0  0  0  0  0  0  0
   -9.2730   -0.1360  -82.0490 C   0  0  0  0  0  0  0  0  0  0  0  0
  -11.1490    3.4250  -75.9140 C   0  0  0  0  0  0  0  0  0  0  0  0
  -10.1790    4.1580  -78.0360 C   0  0  0  0  0  0  0  0  0  0  0  0
  -11.2760    4.2040  -77.1950 C   0  0  0  0  0  0  0  0  0  0  0  0
  1  2  2  0
  2  3  1  0
  2  4  1  0
  3  5  1  0
  4  6  1  0
  5  7  1  0
  6  8  2  0
  6  9  1  0
  7 10  1  0
  8 11  1  0
  9 12  2  0
  9 13  1  0
 10 14  2  0
 10 15  1  0
 11 16  2  0
 12 16  1  0
 14 17  1  0
 15 18  2  0
 17 19  2  0
 18 19  1  0
M  END
>  <ref_url>  (911) 
https://fakepage.com

>  <submitter_name>  (911) 
Steph Wills

>  <submitter_email>  (911) 
stephanie.wills@dtc.ox.ac.uk

>  <submitter_institution>  (911) 
University of Oxford

>  <generation_date>  (911) 
2020-06-04

>  <method>  (911) 
Fragment network

>  <ref_mols>  (911) 
x0034_0B,x0212_0B

>  <ref_pdb>  (911) 
references/x0034-0B-x0212-0B-117177.holo_minimised_nolig.pdb

>  <original SMILES>  (911) 
O=C(CSCc1ccccc1)Nc1ccccc1F

>  <synthon>  (911) 
[Xe]c1ccccc1

>  <original_name>  (911) 
x0034-0B-x0212-0B-117177

>  <comRMSD_score>  (911) 
0.8617205656901392

>  <IF_score>  (911) 
0.375

>  <SuCOS_score>  (911) 
0.466363933381587

>  <compound_ID>  (911) 
MOLPORT:003-653-400

$$$$

     RDKit          3D

 19 20  0  0  0  0  0  0  0  0999 V2000
  -12.5330    5.3790  -76.9620 C   0  0  0  0  0  0  0  0  0  0  0  0
  -11.3720    4.4530  -77.1220 C   0  0  0  0  0  0  0  0  0  0  0  0
  -10.5970    4.5330  -78.2750 C   0  0  0  0  0  0  0  0  0  0  0  0
  -11.0450    3.5050  -76.1400 C   0  0  0  0  0  0  0  0  0  0  0  0
   -9.5130    3.7130  -78.4750 C   0  0  0  0  0  0  0  0  0  0  0  0
   -9.9410    2.6710  -76.3670 C   0  0  0  0  0  0  0  0  0  0  0  0
   -9.1870    2.7800  -77.5160 C   0  0  0  0  0  0  0  0  0  0  0  0
   -9.4050    1.6100  -75.5390 N   0  0  0  0  0  0  0  0  0  0  0  0
   -8.1720    1.1720  -75.9870 N   0  0  0  0  0  0  0  0  0  0  0  0
   -8.0830    0.8910  -77.4080 C   0  0  0  0  0  0  0  0  0  0  0  0
   -9.0660    0.2690  -78.1320 O   0  0  0  0  0  0  0  0  0  0  0  0
   -6.8220    1.3780  -77.9180 O   0  0  0  0  0  0  0  0  0  0  0  0
   -6.9690    2.1380  -79.1220 C   0  0  0  0  0  0  0  0  0  0  0  0
   -7.8370    1.3720  -80.1140 C   0  0  0  0  0  0  0  0  0  0  0  0
   -8.2720    1.9750  -81.2970 C   0  0  0  0  0  0  0  0  0  0  0  0
   -8.2060    0.0430  -79.8350 C   0  0  0  0  0  0  0  0  0  0  0  0
   -9.1140    1.2060  -82.2290 C   0  0  0  0  0  0  0  0  0  0  0  0
   -9.0040   -0.7190  -80.6760 C   0  0  0  0  0  0  0  0  0  0  0  0
   -9.4880   -0.2170  -81.8610 C   0  0  0  0  0  0  0  0  0  0  0  0
  1  2  1  0
  2  3  2  0
  2  4  1  0
  3  5  1  0
  4  6  2  0
  5  7  2  0
  6  7  1  0
  6  8  1  0
  8  9  1  0
  9 10  1  0
 10 11  2  0
 10 12  1  0
 12 13  1  0
 13 14  1  0
 14 15  2  0
 14 16  1  0
 15 17  1  0
 16 18  2  0
 17 19  2  0
 18 19  1  0
M  END
>  <ref_url>  (912) 
https://fakepage.com

>  <submitter_name>  (912) 
Steph Wills

>  <submitter_email>  (912) 
stephanie.wills@dtc.ox.ac.uk

>  <submitter_institution>  (912) 
University of Oxford

>  <generation_date>  (912) 
2020-06-04

>  <method>  (912) 
Fragment network

>  <ref_mols>  (912) 
x0034_0B,x0212_0B

>  <ref_pdb>  (912) 
references/x0034-0B-x0212-0B-117890.holo_minimised_nolig.pdb

>  <original SMILES>  (912) 
Cc1cccc(NNC(=O)OCc2ccccc2)c1

>  <synthon>  (912) 
[Xe]c1ccccc1

>  <original_name>  (912) 
x0034-0B-x0212-0B-117890

>  <comRMSD_score>  (912) 
0.8571972890225992

>  <IF_score>  (912) 
0.375

>  <SuCOS_score>  (912) 
0.4725237778812189

>  <compound_ID>  (912) 
CHEMSPACE-BB:CSMB00113607339

$$$$

     RDKit          3D

 21 22  0  0  0  0  0  0  0  0999 V2000
  -12.2490    5.5740  -76.8860 C   0  0  0  0  0  0  0  0  0  0  0  0
  -11.3180    4.4000  -76.9670 C   0  0  0  0  0  0  0  0  0  0  0  0
  -10.6330    4.1680  -78.1580 C   0  0  0  0  0  0  0  0  0  0  0  0
  -11.1190    3.5260  -75.8790 C   0  0  0  0  0  0  0  0  0  0  0  0
   -9.7860    3.0890  -78.2770 C   0  0  0  0  0  0  0  0  0  0  0  0
  -10.2550    2.4300  -75.9950 C   0  0  0  0  0  0  0  0  0  0  0  0
   -9.5900    2.2100  -77.2180 C   0  0  0  0  0  0  0  0  0  0  0  0
   -8.5030    0.8440  -77.5340 S   0  0  0  0  0  0  0  0  0  0  0  0
   -7.6950    0.3920  -76.0420 C   0  0  0  0  0  0  0  0  0  0  0  0
   -6.6610    1.4020  -75.5570 C   0  0  0  0  0  0  0  0  0  0  0  0
   -5.5860    1.6190  -76.3770 N   0  0  0  0  0  0  0  0  0  0  0  0
   -5.5780    2.3120  -77.5470 C   0  0  0  0  0  0  0  0  0  0  0  0
   -5.0740    3.3880  -77.8750 O   0  0  0  0  0  0  0  0  0  0  0  0
   -6.3190    1.6010  -78.5820 C   0  0  0  0  0  0  0  0  0  0  0  0
   -7.3400    2.2680  -79.3730 C   0  0  0  0  0  0  0  0  0  0  0  0
   -8.0830    1.4370  -80.3340 C   0  0  0  0  0  0  0  0  0  0  0  0
   -8.4160    1.9080  -81.5590 C   0  0  0  0  0  0  0  0  0  0  0  0
   -8.4320    0.1360  -79.9260 C   0  0  0  0  0  0  0  0  0  0  0  0
   -9.1760    0.9840  -82.4540 C   0  0  0  0  0  0  0  0  0  0  0  0
   -9.1340   -0.7150  -80.7510 C   0  0  0  0  0  0  0  0  0  0  0  0
   -9.5070   -0.2940  -82.0120 C   0  0  0  0  0  0  0  0  0  0  0  0
  1  2  1  0
  2  3  2  0
  2  4  1  0
  3  5  1  0
  4  6  2  0
  5  7  2  0
  6  7  1  0
  7  8  1  0
  8  9  1  0
  9 10  1  0
 10 11  1  0
 11 12  1  0
 12 13  2  0
 12 14  1  0
 14 15  2  3
 15 16  1  0
 16 17  2  0
 16 18  1  0
 17 19  1  0
 18 20  2  0
 19 21  2  0
 20 21  1  0
M  END
>  <ref_url>  (913) 
https://fakepage.com

>  <submitter_name>  (913) 
Steph Wills

>  <submitter_email>  (913) 
stephanie.wills@dtc.ox.ac.uk

>  <submitter_institution>  (913) 
University of Oxford

>  <generation_date>  (913) 
2020-06-04

>  <method>  (913) 
Fragment network

>  <ref_mols>  (913) 
x0034_0B,x0212_0B

>  <ref_pdb>  (913) 
references/x0034-0B-x0212-0B-121698.holo_minimised_nolig.pdb

>  <original SMILES>  (913) 
Cc1ccc(SCCNC(=O)C=Cc2ccccc2)cc1

>  <synthon>  (913) 
[Xe]c1ccccc1

>  <original_name>  (913) 
x0034-0B-x0212-0B-121698

>  <comRMSD_score>  (913) 
0.8700561284576229

>  <IF_score>  (913) 
0.375

>  <SuCOS_score>  (913) 
0.4721789890746309

>  <compound_ID>  (913) 
MOLPORT:002-193-909

$$$$

     RDKit          3D

 24 25  0  0  0  0  0  0  0  0999 V2000
  -12.3120    5.3280  -77.1770 C   0  0  0  0  0  0  0  0  0  0  0  0
  -11.4240    4.1400  -76.8370 C   0  0  0  0  0  0  0  0  0  0  0  0
  -11.4540    3.5350  -75.5790 C   0  0  0  0  0  0  0  0  0  0  0  0
  -10.5380    3.6040  -77.7670 C   0  0  0  0  0  0  0  0  0  0  0  0
  -10.5660    2.3750  -75.2750 C   0  0  0  0  0  0  0  0  0  0  0  0
   -9.7060    2.5170  -77.5000 C   0  0  0  0  0  0  0  0  0  0  0  0
  -10.4440    4.0720  -78.8370 O   0  0  0  0  0  0  0  0  0  0  0  0
   -9.7080    1.9050  -76.2700 C   0  0  0  0  0  0  0  0  0  0  0  0
   -9.1430    3.8650  -79.0770 C   0  0  0  0  0  0  0  0  0  0  0  0
   -8.3190    3.3490  -77.8360 C   0  0  0  0  0  0  0  0  0  0  0  0
   -8.8760    3.5800  -76.5180 O   0  0  0  0  0  0  0  0  0  0  0  0
   -7.1690    2.7060  -78.1530 N   0  0  0  0  0  0  0  0  0  0  0  0
   -6.8100    2.6710  -79.5660 C   0  0  1  0  0  0  0  0  0  0  0  0
   -5.3380    2.4170  -79.8290 C   0  0  0  0  0  0  0  0  0  0  0  0
   -7.7170    1.6120  -80.2230 C   0  0  0  0  0  0  0  0  0  0  0  0
   -4.3650    3.9460  -79.5900 S   0  0  0  0  0  0  0  0  0  0  0  0
   -8.2050    1.9300  -81.4800 C   0  0  0  0  0  0  0  0  0  0  0  0
   -8.0740    0.3760  -79.6330 C   0  0  0  0  0  0  0  0  0  0  0  0
   -5.0350    4.5590  -78.0600 C   0  0  0  0  0  0  0  0  0  0  0  0
   -4.6540    4.8850  -80.6560 O   0  0  0  0  0  0  0  0  0  0  0  0
   -2.9870    3.5760  -79.3350 O   0  0  0  0  0  0  0  0  0  0  0  0
   -9.0270    1.0370  -82.1420 C   0  0  0  0  0  0  0  0  0  0  0  0
   -8.9110   -0.5140  -80.3240 C   0  0  0  0  0  0  0  0  0  0  0  0
   -9.3890   -0.1810  -81.5870 C   0  0  0  0  0  0  0  0  0  0  0  0
  1  2  1  0
  2  3  2  0
  2  4  1  0
  3  5  1  0
  4  6  2  0
  4  7  1  0
  5  8  2  0
  6  8  1  0
  7  9  1  0
  9 10  1  0
 10 11  2  0
 10 12  1  0
 12 13  1  0
 13 14  1  1
 13 15  1  0
 16 14  1  0
 15 17  2  0
 15 18  1  0
 16 19  1  0
 16 20  2  0
 16 21  2  0
 17 22  1  0
 18 23  2  0
 22 24  2  0
 23 24  1  0
M  END
>  <ref_url>  (914) 
https://fakepage.com

>  <submitter_name>  (914) 
Steph Wills

>  <submitter_email>  (914) 
stephanie.wills@dtc.ox.ac.uk

>  <submitter_institution>  (914) 
University of Oxford

>  <generation_date>  (914) 
2020-06-04

>  <method>  (914) 
Fragment network

>  <ref_mols>  (914) 
x0034_0B,x0212_0B

>  <ref_pdb>  (914) 
references/x0034-0B-x0212-0B-121769.holo_minimised_nolig.pdb

>  <original SMILES>  (914) 
Cc1ccccc1OCC(=O)NC(CS(C)(=O)=O)c1ccccc1

>  <synthon>  (914) 
[Xe]c1ccccc1

>  <original_name>  (914) 
x0034-0B-x0212-0B-121769

>  <comRMSD_score>  (914) 
0.7236424646651599

>  <IF_score>  (914) 
0.625

>  <SuCOS_score>  (914) 
0.4623188501961224

>  <compound_ID>  (914) 
REAL:Z1486768042

$$$$

     RDKit          3D

 25 26  0  0  0  0  0  0  0  0999 V2000
  -12.4570    5.3690  -77.3250 C   0  0  0  0  0  0  0  0  0  0  0  0
  -11.3240    4.3640  -77.1350 C   0  0  0  0  0  0  0  0  0  0  0  0
  -11.2780    3.6140  -75.7850 C   0  0  0  0  0  0  0  0  0  0  0  0
  -10.3760    4.1310  -78.1170 C   0  0  0  0  0  0  0  0  0  0  0  0
  -10.0990    2.6280  -75.6930 C   0  0  0  0  0  0  0  0  0  0  0  0
   -9.3250    3.2270  -77.9860 C   0  0  0  0  0  0  0  0  0  0  0  0
   -9.1440    2.4680  -76.8180 C   0  0  0  0  0  0  0  0  0  0  0  0
   -7.7660    1.3360  -76.7090 S   0  0  0  0  0  0  0  0  0  0  0  0
   -8.4730   -0.2540  -76.1350 C   0  0  0  0  0  0  0  0  0  0  0  0
   -8.9430   -1.1720  -77.2720 C   0  0  0  0  0  0  0  0  0  0  0  0
   -8.1850   -2.2830  -77.4820 N   0  0  0  0  0  0  0  0  0  0  0  0
   -6.9900   -2.2720  -78.3280 C   0  0  0  0  0  0  0  0  0  0  0  0
   -6.7970   -3.1540  -79.1510 O   0  0  0  0  0  0  0  0  0  0  0  0
   -6.0720   -1.0950  -78.0700 C   0  0  0  0  0  0  0  0  0  0  0  0
   -5.7050   -0.5240  -79.2750 N   0  0  0  0  0  0  0  0  0  0  0  0
   -5.0640    0.7150  -79.5100 C   0  0  0  0  0  0  0  0  0  0  0  0
   -3.8470    0.8450  -80.2580 O   0  0  0  0  0  0  0  0  0  0  0  0
   -5.6380    1.8940  -78.9920 C   0  0  0  0  0  0  0  0  0  0  0  0
   -6.9470    2.3280  -79.2610 C   0  0  0  0  0  0  0  0  0  0  0  0
   -7.8470    1.5210  -80.1490 C   0  0  0  0  0  0  0  0  0  0  0  0
   -8.2800    0.2710  -79.6970 C   0  0  0  0  0  0  0  0  0  0  0  0
   -8.2490    1.9810  -81.4060 C   0  0  0  0  0  0  0  0  0  0  0  0
   -9.1200   -0.5410  -80.4780 C   0  0  0  0  0  0  0  0  0  0  0  0
   -9.0700    1.2390  -82.2340 C   0  0  0  0  0  0  0  0  0  0  0  0
   -9.5340   -0.1090  -81.7410 C   0  0  0  0  0  0  0  0  0  0  0  0
  1  2  1  0
  2  3  2  0
  2  4  1  0
  3  5  1  0
  4  6  2  0
  5  7  2  0
  6  7  1  0
  7  8  1  0
  8  9  1  0
  9 10  1  0
 10 11  1  0
 11 12  1  0
 12 13  2  0
 12 14  1  0
 14 15  1  0
 15 16  1  0
 16 17  2  0
 16 18  1  0
 18 19  2  3
 19 20  1  0
 20 21  2  0
 20 22  1  0
 21 23  1  0
 22 24  2  0
 23 25  2  0
 24 25  1  0
M  END
>  <ref_url>  (915) 
https://fakepage.com

>  <submitter_name>  (915) 
Steph Wills

>  <submitter_email>  (915) 
stephanie.wills@dtc.ox.ac.uk

>  <submitter_institution>  (915) 
University of Oxford

>  <generation_date>  (915) 
2020-06-04

>  <method>  (915) 
Fragment network

>  <ref_mols>  (915) 
x0034_0B,x0212_0B

>  <ref_pdb>  (915) 
references/x0034-0B-x0212-0B-124498.holo_minimised_nolig.pdb

>  <original SMILES>  (915) 
Cc1ccc(SCCNC(=O)CNC(=O)C=Cc2ccccc2)cc1

>  <synthon>  (915) 
[Xe]c1ccccc1

>  <original_name>  (915) 
x0034-0B-x0212-0B-124498

>  <comRMSD_score>  (915) 
0.6014493605727199

>  <IF_score>  (915) 
0.625

>  <SuCOS_score>  (915) 
0.5304579153898479

>  <compound_ID>  (915) 
MOLPORT:044-418-407

$$$$

     RDKit          3D

 28 29  0  0  0  0  0  0  0  0999 V2000
   -6.6360    2.4970  -79.8310 C   0  0  0  0  0  0  0  0  0  0  0  0
   -7.6820    1.5660  -80.3490 C   0  0  0  0  0  0  0  0  0  0  0  0
   -8.5450    1.9320  -81.3830 C   0  0  0  0  0  0  0  0  0  0  0  0
   -7.8070    0.3020  -79.7810 C   0  0  0  0  0  0  0  0  0  0  0  0
   -9.5410    1.0350  -81.8100 C   0  0  0  0  0  0  0  0  0  0  0  0
   -8.7870   -0.5810  -80.1950 C   0  0  0  0  0  0  0  0  0  0  0  0
   -9.6630   -0.2150  -81.1880 C   0  0  0  0  0  0  0  0  0  0  0  0
  -10.9730   -1.3420  -81.6620 S   0  0  0  0  0  0  0  0  0  0  0  0
  -12.1640   -0.5580  -81.9410 O   0  0  0  0  0  0  0  0  0  0  0  0
  -10.4600   -2.4000  -82.5030 O   0  0  0  0  0  0  0  0  0  0  0  0
  -11.3010   -2.1090  -80.1990 N   0  0  0  0  0  0  0  0  0  0  0  0
  -11.8660   -1.3180  -79.0850 C   0  0  0  0  0  0  0  0  0  0  0  0
  -10.4890   -3.2690  -79.7590 C   0  0  0  0  0  0  0  0  0  0  0  0
  -10.5330   -3.4000  -78.2250 C   0  0  0  0  0  0  0  0  0  0  0  0
  -10.9900   -4.3730  -77.6420 O   0  0  0  0  0  0  0  0  0  0  0  0
   -9.9590   -2.2270  -77.5180 N   0  0  0  0  0  0  0  0  0  0  0  0
   -8.9890   -1.3020  -78.2920 N   0  0  0  0  0  0  0  0  0  0  0  0
   -9.1780    0.1040  -78.1670 C   0  0  0  0  0  0  0  0  0  0  0  0
   -9.7870    0.8620  -78.9280 O   0  0  0  0  0  0  0  0  0  0  0  0
   -8.6750    0.7670  -77.0670 C   0  0  0  0  0  0  0  0  0  0  0  0
   -8.6220   -0.0950  -75.8920 C   0  0  0  0  0  0  0  0  0  0  0  0
   -7.1840    1.0990  -77.3090 C   0  0  0  0  0  0  0  0  0  0  0  0
   -9.5470    2.0370  -76.8910 C   0  0  0  0  0  0  0  0  0  0  0  0
  -10.3720    2.2940  -75.7880 C   0  0  0  0  0  0  0  0  0  0  0  0
   -9.5070    2.9810  -77.9290 C   0  0  0  0  0  0  0  0  0  0  0  0
  -11.1490    3.4590  -75.7430 C   0  0  0  0  0  0  0  0  0  0  0  0
  -10.2760    4.1390  -77.8840 C   0  0  0  0  0  0  0  0  0  0  0  0
  -11.1070    4.3740  -76.7960 C   0  0  0  0  0  0  0  0  0  0  0  0
  1  2  1  0
  2  3  2  0
  2  4  1  0
  3  5  1  0
  4  6  2  0
  5  7  2  0
  6  7  1  0
  7  8  1  0
  8  9  2  0
  8 10  2  0
  8 11  1  0
 11 12  1  0
 11 13  1  0
 13 14  1  0
 14 15  2  0
 14 16  1  0
 16 17  1  0
 17 18  1  0
 18 19  2  0
 20 18  1  0
 20 21  1  0
 20 22  1  0
 20 23  1  0
 23 24  2  0
 23 25  1  0
 24 26  1  0
 25 27  2  0
 26 28  2  0
 27 28  1  0
M  END
>  <ref_url>  (916) 
https://fakepage.com

>  <submitter_name>  (916) 
Steph Wills

>  <submitter_email>  (916) 
stephanie.wills@dtc.ox.ac.uk

>  <submitter_institution>  (916) 
University of Oxford

>  <generation_date>  (916) 
2020-06-04

>  <method>  (916) 
Fragment network

>  <ref_mols>  (916) 
x0034_0B,x0212_0B

>  <ref_pdb>  (916) 
references/x0034-0B-x0212-0B-130081.holo_minimised_nolig.pdb

>  <original SMILES>  (916) 
Cc1ccc(S(=O)(=O)N(C)CC(=O)NNC(=O)C(C)(C)c2ccccc2)cc1

>  <synthon>  (916) 
[Xe]c1ccccc1

>  <original_name>  (916) 
x0034-0B-x0212-0B-130081

>  <comRMSD_score>  (916) 
0.8944186814785223

>  <IF_score>  (916) 
0.65

>  <SuCOS_score>  (916) 
0.4503144906387186

>  <compound_ID>  (916) 
MOLPORT:009-471-908

$$$$

     RDKit          3D

 19 20  0  0  0  0  0  0  0  0999 V2000
  -12.4340    5.2910  -77.2340 C   0  0  0  0  0  0  0  0  0  0  0  0
  -11.2600    4.3700  -77.3220 C   0  0  0  0  0  0  0  0  0  0  0  0
  -10.4350    4.2810  -78.6040 C   0  0  0  0  0  0  0  0  0  0  0  0
  -10.8760    3.5710  -76.2480 C   0  0  0  0  0  0  0  0  0  0  0  0
   -9.3600    3.4230  -78.6690 C   0  0  0  0  0  0  0  0  0  0  0  0
   -9.7680    2.7150  -76.3300 C   0  0  0  0  0  0  0  0  0  0  0  0
   -9.0230    2.6100  -77.4720 C   0  0  0  0  0  0  0  0  0  0  0  0
   -9.2610    1.9610  -75.5200 O   0  0  0  0  0  0  0  0  0  0  0  0
   -7.8240    2.1190  -75.5380 C   0  0  0  0  0  0  0  0  0  0  0  0
   -7.1540    1.8450  -74.5510 O   0  0  0  0  0  0  0  0  0  0  0  0
   -7.1190    2.6280  -76.8310 C   0  0  0  0  0  0  0  0  0  0  0  0
   -6.9760    1.7940  -77.9060 O   0  0  0  0  0  0  0  0  0  0  0  0
   -7.0010    2.3970  -79.2120 C   0  0  0  0  0  0  0  0  0  0  0  0
   -7.7490    1.5390  -80.0430 C   0  0  0  0  0  0  0  0  0  0  0  0
   -8.1410    1.9680  -81.3200 C   0  0  0  0  0  0  0  0  0  0  0  0
   -8.1120    0.2420  -79.6150 C   0  0  0  0  0  0  0  0  0  0  0  0
   -8.8720    1.1170  -82.1510 C   0  0  0  0  0  0  0  0  0  0  0  0
   -8.8440   -0.6010  -80.4480 C   0  0  0  0  0  0  0  0  0  0  0  0
   -9.2120   -0.1530  -81.7050 C   0  0  0  0  0  0  0  0  0  0  0  0
  1  2  1  0
  2  3  2  0
  2  4  1  0
  3  5  1  0
  4  6  2  0
  5  7  2  0
  6  7  1  0
  6  8  1  0
  8  9  1  0
  9 10  2  0
  9 11  1  0
 11 12  1  0
 12 13  1  0
 13 14  1  0
 14 15  2  0
 14 16  1  0
 15 17  1  0
 16 18  2  0
 17 19  2  0
 18 19  1  0
M  END
>  <ref_url>  (917) 
https://fakepage.com

>  <submitter_name>  (917) 
Steph Wills

>  <submitter_email>  (917) 
stephanie.wills@dtc.ox.ac.uk

>  <submitter_institution>  (917) 
University of Oxford

>  <generation_date>  (917) 
2020-06-04

>  <method>  (917) 
Fragment network

>  <ref_mols>  (917) 
x0034_0B,x0212_0B

>  <ref_pdb>  (917) 
references/x0034-0B-x0212-0B-131099.holo_minimised_nolig.pdb

>  <original SMILES>  (917) 
Cc1cccc(OC(=O)COCc2ccccc2)c1

>  <synthon>  (917) 
[Xe]c1ccccc1

>  <original_name>  (917) 
x0034-0B-x0212-0B-131099

>  <comRMSD_score>  (917) 
0.84104567850583

>  <IF_score>  (917) 
0.375

>  <SuCOS_score>  (917) 
0.4353608471615887

>  <compound_ID>  (917) 
CHEMSPACE-BB:CSMB00114207192

$$$$

     RDKit          3D

 22 23  0  0  0  0  0  0  0  0999 V2000
   -9.1190    0.5800  -77.7990 C   0  0  0  0  0  0  0  0  0  0  0  0
   -9.8820    1.6180  -77.0580 C   0  0  0  0  0  0  0  0  0  0  0  0
  -10.1120    1.4570  -75.7090 C   0  0  0  0  0  0  0  0  0  0  0  0
  -10.3700    2.7370  -77.6820 C   0  0  0  0  0  0  0  0  0  0  0  0
  -10.8330    2.4060  -74.9900 C   0  0  0  0  0  0  0  0  0  0  0  0
  -11.0820    3.6920  -76.9600 C   0  0  0  0  0  0  0  0  0  0  0  0
  -11.3260    3.5370  -75.6130 C   0  0  0  0  0  0  0  0  0  0  0  0
  -11.5250    4.8690  -77.7030 C   0  0  0  0  0  0  0  0  0  0  0  0
  -10.5300    5.1530  -78.5810 O   0  0  0  0  0  0  0  0  0  0  0  0
   -9.6220    4.0200  -78.8250 C   0  0  1  0  0  0  0  0  0  0  0  0
   -8.8200    4.2600  -80.0940 C   0  0  0  0  0  0  0  0  0  0  0  0
   -8.7170    3.4960  -77.6450 C   0  0  0  0  0  0  0  0  0  0  0  0
   -9.0210    3.6080  -76.4550 O   0  0  0  0  0  0  0  0  0  0  0  0
   -7.5310    2.8290  -77.9670 N   0  0  0  0  0  0  0  0  0  0  0  0
   -6.6510    2.5060  -76.8280 C   0  0  0  0  0  0  0  0  0  0  0  0
   -7.0440    2.5140  -79.2480 C   0  0  0  0  0  0  0  0  0  0  0  0
   -7.8610    1.5390  -80.1040 C   0  0  0  0  0  0  0  0  0  0  0  0
   -8.2940    1.9340  -81.3640 C   0  0  0  0  0  0  0  0  0  0  0  0
   -8.1830    0.2510  -79.6470 C   0  0  0  0  0  0  0  0  0  0  0  0
   -9.0420    1.0670  -82.1550 C   0  0  0  0  0  0  0  0  0  0  0  0
   -8.9340   -0.6150  -80.4380 C   0  0  0  0  0  0  0  0  0  0  0  0
   -9.3640   -0.2040  -81.6900 C   0  0  0  0  0  0  0  0  0  0  0  0
  1  2  1  0
  2  3  2  0
  2  4  1  0
  3  5  1  0
  4  6  2  0
  5  7  2  0
  6  7  1  0
  6  8  1  0
  8  9  1  0
  9 10  1  0
 10 11  1  6
 10 12  1  0
 12 13  2  0
 12 14  1  0
 14 15  1  0
 14 16  1  0
 16 17  1  0
 17 18  2  0
 17 19  1  0
 18 20  1  0
 19 21  2  0
 20 22  2  0
 21 22  1  0
M  END
>  <ref_url>  (918) 
https://fakepage.com

>  <submitter_name>  (918) 
Steph Wills

>  <submitter_email>  (918) 
stephanie.wills@dtc.ox.ac.uk

>  <submitter_institution>  (918) 
University of Oxford

>  <generation_date>  (918) 
2020-06-04

>  <method>  (918) 
Fragment network

>  <ref_mols>  (918) 
x0034_0B,x0212_0B

>  <ref_pdb>  (918) 
references/x0034-0B-x0212-0B-132848.holo_minimised_nolig.pdb

>  <original SMILES>  (918) 
Cc1cccc(COC(C)C(=O)N(C)Cc2ccccc2)c1

>  <synthon>  (918) 
[Xe]c1ccccc1

>  <original_name>  (918) 
x0034-0B-x0212-0B-132848

>  <comRMSD_score>  (918) 
0.9203086438798672

>  <IF_score>  (918) 
0.75

>  <SuCOS_score>  (918) 
0.4903592794647847

>  <compound_ID>  (918) 
REAL:PV-001793313604

$$$$

     RDKit          3D

 19 20  0  0  0  0  0  0  0  0999 V2000
  -12.4460    5.1280  -77.5120 C   0  0  0  0  0  0  0  0  0  0  0  0
  -11.2250    4.3020  -77.1430 C   0  0  0  0  0  0  0  0  0  0  0  0
  -11.1640    3.5550  -75.9630 C   0  0  0  0  0  0  0  0  0  0  0  0
  -10.1270    4.2860  -77.9940 C   0  0  0  0  0  0  0  0  0  0  0  0
   -9.9460    2.7660  -75.6480 C   0  0  0  0  0  0  0  0  0  0  0  0
   -8.9700    3.5580  -77.7060 C   0  0  0  0  0  0  0  0  0  0  0  0
   -8.8560    2.7850  -76.5340 C   0  0  0  0  0  0  0  0  0  0  0  0
   -7.3520    1.8390  -76.1830 S   0  0  0  0  0  0  0  0  0  0  0  0
   -7.9060    0.1090  -76.4930 C   0  0  0  0  0  0  0  0  0  0  0  0
   -9.1780    0.2900  -76.9000 C   0  0  0  0  0  0  0  0  0  0  0  0
  -10.0980   -0.4740  -76.6290 O   0  0  0  0  0  0  0  0  0  0  0  0
   -9.1480    1.5180  -77.6640 O   0  0  0  0  0  0  0  0  0  0  0  0
   -8.0150    1.7350  -78.5690 C   0  0  0  0  0  0  0  0  0  0  0  0
   -8.4340    1.1160  -79.8750 C   0  0  0  0  0  0  0  0  0  0  0  0
   -8.4220    1.7890  -81.1000 C   0  0  0  0  0  0  0  0  0  0  0  0
   -8.8580   -0.2070  -79.7510 C   0  0  0  0  0  0  0  0  0  0  0  0
   -8.8990    1.0200  -82.2840 C   0  0  0  0  0  0  0  0  0  0  0  0
   -9.3030   -0.9480  -80.8190 C   0  0  0  0  0  0  0  0  0  0  0  0
   -9.3440   -0.3910  -82.0770 C   0  0  0  0  0  0  0  0  0  0  0  0
  1  2  1  0
  2  3  2  0
  2  4  1  0
  3  5  1  0
  4  6  2  0
  5  7  2  0
  6  7  1  0
  7  8  1  0
  8  9  1  0
  9 10  1  0
 10 11  2  0
 10 12  1  0
 12 13  1  0
 13 14  1  0
 14 15  2  0
 14 16  1  0
 15 17  1  0
 16 18  2  0
 17 19  2  0
 18 19  1  0
M  END
>  <ref_url>  (919) 
https://fakepage.com

>  <submitter_name>  (919) 
Steph Wills

>  <submitter_email>  (919) 
stephanie.wills@dtc.ox.ac.uk

>  <submitter_institution>  (919) 
University of Oxford

>  <generation_date>  (919) 
2020-06-04

>  <method>  (919) 
Fragment network

>  <ref_mols>  (919) 
x0034_0B,x0212_0B

>  <ref_pdb>  (919) 
references/x0034-0B-x0212-0B-132918.holo_minimised_nolig.pdb

>  <original SMILES>  (919) 
Cc1ccc(SCC(=O)OCc2ccccc2)cc1

>  <synthon>  (919) 
[Xe]c1ccccc1

>  <original_name>  (919) 
x0034-0B-x0212-0B-132918

>  <comRMSD_score>  (919) 
0.8379537466241697

>  <IF_score>  (919) 
0.625

>  <SuCOS_score>  (919) 
0.4919566101353722

>  <compound_ID>  (919) 
CHEMSPACE-BB:CSMB00119746399

$$$$

     RDKit          3D

 22 23  0  0  0  0  0  0  0  0999 V2000
   -6.7250    2.3730  -75.0630 C   0  0  0  0  0  0  0  0  0  0  0  0
   -6.9220    1.0520  -75.4300 N   0  0  0  0  0  0  0  0  0  0  0  0
   -8.2310    0.7220  -76.0430 C   0  0  1  0  0  0  0  0  0  0  0  0
   -8.9880   -0.2590  -75.3760 C   0  0  0  0  0  0  0  0  0  0  0  0
   -9.0530    1.8970  -76.4200 C   0  0  0  0  0  0  0  0  0  0  0  0
  -10.2740    2.0830  -75.7880 C   0  0  0  0  0  0  0  0  0  0  0  0
   -8.6540    2.8180  -77.3960 C   0  0  0  0  0  0  0  0  0  0  0  0
  -11.1990    3.1950  -76.0950 C   0  0  0  0  0  0  0  0  0  0  0  0
   -9.5380    3.8570  -77.6990 C   0  0  0  0  0  0  0  0  0  0  0  0
   -7.4340    2.7110  -78.0450 N   0  0  0  0  0  0  0  0  0  0  0  0
  -12.3630    3.3360  -75.4490 F   0  0  0  0  0  0  0  0  0  0  0  0
  -10.7920    4.0750  -77.0940 C   0  0  0  0  0  0  0  0  0  0  0  0
   -7.2220    2.8390  -79.4520 C   0  0  0  0  0  0  0  0  0  0  0  0
   -6.2210    2.8310  -77.3340 O   0  0  0  0  0  0  0  0  0  0  0  0
  -11.7280    5.2180  -77.4690 C   0  0  0  0  0  0  0  0  0  0  0  0
   -7.9770    1.7580  -80.1990 C   0  0  0  0  0  0  0  0  0  0  0  0
   -5.7630    4.1820  -77.4210 C   0  0  0  0  0  0  0  0  0  0  0  0
   -8.3010    0.4360  -79.5140 C   0  0  0  0  0  0  0  0  0  0  0  0
   -8.3920    1.9340  -81.5060 C   0  0  0  0  0  0  0  0  0  0  0  0
   -8.9960   -0.5420  -80.2050 C   0  0  0  0  0  0  0  0  0  0  0  0
   -9.0880    0.9540  -82.2030 C   0  0  0  0  0  0  0  0  0  0  0  0
   -9.4360   -0.2960  -81.6560 C   0  0  0  0  0  0  0  0  0  0  0  0
  1  2  1  0
  2  3  1  0
  3  4  1  1
  3  5  1  0
  5  6  2  0
  5  7  1  0
  6  8  1  0
  7  9  2  0
  7 10  1  0
  8 11  1  0
  8 12  2  0
  9 12  1  0
 10 13  1  0
 10 14  1  0
 12 15  1  0
 13 16  1  0
 14 17  1  0
 16 18  2  0
 16 19  1  0
 18 20  1  0
 19 21  2  0
 20 22  2  0
 21 22  1  0
M  END
>  <ref_url>  (920) 
https://fakepage.com

>  <submitter_name>  (920) 
Steph Wills

>  <submitter_email>  (920) 
stephanie.wills@dtc.ox.ac.uk

>  <submitter_institution>  (920) 
University of Oxford

>  <generation_date>  (920) 
2020-06-04

>  <method>  (920) 
Fragment network

>  <ref_mols>  (920) 
x0034_0B,x0212_0B

>  <ref_pdb>  (920) 
references/x0034-0B-x0212-0B-135894.holo_minimised_nolig.pdb

>  <original SMILES>  (920) 
CNC(C)c1cc(F)c(C)cc1N(Cc1ccccc1)OC

>  <synthon>  (920) 
[Xe]c1ccccc1

>  <original_name>  (920) 
x0034-0B-x0212-0B-135894

>  <comRMSD_score>  (920) 
0.6532181576919469

>  <IF_score>  (920) 
0.5416666666666666

>  <SuCOS_score>  (920) 
0.4956041829792086

>  <compound_ID>  (920) 
CHEMSPACE-BB:CSMB00117835750

$$$$

     RDKit          3D

 22 23  0  0  0  0  0  0  0  0999 V2000
   -6.9310    2.3200  -79.3550 C   0  0  0  0  0  0  0  0  0  0  0  0
   -7.8210    1.5060  -80.2520 C   0  0  0  0  0  0  0  0  0  0  0  0
   -8.2290    2.0410  -81.4680 C   0  0  0  0  0  0  0  0  0  0  0  0
   -8.2620    0.2080  -79.9050 C   0  0  0  0  0  0  0  0  0  0  0  0
   -9.0530    1.3040  -82.3120 C   0  0  0  0  0  0  0  0  0  0  0  0
   -9.0810   -0.4940  -80.7610 C   0  0  0  0  0  0  0  0  0  0  0  0
   -7.8710   -0.3120  -78.7390 O   0  0  0  0  0  0  0  0  0  0  0  0
   -9.4820    0.0280  -81.9500 C   0  0  0  0  0  0  0  0  0  0  0  0
   -8.8460   -1.1260  -78.1090 C   0  0  0  0  0  0  0  0  0  0  0  0
   -8.1320   -1.9480  -77.0790 C   0  0  1  0  0  0  0  0  0  0  0  0
   -7.5570   -3.1160  -77.6630 O   0  0  0  0  0  0  0  0  0  0  0  0
   -7.1020   -1.1800  -76.5680 C   0  0  0  0  0  0  0  0  0  0  0  0
   -7.7750    0.2610  -75.8600 S   0  0  0  0  0  0  0  0  0  0  0  0
   -9.0630   -0.0810  -75.2830 O   0  0  0  0  0  0  0  0  0  0  0  0
   -6.7090    0.8760  -75.1230 O   0  0  0  0  0  0  0  0  0  0  0  0
   -8.0620    1.4580  -77.1270 C   0  0  0  0  0  0  0  0  0  0  0  0
   -9.2240    2.4460  -77.0020 C   0  0  0  0  0  0  0  0  0  0  0  0
   -9.5020    3.3190  -78.1910 C   0  0  0  0  0  0  0  0  0  0  0  0
  -10.0500    2.6040  -75.8750 C   0  0  0  0  0  0  0  0  0  0  0  0
  -10.5380    4.2320  -78.1500 C   0  0  0  0  0  0  0  0  0  0  0  0
  -11.0890    3.5580  -75.9090 C   0  0  0  0  0  0  0  0  0  0  0  0
  -11.3510    4.3770  -77.0300 C   0  0  0  0  0  0  0  0  0  0  0  0
  1  2  1  0
  2  3  2  0
  2  4  1  0
  3  5  1  0
  4  6  2  0
  4  7  1  0
  5  8  2  0
  6  8  1  0
  7  9  1  0
  9 10  1  0
 10 11  1  6
 10 12  1  0
 13 12  1  0
 13 14  2  0
 13 15  2  0
 13 16  1  0
 16 17  1  0
 17 18  2  0
 17 19  1  0
 18 20  1  0
 19 21  2  0
 20 22  2  0
 21 22  1  0
M  END
>  <ref_url>  (921) 
https://fakepage.com

>  <submitter_name>  (921) 
Steph Wills

>  <submitter_email>  (921) 
stephanie.wills@dtc.ox.ac.uk

>  <submitter_institution>  (921) 
University of Oxford

>  <generation_date>  (921) 
2020-06-04

>  <method>  (921) 
Fragment network

>  <ref_mols>  (921) 
x0034_0B,x0212_0B

>  <ref_pdb>  (921) 
references/x0034-0B-x0212-0B-136259.holo_minimised_nolig.pdb

>  <original SMILES>  (921) 
Cc1ccccc1OCC(O)CS(=O)(=O)Cc1ccccc1

>  <synthon>  (921) 
[Xe]c1ccccc1

>  <original_name>  (921) 
x0034-0B-x0212-0B-136259

>  <comRMSD_score>  (921) 
0.6512824385892916

>  <IF_score>  (921) 
0.625

>  <SuCOS_score>  (921) 
0.5246849801091904

>  <compound_ID>  (921) 
REAL:Z822341064

$$$$

     RDKit          3D

 22 23  0  0  0  0  0  0  0  0999 V2000
  -12.2970    5.5240  -76.9210 C   0  0  0  0  0  0  0  0  0  0  0  0
  -11.3410    4.3790  -77.0480 C   0  0  0  0  0  0  0  0  0  0  0  0
  -11.1460    3.4650  -76.0060 C   0  0  0  0  0  0  0  0  0  0  0  0
  -10.6310    4.2170  -78.2230 C   0  0  0  0  0  0  0  0  0  0  0  0
  -10.2480    2.3940  -76.1650 C   0  0  0  0  0  0  0  0  0  0  0  0
   -9.7540    3.1660  -78.3760 C   0  0  0  0  0  0  0  0  0  0  0  0
   -9.5330    2.2180  -77.3690 C   0  0  0  0  0  0  0  0  0  0  0  0
   -8.6510    1.2040  -77.6300 O   0  0  0  0  0  0  0  0  0  0  0  0
   -8.7070   -0.0680  -77.0080 C   0  0  0  0  0  0  0  0  0  0  0  0
   -8.2900   -0.1220  -75.5930 C   0  0  0  0  0  0  0  0  0  0  0  0
   -8.8750   -0.7210  -74.6970 O   0  0  0  0  0  0  0  0  0  0  0  0
   -7.0520    0.6890  -75.6150 N   0  0  0  0  0  0  0  0  0  0  0  0
   -6.6090    0.9890  -77.0190 C   0  0  0  0  0  0  0  0  0  0  0  0
   -5.5690    0.2270  -77.4390 O   0  0  0  0  0  0  0  0  0  0  0  0
   -7.2900    1.9870  -77.6770 O   0  0  0  0  0  0  0  0  0  0  0  0
   -6.9830    2.2620  -79.0750 C   0  0  0  0  0  0  0  0  0  0  0  0
   -7.7630    1.4700  -79.9540 C   0  0  0  0  0  0  0  0  0  0  0  0
   -8.1370    0.1750  -79.5700 C   0  0  0  0  0  0  0  0  0  0  0  0
   -8.1690    1.9670  -81.2210 C   0  0  0  0  0  0  0  0  0  0  0  0
   -8.9000   -0.6290  -80.4120 C   0  0  0  0  0  0  0  0  0  0  0  0
   -8.9310    1.1900  -82.0960 C   0  0  0  0  0  0  0  0  0  0  0  0
   -9.3080   -0.0930  -81.7260 C   0  0  0  0  0  0  0  0  0  0  0  0
  1  2  1  0
  2  3  2  0
  2  4  1  0
  3  5  1  0
  4  6  2  0
  5  7  2  0
  6  7  1  0
  7  8  1  0
  8  9  1  0
  9 10  1  0
 10 11  2  0
 10 12  1  0
 12 13  1  0
 13 14  2  0
 13 15  1  0
 15 16  1  0
 16 17  1  0
 17 18  2  0
 17 19  1  0
 18 20  1  0
 19 21  2  0
 20 22  2  0
 21 22  1  0
M  END
>  <ref_url>  (922) 
https://fakepage.com

>  <submitter_name>  (922) 
Steph Wills

>  <submitter_email>  (922) 
stephanie.wills@dtc.ox.ac.uk

>  <submitter_institution>  (922) 
University of Oxford

>  <generation_date>  (922) 
2020-06-04

>  <method>  (922) 
Fragment network

>  <ref_mols>  (922) 
x0034_0B,x0212_0B

>  <ref_pdb>  (922) 
references/x0034-0B-x0212-0B-137784.holo_minimised_nolig.pdb

>  <original SMILES>  (922) 
Cc1ccc(OCC(=O)NC(=O)OCc2ccccc2)cc1

>  <synthon>  (922) 
[Xe]c1ccccc1

>  <original_name>  (922) 
x0034-0B-x0212-0B-137784

>  <comRMSD_score>  (922) 
0.9004442936272771

>  <IF_score>  (922) 
0.5416666666666666

>  <SuCOS_score>  (922) 
0.472626673680375

>  <compound_ID>  (922) 
CHEMSPACE-BB:CSMB00114189526

$$$$

     RDKit          3D

 19 20  0  0  0  0  0  0  0  0999 V2000
   -7.4040    2.4550  -81.8910 F   0  0  0  0  0  0  0  0  0  0  0  0
   -8.1650    1.6220  -81.2080 C   0  0  0  0  0  0  0  0  0  0  0  0
   -7.8990    1.4320  -79.7420 C   0  0  0  0  0  0  0  0  0  0  0  0
   -9.1800    0.9460  -81.8360 C   0  0  0  0  0  0  0  0  0  0  0  0
   -8.8130    0.4700  -78.9750 C   0  0  0  0  0  0  0  0  0  0  0  0
  -10.0380    0.0660  -81.1830 C   0  0  0  0  0  0  0  0  0  0  0  0
   -9.9330   -0.2010  -79.8120 C   0  0  0  0  0  0  0  0  0  0  0  0
  -10.7150   -0.9620  -79.2030 O   0  0  0  0  0  0  0  0  0  0  0  0
  -11.4220   -0.4140  -78.0530 C   0  0  0  0  0  0  0  0  0  0  0  0
  -12.7020    0.4340  -78.3000 C   0  0  0  0  0  0  0  0  0  0  0  0
  -12.3340    1.8770  -77.8610 C   0  0  0  0  0  0  0  0  0  0  0  0
  -13.1910    2.7970  -77.9890 O   0  0  0  0  0  0  0  0  0  0  0  0
  -12.6460    4.0370  -77.6620 C   0  0  0  0  0  0  0  0  0  0  0  0
  -11.2440    3.6880  -77.3200 C   0  0  0  0  0  0  0  0  0  0  0  0
  -10.9680    3.1010  -76.0870 C   0  0  0  0  0  0  0  0  0  0  0  0
  -10.1890    3.8920  -78.2190 C   0  0  0  0  0  0  0  0  0  0  0  0
   -9.6980    2.6940  -75.7580 C   0  0  0  0  0  0  0  0  0  0  0  0
   -8.9110    3.4750  -77.8620 C   0  0  0  0  0  0  0  0  0  0  0  0
   -8.6480    2.8720  -76.6430 C   0  0  0  0  0  0  0  0  0  0  0  0
  1  2  1  0
  2  3  2  0
  2  4  1  0
  3  5  1  0
  4  6  2  0
  5  7  2  0
  6  7  1  0
  7  8  1  0
  8  9  1  0
  9 10  1  0
 10 11  1  0
 11 12  1  0
 12 13  1  0
 13 14  1  0
 14 15  2  0
 14 16  1  0
 15 17  1  0
 16 18  2  0
 17 19  2  0
 18 19  1  0
M  END
>  <ref_url>  (923) 
https://fakepage.com

>  <submitter_name>  (923) 
Steph Wills

>  <submitter_email>  (923) 
stephanie.wills@dtc.ox.ac.uk

>  <submitter_institution>  (923) 
University of Oxford

>  <generation_date>  (923) 
2020-06-04

>  <method>  (923) 
Fragment network

>  <ref_mols>  (923) 
x0034_0B,x0212_0B

>  <ref_pdb>  (923) 
references/x0034-0B-x0212-0B-140375.holo_minimised_nolig.pdb

>  <original SMILES>  (923) 
Fc1ccc(OCCCOCc2ccccc2)cc1

>  <synthon>  (923) 
[Xe]c1ccccc1

>  <original_name>  (923) 
x0034-0B-x0212-0B-140375

>  <comRMSD_score>  (923) 
0.8189926230844007

>  <IF_score>  (923) 
0.5

>  <SuCOS_score>  (923) 
0.3525764987783808

>  <compound_ID>  (923) 
CHEMSPACE-BB:CSMB00013374835

$$$$

     RDKit          3D

 21 22  0  0  0  0  0  0  0  0999 V2000
   -9.0440   -2.8810  -77.3250 C   0  0  0  0  0  0  0  0  0  0  0  0
   -9.2430   -1.7430  -78.2960 C   0  0  2  0  0  0  0  0  0  0  0  0
   -9.5050   -0.4850  -77.6680 C   0  0  0  0  0  0  0  0  0  0  0  0
  -10.3110   -2.1690  -79.3940 C   0  0  0  0  0  0  0  0  0  0  0  0
   -8.2760   -0.0920  -76.3380 S   0  0  0  0  0  0  0  0  0  0  0  0
  -11.4160   -3.0170  -79.0630 O   0  0  0  0  0  0  0  0  0  0  0  0
  -10.0780   -1.6660  -80.6950 N   0  0  0  0  0  0  0  0  0  0  0  0
   -7.8800    1.6440  -76.6140 C   0  0  0  0  0  0  0  0  0  0  0  0
   -9.2590   -0.4810  -80.6680 C   0  0  0  0  0  0  0  0  0  0  0  0
   -8.9870    2.4840  -76.7540 C   0  0  0  0  0  0  0  0  0  0  0  0
   -8.3020   -0.4080  -79.5280 C   0  0  0  0  0  0  0  0  0  0  0  0
   -9.2500    0.6160  -81.5670 C   0  0  0  0  0  0  0  0  0  0  0  0
  -10.0080    2.5970  -75.6880 C   0  0  0  0  0  0  0  0  0  0  0  0
   -9.1680    3.2590  -77.9120 C   0  0  0  0  0  0  0  0  0  0  0  0
   -7.4600    0.6330  -79.3120 C   0  0  0  0  0  0  0  0  0  0  0  0
   -8.3830    1.7070  -81.3520 C   0  0  0  0  0  0  0  0  0  0  0  0
  -11.1110    3.4450  -75.8270 C   0  0  0  0  0  0  0  0  0  0  0  0
  -10.2540    4.1180  -78.0980 C   0  0  0  0  0  0  0  0  0  0  0  0
   -7.4880    1.7980  -80.2830 C   0  0  0  0  0  0  0  0  0  0  0  0
   -8.3910    2.7360  -82.2030 F   0  0  0  0  0  0  0  0  0  0  0  0
  -11.2280    4.2450  -77.1140 C   0  0  0  0  0  0  0  0  0  0  0  0
  2  1  1  1
  2  3  1  0
  2  4  1  0
  3  5  1  0
  4  6  2  0
  4  7  1  0
  5  8  1  0
  7  9  1  0
  8 10  1  0
  9 11  2  0
  9 12  1  0
 10 13  2  0
 10 14  1  0
 11 15  1  0
 12 16  2  0
 13 17  1  0
 14 18  2  0
 15 19  2  0
 16 19  1  0
 16 20  1  0
 17 21  2  0
 18 21  1  0
M  END
>  <ref_url>  (924) 
https://fakepage.com

>  <submitter_name>  (924) 
Steph Wills

>  <submitter_email>  (924) 
stephanie.wills@dtc.ox.ac.uk

>  <submitter_institution>  (924) 
University of Oxford

>  <generation_date>  (924) 
2020-06-04

>  <method>  (924) 
Fragment network

>  <ref_mols>  (924) 
x0034_0B,x0212_0B

>  <ref_pdb>  (924) 
references/x0034-0B-x0212-0B-145025.holo_minimised_nolig.pdb

>  <original SMILES>  (924) 
CC(CSCc1ccccc1)C(=O)Nc1cccc(F)c1

>  <synthon>  (924) 
[Xe]c1ccccc1

>  <original_name>  (924) 
x0034-0B-x0212-0B-145025

>  <comRMSD_score>  (924) 
0.8483120713336401

>  <IF_score>  (924) 
0.5

>  <SuCOS_score>  (924) 
0.4760034734520538

>  <compound_ID>  (924) 
REAL:PV-001791922042

$$$$

     RDKit          3D

 23 24  0  0  0  0  0  0  0  0999 V2000
  -12.4420    5.5700  -77.5870 C   0  0  0  0  0  0  0  0  0  0  0  0
  -11.5070    4.4650  -77.2150 C   0  0  0  0  0  0  0  0  0  0  0  0
  -10.6190    3.9530  -78.1630 C   0  0  0  0  0  0  0  0  0  0  0  0
  -11.5140    3.9360  -75.9210 C   0  0  0  0  0  0  0  0  0  0  0  0
   -9.7510    2.9190  -77.8190 C   0  0  0  0  0  0  0  0  0  0  0  0
  -10.6510    2.9180  -75.5880 C   0  0  0  0  0  0  0  0  0  0  0  0
   -9.7740    2.4080  -76.5230 C   0  0  0  0  0  0  0  0  0  0  0  0
   -8.8970    1.3320  -76.0550 C   0  0  0  0  0  0  0  0  0  0  0  0
   -9.2290    0.1650  -76.0380 O   0  0  0  0  0  0  0  0  0  0  0  0
   -7.7650    1.8690  -75.6330 O   0  0  0  0  0  0  0  0  0  0  0  0
   -6.6010    2.0760  -76.4290 C   0  0  0  0  0  0  0  0  0  0  0  0
   -6.1550    3.5190  -76.6430 C   0  0  0  0  0  0  0  0  0  0  0  0
   -5.5820    4.1450  -75.5750 O   0  0  0  0  0  0  0  0  0  0  0  0
   -6.4200    4.0020  -77.8930 N   0  0  0  0  0  0  0  0  0  0  0  0
   -7.3310    3.2300  -78.5620 N   0  0  0  0  0  0  0  0  0  0  0  0
   -6.7940    2.2750  -79.5010 C   0  0  0  0  0  0  0  0  0  0  0  0
   -5.4880    2.0580  -79.8230 O   0  0  0  0  0  0  0  0  0  0  0  0
   -7.6960    1.4580  -80.1900 C   0  0  0  0  0  0  0  0  0  0  0  0
   -8.1000    0.2330  -79.6370 C   0  0  0  0  0  0  0  0  0  0  0  0
   -8.1850    1.8690  -81.4380 C   0  0  0  0  0  0  0  0  0  0  0  0
   -8.9850   -0.5900  -80.3300 C   0  0  0  0  0  0  0  0  0  0  0  0
   -9.0650    1.0800  -82.1630 C   0  0  0  0  0  0  0  0  0  0  0  0
   -9.4820   -0.1410  -81.6540 C   0  0  0  0  0  0  0  0  0  0  0  0
  1  2  1  0
  2  3  2  0
  2  4  1  0
  3  5  1  0
  4  6  2  0
  5  7  2  0
  6  7  1  0
  7  8  1  0
  8  9  2  0
  8 10  1  0
 10 11  1  0
 11 12  1  0
 12 13  2  0
 12 14  1  0
 14 15  1  0
 15 16  1  0
 16 17  2  0
 16 18  1  0
 18 19  2  0
 18 20  1  0
 19 21  1  0
 20 22  2  0
 21 23  2  0
 22 23  1  0
M  END
>  <ref_url>  (925) 
https://fakepage.com

>  <submitter_name>  (925) 
Steph Wills

>  <submitter_email>  (925) 
stephanie.wills@dtc.ox.ac.uk

>  <submitter_institution>  (925) 
University of Oxford

>  <generation_date>  (925) 
2020-06-04

>  <method>  (925) 
Fragment network

>  <ref_mols>  (925) 
x0034_0B,x0212_0B

>  <ref_pdb>  (925) 
references/x0034-0B-x0212-0B-145144.holo_minimised_nolig.pdb

>  <original SMILES>  (925) 
Cc1ccc(C(=O)OCC(=O)NNC(=O)c2ccccc2)cc1

>  <synthon>  (925) 
[Xe]c1ccccc1

>  <original_name>  (925) 
x0034-0B-x0212-0B-145144

>  <comRMSD_score>  (925) 
0.8546214834650477

>  <IF_score>  (925) 
0.5416666666666666

>  <SuCOS_score>  (925) 
0.4939258476172935

>  <compound_ID>  (925) 
MOLPORT:009-240-675

$$$$

     RDKit          3D

 24 25  0  0  0  0  0  0  0  0999 V2000
   -8.8250    3.9710  -78.9200 C   0  0  0  0  0  0  0  0  0  0  0  0
   -8.1090    3.5680  -77.6240 C   0  0  0  0  0  0  0  0  0  0  0  0
   -7.2560    2.4360  -77.8220 N   0  0  0  0  0  0  0  0  0  0  0  0
   -6.7940    2.2120  -79.1020 C   0  0  0  0  0  0  0  0  0  0  0  0
   -6.6460    1.9290  -76.5990 C   0  0  0  0  0  0  0  0  0  0  0  0
   -7.7250    1.3920  -80.0110 C   0  0  0  0  0  0  0  0  0  0  0  0
   -5.4610    1.6630  -76.4120 O   0  0  0  0  0  0  0  0  0  0  0  0
   -7.4890    1.7190  -75.4940 C   0  0  2  0  0  0  0  0  0  0  0  0
   -8.1920    0.0610  -79.6250 C   0  0  0  0  0  0  0  0  0  0  0  0
   -8.1710    1.8900  -81.2520 C   0  0  0  0  0  0  0  0  0  0  0  0
   -6.7880    1.6090  -74.2880 C   0  0  0  0  0  0  0  0  0  0  0  0
   -8.3520    0.1620  -75.8580 S   0  0  0  0  0  0  0  0  0  0  0  0
   -9.0950   -0.7720  -80.4590 C   0  0  0  0  0  0  0  0  0  0  0  0
   -9.0250    1.1190  -82.0650 C   0  0  0  0  0  0  0  0  0  0  0  0
   -9.4470   -0.0160  -74.9350 O   0  0  0  0  0  0  0  0  0  0  0  0
   -9.0560    0.6620  -77.4150 C   0  0  0  0  0  0  0  0  0  0  0  0
   -9.5290   -0.1650  -81.7810 C   0  0  0  0  0  0  0  0  0  0  0  0
   -9.8110    1.8390  -77.3060 C   0  0  0  0  0  0  0  0  0  0  0  0
   -9.8560    2.7080  -78.4030 C   0  0  0  0  0  0  0  0  0  0  0  0
  -10.5310    2.1850  -76.1640 C   0  0  0  0  0  0  0  0  0  0  0  0
  -10.6160    3.8950  -78.3680 C   0  0  0  0  0  0  0  0  0  0  0  0
  -11.2790    3.3670  -76.1570 C   0  0  0  0  0  0  0  0  0  0  0  0
  -11.3360    4.2250  -77.2430 C   0  0  0  0  0  0  0  0  0  0  0  0
  -12.0980    5.3820  -77.2050 C   0  0  0  0  0  0  0  0  0  0  0  0
  1  2  1  0
  2  3  1  0
  3  4  1  0
  3  5  1  0
  4  6  1  0
  5  7  2  0
  5  8  1  0
  6  9  2  0
  6 10  1  0
  8 11  1  1
  8 12  1  0
  9 13  1  0
 10 14  2  0
 12 15  1  1
 12 16  1  0
 13 17  2  0
 14 17  1  0
 16 18  1  0
 18 19  2  0
 18 20  1  0
 19 21  1  0
 20 22  2  0
 21 23  2  0
 22 23  1  0
 23 24  1  0
M  CHG  2  12   1  15  -1
M  END
>  <ref_url>  (926) 
https://fakepage.com

>  <submitter_name>  (926) 
Steph Wills

>  <submitter_email>  (926) 
stephanie.wills@dtc.ox.ac.uk

>  <submitter_institution>  (926) 
University of Oxford

>  <generation_date>  (926) 
2020-06-04

>  <method>  (926) 
Fragment network

>  <ref_mols>  (926) 
x0034_0B,x0212_0B

>  <ref_pdb>  (926) 
references/x0034-0B-x0212-0B-145342.holo_minimised_nolig.pdb

>  <original SMILES>  (926) 
CCN(Cc1ccccc1)C(=O)C(C)[S+]([O-])Cc1ccc(C)cc1

>  <synthon>  (926) 
[Xe]c1ccccc1

>  <original_name>  (926) 
x0034-0B-x0212-0B-145342

>  <comRMSD_score>  (926) 
0.7344104909590878

>  <IF_score>  (926) 
0.5

>  <SuCOS_score>  (926) 
0.5286309433139

>  <compound_ID>  (926) 
REAL:Z1138006577

$$$$

     RDKit          3D

 23 24  0  0  0  0  0  0  0  0999 V2000
   -8.7830    3.7920  -78.3680 C   0  0  0  0  0  0  0  0  0  0  0  0
   -8.0130    3.0510  -77.3010 C   0  0  0  0  0  0  0  0  0  0  0  0
   -8.1490    3.3010  -76.1000 O   0  0  0  0  0  0  0  0  0  0  0  0
   -7.1140    2.0180  -77.8480 N   0  0  0  0  0  0  0  0  0  0  0  0
   -6.5920    0.9170  -76.9870 C   0  0  0  0  0  0  0  0  0  0  0  0
   -6.8330    2.1160  -79.2590 C   0  0  0  0  0  0  0  0  0  0  0  0
   -7.4550   -0.2170  -76.9160 C   0  0  0  0  0  0  0  0  0  0  0  0
   -7.7460    1.3450  -80.1630 C   0  0  0  0  0  0  0  0  0  0  0  0
   -8.6570    0.0970  -76.3050 C   0  0  0  0  0  0  0  0  0  0  0  0
   -8.1830    0.0850  -79.7520 C   0  0  0  0  0  0  0  0  0  0  0  0
   -8.1630    1.8530  -81.3980 C   0  0  0  0  0  0  0  0  0  0  0  0
   -9.6520   -0.9430  -76.2640 O   0  0  0  0  0  0  0  0  0  0  0  0
   -8.6250    1.4500  -75.8000 N   0  0  0  0  0  0  0  0  0  0  0  0
   -9.0200   -0.6750  -80.5570 C   0  0  0  0  0  0  0  0  0  0  0  0
   -8.9990    1.0880  -82.2030 C   0  0  0  0  0  0  0  0  0  0  0  0
   -9.6580    2.3810  -76.2570 C   0  0  0  0  0  0  0  0  0  0  0  0
   -9.4210   -0.1700  -81.7800 C   0  0  0  0  0  0  0  0  0  0  0  0
   -9.6420    2.7730  -77.7400 C   0  0  0  0  0  0  0  0  0  0  0  0
  -10.6030    2.9180  -75.4110 C   0  0  0  0  0  0  0  0  0  0  0  0
  -10.6970    3.7780  -78.1510 C   0  0  0  0  0  0  0  0  0  0  0  0
  -11.5550    3.8360  -75.8410 C   0  0  0  0  0  0  0  0  0  0  0  0
  -11.6850    4.3300  -77.1530 C   0  0  0  0  0  0  0  0  0  0  0  0
  -12.6390    5.2610  -77.5520 C   0  0  0  0  0  0  0  0  0  0  0  0
  1  2  1  0
  2  3  2  0
  2  4  1  0
  4  5  1  0
  4  6  1  0
  5  7  1  0
  6  8  1  0
  7  9  1  0
  8 10  2  0
  8 11  1  0
  9 12  2  0
  9 13  1  0
 10 14  1  0
 11 15  2  0
 13 16  1  0
 14 17  2  0
 15 17  1  0
 16 18  2  0
 16 19  1  0
 18 20  1  0
 19 21  2  0
 20 22  2  0
 21 22  1  0
 22 23  1  0
M  END
>  <ref_url>  (927) 
https://fakepage.com

>  <submitter_name>  (927) 
Steph Wills

>  <submitter_email>  (927) 
stephanie.wills@dtc.ox.ac.uk

>  <submitter_institution>  (927) 
University of Oxford

>  <generation_date>  (927) 
2020-06-04

>  <method>  (927) 
Fragment network

>  <ref_mols>  (927) 
x0034_0B,x0212_0B

>  <ref_pdb>  (927) 
references/x0034-0B-x0212-0B-145581.holo_minimised_nolig.pdb

>  <original SMILES>  (927) 
CC(=O)N(CCC(=O)Nc1ccc(C)cc1)Cc1ccccc1

>  <synthon>  (927) 
[Xe]c1ccccc1

>  <original_name>  (927) 
x0034-0B-x0212-0B-145581

>  <comRMSD_score>  (927) 
0.7201897640874214

>  <IF_score>  (927) 
0.7083333333333333

>  <SuCOS_score>  (927) 
0.5273160907371902

>  <compound_ID>  (927) 
REAL:Z1013906780

$$$$

     RDKit          3D

 17 18  0  0  0  0  0  0  0  0999 V2000
  -12.0560    3.8100  -74.7660 F   0  0  0  0  0  0  0  0  0  0  0  0
  -11.2730    3.5920  -75.8240 C   0  0  0  0  0  0  0  0  0  0  0  0
  -11.4760    4.4400  -77.0730 C   0  0  0  0  0  0  0  0  0  0  0  0
  -10.3060    2.6010  -75.7480 C   0  0  0  0  0  0  0  0  0  0  0  0
  -10.5690    4.1750  -78.2780 C   0  0  0  0  0  0  0  0  0  0  0  0
   -9.4620    2.3270  -76.8240 C   0  0  0  0  0  0  0  0  0  0  0  0
   -9.5590    3.0490  -78.0360 C   0  0  0  0  0  0  0  0  0  0  0  0
   -8.4420    1.2150  -76.6220 C   0  0  0  0  0  0  0  0  0  0  0  0
   -7.1920    1.3360  -77.2140 N   0  0  0  0  0  0  0  0  0  0  0  0
   -7.1350    2.5840  -77.9320 N   0  0  0  0  0  0  0  0  0  0  0  0
   -6.8890    2.5920  -79.2230 C   0  0  0  0  0  0  0  0  0  0  0  0
   -7.7170    1.6330  -80.1160 C   0  0  0  0  0  0  0  0  0  0  0  0
   -8.0510    0.2680  -79.5790 C   0  0  0  0  0  0  0  0  0  0  0  0
   -8.1610    1.9650  -81.3920 C   0  0  0  0  0  0  0  0  0  0  0  0
   -8.7880   -0.6090  -80.3910 C   0  0  0  0  0  0  0  0  0  0  0  0
   -8.8860    1.0690  -82.1650 C   0  0  0  0  0  0  0  0  0  0  0  0
   -9.1990   -0.2080  -81.6770 C   0  0  0  0  0  0  0  0  0  0  0  0
  1  2  1  0
  2  3  2  0
  2  4  1  0
  3  5  1  0
  4  6  2  0
  5  7  2  0
  6  7  1  0
  6  8  1  0
  8  9  2  3
  9 10  1  0
 10 11  1  0
 11 12  1  0
 12 13  2  0
 12 14  1  0
 13 15  1  0
 14 16  2  0
 15 17  2  0
 16 17  1  0
M  END
>  <ref_url>  (928) 
https://fakepage.com

>  <submitter_name>  (928) 
Steph Wills

>  <submitter_email>  (928) 
stephanie.wills@dtc.ox.ac.uk

>  <submitter_institution>  (928) 
University of Oxford

>  <generation_date>  (928) 
2020-06-04

>  <method>  (928) 
Fragment network

>  <ref_mols>  (928) 
x0034_0B,x0212_0B

>  <ref_pdb>  (928) 
references/x0034-0B-x0212-0B-149453.holo_minimised_nolig.pdb

>  <original SMILES>  (928) 
Fc1cccc(C=NNCc2ccccc2)c1

>  <synthon>  (928) 
[Xe]c1ccccc1

>  <original_name>  (928) 
x0034-0B-x0212-0B-149453

>  <comRMSD_score>  (928) 
0.6810986529130708

>  <IF_score>  (928) 
0.5416666666666666

>  <SuCOS_score>  (928) 
0.4983480833433027

>  <compound_ID>  (928) 
CHEMSPACE-BB:CSMB00103421471

$$$$

     RDKit          3D

 23 24  0  0  0  0  0  0  0  0999 V2000
  -12.3390    5.5990  -76.9320 C   0  0  0  0  0  0  0  0  0  0  0  0
  -11.2310    4.5510  -76.7860 C   0  0  0  0  0  0  0  0  0  0  0  0
  -11.3270    3.6260  -75.5650 C   0  0  0  0  0  0  0  0  0  0  0  0
  -10.1910    4.4300  -77.7010 C   0  0  0  0  0  0  0  0  0  0  0  0
  -10.1800    2.6100  -75.5020 C   0  0  0  0  0  0  0  0  0  0  0  0
   -9.1770    3.4890  -77.5790 C   0  0  0  0  0  0  0  0  0  0  0  0
   -9.1170    2.5740  -76.5290 C   0  0  0  0  0  0  0  0  0  0  0  0
   -7.9610    1.6020  -76.5110 C   0  0  0  0  0  0  0  0  0  0  0  0
   -8.3860    0.1570  -76.2390 C   0  0  0  0  0  0  0  0  0  0  0  0
   -7.4070   -0.7410  -76.1620 N   0  0  0  0  0  0  0  0  0  0  0  0
   -7.7230   -2.1330  -76.4390 C   0  0  0  0  0  0  0  0  0  0  0  0
   -6.1530   -0.2630  -76.6020 C   0  0  2  0  0  0  0  0  0  0  0  0
   -5.5460    0.6900  -75.7750 C   0  0  0  0  0  0  0  0  0  0  0  0
   -6.1660    0.2500  -78.0570 C   0  0  0  0  0  0  0  0  0  0  0  0
   -6.4600    1.5910  -78.2010 N   0  0  0  0  0  0  0  0  0  0  0  0
   -6.9510    2.2760  -79.2850 C   0  0  0  0  0  0  0  0  0  0  0  0
   -6.5680    3.6080  -79.6380 O   0  0  0  0  0  0  0  0  0  0  0  0
   -7.9260    1.4970  -80.1070 C   0  0  0  0  0  0  0  0  0  0  0  0
   -8.2910    1.9780  -81.3740 C   0  0  0  0  0  0  0  0  0  0  0  0
   -8.4570    0.2920  -79.5980 C   0  0  0  0  0  0  0  0  0  0  0  0
   -9.1970    1.2680  -82.1770 C   0  0  0  0  0  0  0  0  0  0  0  0
   -9.3530   -0.4370  -80.3530 C   0  0  0  0  0  0  0  0  0  0  0  0
   -9.7390    0.0720  -81.7020 C   0  0  0  0  0  0  0  0  0  0  0  0
  1  2  1  0
  2  3  2  0
  2  4  1  0
  3  5  1  0
  4  6  2  0
  5  7  2  0
  6  7  1  0
  7  8  1  0
  8  9  1  0
  9 10  1  0
 10 11  1  0
 10 12  1  0
 12 13  1  1
 12 14  1  0
 14 15  1  0
 15 16  1  0
 16 17  2  0
 16 18  1  0
 18 19  2  0
 18 20  1  0
 19 21  1  0
 20 22  2  0
 21 23  2  0
 22 23  1  0
M  END
>  <ref_url>  (929) 
https://fakepage.com

>  <submitter_name>  (929) 
Steph Wills

>  <submitter_email>  (929) 
stephanie.wills@dtc.ox.ac.uk

>  <submitter_institution>  (929) 
University of Oxford

>  <generation_date>  (929) 
2020-06-04

>  <method>  (929) 
Fragment network

>  <ref_mols>  (929) 
x0034_0B,x0212_0B

>  <ref_pdb>  (929) 
references/x0034-0B-x0212-0B-154513.holo_minimised_nolig.pdb

>  <original SMILES>  (929) 
Cc1ccc(CCN(C)C(C)CNC(=O)c2ccccc2)cc1

>  <synthon>  (929) 
[Xe]c1ccccc1

>  <original_name>  (929) 
x0034-0B-x0212-0B-154513

>  <comRMSD_score>  (929) 
0.8214656504168718

>  <IF_score>  (929) 
0.75

>  <SuCOS_score>  (929) 
0.5781069223692483

>  <compound_ID>  (929) 
REAL:PV-000984783919

$$$$

     RDKit          3D

 22 23  0  0  0  0  0  0  0  0999 V2000
   -6.3420   -0.9740  -77.4080 C   0  0  0  0  0  0  0  0  0  0  0  0
   -7.7450   -1.5960  -77.3150 C   0  0  2  0  0  0  0  0  0  0  0  0
   -8.1350   -2.4040  -78.6440 C   0  0  0  0  0  0  0  0  0  0  0  0
   -8.9560   -0.3510  -76.7980 S   0  0  0  0  0  0  0  0  0  0  0  0
   -7.5780   -3.7110  -78.7320 O   0  0  0  0  0  0  0  0  0  0  0  0
   -9.0440   -1.8120  -79.7250 N   0  0  0  0  0  0  0  0  0  0  0  0
   -9.8500   -0.2560  -77.9160 O   0  0  0  0  0  0  0  0  0  0  0  0
   -9.4310   -0.7320  -75.4880 O   0  0  0  0  0  0  0  0  0  0  0  0
   -8.2280    1.2800  -76.6260 C   0  0  0  0  0  0  0  0  0  0  0  0
   -8.6820   -0.5460  -80.1330 C   0  0  0  0  0  0  0  0  0  0  0  0
   -9.2020    2.2920  -76.7770 C   0  0  0  0  0  0  0  0  0  0  0  0
   -7.8830    0.0540  -79.0940 C   0  0  0  0  0  0  0  0  0  0  0  0
   -8.9650    0.1660  -81.3230 C   0  0  0  0  0  0  0  0  0  0  0  0
   -9.2870    3.0620  -77.9460 C   0  0  0  0  0  0  0  0  0  0  0  0
  -10.1260    2.5500  -75.7490 C   0  0  0  0  0  0  0  0  0  0  0  0
   -7.3440    1.4190  -79.2290 C   0  0  0  0  0  0  0  0  0  0  0  0
   -8.4680    1.4710  -81.4960 C   0  0  0  0  0  0  0  0  0  0  0  0
  -10.3420    4.1170  -78.0780 C   0  0  0  0  0  0  0  0  0  0  0  0
  -11.1160    3.5400  -75.8700 C   0  0  0  0  0  0  0  0  0  0  0  0
   -7.7010    2.0900  -80.5180 C   0  0  0  0  0  0  0  0  0  0  0  0
   -8.7210    2.1450  -82.5990 F   0  0  0  0  0  0  0  0  0  0  0  0
  -11.2280    4.3190  -77.0290 C   0  0  0  0  0  0  0  0  0  0  0  0
  2  1  1  6
  2  3  1  0
  2  4  1  0
  3  5  2  0
  3  6  1  0
  4  7  2  0
  4  8  2  0
  4  9  1  0
  6 10  1  0
  9 11  1  0
 10 12  2  0
 10 13  1  0
 11 14  2  0
 11 15  1  0
 12 16  1  0
 13 17  2  0
 14 18  1  0
 15 19  2  0
 16 20  2  0
 17 20  1  0
 17 21  1  0
 18 22  2  0
 19 22  1  0
M  END
>  <ref_url>  (930) 
https://fakepage.com

>  <submitter_name>  (930) 
Steph Wills

>  <submitter_email>  (930) 
stephanie.wills@dtc.ox.ac.uk

>  <submitter_institution>  (930) 
University of Oxford

>  <generation_date>  (930) 
2020-06-04

>  <method>  (930) 
Fragment network

>  <ref_mols>  (930) 
x0034_0B,x0212_0B

>  <ref_pdb>  (930) 
references/x0034-0B-x0212-0B-155428.holo_minimised_nolig.pdb

>  <original SMILES>  (930) 
CC(C(=O)Nc1cccc(F)c1)S(=O)(=O)Cc1ccccc1

>  <synthon>  (930) 
[Xe]c1ccccc1

>  <original_name>  (930) 
x0034-0B-x0212-0B-155428

>  <comRMSD_score>  (930) 
0.9832549686288568

>  <IF_score>  (930) 
0.25

>  <SuCOS_score>  (930) 
0.4838861500907218

>  <compound_ID>  (930) 
REAL:Z339635220

$$$$

     RDKit          3D

 24 25  0  0  0  0  0  0  0  0999 V2000
   -9.2590    4.0170  -78.5200 C   0  0  0  0  0  0  0  0  0  0  0  0
   -8.1710    3.4840  -77.6340 C   0  0  0  0  0  0  0  0  0  0  0  0
   -7.2540    2.7080  -78.4350 N   0  0  0  0  0  0  0  0  0  0  0  0
   -7.2380    2.7380  -79.7600 C   0  0  0  0  0  0  0  0  0  0  0  0
   -6.3470    1.8830  -77.7390 C   0  0  0  0  0  0  0  0  0  0  0  0
   -7.9020    1.7050  -80.3920 C   0  0  0  0  0  0  0  0  0  0  0  0
   -5.1760    1.6590  -78.0430 O   0  0  0  0  0  0  0  0  0  0  0  0
   -6.8810    1.2890  -76.6320 C   0  0  2  0  0  0  0  0  0  0  0  0
   -8.1400    0.3660  -79.7650 C   0  0  0  0  0  0  0  0  0  0  0  0
   -8.3780    1.8960  -81.6620 C   0  0  0  0  0  0  0  0  0  0  0  0
   -5.9970    0.8370  -75.6940 C   0  0  0  0  0  0  0  0  0  0  0  0
   -8.0150   -0.0000  -77.0530 S   0  0  0  0  0  0  0  0  0  0  0  0
   -8.8710   -0.6890  -80.5260 C   0  0  0  0  0  0  0  0  0  0  0  0
   -9.0550    0.9030  -82.3540 C   0  0  0  0  0  0  0  0  0  0  0  0
   -7.5390   -1.2170  -76.4310 O   0  0  0  0  0  0  0  0  0  0  0  0
   -9.2610    0.6990  -75.9770 C   0  0  0  0  0  0  0  0  0  0  0  0
   -9.3620   -0.3890  -81.9280 C   0  0  0  0  0  0  0  0  0  0  0  0
   -9.9390    1.8620  -76.3650 C   0  0  0  0  0  0  0  0  0  0  0  0
   -9.9030    2.3880  -77.6720 C   0  0  0  0  0  0  0  0  0  0  0  0
  -10.6940    2.5280  -75.4050 C   0  0  0  0  0  0  0  0  0  0  0  0
  -10.6240    3.5600  -77.9820 C   0  0  0  0  0  0  0  0  0  0  0  0
  -11.4040    3.6810  -75.7170 C   0  0  0  0  0  0  0  0  0  0  0  0
  -11.3740    4.2010  -77.0010 C   0  0  0  0  0  0  0  0  0  0  0  0
  -12.1210    4.2860  -74.7670 F   0  0  0  0  0  0  0  0  0  0  0  0
  1  2  1  0
  2  3  1  0
  3  4  1  0
  3  5  1  0
  4  6  1  0
  5  7  2  0
  5  8  1  0
  6  9  2  0
  6 10  1  0
  8 11  1  1
  8 12  1  0
  9 13  1  0
 10 14  2  0
 12 15  1  1
 12 16  1  0
 13 17  2  0
 14 17  1  0
 16 18  1  0
 18 19  2  0
 18 20  1  0
 19 21  1  0
 20 22  2  0
 21 23  2  0
 22 23  1  0
 22 24  1  0
M  CHG  2  12   1  15  -1
M  END
>  <ref_url>  (931) 
https://fakepage.com

>  <submitter_name>  (931) 
Steph Wills

>  <submitter_email>  (931) 
stephanie.wills@dtc.ox.ac.uk

>  <submitter_institution>  (931) 
University of Oxford

>  <generation_date>  (931) 
2020-06-04

>  <method>  (931) 
Fragment network

>  <ref_mols>  (931) 
x0034_0B,x0212_0B

>  <ref_pdb>  (931) 
references/x0034-0B-x0212-0B-156005.holo_minimised_nolig.pdb

>  <original SMILES>  (931) 
CCN(Cc1ccccc1)C(=O)C(C)[S+]([O-])Cc1cccc(F)c1

>  <synthon>  (931) 
[Xe]c1ccccc1

>  <original_name>  (931) 
x0034-0B-x0212-0B-156005

>  <comRMSD_score>  (931) 
0.9713101308904226

>  <IF_score>  (931) 
0.5416666666666666

>  <SuCOS_score>  (931) 
0.50783046618868

>  <compound_ID>  (931) 
REAL:Z1138000308

$$$$

     RDKit          3D

 26 27  0  0  0  0  0  0  0  0999 V2000
  -12.4060    4.9510  -77.9810 C   0  0  0  0  0  0  0  0  0  0  0  0
  -11.1840    4.1820  -77.4800 C   0  0  0  0  0  0  0  0  0  0  0  0
  -11.4240    3.3530  -76.2230 C   0  0  0  0  0  0  0  0  0  0  0  0
   -9.9310    4.2200  -78.1020 C   0  0  0  0  0  0  0  0  0  0  0  0
  -10.1740    2.6120  -75.7430 C   0  0  0  0  0  0  0  0  0  0  0  0
   -8.8170    3.5190  -77.6050 C   0  0  0  0  0  0  0  0  0  0  0  0
   -8.8870    2.7220  -76.4450 C   0  0  0  0  0  0  0  0  0  0  0  0
   -7.4880    1.8250  -75.7610 S   0  0  0  0  0  0  0  0  0  0  0  0
   -7.1520    2.3740  -74.4710 O   0  0  0  0  0  0  0  0  0  0  0  0
   -6.4560    1.6960  -76.7650 O   0  0  0  0  0  0  0  0  0  0  0  0
   -8.1440    0.3050  -75.4860 N   0  0  0  0  0  0  0  0  0  0  0  0
   -9.3230   -0.0300  -76.2370 C   0  0  1  0  0  0  0  0  0  0  0  0
   -8.9910   -0.1120  -77.7210 C   0  0  0  0  0  0  0  0  0  0  0  0
   -9.8560   -1.3720  -75.7320 C   0  0  0  0  0  0  0  0  0  0  0  0
   -9.9670   -0.6190  -78.6190 O   0  0  0  0  0  0  0  0  0  0  0  0
   -7.6040    0.3630  -77.9980 N   0  0  0  0  0  0  0  0  0  0  0  0
   -9.8520   -1.2990  -74.3230 C   0  0  0  0  0  0  0  0  0  0  0  0
   -8.8030   -2.4500  -76.0710 C   0  0  0  0  0  0  0  0  0  0  0  0
   -7.4440    1.7830  -78.0800 O   0  0  0  0  0  0  0  0  0  0  0  0
   -6.9280    2.1070  -79.3680 C   0  0  0  0  0  0  0  0  0  0  0  0
   -7.7870    1.3550  -80.3150 C   0  0  0  0  0  0  0  0  0  0  0  0
   -8.1460    0.0340  -80.0120 C   0  0  0  0  0  0  0  0  0  0  0  0
   -8.2570    1.9240  -81.4970 C   0  0  0  0  0  0  0  0  0  0  0  0
   -8.9520   -0.7150  -80.8410 C   0  0  0  0  0  0  0  0  0  0  0  0
   -9.0660    1.1530  -82.3210 C   0  0  0  0  0  0  0  0  0  0  0  0
   -9.4220   -0.1540  -82.0080 C   0  0  0  0  0  0  0  0  0  0  0  0
  1  2  1  0
  2  3  2  0
  2  4  1  0
  3  5  1  0
  4  6  2  0
  5  7  2  0
  6  7  1  0
  7  8  1  0
  8  9  2  0
  8 10  2  0
  8 11  1  0
 12 11  1  1
 12 13  1  0
 12 14  1  0
 13 15  2  0
 13 16  1  0
 14 17  1  0
 14 18  1  0
 16 19  1  0
 19 20  1  0
 20 21  1  0
 21 22  2  0
 21 23  1  0
 22 24  1  0
 23 25  2  0
 24 26  2  0
 25 26  1  0
M  END
>  <ref_url>  (932) 
https://fakepage.com

>  <submitter_name>  (932) 
Steph Wills

>  <submitter_email>  (932) 
stephanie.wills@dtc.ox.ac.uk

>  <submitter_institution>  (932) 
University of Oxford

>  <generation_date>  (932) 
2020-06-04

>  <method>  (932) 
Fragment network

>  <ref_mols>  (932) 
x0034_0B,x0212_0B

>  <ref_pdb>  (932) 
references/x0034-0B-x0212-0B-156602.holo_minimised_nolig.pdb

>  <original SMILES>  (932) 
Cc1ccc(S(=O)(=O)NC(C(=O)NOCc2ccccc2)C(C)C)cc1

>  <synthon>  (932) 
[Xe]c1ccccc1

>  <original_name>  (932) 
x0034-0B-x0212-0B-156602

>  <comRMSD_score>  (932) 
0.7533396509076298

>  <IF_score>  (932) 
0.625

>  <SuCOS_score>  (932) 
0.5194998854991739

>  <compound_ID>  (932) 
MOLPORT:009-092-100

$$$$

     RDKit          3D

 25 26  0  0  0  0  0  0  0  0999 V2000
  -11.1180    4.9460  -78.6520 C   0  0  0  0  0  0  0  0  0  0  0  0
  -10.8380    4.0900  -77.5300 C   0  0  0  0  0  0  0  0  0  0  0  0
  -11.7030    4.1780  -76.4760 C   0  0  0  0  0  0  0  0  0  0  0  0
   -9.7650    3.2250  -77.4980 C   0  0  0  0  0  0  0  0  0  0  0  0
  -11.5110    3.3890  -75.3620 C   0  0  0  0  0  0  0  0  0  0  0  0
   -9.5610    2.4270  -76.3810 C   0  0  0  0  0  0  0  0  0  0  0  0
  -10.4360    2.5070  -75.3170 C   0  0  0  0  0  0  0  0  0  0  0  0
   -8.3710    1.4920  -76.3640 C   0  0  0  0  0  0  0  0  0  0  0  0
   -8.5990    0.0330  -76.0170 C   0  0  0  0  0  0  0  0  0  0  0  0
   -9.8770   -0.3030  -75.4530 O   0  0  0  0  0  0  0  0  0  0  0  0
   -7.5090   -0.7310  -76.3160 N   0  0  0  0  0  0  0  0  0  0  0  0
   -6.6890   -0.1610  -77.3860 C   0  0  1  0  0  0  0  0  0  0  0  0
   -6.4120    1.2010  -77.0970 C   0  0  0  0  0  0  0  0  0  0  0  0
   -5.4370   -1.0350  -77.6420 C   0  0  0  0  0  0  0  0  0  0  0  0
   -7.1340    2.1090  -77.8810 N   0  0  0  0  0  0  0  0  0  0  0  0
   -4.9300   -1.4950  -76.4310 C   0  0  0  0  0  0  0  0  0  0  0  0
   -5.7700   -2.2880  -78.4580 C   0  0  0  0  0  0  0  0  0  0  0  0
   -7.0140    2.3020  -79.2370 C   0  0  0  0  0  0  0  0  0  0  0  0
   -6.1890    3.2250  -79.9530 O   0  0  0  0  0  0  0  0  0  0  0  0
   -7.7880    1.5090  -80.0700 C   0  0  0  0  0  0  0  0  0  0  0  0
   -8.1770    1.9820  -81.4090 C   0  0  0  0  0  0  0  0  0  0  0  0
   -8.2200    0.2340  -79.6640 C   0  0  0  0  0  0  0  0  0  0  0  0
   -8.9990    1.0890  -82.2680 C   0  0  0  0  0  0  0  0  0  0  0  0
   -8.9910   -0.5800  -80.4960 C   0  0  0  0  0  0  0  0  0  0  0  0
   -9.3760   -0.1680  -81.7750 C   0  0  0  0  0  0  0  0  0  0  0  0
  1  2  1  0
  2  3  2  0
  2  4  1  0
  3  5  1  0
  4  6  2  0
  5  7  2  0
  6  7  1  0
  6  8  1  0
  8  9  1  0
  9 10  2  0
  9 11  1  0
 11 12  1  0
 12 13  1  1
 12 14  1  0
 13 15  1  0
 14 16  1  0
 14 17  1  0
 15 18  1  0
 18 19  2  0
 18 20  1  0
 20 21  2  0
 20 22  1  0
 21 23  1  0
 22 24  2  0
 23 25  2  0
 24 25  1  0
M  END
>  <ref_url>  (933) 
https://fakepage.com

>  <submitter_name>  (933) 
Steph Wills

>  <submitter_email>  (933) 
stephanie.wills@dtc.ox.ac.uk

>  <submitter_institution>  (933) 
University of Oxford

>  <generation_date>  (933) 
2020-06-04

>  <method>  (933) 
Fragment network

>  <ref_mols>  (933) 
x0034_0B,x0212_0B

>  <ref_pdb>  (933) 
references/x0034-0B-x0212-0B-159937.holo_minimised_nolig.pdb

>  <original SMILES>  (933) 
Cc1cccc(CC(=O)NC(CNC(=O)c2ccccc2)C(C)C)c1

>  <synthon>  (933) 
[Xe]c1ccccc1

>  <original_name>  (933) 
x0034-0B-x0212-0B-159937

>  <comRMSD_score>  (933) 
0.6621134232026908

>  <IF_score>  (933) 
0.5416666666666666

>  <SuCOS_score>  (933) 
0.592309633936732

>  <compound_ID>  (933) 
REAL:PV-001579150279

$$$$

     RDKit          3D

 20 21  0  0  0  0  0  0  0  0999 V2000
   -9.3090   -2.5260  -78.4260 O   0  0  0  0  0  0  0  0  0  0  0  0
   -9.8770   -1.4970  -78.6900 C   0  0  0  0  0  0  0  0  0  0  0  0
  -10.2220   -0.4590  -77.6460 C   0  0  0  0  0  0  0  0  0  0  0  0
  -10.1800   -1.1280  -79.9750 N   0  0  0  0  0  0  0  0  0  0  0  0
   -8.7060   -0.4030  -76.4920 S   0  0  0  0  0  0  0  0  0  0  0  0
   -9.3950   -0.1020  -80.3280 C   0  0  0  0  0  0  0  0  0  0  0  0
   -7.6700   -1.2570  -77.0330 O   0  0  0  0  0  0  0  0  0  0  0  0
   -8.1440    1.3040  -76.5420 C   0  0  0  0  0  0  0  0  0  0  0  0
   -8.2960   -0.1280  -79.3680 C   0  0  0  0  0  0  0  0  0  0  0  0
   -9.4590    0.8650  -81.3160 C   0  0  0  0  0  0  0  0  0  0  0  0
   -9.1140    2.3030  -76.6440 C   0  0  0  0  0  0  0  0  0  0  0  0
   -7.2340    0.9070  -79.4270 C   0  0  0  0  0  0  0  0  0  0  0  0
   -8.4720    1.8510  -81.3890 C   0  0  0  0  0  0  0  0  0  0  0  0
  -10.1030    2.4150  -75.6420 C   0  0  0  0  0  0  0  0  0  0  0  0
   -9.1090    3.1960  -77.7430 C   0  0  0  0  0  0  0  0  0  0  0  0
   -7.4060    1.9060  -80.5060 C   0  0  0  0  0  0  0  0  0  0  0  0
   -8.5410    2.7840  -82.3240 F   0  0  0  0  0  0  0  0  0  0  0  0
  -11.1440    3.4860  -75.7570 C   0  0  0  0  0  0  0  0  0  0  0  0
  -10.0770    4.1990  -77.8660 C   0  0  0  0  0  0  0  0  0  0  0  0
  -11.0920    4.3940  -76.9410 C   0  0  0  0  0  0  0  0  0  0  0  0
  1  2  2  0
  2  3  1  0
  2  4  1  0
  3  5  1  0
  4  6  1  0
  5  7  1  6
  5  8  1  0
  6  9  2  0
  6 10  1  0
  8 11  1  0
  9 12  1  0
 10 13  2  0
 11 14  2  0
 11 15  1  0
 12 16  2  0
 13 16  1  0
 13 17  1  0
 14 18  1  0
 15 19  2  0
 18 20  2  0
 19 20  1  0
M  CHG  2   5   1   7  -1
M  END
>  <ref_url>  (934) 
https://fakepage.com

>  <submitter_name>  (934) 
Steph Wills

>  <submitter_email>  (934) 
stephanie.wills@dtc.ox.ac.uk

>  <submitter_institution>  (934) 
University of Oxford

>  <generation_date>  (934) 
2020-06-04

>  <method>  (934) 
Fragment network

>  <ref_mols>  (934) 
x0034_0B,x0212_0B

>  <ref_pdb>  (934) 
references/x0034-0B-x0212-0B-160052.holo_minimised_nolig.pdb

>  <original SMILES>  (934) 
O=C(C[S+]([O-])Cc1ccccc1)Nc1cccc(F)c1

>  <synthon>  (934) 
[Xe]c1ccccc1

>  <original_name>  (934) 
x0034-0B-x0212-0B-160052

>  <comRMSD_score>  (934) 
0.8975145167028258

>  <IF_score>  (934) 
0.55

>  <SuCOS_score>  (934) 
0.4622989724120668

>  <compound_ID>  (934) 
REAL:Z351124876, MOLPORT:020-110-474

$$$$

     RDKit          3D

 21 22  0  0  0  0  0  0  0  0999 V2000
   -7.2280    2.5030  -79.0390 C   0  0  0  0  0  0  0  0  0  0  0  0
   -8.0700    1.6100  -79.9500 C   0  0  0  0  0  0  0  0  0  0  0  0
   -8.0390    2.1130  -81.3970 C   0  0  0  0  0  0  0  0  0  0  0  0
   -8.8150    0.4530  -79.5840 C   0  0  0  0  0  0  0  0  0  0  0  0
   -8.8500    1.2550  -82.3470 C   0  0  0  0  0  0  0  0  0  0  0  0
   -9.5270   -0.2720  -80.5260 C   0  0  0  0  0  0  0  0  0  0  0  0
   -8.8960   -0.0130  -78.3380 N   0  0  0  0  0  0  0  0  0  0  0  0
   -9.5680    0.0700  -81.8430 C   0  0  0  0  0  0  0  0  0  0  0  0
  -10.2240   -0.1020  -77.7170 C   0  0  0  0  0  0  0  0  0  0  0  0
  -11.2290   -0.4330  -78.3260 O   0  0  0  0  0  0  0  0  0  0  0  0
  -10.1150    0.2650  -76.2770 C   0  0  1  0  0  0  0  0  0  0  0  0
  -10.8110   -0.4280  -75.2850 C   0  0  0  0  0  0  0  0  0  0  0  0
   -8.3440    0.1020  -75.9790 S   0  0  0  0  0  0  0  0  0  0  0  0
   -7.9510   -0.8160  -77.0360 O   0  0  0  0  0  0  0  0  0  0  0  0
   -7.9450    1.7620  -76.5090 C   0  0  0  0  0  0  0  0  0  0  0  0
   -9.0470    2.6170  -76.6980 C   0  0  0  0  0  0  0  0  0  0  0  0
  -10.0980    2.7700  -75.6450 C   0  0  0  0  0  0  0  0  0  0  0  0
   -9.2100    3.3560  -77.8780 C   0  0  0  0  0  0  0  0  0  0  0  0
  -11.1920    3.6150  -75.8330 C   0  0  0  0  0  0  0  0  0  0  0  0
  -10.4090    4.2560  -78.0460 C   0  0  0  0  0  0  0  0  0  0  0  0
  -11.3440    4.3480  -77.0230 C   0  0  0  0  0  0  0  0  0  0  0  0
  1  2  1  0
  2  3  2  0
  2  4  1  0
  3  5  1  0
  4  6  2  0
  4  7  1  0
  5  8  2  0
  6  8  1  0
  7  9  1  0
  9 10  2  0
  9 11  1  0
 11 12  1  1
 11 13  1  0
 13 14  1  6
 13 15  1  0
 15 16  1  0
 16 17  2  0
 16 18  1  0
 17 19  1  0
 18 20  2  0
 19 21  2  0
 20 21  1  0
M  CHG  2  13   1  14  -1
M  END
>  <ref_url>  (935) 
https://fakepage.com

>  <submitter_name>  (935) 
Steph Wills

>  <submitter_email>  (935) 
stephanie.wills@dtc.ox.ac.uk

>  <submitter_institution>  (935) 
University of Oxford

>  <generation_date>  (935) 
2020-06-04

>  <method>  (935) 
Fragment network

>  <ref_mols>  (935) 
x0034_0B,x0212_0B

>  <ref_pdb>  (935) 
references/x0034-0B-x0212-0B-161395.holo_minimised_nolig.pdb

>  <original SMILES>  (935) 
Cc1ccccc1NC(=O)C(C)[S+]([O-])Cc1ccccc1

>  <synthon>  (935) 
[Xe]c1ccccc1

>  <original_name>  (935) 
x0034-0B-x0212-0B-161395

>  <comRMSD_score>  (935) 
0.6445238850977818

>  <IF_score>  (935) 
0.625

>  <SuCOS_score>  (935) 
0.5364685845440548

>  <compound_ID>  (935) 
REAL:Z1137996938

$$$$

     RDKit          3D

 22 23  0  0  0  0  0  0  0  0999 V2000
  -12.5080    5.4800  -77.4770 C   0  0  0  0  0  0  0  0  0  0  0  0
  -11.4130    4.4820  -77.1530 C   0  0  0  0  0  0  0  0  0  0  0  0
  -11.3670    3.8250  -75.9220 C   0  0  0  0  0  0  0  0  0  0  0  0
  -10.4300    4.2130  -78.1020 C   0  0  0  0  0  0  0  0  0  0  0  0
  -10.2820    2.8650  -75.6490 C   0  0  0  0  0  0  0  0  0  0  0  0
   -9.4030    3.3100  -77.8520 C   0  0  0  0  0  0  0  0  0  0  0  0
   -9.3170    2.6330  -76.6310 C   0  0  0  0  0  0  0  0  0  0  0  0
   -8.3180    1.6740  -76.2090 N   0  0  0  0  0  0  0  0  0  0  0  0
   -8.5340    0.0230  -76.4220 S   0  0  0  0  0  0  0  0  0  0  0  0
   -9.2910   -0.1840  -77.8770 O   0  0  0  0  0  0  0  0  0  0  0  0
   -9.1010   -0.4670  -75.1810 O   0  0  0  0  0  0  0  0  0  0  0  0
   -6.9110   -0.3040  -76.4710 N   0  0  0  0  0  0  0  0  0  0  0  0
   -6.0590    0.6540  -77.0190 C   0  0  0  0  0  0  0  0  0  0  0  0
   -5.1870    1.4990  -76.2430 O   0  0  0  0  0  0  0  0  0  0  0  0
   -6.1670    0.7090  -78.3900 O   0  0  0  0  0  0  0  0  0  0  0  0
   -6.8670    1.8350  -78.9950 C   0  0  0  0  0  0  0  0  0  0  0  0
   -7.6810    1.2490  -79.9920 C   0  0  0  0  0  0  0  0  0  0  0  0
   -8.1680   -0.1850  -79.8080 C   0  0  0  0  0  0  0  0  0  0  0  0
   -8.0890    1.8980  -81.1890 C   0  0  0  0  0  0  0  0  0  0  0  0
   -8.9500   -0.7900  -80.7490 C   0  0  0  0  0  0  0  0  0  0  0  0
   -8.8990    1.2420  -82.1540 C   0  0  0  0  0  0  0  0  0  0  0  0
   -9.3620   -0.0840  -82.0070 C   0  0  0  0  0  0  0  0  0  0  0  0
  1  2  1  0
  2  3  2  0
  2  4  1  0
  3  5  1  0
  4  6  2  0
  5  7  2  0
  6  7  1  0
  7  8  1  0
  9  8  1  0
  9 10  2  0
  9 11  2  0
  9 12  1  0
 12 13  1  0
 13 14  2  0
 13 15  1  0
 15 16  1  0
 16 17  1  0
 17 18  2  0
 17 19  1  0
 18 20  1  0
 19 21  2  0
 20 22  2  0
 21 22  1  0
M  END
>  <ref_url>  (936) 
https://fakepage.com

>  <submitter_name>  (936) 
Steph Wills

>  <submitter_email>  (936) 
stephanie.wills@dtc.ox.ac.uk

>  <submitter_institution>  (936) 
University of Oxford

>  <generation_date>  (936) 
2020-06-04

>  <method>  (936) 
Fragment network

>  <ref_mols>  (936) 
x0034_0B,x0212_0B

>  <ref_pdb>  (936) 
references/x0034-0B-x0212-0B-161446.holo_minimised_nolig.pdb

>  <original SMILES>  (936) 
Cc1ccc(NS(=O)(=O)NC(=O)OCc2ccccc2)cc1

>  <synthon>  (936) 
[Xe]c1ccccc1

>  <original_name>  (936) 
x0034-0B-x0212-0B-161446

>  <comRMSD_score>  (936) 
0.6509355091228614

>  <IF_score>  (936) 
0.7083333333333333

>  <SuCOS_score>  (936) 
0.5364812985698596

>  <compound_ID>  (936) 
CHEMSPACE-BB:CSMB00114220311

$$$$

     RDKit          3D

 20 21  0  0  0  0  0  0  0  0999 V2000
  -12.2870    5.4000  -76.9950 C   0  0  0  0  0  0  0  0  0  0  0  0
  -11.1870    4.4080  -76.7550 C   0  0  0  0  0  0  0  0  0  0  0  0
  -11.1860    3.5390  -75.6680 C   0  0  0  0  0  0  0  0  0  0  0  0
  -10.1120    4.3320  -77.6330 C   0  0  0  0  0  0  0  0  0  0  0  0
  -10.1340    2.6270  -75.4860 C   0  0  0  0  0  0  0  0  0  0  0  0
   -9.0620    3.4450  -77.4570 C   0  0  0  0  0  0  0  0  0  0  0  0
   -9.0420    2.5530  -76.3700 C   0  0  0  0  0  0  0  0  0  0  0  0
   -7.9820    1.6160  -76.1730 N   0  0  0  0  0  0  0  0  0  0  0  0
   -8.0730    0.1450  -76.3960 C   0  0  0  0  0  0  0  0  0  0  0  0
   -9.5330   -0.0960  -76.5860 C   0  0  0  0  0  0  0  0  0  0  0  0
   -9.8700    0.7290  -77.8300 C   0  0  0  0  0  0  0  0  0  0  0  0
  -10.8610    0.1410  -78.6860 O   0  0  0  0  0  0  0  0  0  0  0  0
   -9.1110    1.9740  -77.9200 O   0  0  0  0  0  0  0  0  0  0  0  0
   -7.9940    2.1080  -78.7270 C   0  0  0  0  0  0  0  0  0  0  0  0
   -8.3310    1.3520  -79.8250 C   0  0  0  0  0  0  0  0  0  0  0  0
   -8.4440    1.9610  -81.1760 C   0  0  0  0  0  0  0  0  0  0  0  0
   -8.5740    0.0020  -79.6140 C   0  0  0  0  0  0  0  0  0  0  0  0
   -8.8490    1.0500  -82.3030 C   0  0  0  0  0  0  0  0  0  0  0  0
   -8.9450   -0.8450  -80.6330 C   0  0  0  0  0  0  0  0  0  0  0  0
   -9.0900   -0.3880  -81.9250 C   0  0  0  0  0  0  0  0  0  0  0  0
  1  2  1  0
  2  3  2  0
  2  4  1  0
  3  5  1  0
  4  6  2  0
  5  7  2  0
  6  7  1  0
  7  8  1  0
  8  9  1  0
  9 10  1  0
 10 11  1  0
 11 12  2  0
 11 13  1  0
 13 14  1  0
 14 15  1  0
 15 16  2  0
 15 17  1  0
 16 18  1  0
 17 19  2  0
 18 20  2  0
 19 20  1  0
M  END
>  <ref_url>  (937) 
https://fakepage.com

>  <submitter_name>  (937) 
Steph Wills

>  <submitter_email>  (937) 
stephanie.wills@dtc.ox.ac.uk

>  <submitter_institution>  (937) 
University of Oxford

>  <generation_date>  (937) 
2020-06-04

>  <method>  (937) 
Fragment network

>  <ref_mols>  (937) 
x0034_0B,x0212_0B

>  <ref_pdb>  (937) 
references/x0034-0B-x0212-0B-161817.holo_minimised_nolig.pdb

>  <original SMILES>  (937) 
Cc1ccc(NCCC(=O)OCc2ccccc2)cc1

>  <synthon>  (937) 
[Xe]c1ccccc1

>  <original_name>  (937) 
x0034-0B-x0212-0B-161817

>  <comRMSD_score>  (937) 
0.7595338482692306

>  <IF_score>  (937) 
0.65

>  <SuCOS_score>  (937) 
0.45548705740862

>  <compound_ID>  (937) 
CHEMSPACE-BB:CSMB00000170812

$$$$

     RDKit          3D

 22 23  0  0  0  0  0  0  0  0999 V2000
   -6.7820    0.4640  -78.0210 O   0  0  0  0  0  0  0  0  0  0  0  0
   -7.6850    0.0250  -77.2980 C   0  0  0  0  0  0  0  0  0  0  0  0
   -8.0990   -1.3960  -77.2410 N   0  0  0  0  0  0  0  0  0  0  0  0
   -8.4140    0.8070  -76.4870 O   0  0  0  0  0  0  0  0  0  0  0  0
   -9.4650   -1.7440  -77.7990 N   0  0  0  0  0  0  0  0  0  0  0  0
   -7.9900    2.1300  -76.6770 C   0  0  0  0  0  0  0  0  0  0  0  0
   -9.4880   -2.2290  -79.4280 S   0  0  0  0  0  0  0  0  0  0  0  0
   -9.2570    2.9640  -76.8090 C   0  0  0  0  0  0  0  0  0  0  0  0
  -10.8630   -2.6120  -79.7030 O   0  0  0  0  0  0  0  0  0  0  0  0
   -8.4000   -3.1720  -79.5980 O   0  0  0  0  0  0  0  0  0  0  0  0
   -9.1120   -0.6980  -80.2620 C   0  0  0  0  0  0  0  0  0  0  0  0
  -10.1470    2.9690  -75.7480 C   0  0  0  0  0  0  0  0  0  0  0  0
   -9.5080    3.7000  -77.9830 C   0  0  0  0  0  0  0  0  0  0  0  0
   -8.3840    0.2350  -79.5480 C   0  0  0  0  0  0  0  0  0  0  0  0
   -9.4820   -0.3510  -81.5730 C   0  0  0  0  0  0  0  0  0  0  0  0
  -11.3870    3.7790  -75.8710 C   0  0  0  0  0  0  0  0  0  0  0  0
  -10.6620    4.4700  -78.1390 C   0  0  0  0  0  0  0  0  0  0  0  0
   -7.9670    1.5560  -80.0510 C   0  0  0  0  0  0  0  0  0  0  0  0
   -9.0930    0.9050  -82.0680 C   0  0  0  0  0  0  0  0  0  0  0  0
  -11.6170    4.5440  -77.1290 C   0  0  0  0  0  0  0  0  0  0  0  0
   -8.3590    1.8460  -81.3500 C   0  0  0  0  0  0  0  0  0  0  0  0
   -8.0320    3.0110  -81.8840 F   0  0  0  0  0  0  0  0  0  0  0  0
  1  2  2  0
  2  3  1  0
  2  4  1  0
  3  5  1  0
  4  6  1  0
  7  5  1  0
  6  8  1  0
  7  9  2  0
  7 10  2  0
  7 11  1  0
  8 12  2  0
  8 13  1  0
 11 14  2  0
 11 15  1  0
 12 16  1  0
 13 17  2  0
 14 18  1  0
 15 19  2  0
 16 20  2  0
 17 20  1  0
 18 21  2  0
 19 21  1  0
 21 22  1  0
M  END
>  <ref_url>  (938) 
https://fakepage.com

>  <submitter_name>  (938) 
Steph Wills

>  <submitter_email>  (938) 
stephanie.wills@dtc.ox.ac.uk

>  <submitter_institution>  (938) 
University of Oxford

>  <generation_date>  (938) 
2020-06-04

>  <method>  (938) 
Fragment network

>  <ref_mols>  (938) 
x0034_0B,x0212_0B

>  <ref_pdb>  (938) 
references/x0034-0B-x0212-0B-161919.holo_minimised_nolig.pdb

>  <original SMILES>  (938) 
O=C(NNS(=O)(=O)c1ccc(F)cc1)OCc1ccccc1

>  <synthon>  (938) 
[Xe]c1ccccc1

>  <original_name>  (938) 
x0034-0B-x0212-0B-161919

>  <comRMSD_score>  (938) 
0.969072236729543

>  <IF_score>  (938) 
0.625

>  <SuCOS_score>  (938) 
0.4719367036720706

>  <compound_ID>  (938) 
CHEMSPACE-BB:CSMB00114067346

$$$$

     RDKit          3D

 24 25  0  0  0  0  0  0  0  0999 V2000
   -8.9800    3.5420  -79.2420 C   0  0  0  0  0  0  0  0  0  0  0  0
   -9.7780    3.4810  -77.9440 C   0  0  0  0  0  0  0  0  0  0  0  0
  -10.9410    4.4750  -78.0180 C   0  0  0  0  0  0  0  0  0  0  0  0
   -9.5330    2.6500  -76.7940 C   0  0  0  0  0  0  0  0  0  0  0  0
  -11.7950    4.4940  -76.7600 C   0  0  0  0  0  0  0  0  0  0  0  0
  -10.3770    2.7390  -75.6800 C   0  0  0  0  0  0  0  0  0  0  0  0
   -8.3760    1.6350  -76.6540 C   0  0  0  0  0  0  0  0  0  0  0  0
  -11.4580    3.6010  -75.6260 C   0  0  0  0  0  0  0  0  0  0  0  0
   -8.6930    0.2740  -76.0800 C   0  0  0  0  0  0  0  0  0  0  0  0
   -9.8040   -0.0980  -75.7250 O   0  0  0  0  0  0  0  0  0  0  0  0
   -7.4750   -0.5290  -76.0000 N   0  0  0  0  0  0  0  0  0  0  0  0
   -6.3090   -0.0560  -76.7500 C   0  0  0  0  0  0  0  0  0  0  0  0
   -5.5970    0.8830  -76.0040 C   0  0  0  0  0  0  0  0  0  0  0  0
   -5.3900   -1.2820  -76.9690 C   0  0  0  0  0  0  0  0  0  0  0  0
   -6.7240    0.5600  -78.1160 C   0  0  0  0  0  0  0  0  0  0  0  0
   -6.5700    1.9060  -78.2340 N   0  0  0  0  0  0  0  0  0  0  0  0
   -7.2650    2.7770  -77.4230 C   0  0  0  0  0  0  0  0  0  0  0  0
   -6.7270    2.3000  -79.5390 C   0  0  0  0  0  0  0  0  0  0  0  0
   -7.6050    1.4490  -80.2590 C   0  0  0  0  0  0  0  0  0  0  0  0
   -8.1040    1.8380  -81.5090 C   0  0  0  0  0  0  0  0  0  0  0  0
   -8.0210    0.1890  -79.7850 C   0  0  0  0  0  0  0  0  0  0  0  0
   -8.9520    1.0460  -82.2770 C   0  0  0  0  0  0  0  0  0  0  0  0
   -8.9430   -0.6830  -80.6090 C   0  0  0  0  0  0  0  0  0  0  0  0
   -9.3850   -0.2300  -81.8460 C   0  0  0  0  0  0  0  0  0  0  0  0
  1  2  1  0
  2  3  2  0
  2  4  1  0
  3  5  1  0
  4  6  2  0
  4  7  1  0
  5  8  2  0
  6  8  1  0
  7  9  1  0
  9 10  2  0
  9 11  1  0
 12 11  1  0
 12 13  1  0
 12 14  1  0
 12 15  1  0
 15 16  1  0
 16 17  1  0
 16 18  1  0
 18 19  1  0
 19 20  2  0
 19 21  1  0
 20 22  1  0
 21 23  2  0
 22 24  2  0
 23 24  1  0
M  END
>  <ref_url>  (939) 
https://fakepage.com

>  <submitter_name>  (939) 
Steph Wills

>  <submitter_email>  (939) 
stephanie.wills@dtc.ox.ac.uk

>  <submitter_institution>  (939) 
University of Oxford

>  <generation_date>  (939) 
2020-06-04

>  <method>  (939) 
Fragment network

>  <ref_mols>  (939) 
x0034_0B,x0212_0B

>  <ref_pdb>  (939) 
references/x0034-0B-x0212-0B-164915.holo_minimised_nolig.pdb

>  <original SMILES>  (939) 
Cc1ccccc1CC(=O)NC(C)(C)CN(C)Cc1ccccc1

>  <synthon>  (939) 
[Xe]c1ccccc1

>  <original_name>  (939) 
x0034-0B-x0212-0B-164915

>  <comRMSD_score>  (939) 
0.7437253824123817

>  <IF_score>  (939) 
0.875

>  <SuCOS_score>  (939) 
0.5649327116640724

>  <compound_ID>  (939) 
REAL:Z1510892923

$$$$

     RDKit          3D

 24 25  0  0  0  0  0  0  0  0999 V2000
   -6.2880   -2.3230  -80.8830 O   0  0  0  0  0  0  0  0  0  0  0  0
   -6.3740   -2.0910  -79.6790 C   0  0  0  0  0  0  0  0  0  0  0  0
   -7.2190   -0.9640  -79.1330 C   0  0  0  0  0  0  0  0  0  0  0  0
   -5.6760   -2.8780  -78.6640 N   0  0  0  0  0  0  0  0  0  0  0  0
   -7.8810   -0.2230  -80.0990 C   0  0  0  0  0  0  0  0  0  0  0  0
   -5.8210   -2.4840  -77.2740 C   0  0  0  0  0  0  0  0  0  0  0  0
   -8.8420   -0.8870  -80.8610 C   0  0  0  0  0  0  0  0  0  0  0  0
   -7.5950    1.1450  -80.3250 C   0  0  0  0  0  0  0  0  0  0  0  0
   -6.2600   -1.0210  -77.2140 C   0  0  0  0  0  0  0  0  0  0  0  0
   -9.5110   -0.2130  -81.8590 C   0  0  0  0  0  0  0  0  0  0  0  0
   -8.2580    1.8160  -81.3300 C   0  0  0  0  0  0  0  0  0  0  0  0
   -7.1280   -0.7460  -76.1560 C   0  0  0  0  0  0  0  0  0  0  0  0
   -9.1890    1.1080  -82.0650 C   0  0  0  0  0  0  0  0  0  0  0  0
   -8.0010    3.0950  -81.5750 F   0  0  0  0  0  0  0  0  0  0  0  0
   -8.7030   -0.0010  -76.6210 S   0  0  0  0  0  0  0  0  0  0  0  0
   -9.6250   -0.1670  -75.5120 O   0  0  0  0  0  0  0  0  0  0  0  0
   -9.0720   -0.4080  -77.9580 O   0  0  0  0  0  0  0  0  0  0  0  0
   -8.1730    1.6990  -76.6700 C   0  0  0  0  0  0  0  0  0  0  0  0
   -9.2210    2.6030  -76.8330 C   0  0  0  0  0  0  0  0  0  0  0  0
  -10.2110    2.7870  -75.7460 C   0  0  0  0  0  0  0  0  0  0  0  0
   -9.3840    3.3530  -78.0020 C   0  0  0  0  0  0  0  0  0  0  0  0
  -11.2660    3.6860  -75.8960 C   0  0  0  0  0  0  0  0  0  0  0  0
  -10.4520    4.2450  -78.1250 C   0  0  0  0  0  0  0  0  0  0  0  0
  -11.3840    4.4140  -77.0870 C   0  0  0  0  0  0  0  0  0  0  0  0
  1  2  2  0
  2  3  1  0
  2  4  1  0
  3  5  1  0
  4  6  1  0
  5  7  2  0
  5  8  1  0
  6  9  1  0
  7 10  1  0
  8 11  2  0
  9 12  1  0
 10 13  2  0
 11 13  1  0
 11 14  1  0
 15 12  1  0
 15 16  2  0
 15 17  2  0
 15 18  1  0
 18 19  1  0
 19 20  2  0
 19 21  1  0
 20 22  1  0
 21 23  2  0
 22 24  2  0
 23 24  1  0
M  END
>  <ref_url>  (940) 
https://fakepage.com

>  <submitter_name>  (940) 
Steph Wills

>  <submitter_email>  (940) 
stephanie.wills@dtc.ox.ac.uk

>  <submitter_institution>  (940) 
University of Oxford

>  <generation_date>  (940) 
2020-06-04

>  <method>  (940) 
Fragment network

>  <ref_mols>  (940) 
x0034_0B,x0212_0B

>  <ref_pdb>  (940) 
references/x0034-0B-x0212-0B-165917.holo_minimised_nolig.pdb

>  <original SMILES>  (940) 
O=C(Cc1cccc(F)c1)NCCCS(=O)(=O)Cc1ccccc1

>  <synthon>  (940) 
[Xe]c1ccccc1

>  <original_name>  (940) 
x0034-0B-x0212-0B-165917

>  <comRMSD_score>  (940) 
0.5898779220847004

>  <IF_score>  (940) 
0.625

>  <SuCOS_score>  (940) 
0.5662293348156177

>  <compound_ID>  (940) 
MOLPORT:009-080-199

$$$$

     RDKit          3D

 24 25  0  0  0  0  0  0  0  0999 V2000
  -12.3150    5.6730  -76.6140 C   0  0  0  0  0  0  0  0  0  0  0  0
  -11.4910    4.4420  -76.7800 C   0  0  0  0  0  0  0  0  0  0  0  0
  -10.7760    4.0530  -77.8850 C   0  0  0  0  0  0  0  0  0  0  0  0
  -11.4620    3.5090  -75.5500 C   0  0  0  0  0  0  0  0  0  0  0  0
  -10.0890    2.8510  -77.8660 C   0  0  0  0  0  0  0  0  0  0  0  0
  -10.7450    2.3110  -75.5980 C   0  0  0  0  0  0  0  0  0  0  0  0
  -10.0650    1.9720  -76.7680 C   0  0  0  0  0  0  0  0  0  0  0  0
   -9.2980    0.6780  -76.9590 C   0  0  0  0  0  0  0  0  0  0  0  0
  -10.2080   -0.4690  -77.3540 C   0  0  0  0  0  0  0  0  0  0  0  0
   -8.4260    0.1300  -75.8400 C   0  0  0  0  0  0  0  0  0  0  0  0
   -8.3510    1.0270  -78.0920 C   0  0  0  0  0  0  0  0  0  0  0  0
   -9.0520    1.7310  -79.1460 N   0  0  0  0  0  0  0  0  0  0  0  0
  -10.2240    1.1630  -79.5650 C   0  0  0  0  0  0  0  0  0  0  0  0
   -8.6860    3.1450  -79.4780 C   0  0  0  0  0  0  0  0  0  0  0  0
   -9.4910    4.0030  -79.8160 O   0  0  0  0  0  0  0  0  0  0  0  0
   -7.2110    3.4580  -79.3840 C   0  0  0  0  0  0  0  0  0  0  0  0
   -6.5260    2.1690  -79.6230 C   0  0  1  0  0  0  0  0  0  0  0  0
   -6.0970    1.5880  -78.3470 N   0  0  0  0  0  0  0  0  0  0  0  0
   -7.4130    1.3070  -80.2870 C   0  0  0  0  0  0  0  0  0  0  0  0
   -8.1040    1.7870  -81.3930 C   0  0  0  0  0  0  0  0  0  0  0  0
   -7.6430   -0.0060  -79.8690 C   0  0  0  0  0  0  0  0  0  0  0  0
   -9.0050    0.9710  -82.0570 C   0  0  0  0  0  0  0  0  0  0  0  0
   -8.5580   -0.8110  -80.5490 C   0  0  0  0  0  0  0  0  0  0  0  0
   -9.2650   -0.3460  -81.6580 C   0  0  0  0  0  0  0  0  0  0  0  0
  1  2  1  0
  2  3  2  0
  2  4  1  0
  3  5  1  0
  4  6  2  0
  5  7  2  0
  6  7  1  0
  7  8  1  0
  8  9  1  0
  8 10  1  0
  8 11  1  0
 11 12  1  0
 12 13  1  0
 12 14  1  0
 14 15  2  0
 14 16  1  0
 16 17  1  0
 17 18  1  1
 17 19  1  0
 19 20  2  0
 19 21  1  0
 20 22  1  0
 21 23  2  0
 22 24  2  0
 23 24  1  0
M  END
>  <ref_url>  (941) 
https://fakepage.com

>  <submitter_name>  (941) 
Steph Wills

>  <submitter_email>  (941) 
stephanie.wills@dtc.ox.ac.uk

>  <submitter_institution>  (941) 
University of Oxford

>  <generation_date>  (941) 
2020-06-04

>  <method>  (941) 
Fragment network

>  <ref_mols>  (941) 
x0034_0B,x0212_0B

>  <ref_pdb>  (941) 
references/x0034-0B-x0212-0B-166429.holo_minimised_nolig.pdb

>  <original SMILES>  (941) 
Cc1ccc(C(C)(C)CN(C)C(=O)CC(N)c2ccccc2)cc1

>  <synthon>  (941) 
[Xe]c1ccccc1

>  <original_name>  (941) 
x0034-0B-x0212-0B-166429

>  <comRMSD_score>  (941) 
0.9198815946349552

>  <IF_score>  (941) 
0.4166666666666666

>  <SuCOS_score>  (941) 
0.4414235750325008

>  <compound_ID>  (941) 
REAL:Z2438276829

$$$$

     RDKit          3D

 19 20  0  0  0  0  0  0  0  0999 V2000
  -11.8290    5.4830  -76.8740 F   0  0  0  0  0  0  0  0  0  0  0  0
  -11.2280    4.2920  -76.9540 C   0  0  0  0  0  0  0  0  0  0  0  0
  -11.2630    3.3550  -75.7950 C   0  0  0  0  0  0  0  0  0  0  0  0
  -10.5730    3.9130  -78.1130 C   0  0  0  0  0  0  0  0  0  0  0  0
  -10.6470    2.1130  -75.9420 C   0  0  0  0  0  0  0  0  0  0  0  0
   -9.9710    2.6440  -78.1960 C   0  0  0  0  0  0  0  0  0  0  0  0
  -10.0060    1.7180  -77.1210 C   0  0  0  0  0  0  0  0  0  0  0  0
   -9.4440    0.4060  -77.2200 C   0  0  0  0  0  0  0  0  0  0  0  0
   -8.1270   -0.0310  -76.6680 C   0  0  0  0  0  0  0  0  0  0  0  0
   -7.3570    1.0230  -75.9810 C   0  0  0  0  0  0  0  0  0  0  0  0
   -7.1990    2.2890  -76.5150 N   0  0  0  0  0  0  0  0  0  0  0  0
   -7.7830    2.5680  -77.7320 N   0  0  0  0  0  0  0  0  0  0  0  0
   -6.9750    2.3620  -78.9470 C   0  0  0  0  0  0  0  0  0  0  0  0
   -7.8170    1.5170  -79.9150 C   0  0  0  0  0  0  0  0  0  0  0  0
   -8.2190    0.2410  -79.5090 C   0  0  0  0  0  0  0  0  0  0  0  0
   -8.2100    1.9580  -81.2010 C   0  0  0  0  0  0  0  0  0  0  0  0
   -9.0250   -0.6500  -80.3500 C   0  0  0  0  0  0  0  0  0  0  0  0
   -8.9790    1.1570  -82.0610 C   0  0  0  0  0  0  0  0  0  0  0  0
   -9.4170   -0.1290  -81.7150 C   0  0  0  0  0  0  0  0  0  0  0  0
  1  2  1  0
  2  3  2  0
  2  4  1  0
  3  5  1  0
  4  6  2  0
  5  7  2  0
  6  7  1  0
  7  8  1  0
  8  9  2  3
  9 10  1  0
 10 11  2  3
 11 12  1  0
 12 13  1  0
 13 14  1  0
 14 15  2  0
 14 16  1  0
 15 17  1  0
 16 18  2  0
 17 19  2  0
 18 19  1  0
M  END
>  <ref_url>  (942) 
https://fakepage.com

>  <submitter_name>  (942) 
Steph Wills

>  <submitter_email>  (942) 
stephanie.wills@dtc.ox.ac.uk

>  <submitter_institution>  (942) 
University of Oxford

>  <generation_date>  (942) 
2020-06-04

>  <method>  (942) 
Fragment network

>  <ref_mols>  (942) 
x0034_0B,x0212_0B

>  <ref_pdb>  (942) 
references/x0034-0B-x0212-0B-167455.holo_minimised_nolig.pdb

>  <original SMILES>  (942) 
Fc1ccc(C=CC=NNCc2ccccc2)cc1

>  <synthon>  (942) 
[Xe]c1ccccc1

>  <original_name>  (942) 
x0034-0B-x0212-0B-167455

>  <comRMSD_score>  (942) 
0.9151377957363488

>  <IF_score>  (942) 
0.5

>  <SuCOS_score>  (942) 
0.4685172612264578

>  <compound_ID>  (942) 
CHEMSPACE-BB:CSMB00114046332

$$$$

     RDKit          3D

 22 23  0  0  0  0  0  0  0  0999 V2000
  -12.7870    5.2280  -77.5760 C   0  0  0  0  0  0  0  0  0  0  0  0
  -11.5230    4.4940  -77.2860 C   0  0  0  0  0  0  0  0  0  0  0  0
  -10.3680    4.5380  -78.2990 C   0  0  0  0  0  0  0  0  0  0  0  0
  -11.3450    3.7570  -76.1130 C   0  0  0  0  0  0  0  0  0  0  0  0
   -9.1910    3.8660  -78.0210 C   0  0  0  0  0  0  0  0  0  0  0  0
  -10.1430    3.0830  -75.8700 C   0  0  0  0  0  0  0  0  0  0  0  0
   -9.0770    3.1060  -76.7430 C   0  0  0  0  0  0  0  0  0  0  0  0
   -9.8400    2.4090  -74.9350 O   0  0  0  0  0  0  0  0  0  0  0  0
   -9.6570    1.0460  -75.3220 C   0  0  0  0  0  0  0  0  0  0  0  0
   -8.3540    0.4450  -75.8260 C   0  0  0  0  0  0  0  0  0  0  0  0
   -8.3990    0.5420  -77.2720 N   0  0  0  0  0  0  0  0  0  0  0  0
   -8.5690    1.7670  -77.8510 C   0  0  0  0  0  0  0  0  0  0  0  0
   -9.8440    2.3650  -78.0950 O   0  0  0  0  0  0  0  0  0  0  0  0
   -7.2460    2.3560  -78.1880 N   0  0  0  0  0  0  0  0  0  0  0  0
   -6.8880    2.5120  -79.5130 C   0  0  2  0  0  0  0  0  0  0  0  0
   -7.0140    3.7830  -80.0740 C   0  0  0  0  0  0  0  0  0  0  0  0
   -7.7800    1.5480  -80.2740 C   0  0  0  0  0  0  0  0  0  0  0  0
   -8.1000    0.2820  -79.7530 C   0  0  0  0  0  0  0  0  0  0  0  0
   -8.2960    1.9240  -81.5080 C   0  0  0  0  0  0  0  0  0  0  0  0
   -8.9250   -0.5850  -80.4650 C   0  0  0  0  0  0  0  0  0  0  0  0
   -9.1100    1.0670  -82.2160 C   0  0  0  0  0  0  0  0  0  0  0  0
   -9.4300   -0.1850  -81.7040 C   0  0  0  0  0  0  0  0  0  0  0  0
  1  2  1  0
  2  3  2  0
  2  4  1  0
  3  5  1  0
  4  6  2  0
  5  7  2  0
  6  7  1  0
  6  8  1  0
  8  9  1  0
  9 10  1  0
 10 11  1  0
 11 12  1  0
 12 13  2  0
 12 14  1  0
 14 15  1  0
 15 16  1  6
 15 17  1  0
 17 18  2  0
 17 19  1  0
 18 20  1  0
 19 21  2  0
 20 22  2  0
 21 22  1  0
M  END
>  <ref_url>  (943) 
https://fakepage.com

>  <submitter_name>  (943) 
Steph Wills

>  <submitter_email>  (943) 
stephanie.wills@dtc.ox.ac.uk

>  <submitter_institution>  (943) 
University of Oxford

>  <generation_date>  (943) 
2020-06-04

>  <method>  (943) 
Fragment network

>  <ref_mols>  (943) 
x0034_0B,x0212_0B

>  <ref_pdb>  (943) 
references/x0034-0B-x0212-0B-168219.holo_minimised_nolig.pdb

>  <original SMILES>  (943) 
Cc1cccc(OCCNC(=O)NC(C)c2ccccc2)c1

>  <synthon>  (943) 
[Xe]c1ccccc1

>  <original_name>  (943) 
x0034-0B-x0212-0B-168219

>  <comRMSD_score>  (943) 
0.9047919420139278

>  <IF_score>  (943) 
0.375

>  <SuCOS_score>  (943) 
0.5103157925481023

>  <compound_ID>  (943) 
MOLPORT:009-428-198

$$$$

     RDKit          3D

 24 25  0  0  0  0  0  0  0  0999 V2000
  -12.2030    5.3980  -77.6060 C   0  0  0  0  0  0  0  0  0  0  0  0
  -11.3750    4.2380  -77.1380 C   0  0  0  0  0  0  0  0  0  0  0  0
  -11.4900    3.7700  -75.8250 C   0  0  0  0  0  0  0  0  0  0  0  0
  -10.4800    3.6030  -78.0030 C   0  0  0  0  0  0  0  0  0  0  0  0
  -10.7330    2.6960  -75.3970 C   0  0  0  0  0  0  0  0  0  0  0  0
   -9.7170    2.5140  -77.5630 C   0  0  0  0  0  0  0  0  0  0  0  0
   -9.8490    2.0510  -76.2330 C   0  0  0  0  0  0  0  0  0  0  0  0
   -9.1450    0.9740  -75.6680 C   0  0  0  0  0  0  0  0  0  0  0  0
   -8.8740   -0.2920  -76.4260 C   0  0  0  0  0  0  0  0  0  0  0  0
   -9.5770   -1.2760  -76.2840 O   0  0  0  0  0  0  0  0  0  0  0  0
   -7.7080   -0.1290  -77.2720 N   0  0  0  0  0  0  0  0  0  0  0  0
   -7.4030    1.2890  -77.4740 C   0  0  0  0  0  0  0  0  0  0  0  0
   -6.8740    1.7130  -78.7120 C   0  0  2  0  0  0  0  0  0  0  0  0
   -6.9490    3.1520  -78.6080 N   0  0  0  0  0  0  0  0  0  0  0  0
   -7.7840    1.1900  -79.8560 C   0  0  0  0  0  0  0  0  0  0  0  0
   -7.2750    3.6010  -77.2520 C   0  0  0  0  0  0  0  0  0  0  0  0
   -8.3930   -0.1230  -79.6140 C   0  0  0  0  0  0  0  0  0  0  0  0
   -8.0810    1.8250  -81.0830 C   0  0  0  0  0  0  0  0  0  0  0  0
   -6.1880    4.2890  -76.6570 C   0  0  2  0  0  0  0  0  0  0  0  0
   -9.2230   -0.7390  -80.5280 C   0  0  0  0  0  0  0  0  0  0  0  0
   -8.9250    1.1810  -82.0020 C   0  0  0  0  0  0  0  0  0  0  0  0
   -4.8560    4.1880  -77.3830 C   0  0  0  0  0  0  0  0  0  0  0  0
   -6.0040    3.7540  -75.3470 O   0  0  0  0  0  0  0  0  0  0  0  0
   -9.4840   -0.0800  -81.7220 C   0  0  0  0  0  0  0  0  0  0  0  0
  1  2  1  0
  2  3  2  0
  2  4  1  0
  3  5  1  0
  4  6  2  0
  5  7  2  0
  6  7  1  0
  7  8  1  0
  8  9  1  0
  9 10  2  0
  9 11  1  0
 11 12  1  0
 13 12  1  1
 13 14  1  0
 13 15  1  0
 14 16  1  0
 15 17  2  0
 15 18  1  0
 16 19  1  0
 17 20  1  0
 18 21  2  0
 19 22  1  6
 19 23  1  0
 20 24  2  0
 21 24  1  0
M  END
>  <ref_url>  (944) 
https://fakepage.com

>  <submitter_name>  (944) 
Steph Wills

>  <submitter_email>  (944) 
stephanie.wills@dtc.ox.ac.uk

>  <submitter_institution>  (944) 
University of Oxford

>  <generation_date>  (944) 
2020-06-04

>  <method>  (944) 
Fragment network

>  <ref_mols>  (944) 
x0034_0B,x0212_0B

>  <ref_pdb>  (944) 
references/x0034-0B-x0212-0B-168393.holo_minimised_nolig.pdb

>  <original SMILES>  (944) 
Cc1ccc(CC(=O)NCC(NCC(C)O)c2ccccc2)cc1

>  <synthon>  (944) 
[Xe]c1ccccc1

>  <original_name>  (944) 
x0034-0B-x0212-0B-168393

>  <comRMSD_score>  (944) 
0.8834425509000235

>  <IF_score>  (944) 
0.625

>  <SuCOS_score>  (944) 
0.5106558708971722

>  <compound_ID>  (944) 
REAL:PV-000817141951

$$$$

     RDKit          3D

 19 20  0  0  0  0  0  0  0  0999 V2000
   -7.0060    2.4050  -79.2510 C   0  0  0  0  0  0  0  0  0  0  0  0
   -7.8670    1.5040  -80.0940 C   0  0  0  0  0  0  0  0  0  0  0  0
   -8.2390    1.9650  -81.3640 C   0  0  0  0  0  0  0  0  0  0  0  0
   -8.3200    0.2220  -79.6840 C   0  0  0  0  0  0  0  0  0  0  0  0
   -9.0280    1.1850  -82.2010 C   0  0  0  0  0  0  0  0  0  0  0  0
   -9.1160   -0.5420  -80.5420 C   0  0  0  0  0  0  0  0  0  0  0  0
   -8.0000   -0.3690  -78.3780 N   0  0  0  0  0  0  0  0  0  0  0  0
   -9.4640   -0.0640  -81.7880 C   0  0  0  0  0  0  0  0  0  0  0  0
   -9.1600   -1.0230  -77.7800 C   0  0  0  0  0  0  0  0  0  0  0  0
   -9.7670   -1.9520  -78.3200 O   0  0  0  0  0  0  0  0  0  0  0  0
   -9.4970   -0.4960  -76.5490 C   0  0  0  0  0  0  0  0  0  0  0  0
   -7.9700    0.1250  -75.8100 S   0  0  0  0  0  0  0  0  0  0  0  0
   -7.8050    1.7200  -76.5860 C   0  0  0  0  0  0  0  0  0  0  0  0
   -9.0290    2.6340  -76.8290 C   0  0  0  0  0  0  0  0  0  0  0  0
  -10.0420    2.6490  -75.7110 C   0  0  0  0  0  0  0  0  0  0  0  0
   -9.2540    3.4220  -77.9700 C   0  0  0  0  0  0  0  0  0  0  0  0
  -11.2540    3.5330  -75.8900 C   0  0  0  0  0  0  0  0  0  0  0  0
  -10.4000    4.2210  -78.0820 C   0  0  0  0  0  0  0  0  0  0  0  0
  -11.3760    4.2800  -77.0730 C   0  0  0  0  0  0  0  0  0  0  0  0
  1  2  1  0
  2  3  2  0
  2  4  1  0
  3  5  1  0
  4  6  2  0
  4  7  1  0
  5  8  2  0
  6  8  1  0
  7  9  1  0
  9 10  2  0
  9 11  1  0
 11 12  1  0
 12 13  1  0
 13 14  1  0
 14 15  2  0
 14 16  1  0
 15 17  1  0
 16 18  2  0
 17 19  2  0
 18 19  1  0
M  END
>  <ref_url>  (945) 
https://fakepage.com

>  <submitter_name>  (945) 
Steph Wills

>  <submitter_email>  (945) 
stephanie.wills@dtc.ox.ac.uk

>  <submitter_institution>  (945) 
University of Oxford

>  <generation_date>  (945) 
2020-06-04

>  <method>  (945) 
Fragment network

>  <ref_mols>  (945) 
x0034_0B,x0212_0B

>  <ref_pdb>  (945) 
references/x0034-0B-x0212-0B-169254.holo_minimised_nolig.pdb

>  <original SMILES>  (945) 
Cc1ccccc1NC(=O)CSCc1ccccc1

>  <synthon>  (945) 
[Xe]c1ccccc1

>  <original_name>  (945) 
x0034-0B-x0212-0B-169254

>  <comRMSD_score>  (945) 
0.5715791552962975

>  <IF_score>  (945) 
0.625

>  <SuCOS_score>  (945) 
0.526128060487921

>  <compound_ID>  (945) 
MOLPORT:000-455-488

$$$$

     RDKit          3D

 27 28  0  0  0  0  0  0  0  0999 V2000
   -6.7790    2.8700  -79.7420 C   0  0  0  0  0  0  0  0  0  0  0  0
   -7.7010    1.7690  -80.1570 C   0  0  0  0  0  0  0  0  0  0  0  0
   -8.4820    1.8320  -81.4830 C   0  0  0  0  0  0  0  0  0  0  0  0
   -7.8640    0.6640  -79.3330 C   0  0  0  0  0  0  0  0  0  0  0  0
   -9.3460    0.7710  -81.8070 C   0  0  0  0  0  0  0  0  0  0  0  0
   -8.7180   -0.3710  -79.6640 C   0  0  0  0  0  0  0  0  0  0  0  0
   -9.4540   -0.3630  -80.8330 C   0  0  0  0  0  0  0  0  0  0  0  0
  -10.5390   -1.7240  -81.1600 S   0  0  0  0  0  0  0  0  0  0  0  0
   -9.7740   -2.7000  -81.9020 O   0  0  0  0  0  0  0  0  0  0  0  0
  -11.7900   -1.2220  -81.6730 O   0  0  0  0  0  0  0  0  0  0  0  0
  -10.7460   -2.3190  -79.5450 N   0  0  0  0  0  0  0  0  0  0  0  0
  -10.9760   -1.4040  -78.4910 C   0  0  1  0  0  0  0  0  0  0  0  0
  -12.4750   -1.4130  -78.1930 C   0  0  0  0  0  0  0  0  0  0  0  0
  -10.1980   -1.5910  -77.3300 C   0  0  0  0  0  0  0  0  0  0  0  0
  -13.1890   -0.8250  -79.3980 C   0  0  0  0  0  0  0  0  0  0  0  0
   -9.8570   -2.7270  -76.9650 O   0  0  0  0  0  0  0  0  0  0  0  0
   -9.8020   -0.3810  -76.5500 N   0  0  0  0  0  0  0  0  0  0  0  0
  -14.1560    0.1150  -79.0030 C   0  0  0  0  0  0  0  0  0  0  0  0
  -13.8180   -2.0240  -80.1260 C   0  0  0  0  0  0  0  0  0  0  0  0
   -8.3870   -0.0520  -76.6650 C   0  0  0  0  0  0  0  0  0  0  0  0
   -8.0940    1.3270  -76.5020 C   0  0  0  0  0  0  0  0  0  0  0  0
   -9.1470    2.2520  -76.6490 C   0  0  0  0  0  0  0  0  0  0  0  0
   -9.2940    3.0270  -77.8090 C   0  0  0  0  0  0  0  0  0  0  0  0
  -10.1070    2.4710  -75.6460 C   0  0  0  0  0  0  0  0  0  0  0  0
  -10.2950    3.9700  -78.0270 C   0  0  0  0  0  0  0  0  0  0  0  0
  -11.1350    3.4200  -75.8300 C   0  0  0  0  0  0  0  0  0  0  0  0
  -11.2310    4.1660  -77.0150 C   0  0  0  0  0  0  0  0  0  0  0  0
  1  2  1  0
  2  3  2  0
  2  4  1  0
  3  5  1  0
  4  6  2  0
  5  7  2  0
  6  7  1  0
  7  8  1  0
  8  9  2  0
  8 10  2  0
  8 11  1  0
 11 12  1  0
 12 13  1  1
 12 14  1  0
 13 15  1  0
 14 16  2  0
 14 17  1  0
 15 18  1  0
 15 19  1  0
 17 20  1  0
 20 21  1  0
 21 22  1  0
 22 23  2  0
 22 24  1  0
 23 25  1  0
 24 26  2  0
 25 27  2  0
 26 27  1  0
M  END
>  <ref_url>  (946) 
https://fakepage.com

>  <submitter_name>  (946) 
Steph Wills

>  <submitter_email>  (946) 
stephanie.wills@dtc.ox.ac.uk

>  <submitter_institution>  (946) 
University of Oxford

>  <generation_date>  (946) 
2020-06-04

>  <method>  (946) 
Fragment network

>  <ref_mols>  (946) 
x0034_0B,x0212_0B

>  <ref_pdb>  (946) 
references/x0034-0B-x0212-0B-171615.holo_minimised_nolig.pdb

>  <original SMILES>  (946) 
Cc1ccc(S(=O)(=O)NC(CC(C)C)C(=O)NCCc2ccccc2)cc1

>  <synthon>  (946) 
[Xe]c1ccccc1

>  <original_name>  (946) 
x0034-0B-x0212-0B-171615

>  <comRMSD_score>  (946) 
0.8561640116325939

>  <IF_score>  (946) 
0.5

>  <SuCOS_score>  (946) 
0.4876629778077929

>  <compound_ID>  (946) 
REAL:PV-001820979696

$$$$

     RDKit          3D

 23 24  0  0  0  0  0  0  0  0999 V2000
  -12.4360    5.2770  -77.4750 C   0  0  0  0  0  0  0  0  0  0  0  0
  -11.3180    4.3060  -77.1340 C   0  0  0  0  0  0  0  0  0  0  0  0
  -10.2830    4.0990  -78.0460 C   0  0  0  0  0  0  0  0  0  0  0  0
  -11.2950    3.6040  -75.9130 C   0  0  0  0  0  0  0  0  0  0  0  0
   -9.1880    3.1570  -77.7100 C   0  0  0  0  0  0  0  0  0  0  0  0
  -10.2780    2.7110  -75.5770 C   0  0  0  0  0  0  0  0  0  0  0  0
   -9.2330    2.4970  -76.4730 C   0  0  0  0  0  0  0  0  0  0  0  0
   -8.1210    1.5880  -76.1820 N   0  0  0  0  0  0  0  0  0  0  0  0
   -8.4300    0.1560  -76.1010 C   0  0  0  0  0  0  0  0  0  0  0  0
   -9.5250   -0.3410  -75.8730 O   0  0  0  0  0  0  0  0  0  0  0  0
   -7.2930   -0.6530  -76.3080 C   0  0  0  0  0  0  0  0  0  0  0  0
   -5.9930   -0.1860  -76.1740 N   0  0  0  0  0  0  0  0  0  0  0  0
   -5.0530   -1.2320  -76.2840 C   0  0  0  0  0  0  0  0  0  0  0  0
   -5.8500    0.9860  -76.9950 C   0  0  0  0  0  0  0  0  0  0  0  0
   -5.0220    2.1040  -76.5990 O   0  0  0  0  0  0  0  0  0  0  0  0
   -6.5680    0.9520  -78.1540 C   0  0  0  0  0  0  0  0  0  0  0  0
   -7.2470    2.0750  -78.8670 C   0  0  0  0  0  0  0  0  0  0  0  0
   -7.9530    1.4490  -80.0150 C   0  0  0  0  0  0  0  0  0  0  0  0
   -8.1920    2.0110  -81.2810 C   0  0  0  0  0  0  0  0  0  0  0  0
   -8.4030    0.1580  -79.7460 C   0  0  0  0  0  0  0  0  0  0  0  0
   -8.8790    1.2520  -82.2460 C   0  0  0  0  0  0  0  0  0  0  0  0
   -9.0640   -0.5500  -80.6990 C   0  0  0  0  0  0  0  0  0  0  0  0
   -9.3170   -0.0430  -81.9430 C   0  0  0  0  0  0  0  0  0  0  0  0
  1  2  1  0
  2  3  2  0
  2  4  1  0
  3  5  1  0
  4  6  2  0
  5  7  2  0
  6  7  1  0
  7  8  1  0
  8  9  1  0
  9 10  2  0
  9 11  1  0
 11 12  1  0
 12 13  1  0
 12 14  1  0
 14 15  2  0
 14 16  1  0
 16 17  2  3
 17 18  1  0
 18 19  2  0
 18 20  1  0
 19 21  1  0
 20 22  2  0
 21 23  2  0
 22 23  1  0
M  END
>  <ref_url>  (947) 
https://fakepage.com

>  <submitter_name>  (947) 
Steph Wills

>  <submitter_email>  (947) 
stephanie.wills@dtc.ox.ac.uk

>  <submitter_institution>  (947) 
University of Oxford

>  <generation_date>  (947) 
2020-06-04

>  <method>  (947) 
Fragment network

>  <ref_mols>  (947) 
x0034_0B,x0212_0B

>  <ref_pdb>  (947) 
references/x0034-0B-x0212-0B-171648.holo_minimised_nolig.pdb

>  <original SMILES>  (947) 
Cc1ccc(NC(=O)CN(C)C(=O)C=Cc2ccccc2)cc1

>  <synthon>  (947) 
[Xe]c1ccccc1

>  <original_name>  (947) 
x0034-0B-x0212-0B-171648

>  <comRMSD_score>  (947) 
0.5403205495780227

>  <IF_score>  (947) 
0.7083333333333333

>  <SuCOS_score>  (947) 
0.5268773547988133

>  <compound_ID>  (947) 
MOLPORT:044-238-439

$$$$

     RDKit          3D

 20 21  0  0  0  0  0  0  0  0999 V2000
   -6.8550    2.4180  -79.3820 C   0  0  0  0  0  0  0  0  0  0  0  0
   -7.7490    1.5180  -80.1870 C   0  0  0  0  0  0  0  0  0  0  0  0
   -8.2610    1.9640  -81.4110 C   0  0  0  0  0  0  0  0  0  0  0  0
   -8.1030    0.2240  -79.7750 C   0  0  0  0  0  0  0  0  0  0  0  0
   -9.0900    1.1460  -82.1810 C   0  0  0  0  0  0  0  0  0  0  0  0
   -8.9320   -0.5840  -80.5420 C   0  0  0  0  0  0  0  0  0  0  0  0
   -7.6360   -0.3720  -78.5310 N   0  0  0  0  0  0  0  0  0  0  0  0
   -9.4330   -0.1330  -81.7500 C   0  0  0  0  0  0  0  0  0  0  0  0
   -8.3670   -1.4440  -77.8610 C   0  0  0  0  0  0  0  0  0  0  0  0
   -9.0510   -2.3460  -78.3480 O   0  0  0  0  0  0  0  0  0  0  0  0
   -8.2860   -1.4690  -76.4680 C   0  0  0  0  0  0  0  0  0  0  0  0
   -9.1060   -0.0480  -75.6750 S   0  0  0  0  0  0  0  0  0  0  0  0
   -8.3430    1.4270  -76.4370 C   0  0  0  0  0  0  0  0  0  0  0  0
   -7.1530    1.5490  -76.6910 O   0  0  0  0  0  0  0  0  0  0  0  0
   -9.3000    2.4180  -76.6890 C   0  0  0  0  0  0  0  0  0  0  0  0
   -9.3660    3.1830  -78.0060 C   0  0  0  0  0  0  0  0  0  0  0  0
  -10.2360    2.7080  -75.6890 C   0  0  0  0  0  0  0  0  0  0  0  0
  -10.3490    4.1420  -78.1810 C   0  0  0  0  0  0  0  0  0  0  0  0
  -11.2190    3.6770  -75.8780 C   0  0  0  0  0  0  0  0  0  0  0  0
  -11.3050    4.3890  -77.0750 C   0  0  0  0  0  0  0  0  0  0  0  0
  1  2  1  0
  2  3  2  0
  2  4  1  0
  3  5  1  0
  4  6  2  0
  4  7  1  0
  5  8  2  0
  6  8  1  0
  7  9  1  0
  9 10  2  0
  9 11  1  0
 11 12  1  0
 12 13  1  0
 13 14  2  0
 13 15  1  0
 15 16  2  0
 15 17  1  0
 16 18  1  0
 17 19  2  0
 18 20  2  0
 19 20  1  0
M  END
>  <ref_url>  (948) 
https://fakepage.com

>  <submitter_name>  (948) 
Steph Wills

>  <submitter_email>  (948) 
stephanie.wills@dtc.ox.ac.uk

>  <submitter_institution>  (948) 
University of Oxford

>  <generation_date>  (948) 
2020-06-04

>  <method>  (948) 
Fragment network

>  <ref_mols>  (948) 
x0034_0B,x0212_0B

>  <ref_pdb>  (948) 
references/x0034-0B-x0212-0B-173538.holo_minimised_nolig.pdb

>  <original SMILES>  (948) 
Cc1ccccc1NC(=O)CSC(=O)c1ccccc1

>  <synthon>  (948) 
[Xe]c1ccccc1

>  <original_name>  (948) 
x0034-0B-x0212-0B-173538

>  <comRMSD_score>  (948) 
0.7136888003210532

>  <IF_score>  (948) 
0.625

>  <SuCOS_score>  (948) 
0.4818334233365412

>  <compound_ID>  (948) 
MOLPORT:004-248-779

$$$$

     RDKit          3D

 23 24  0  0  0  0  0  0  0  0999 V2000
  -12.2920    5.6220  -77.5710 C   0  0  0  0  0  0  0  0  0  0  0  0
  -11.4110    4.4540  -77.1500 C   0  0  0  0  0  0  0  0  0  0  0  0
  -11.5780    4.0140  -75.6700 C   0  0  0  0  0  0  0  0  0  0  0  0
  -10.5180    3.8150  -78.0220 C   0  0  0  0  0  0  0  0  0  0  0  0
  -10.6890    2.8440  -75.2740 C   0  0  0  0  0  0  0  0  0  0  0  0
   -9.7730    2.7470  -77.5530 C   0  0  0  0  0  0  0  0  0  0  0  0
   -9.8140    2.2670  -76.2730 C   0  0  0  0  0  0  0  0  0  0  0  0
   -8.8730    1.9710  -78.2660 O   0  0  0  0  0  0  0  0  0  0  0  0
   -8.7750    0.9790  -77.3430 C   0  0  1  0  0  0  0  0  0  0  0  0
   -9.3770   -0.3540  -77.8190 C   0  0  0  0  0  0  0  0  0  0  0  0
   -7.4260    0.7540  -76.5580 C   0  0  0  0  0  0  0  0  0  0  0  0
   -6.1440    0.9160  -77.2250 N   0  0  0  0  0  0  0  0  0  0  0  0
   -5.9070    2.2470  -77.7470 C   0  0  0  0  0  0  0  0  0  0  0  0
   -4.5650    2.7260  -77.7150 O   0  0  0  0  0  0  0  0  0  0  0  0
   -7.0830    2.8850  -78.2370 N   0  0  0  0  0  0  0  0  0  0  0  0
   -7.7790    3.5820  -77.2800 C   0  0  0  0  0  0  0  0  0  0  0  0
   -7.1810    2.9650  -79.5920 C   0  0  0  0  0  0  0  0  0  0  0  0
   -7.8630    1.7910  -80.2270 C   0  0  0  0  0  0  0  0  0  0  0  0
   -8.3870    2.0320  -81.4760 C   0  0  0  0  0  0  0  0  0  0  0  0
   -8.0020    0.4980  -79.6520 C   0  0  0  0  0  0  0  0  0  0  0  0
   -9.0630    1.0960  -82.2360 C   0  0  0  0  0  0  0  0  0  0  0  0
   -8.6720   -0.4990  -80.3550 C   0  0  0  0  0  0  0  0  0  0  0  0
   -9.2310   -0.1820  -81.7110 C   0  0  0  0  0  0  0  0  0  0  0  0
  1  2  1  0
  2  3  2  0
  2  4  1  0
  3  5  1  0
  4  6  2  0
  5  7  2  0
  6  7  1  0
  6  8  1  0
  8  9  1  0
  9 10  1  6
  9 11  1  0
 11 12  1  0
 12 13  1  0
 13 14  2  0
 13 15  1  0
 15 16  1  0
 15 17  1  0
 17 18  1  0
 18 19  2  0
 18 20  1  0
 19 21  1  0
 20 22  2  0
 21 23  2  0
 22 23  1  0
M  END
>  <ref_url>  (949) 
https://fakepage.com

>  <submitter_name>  (949) 
Steph Wills

>  <submitter_email>  (949) 
stephanie.wills@dtc.ox.ac.uk

>  <submitter_institution>  (949) 
University of Oxford

>  <generation_date>  (949) 
2020-06-04

>  <method>  (949) 
Fragment network

>  <ref_mols>  (949) 
x0034_0B,x0212_0B

>  <ref_pdb>  (949) 
references/x0034-0B-x0212-0B-174214.holo_minimised_nolig.pdb

>  <original SMILES>  (949) 
Cc1cccc(OC(C)CNC(=O)N(C)Cc2ccccc2)c1

>  <synthon>  (949) 
[Xe]c1ccccc1

>  <original_name>  (949) 
x0034-0B-x0212-0B-174214

>  <comRMSD_score>  (949) 
0.9495143811443824

>  <IF_score>  (949) 
0.625

>  <SuCOS_score>  (949) 
0.4862550594258084

>  <compound_ID>  (949) 
REAL:Z1284105240

$$$$

     RDKit          3D

 22 23  0  0  0  0  0  0  0  0999 V2000
  -12.4060    5.4500  -76.9690 C   0  0  0  0  0  0  0  0  0  0  0  0
  -11.3030    4.4530  -76.7560 C   0  0  0  0  0  0  0  0  0  0  0  0
  -10.2490    4.3800  -77.6620 C   0  0  0  0  0  0  0  0  0  0  0  0
  -11.3050    3.5890  -75.6560 C   0  0  0  0  0  0  0  0  0  0  0  0
   -9.2100    3.4750  -77.4670 C   0  0  0  0  0  0  0  0  0  0  0  0
  -10.2680    2.6720  -75.4650 C   0  0  0  0  0  0  0  0  0  0  0  0
   -9.2000    2.6070  -76.3660 C   0  0  0  0  0  0  0  0  0  0  0  0
   -7.8500    1.4490  -76.1150 S   0  0  0  0  0  0  0  0  0  0  0  0
   -8.6120   -0.1940  -75.7590 C   0  0  0  0  0  0  0  0  0  0  0  0
   -9.9200   -0.4940  -76.4950 C   0  0  1  0  0  0  0  0  0  0  0  0
  -10.9930   -0.3740  -75.9110 O   0  0  0  0  0  0  0  0  0  0  0  0
   -9.9460    0.3470  -77.7610 C   0  0  0  0  0  0  0  0  0  0  0  0
   -8.5510    0.5610  -78.3380 C   0  0  0  0  0  0  0  0  0  0  0  0
   -8.1530    1.8760  -78.6240 C   0  0  0  0  0  0  0  0  0  0  0  0
   -6.7970    1.9690  -78.7420 O   0  0  0  0  0  0  0  0  0  0  0  0
   -6.3960    1.9810  -80.1010 C   0  0  0  0  0  0  0  0  0  0  0  0
   -7.4400    1.2930  -80.6930 C   0  0  0  0  0  0  0  0  0  0  0  0
   -7.7040   -0.1100  -80.3290 C   0  0  0  0  0  0  0  0  0  0  0  0
   -8.2800    1.8860  -81.6350 C   0  0  0  0  0  0  0  0  0  0  0  0
   -8.8330   -0.8640  -80.9360 C   0  0  0  0  0  0  0  0  0  0  0  0
   -9.3350    1.1600  -82.2030 C   0  0  0  0  0  0  0  0  0  0  0  0
   -9.6130   -0.1800  -81.8620 C   0  0  0  0  0  0  0  0  0  0  0  0
  1  2  1  0
  2  3  2  0
  2  4  1  0
  3  5  1  0
  4  6  2  0
  5  7  2  0
  6  7  1  0
  7  8  1  0
  8  9  1  0
  9 10  1  0
 10 11  1  1
 10 12  1  0
 12 13  1  0
 13 14  1  0
 14 15  1  0
 15 16  1  0
 16 17  1  0
 17 18  2  0
 17 19  1  0
 18 20  1  0
 19 21  2  0
 20 22  2  0
 21 22  1  0
M  END
>  <ref_url>  (950) 
https://fakepage.com

>  <submitter_name>  (950) 
Steph Wills

>  <submitter_email>  (950) 
stephanie.wills@dtc.ox.ac.uk

>  <submitter_institution>  (950) 
University of Oxford

>  <generation_date>  (950) 
2020-06-04

>  <method>  (950) 
Fragment network

>  <ref_mols>  (950) 
x0034_0B,x0212_0B

>  <ref_pdb>  (950) 
references/x0034-0B-x0212-0B-175276.holo_minimised_nolig.pdb

>  <original SMILES>  (950) 
Cc1ccc(SCC(O)CCCOCc2ccccc2)cc1

>  <synthon>  (950) 
[Xe]c1ccccc1

>  <original_name>  (950) 
x0034-0B-x0212-0B-175276

>  <comRMSD_score>  (950) 
0.7257027245673285

>  <IF_score>  (950) 
0.65

>  <SuCOS_score>  (950) 
0.4918842231126964

>  <compound_ID>  (950) 
CHEMSPACE-BB:CSMB00116413593

$$$$

     RDKit          3D

 22 23  0  0  0  0  0  0  0  0999 V2000
   -9.9530   -0.2720  -76.2640 O   0  0  0  0  0  0  0  0  0  0  0  0
   -8.4540    0.1430  -75.7930 S   0  0  0  0  0  0  0  0  0  0  0  0
   -8.1990    0.2780  -74.3750 O   0  0  0  0  0  0  0  0  0  0  0  0
   -7.9670    1.7200  -76.5720 C   0  0  0  0  0  0  0  0  0  0  0  0
   -7.2790   -1.0480  -76.5480 C   0  0  0  0  0  0  0  0  0  0  0  0
   -9.1490    2.5990  -76.8490 C   0  0  0  0  0  0  0  0  0  0  0  0
   -7.8980   -1.9100  -77.4760 C   0  0  2  0  0  0  0  0  0  0  0  0
   -9.2040    3.4570  -77.9690 C   0  0  0  0  0  0  0  0  0  0  0  0
  -10.2710    2.6180  -76.0020 C   0  0  0  0  0  0  0  0  0  0  0  0
   -7.0730   -2.2210  -78.3280 O   0  0  0  0  0  0  0  0  0  0  0  0
   -9.1730   -1.4790  -78.1950 C   0  0  0  0  0  0  0  0  0  0  0  0
  -10.2790    4.2990  -78.2710 C   0  0  0  0  0  0  0  0  0  0  0  0
  -11.3450    3.4530  -76.2930 C   0  0  0  0  0  0  0  0  0  0  0  0
   -9.1890   -1.7490  -79.5210 O   0  0  0  0  0  0  0  0  0  0  0  0
  -11.3510    4.2740  -77.3960 C   0  0  0  0  0  0  0  0  0  0  0  0
   -8.9760   -0.5720  -80.2820 C   0  0  0  0  0  0  0  0  0  0  0  0
   -8.1580    0.3930  -79.4480 C   0  0  0  0  0  0  0  0  0  0  0  0
   -9.3870   -0.2260  -81.5750 C   0  0  0  0  0  0  0  0  0  0  0  0
   -7.8330    1.6110  -79.9750 C   0  0  0  0  0  0  0  0  0  0  0  0
   -9.0430    1.0210  -82.0960 C   0  0  0  0  0  0  0  0  0  0  0  0
   -8.2950    1.9200  -81.3360 C   0  0  0  0  0  0  0  0  0  0  0  0
   -7.9770    3.0990  -81.8240 F   0  0  0  0  0  0  0  0  0  0  0  0
  1  2  2  0
  2  3  2  0
  2  4  1  0
  2  5  1  0
  4  6  1  0
  5  7  1  0
  6  8  2  0
  6  9  1  0
  7 10  1  6
  7 11  1  0
  8 12  1  0
  9 13  2  0
 11 14  1  0
 12 15  2  0
 13 15  1  0
 14 16  1  0
 16 17  2  0
 16 18  1  0
 17 19  1  0
 18 20  2  0
 19 21  2  0
 20 21  1  0
 21 22  1  0
M  END
>  <ref_url>  (951) 
https://fakepage.com

>  <submitter_name>  (951) 
Steph Wills

>  <submitter_email>  (951) 
stephanie.wills@dtc.ox.ac.uk

>  <submitter_institution>  (951) 
University of Oxford

>  <generation_date>  (951) 
2020-06-04

>  <method>  (951) 
Fragment network

>  <ref_mols>  (951) 
x0034_0B,x0212_0B

>  <ref_pdb>  (951) 
references/x0034-0B-x0212-0B-176554.holo_minimised_nolig.pdb

>  <original SMILES>  (951) 
O=S(=O)(Cc1ccccc1)CC(O)COc1ccc(F)cc1

>  <synthon>  (951) 
[Xe]c1ccccc1

>  <original_name>  (951) 
x0034-0B-x0212-0B-176554

>  <comRMSD_score>  (951) 
0.6461038788168839

>  <IF_score>  (951) 
0.375

>  <SuCOS_score>  (951) 
0.5271358362206162

>  <compound_ID>  (951) 
MOLPORT:002-912-879, REAL:Z822340928

$$$$

     RDKit          3D

 21 22  0  0  0  0  0  0  0  0999 V2000
  -12.6120    5.3810  -77.4720 C   0  0  0  0  0  0  0  0  0  0  0  0
  -11.4890    4.4640  -77.1120 C   0  0  0  0  0  0  0  0  0  0  0  0
  -10.3400    4.2440  -78.1060 C   0  0  0  0  0  0  0  0  0  0  0  0
  -11.4530    3.7950  -75.8780 C   0  0  0  0  0  0  0  0  0  0  0  0
   -9.3040    3.3980  -77.7500 C   0  0  0  0  0  0  0  0  0  0  0  0
  -10.4020    2.9460  -75.5450 C   0  0  0  0  0  0  0  0  0  0  0  0
   -9.3360    2.7220  -76.4120 C   0  0  0  0  0  0  0  0  0  0  0  0
   -8.2260    1.8130  -76.0010 C   0  0  0  0  0  0  0  0  0  0  0  0
   -7.2540    2.4750  -75.6630 O   0  0  0  0  0  0  0  0  0  0  0  0
   -8.2430    0.2880  -76.0250 C   0  0  0  0  0  0  0  0  0  0  0  0
   -7.1930   -0.3150  -76.8800 C   0  0  0  0  0  0  0  0  0  0  0  0
   -6.3040    0.6380  -77.5700 N   0  0  0  0  0  0  0  0  0  0  0  0
   -6.9050    1.8550  -77.8480 N   0  0  0  0  0  0  0  0  0  0  0  0
   -7.0800    2.2320  -79.2500 C   0  0  0  0  0  0  0  0  0  0  0  0
   -6.4810    3.3440  -79.9150 O   0  0  0  0  0  0  0  0  0  0  0  0
   -7.8920    1.4670  -80.0900 C   0  0  0  0  0  0  0  0  0  0  0  0
   -8.3450    0.2170  -79.6540 C   0  0  0  0  0  0  0  0  0  0  0  0
   -8.2610    1.9240  -81.3690 C   0  0  0  0  0  0  0  0  0  0  0  0
   -9.1520   -0.5660  -80.4790 C   0  0  0  0  0  0  0  0  0  0  0  0
   -9.0630    1.1420  -82.1910 C   0  0  0  0  0  0  0  0  0  0  0  0
   -9.4990   -0.0940  -81.7380 C   0  0  0  0  0  0  0  0  0  0  0  0
  1  2  1  0
  2  3  2  0
  2  4  1  0
  3  5  1  0
  4  6  2  0
  5  7  2  0
  6  7  1  0
  7  8  1  0
  8  9  2  0
  8 10  1  0
 10 11  2  3
 11 12  1  0
 12 13  1  0
 13 14  1  0
 14 15  2  0
 14 16  1  0
 16 17  2  0
 16 18  1  0
 17 19  1  0
 18 20  2  0
 19 21  2  0
 20 21  1  0
M  END
>  <ref_url>  (952) 
https://fakepage.com

>  <submitter_name>  (952) 
Steph Wills

>  <submitter_email>  (952) 
stephanie.wills@dtc.ox.ac.uk

>  <submitter_institution>  (952) 
University of Oxford

>  <generation_date>  (952) 
2020-06-04

>  <method>  (952) 
Fragment network

>  <ref_mols>  (952) 
x0034_0B,x0212_0B

>  <ref_pdb>  (952) 
references/x0034-0B-x0212-0B-179328.holo_minimised_nolig.pdb

>  <original SMILES>  (952) 
Cc1ccc(C(=O)C=CNNC(=O)c2ccccc2)cc1

>  <synthon>  (952) 
[Xe]c1ccccc1

>  <original_name>  (952) 
x0034-0B-x0212-0B-179328

>  <comRMSD_score>  (952) 
0.940371872856296

>  <IF_score>  (952) 
0.625

>  <SuCOS_score>  (952) 
0.5326516263941218

>  <compound_ID>  (952) 
MOLPORT:002-114-803

$$$$

     RDKit          3D

 21 22  0  0  0  0  0  0  0  0999 V2000
   -6.5840    3.2210  -76.1360 C   0  0  0  0  0  0  0  0  0  0  0  0
   -7.6050    2.1700  -76.4700 C   0  0  1  0  0  0  0  0  0  0  0  0
   -7.6930    1.1320  -74.8990 S   0  0  0  0  0  0  0  0  0  0  0  0
   -8.8970    2.8690  -76.8320 C   0  0  0  0  0  0  0  0  0  0  0  0
   -8.9870   -0.0520  -75.1610 C   0  0  0  0  0  0  0  0  0  0  0  0
  -10.1030    2.7330  -75.9650 C   0  0  0  0  0  0  0  0  0  0  0  0
   -8.9980    3.6580  -77.9770 C   0  0  0  0  0  0  0  0  0  0  0  0
   -9.0680   -0.6620  -76.3970 C   0  0  0  0  0  0  0  0  0  0  0  0
  -11.2680    3.3990  -76.3250 C   0  0  0  0  0  0  0  0  0  0  0  0
  -10.1970    4.3020  -78.2850 C   0  0  0  0  0  0  0  0  0  0  0  0
   -8.9340    0.1050  -77.4940 C   0  0  0  0  0  0  0  0  0  0  0  0
  -11.3200    4.1770  -77.4660 C   0  0  0  0  0  0  0  0  0  0  0  0
   -9.7730    0.9850  -77.5140 O   0  0  0  0  0  0  0  0  0  0  0  0
   -7.9920   -0.1160  -78.4610 N   0  0  0  0  0  0  0  0  0  0  0  0
   -8.2970    0.3110  -79.7750 C   0  0  0  0  0  0  0  0  0  0  0  0
   -9.0230   -0.6990  -80.6080 C   0  0  0  0  0  0  0  0  0  0  0  0
   -7.9540    1.5870  -80.2290 C   0  0  0  0  0  0  0  0  0  0  0  0
   -9.3760   -0.2640  -81.9930 C   0  0  0  0  0  0  0  0  0  0  0  0
   -8.2930    1.9700  -81.5130 C   0  0  0  0  0  0  0  0  0  0  0  0
   -8.9670    1.1360  -82.3990 C   0  0  0  0  0  0  0  0  0  0  0  0
   -7.9630    3.1790  -81.8960 F   0  0  0  0  0  0  0  0  0  0  0  0
  2  1  1  1
  2  3  1  0
  2  4  1  0
  3  5  1  0
  4  6  2  0
  4  7  1  0
  5  8  1  0
  6  9  1  0
  7 10  2  0
  8 11  1  0
  9 12  2  0
 10 12  1  0
 11 13  2  0
 11 14  1  0
 14 15  1  0
 15 16  2  0
 15 17  1  0
 16 18  1  0
 17 19  2  0
 18 20  2  0
 19 20  1  0
 19 21  1  0
M  END
>  <ref_url>  (953) 
https://fakepage.com

>  <submitter_name>  (953) 
Steph Wills

>  <submitter_email>  (953) 
stephanie.wills@dtc.ox.ac.uk

>  <submitter_institution>  (953) 
University of Oxford

>  <generation_date>  (953) 
2020-06-04

>  <method>  (953) 
Fragment network

>  <ref_mols>  (953) 
x0034_0B,x0212_0B

>  <ref_pdb>  (953) 
references/x0034-0B-x0212-0B-179466.holo_minimised_nolig.pdb

>  <original SMILES>  (953) 
CC(SCCC(=O)Nc1cccc(F)c1)c1ccccc1

>  <synthon>  (953) 
[Xe]c1ccccc1

>  <original_name>  (953) 
x0034-0B-x0212-0B-179466

>  <comRMSD_score>  (953) 
0.8937794905779488

>  <IF_score>  (953) 
0.5

>  <SuCOS_score>  (953) 
0.4924721658111185

>  <compound_ID>  (953) 
MOLPORT:009-267-278

$$$$

     RDKit          3D

 20 21  0  0  0  0  0  0  0  0999 V2000
  -12.4480    5.2750  -77.3870 C   0  0  0  0  0  0  0  0  0  0  0  0
  -11.3150    4.3560  -77.0580 C   0  0  0  0  0  0  0  0  0  0  0  0
  -10.1550    4.1830  -78.0590 C   0  0  0  0  0  0  0  0  0  0  0  0
  -11.2780    3.6390  -75.8490 C   0  0  0  0  0  0  0  0  0  0  0  0
   -9.1070    3.3340  -77.7350 C   0  0  0  0  0  0  0  0  0  0  0  0
  -10.2190    2.7800  -75.5420 C   0  0  0  0  0  0  0  0  0  0  0  0
   -9.1500    2.6120  -76.4310 C   0  0  0  0  0  0  0  0  0  0  0  0
   -7.7450    1.5570  -76.1310 S   0  0  0  0  0  0  0  0  0  0  0  0
   -8.3150   -0.1590  -75.9960 C   0  0  0  0  0  0  0  0  0  0  0  0
   -8.5480   -0.6570  -77.3870 C   0  0  0  0  0  0  0  0  0  0  0  0
   -8.4380    0.6410  -78.1630 C   0  0  0  0  0  0  0  0  0  0  0  0
   -9.4460    1.1940  -78.6140 O   0  0  0  0  0  0  0  0  0  0  0  0
   -7.2560    1.0050  -78.2170 O   0  0  0  0  0  0  0  0  0  0  0  0
   -7.0110    1.8510  -79.3230 C   0  0  0  0  0  0  0  0  0  0  0  0
   -7.8130    1.2590  -80.2770 C   0  0  0  0  0  0  0  0  0  0  0  0
   -8.2580    1.9150  -81.4130 C   0  0  0  0  0  0  0  0  0  0  0  0
   -8.1860   -0.0760  -80.0540 C   0  0  0  0  0  0  0  0  0  0  0  0
   -9.0680    1.2240  -82.3010 C   0  0  0  0  0  0  0  0  0  0  0  0
   -8.9930   -0.7480  -80.9310 C   0  0  0  0  0  0  0  0  0  0  0  0
   -9.4310   -0.0970  -82.0510 C   0  0  0  0  0  0  0  0  0  0  0  0
  1  2  1  0
  2  3  2  0
  2  4  1  0
  3  5  1  0
  4  6  2  0
  5  7  2  0
  6  7  1  0
  7  8  1  0
  8  9  1  0
  9 10  1  0
 10 11  1  0
 11 12  2  0
 11 13  1  0
 13 14  1  0
 14 15  1  0
 15 16  2  0
 15 17  1  0
 16 18  1  0
 17 19  2  0
 18 20  2  0
 19 20  1  0
M  END
>  <ref_url>  (954) 
https://fakepage.com

>  <submitter_name>  (954) 
Steph Wills

>  <submitter_email>  (954) 
stephanie.wills@dtc.ox.ac.uk

>  <submitter_institution>  (954) 
University of Oxford

>  <generation_date>  (954) 
2020-06-04

>  <method>  (954) 
Fragment network

>  <ref_mols>  (954) 
x0034_0B,x0212_0B

>  <ref_pdb>  (954) 
references/x0034-0B-x0212-0B-180146.holo_minimised_nolig.pdb

>  <original SMILES>  (954) 
Cc1ccc(SCCC(=O)OCc2ccccc2)cc1

>  <synthon>  (954) 
[Xe]c1ccccc1

>  <original_name>  (954) 
x0034-0B-x0212-0B-180146

>  <comRMSD_score>  (954) 
0.617217981783614

>  <IF_score>  (954) 
0.7083333333333333

>  <SuCOS_score>  (954) 
0.5111951923971569

>  <compound_ID>  (954) 
CHEMSPACE-BB:CSMB00104129108

$$$$

     RDKit          3D

 20 21  0  0  0  0  0  0  0  0999 V2000
  -12.2590    5.4430  -77.0480 C   0  0  0  0  0  0  0  0  0  0  0  0
  -11.1840    4.4290  -76.7540 C   0  0  0  0  0  0  0  0  0  0  0  0
  -11.2670    3.5960  -75.6400 C   0  0  0  0  0  0  0  0  0  0  0  0
  -10.0800    4.3020  -77.5880 C   0  0  0  0  0  0  0  0  0  0  0  0
  -10.2640    2.6630  -75.3770 C   0  0  0  0  0  0  0  0  0  0  0  0
   -9.0830    3.3750  -77.3160 C   0  0  0  0  0  0  0  0  0  0  0  0
   -9.1530    2.5300  -76.1960 C   0  0  0  0  0  0  0  0  0  0  0  0
   -8.1960    1.5470  -75.8170 N   0  0  0  0  0  0  0  0  0  0  0  0
   -8.0890    0.1910  -76.0510 C   0  0  0  0  0  0  0  0  0  0  0  0
   -9.3210   -0.1900  -76.7610 C   0  0  1  0  0  0  0  0  0  0  0  0
  -10.6190    0.0860  -76.0230 C   0  0  0  0  0  0  0  0  0  0  0  0
   -9.1630    0.7380  -77.9590 C   0  0  0  0  0  0  0  0  0  0  0  0
   -8.1010    1.3970  -77.7580 O   0  0  0  0  0  0  0  0  0  0  0  0
   -7.4890    1.9040  -78.9310 C   0  0  0  0  0  0  0  0  0  0  0  0
   -8.1110    1.3610  -80.0250 C   0  0  0  0  0  0  0  0  0  0  0  0
   -8.5360   -0.0800  -79.8480 C   0  0  0  0  0  0  0  0  0  0  0  0
   -8.3770    2.0230  -81.2300 C   0  0  0  0  0  0  0  0  0  0  0  0
   -9.1870   -0.7450  -80.8390 C   0  0  0  0  0  0  0  0  0  0  0  0
   -9.0430    1.3390  -82.2460 C   0  0  0  0  0  0  0  0  0  0  0  0
   -9.4420    0.0090  -82.0710 C   0  0  0  0  0  0  0  0  0  0  0  0
  1  2  1  0
  2  3  2  0
  2  4  1  0
  3  5  1  0
  4  6  2  0
  5  7  2  0
  6  7  1  0
  7  8  1  0
  8  9  1  0
  9 10  1  0
 10 11  1  1
 10 12  1  0
 12 13  1  0
 13 14  1  0
 14 15  1  0
 15 16  2  0
 15 17  1  0
 16 18  1  0
 17 19  2  0
 18 20  2  0
 19 20  1  0
M  END
>  <ref_url>  (955) 
https://fakepage.com

>  <submitter_name>  (955) 
Steph Wills

>  <submitter_email>  (955) 
stephanie.wills@dtc.ox.ac.uk

>  <submitter_institution>  (955) 
University of Oxford

>  <generation_date>  (955) 
2020-06-04

>  <method>  (955) 
Fragment network

>  <ref_mols>  (955) 
x0034_0B,x0212_0B

>  <ref_pdb>  (955) 
references/x0034-0B-x0212-0B-182776.holo_minimised_nolig.pdb

>  <original SMILES>  (955) 
Cc1ccc(NCC(C)COCc2ccccc2)cc1

>  <synthon>  (955) 
[Xe]c1ccccc1

>  <original_name>  (955) 
x0034-0B-x0212-0B-182776

>  <comRMSD_score>  (955) 
0.7647797068437411

>  <IF_score>  (955) 
0.65

>  <SuCOS_score>  (955) 
0.4693518844941691

>  <compound_ID>  (955) 
CHEMSPACE-BB:CSMB00116415761

$$$$

     RDKit          3D

 19 20  0  0  0  0  0  0  0  0999 V2000
  -12.2670    5.6020  -77.3460 C   0  0  0  0  0  0  0  0  0  0  0  0
  -11.3730    4.4120  -77.2620 C   0  0  0  0  0  0  0  0  0  0  0  0
  -10.3980    4.1630  -78.2220 C   0  0  0  0  0  0  0  0  0  0  0  0
  -11.5140    3.5270  -76.2060 C   0  0  0  0  0  0  0  0  0  0  0  0
   -9.5910    3.0320  -78.1130 C   0  0  0  0  0  0  0  0  0  0  0  0
  -10.7130    2.4010  -76.0870 C   0  0  0  0  0  0  0  0  0  0  0  0
   -9.7470    2.1330  -77.0400 C   0  0  0  0  0  0  0  0  0  0  0  0
   -9.0020    0.9540  -76.8660 N   0  0  0  0  0  0  0  0  0  0  0  0
   -8.1090    0.5010  -75.8010 C   0  0  0  0  0  0  0  0  0  0  0  0
   -8.8420    0.0110  -74.2470 S   0  0  0  0  0  0  0  0  0  0  0  0
   -6.7120    0.4650  -76.2790 N   0  0  0  0  0  0  0  0  0  0  0  0
   -7.0010    0.3850  -77.7690 N   0  0  0  0  0  0  0  0  0  0  0  0
   -7.3500    1.5090  -78.4850 C   0  0  0  0  0  0  0  0  0  0  0  0
   -7.9440    1.2550  -79.8380 C   0  0  0  0  0  0  0  0  0  0  0  0
   -8.5500   -0.1230  -79.7760 C   0  0  0  0  0  0  0  0  0  0  0  0
   -8.0350    2.0220  -81.0120 C   0  0  0  0  0  0  0  0  0  0  0  0
   -9.1970   -0.6280  -80.8610 C   0  0  0  0  0  0  0  0  0  0  0  0
   -8.7020    1.4770  -82.1080 C   0  0  0  0  0  0  0  0  0  0  0  0
   -9.2730    0.2040  -82.0580 C   0  0  0  0  0  0  0  0  0  0  0  0
  1  2  1  0
  2  3  2  0
  2  4  1  0
  3  5  1  0
  4  6  2  0
  5  7  2  0
  6  7  1  0
  7  8  1  0
  8  9  1  0
  9 10  2  0
  9 11  1  0
 11 12  1  0
 12 13  2  3
 13 14  1  0
 14 15  2  0
 14 16  1  0
 15 17  1  0
 16 18  2  0
 17 19  2  0
 18 19  1  0
M  END
>  <ref_url>  (956) 
https://fakepage.com

>  <submitter_name>  (956) 
Steph Wills

>  <submitter_email>  (956) 
stephanie.wills@dtc.ox.ac.uk

>  <submitter_institution>  (956) 
University of Oxford

>  <generation_date>  (956) 
2020-06-04

>  <method>  (956) 
Fragment network

>  <ref_mols>  (956) 
x0034_0B,x0212_0B

>  <ref_pdb>  (956) 
references/x0034-0B-x0212-0B-184258.holo_minimised_nolig.pdb

>  <original SMILES>  (956) 
Cc1ccc(NC(=S)NN=Cc2ccccc2)cc1

>  <synthon>  (956) 
[Xe]c1ccccc1

>  <original_name>  (956) 
x0034-0B-x0212-0B-184258

>  <comRMSD_score>  (956) 
0.8896826109057929

>  <IF_score>  (956) 
0.5

>  <SuCOS_score>  (956) 
0.4362010696217641

>  <compound_ID>  (956) 
MOLPORT:000-421-815

$$$$

     RDKit          3D

 23 24  0  0  0  0  0  0  0  0999 V2000
   -7.4770    2.9350  -79.3170 C   0  0  0  0  0  0  0  0  0  0  0  0
   -8.2680    1.9640  -80.1440 C   0  0  0  0  0  0  0  0  0  0  0  0
   -8.1950    2.0800  -81.5290 C   0  0  0  0  0  0  0  0  0  0  0  0
   -9.0770    0.9450  -79.6170 C   0  0  0  0  0  0  0  0  0  0  0  0
   -8.8840    1.2130  -82.3640 C   0  0  0  0  0  0  0  0  0  0  0  0
   -9.7700    0.0700  -80.4650 C   0  0  0  0  0  0  0  0  0  0  0  0
   -9.2390    0.7440  -78.1860 N   0  0  0  0  0  0  0  0  0  0  0  0
   -9.6710    0.2040  -81.8350 C   0  0  0  0  0  0  0  0  0  0  0  0
   -9.4850   -0.6550  -77.9860 C   0  0  0  0  0  0  0  0  0  0  0  0
  -10.7880   -1.4380  -77.0230 S   0  0  0  0  0  0  0  0  0  0  0  0
   -8.4860   -1.4240  -78.7280 N   0  0  0  0  0  0  0  0  0  0  0  0
   -7.3050   -1.7760  -78.1710 N   0  0  0  0  0  0  0  0  0  0  0  0
   -6.6060   -0.7830  -77.5410 C   0  0  0  0  0  0  0  0  0  0  0  0
   -5.5550   -0.0130  -78.1410 O   0  0  0  0  0  0  0  0  0  0  0  0
   -7.0700   -0.6160  -76.0990 C   0  0  0  0  0  0  0  0  0  0  0  0
   -8.6130    0.2840  -75.9280 S   0  0  0  0  0  0  0  0  0  0  0  0
   -7.9970    1.9070  -76.4550 C   0  0  0  0  0  0  0  0  0  0  0  0
   -9.1520    2.8560  -76.6670 C   0  0  0  0  0  0  0  0  0  0  0  0
  -10.2130    2.8490  -75.6010 C   0  0  0  0  0  0  0  0  0  0  0  0
   -9.3040    3.7090  -77.7540 C   0  0  0  0  0  0  0  0  0  0  0  0
  -11.3130    3.6740  -75.6940 C   0  0  0  0  0  0  0  0  0  0  0  0
  -10.4020    4.5450  -77.8740 C   0  0  0  0  0  0  0  0  0  0  0  0
  -11.4330    4.5990  -76.9200 C   0  0  0  0  0  0  0  0  0  0  0  0
  1  2  1  0
  2  3  2  0
  2  4  1  0
  3  5  1  0
  4  6  2  0
  4  7  1  0
  5  8  2  0
  6  8  1  0
  7  9  1  0
  9 10  2  0
  9 11  1  0
 11 12  1  0
 12 13  1  0
 13 14  2  0
 13 15  1  0
 15 16  1  0
 16 17  1  0
 17 18  1  0
 18 19  2  0
 18 20  1  0
 19 21  1  0
 20 22  2  0
 21 23  2  0
 22 23  1  0
M  END
>  <ref_url>  (957) 
https://fakepage.com

>  <submitter_name>  (957) 
Steph Wills

>  <submitter_email>  (957) 
stephanie.wills@dtc.ox.ac.uk

>  <submitter_institution>  (957) 
University of Oxford

>  <generation_date>  (957) 
2020-06-04

>  <method>  (957) 
Fragment network

>  <ref_mols>  (957) 
x0034_0B,x0212_0B

>  <ref_pdb>  (957) 
references/x0034-0B-x0212-0B-184586.holo_minimised_nolig.pdb

>  <original SMILES>  (957) 
Cc1ccccc1NC(=S)NNC(=O)CSCc1ccccc1

>  <synthon>  (957) 
[Xe]c1ccccc1

>  <original_name>  (957) 
x0034-0B-x0212-0B-184586

>  <comRMSD_score>  (957) 
0.8888523395263579

>  <IF_score>  (957) 
0.65

>  <SuCOS_score>  (957) 
0.5106807971296125

>  <compound_ID>  (957) 
MOLPORT:001-577-142

$$$$

     RDKit          3D

 22 24  0  0  0  0  0  0  0  0999 V2000
   -9.2610   -0.3710  -74.8940 O   0  0  0  0  0  0  0  0  0  0  0  0
   -8.4750   -0.0990  -75.7870 C   0  0  0  0  0  0  0  0  0  0  0  0
   -8.0840    1.3140  -76.2330 C   0  0  0  0  0  0  0  0  0  0  0  0
   -7.8680   -1.0030  -76.5960 N   0  0  0  0  0  0  0  0  0  0  0  0
   -9.0780    2.3090  -76.4050 C   0  0  0  0  0  0  0  0  0  0  0  0
   -8.7690   -1.8640  -77.3520 C   0  0  0  0  0  0  0  0  0  0  0  0
  -10.1350    2.4470  -75.4750 C   0  0  0  0  0  0  0  0  0  0  0  0
   -9.0070    3.1750  -77.5280 C   0  0  0  0  0  0  0  0  0  0  0  0
  -10.2180   -1.9070  -77.2610 N   0  0  0  0  0  0  0  0  0  0  0  0
   -8.3250   -2.8320  -78.7570 S   0  0  0  0  0  0  0  0  0  0  0  0
  -11.1250    3.4230  -75.6230 C   0  0  0  0  0  0  0  0  0  0  0  0
   -9.9790    4.1470  -77.6990 C   0  0  0  0  0  0  0  0  0  0  0  0
  -10.4340   -1.0800  -78.2470 N   0  0  0  0  0  0  0  0  0  0  0  0
   -9.3500   -1.3980  -79.1900 C   0  0  0  0  0  0  0  0  0  0  0  0
  -11.0250    4.3000  -76.7940 C   0  0  0  0  0  0  0  0  0  0  0  0
   -9.1030   -0.3190  -80.1820 C   0  0  0  0  0  0  0  0  0  0  0  0
   -9.6600   -0.2630  -81.5830 C   0  0  0  0  0  0  0  0  0  0  0  0
   -8.3040    0.6470  -79.6070 C   0  0  0  0  0  0  0  0  0  0  0  0
   -9.2080    1.0410  -82.2440 C   0  0  0  0  0  0  0  0  0  0  0  0
   -7.9520    1.7670  -80.2700 C   0  0  0  0  0  0  0  0  0  0  0  0
   -8.4010    1.9520  -81.5450 C   0  0  0  0  0  0  0  0  0  0  0  0
   -8.0430    3.0610  -82.1220 F   0  0  0  0  0  0  0  0  0  0  0  0
  1  2  2  0
  2  3  1  0
  2  4  1  0
  3  5  1  0
  4  6  2  3
  5  7  2  0
  5  8  1  0
  6  9  1  0
  6 10  1  0
  7 11  1  0
  8 12  2  0
  9 13  1  0
 10 14  1  0
 13 14  2  0
 11 15  2  0
 12 15  1  0
 14 16  1  0
 16 17  2  0
 16 18  1  0
 17 19  1  0
 18 20  2  0
 19 21  2  0
 20 21  1  0
 21 22  1  0
M  END
>  <ref_url>  (958) 
https://fakepage.com

>  <submitter_name>  (958) 
Steph Wills

>  <submitter_email>  (958) 
stephanie.wills@dtc.ox.ac.uk

>  <submitter_institution>  (958) 
University of Oxford

>  <generation_date>  (958) 
2020-06-04

>  <method>  (958) 
Fragment network

>  <ref_mols>  (958) 
x0034_0B,x0212_0B

>  <ref_pdb>  (958) 
references/x0034-0B-x0212-0B-184954.holo_minimised_nolig.pdb

>  <original SMILES>  (958) 
O=C(Cc1ccccc1)N=c1[nH]nc(-c2ccc(F)cc2)s1

>  <synthon>  (958) 
[Xe]c1ccccc1

>  <original_name>  (958) 
x0034-0B-x0212-0B-184954

>  <comRMSD_score>  (958) 
0.7043022026038198

>  <IF_score>  (958) 
0.55

>  <SuCOS_score>  (958) 
0.5078187744085509

>  <compound_ID>  (958) 
MOLPORT:000-837-569

$$$$

     RDKit          3D

 24 25  0  0  0  0  0  0  0  0999 V2000
   -9.0220    3.8440  -78.5520 C   0  0  0  0  0  0  0  0  0  0  0  0
   -7.9070    3.3950  -77.6380 C   0  0  0  0  0  0  0  0  0  0  0  0
   -7.0030    2.4070  -78.2610 N   0  0  0  0  0  0  0  0  0  0  0  0
   -6.9650    1.0260  -77.8080 C   0  0  0  0  0  0  0  0  0  0  0  0
   -6.8500    2.5580  -79.6370 C   0  0  1  0  0  0  0  0  0  0  0  0
   -5.8370    0.3280  -77.1740 O   0  0  0  0  0  0  0  0  0  0  0  0
   -8.1690    0.3460  -78.0650 C   0  0  0  0  0  0  0  0  0  0  0  0
   -5.4400    2.4930  -80.2140 C   0  0  0  0  0  0  0  0  0  0  0  0
   -7.7470    1.5470  -80.3090 C   0  0  0  0  0  0  0  0  0  0  0  0
   -8.8880   -0.2620  -76.5870 S   0  0  0  0  0  0  0  0  0  0  0  0
   -7.9680    0.2880  -79.7510 C   0  0  0  0  0  0  0  0  0  0  0  0
   -8.3580    1.8980  -81.5030 C   0  0  0  0  0  0  0  0  0  0  0  0
   -7.6580   -1.0610  -75.8490 O   0  0  0  0  0  0  0  0  0  0  0  0
   -8.9300    1.2750  -75.7480 C   0  0  0  0  0  0  0  0  0  0  0  0
   -8.8040   -0.6220  -80.3720 C   0  0  0  0  0  0  0  0  0  0  0  0
   -9.1940    0.9780  -82.1240 C   0  0  0  0  0  0  0  0  0  0  0  0
   -9.7930    2.3340  -76.3510 C   0  0  0  0  0  0  0  0  0  0  0  0
   -9.4150   -0.2750  -81.5500 C   0  0  0  0  0  0  0  0  0  0  0  0
  -10.7140    2.9170  -75.3410 C   0  0  0  0  0  0  0  0  0  0  0  0
   -9.8250    2.8060  -77.6730 C   0  0  0  0  0  0  0  0  0  0  0  0
  -10.2210   -1.1710  -82.1140 F   0  0  0  0  0  0  0  0  0  0  0  0
  -11.6470    3.9790  -75.7050 C   0  0  0  0  0  0  0  0  0  0  0  0
  -10.7140    3.8230  -78.0270 C   0  0  0  0  0  0  0  0  0  0  0  0
  -11.6130    4.4350  -77.1550 C   0  0  0  0  0  0  0  0  0  0  0  0
  1  2  1  0
  2  3  1  0
  3  4  1  0
  3  5  1  0
  4  6  2  0
  4  7  1  0
  5  8  1  1
  5  9  1  0
  7 10  1  0
  9 11  2  0
  9 12  1  0
 10 13  1  1
 10 14  1  0
 11 15  1  0
 12 16  2  0
 14 17  1  0
 15 18  2  0
 16 18  1  0
 17 19  2  0
 17 20  1  0
 18 21  1  0
 19 22  1  0
 20 23  2  0
 22 24  2  0
 23 24  1  0
M  CHG  2  10   1  13  -1
M  END
>  <ref_url>  (959) 
https://fakepage.com

>  <submitter_name>  (959) 
Steph Wills

>  <submitter_email>  (959) 
stephanie.wills@dtc.ox.ac.uk

>  <submitter_institution>  (959) 
University of Oxford

>  <generation_date>  (959) 
2020-06-04

>  <method>  (959) 
Fragment network

>  <ref_mols>  (959) 
x0034_0B,x0212_0B

>  <ref_pdb>  (959) 
references/x0034-0B-x0212-0B-185987.holo_minimised_nolig.pdb

>  <original SMILES>  (959) 
CCN(C(=O)C[S+]([O-])Cc1ccccc1)C(C)c1ccc(F)cc1

>  <synthon>  (959) 
[Xe]c1ccccc1

>  <original_name>  (959) 
x0034-0B-x0212-0B-185987

>  <comRMSD_score>  (959) 
0.6888795250259657

>  <IF_score>  (959) 
0.625

>  <SuCOS_score>  (959) 
0.5044454048492847

>  <compound_ID>  (959) 
REAL:Z1429571316

$$$$

     RDKit          3D

 25 26  0  0  0  0  0  0  0  0999 V2000
   -6.7280    2.7470  -79.6350 C   0  0  0  0  0  0  0  0  0  0  0  0
   -7.7350    1.7630  -80.1280 C   0  0  0  0  0  0  0  0  0  0  0  0
   -8.4440    1.9570  -81.3270 C   0  0  0  0  0  0  0  0  0  0  0  0
   -7.9800    0.6310  -79.3710 C   0  0  0  0  0  0  0  0  0  0  0  0
   -9.4030    1.0140  -81.7280 C   0  0  0  0  0  0  0  0  0  0  0  0
   -8.9100   -0.2770  -79.7630 C   0  0  0  0  0  0  0  0  0  0  0  0
   -9.6280   -0.0980  -80.9110 C   0  0  0  0  0  0  0  0  0  0  0  0
  -10.8100   -1.3700  -81.1840 S   0  0  0  0  0  0  0  0  0  0  0  0
  -10.1940   -2.4490  -81.9210 O   0  0  0  0  0  0  0  0  0  0  0  0
  -12.2800   -0.6820  -81.5670 O   0  0  0  0  0  0  0  0  0  0  0  0
  -11.0390   -1.8740  -79.5390 N   0  0  0  0  0  0  0  0  0  0  0  0
   -9.9900   -1.8730  -78.4960 C   0  0  1  0  0  0  0  0  0  0  0  0
  -10.0750   -0.5850  -77.6490 C   0  0  0  0  0  0  0  0  0  0  0  0
  -10.3290   -3.0730  -77.5750 C   0  0  0  0  0  0  0  0  0  0  0  0
   -8.9840   -0.3960  -76.6110 C   0  0  0  0  0  0  0  0  0  0  0  0
  -11.6210   -3.1090  -77.1140 O   0  0  0  0  0  0  0  0  0  0  0  0
   -9.3630   -3.9700  -77.2960 O   0  0  0  0  0  0  0  0  0  0  0  0
   -8.4740    1.0490  -76.7120 C   0  0  0  0  0  0  0  0  0  0  0  0
   -7.1440    1.3130  -76.7150 O   0  0  0  0  0  0  0  0  0  0  0  0
   -9.4100    2.2290  -76.7820 C   0  0  0  0  0  0  0  0  0  0  0  0
   -9.3680    3.1910  -77.9550 C   0  0  0  0  0  0  0  0  0  0  0  0
  -10.3440    2.4630  -75.7630 C   0  0  0  0  0  0  0  0  0  0  0  0
  -10.2370    4.2620  -78.0220 C   0  0  0  0  0  0  0  0  0  0  0  0
  -11.2380    3.5490  -75.8150 C   0  0  0  0  0  0  0  0  0  0  0  0
  -11.2330    4.4450  -76.8860 C   0  0  0  0  0  0  0  0  0  0  0  0
  1  2  1  0
  2  3  2  0
  2  4  1  0
  3  5  1  0
  4  6  2  0
  5  7  2  0
  6  7  1  0
  7  8  1  0
  8  9  2  0
  8 10  2  0
  8 11  1  0
 11 12  1  0
 12 13  1  1
 12 14  1  0
 13 15  1  0
 14 16  2  0
 14 17  1  0
 15 18  1  0
 18 19  2  0
 18 20  1  0
 20 21  2  0
 20 22  1  0
 21 23  1  0
 22 24  2  0
 23 25  2  0
 24 25  1  0
M  END
>  <ref_url>  (960) 
https://fakepage.com

>  <submitter_name>  (960) 
Steph Wills

>  <submitter_email>  (960) 
stephanie.wills@dtc.ox.ac.uk

>  <submitter_institution>  (960) 
University of Oxford

>  <generation_date>  (960) 
2020-06-04

>  <method>  (960) 
Fragment network

>  <ref_mols>  (960) 
x0034_0B,x0212_0B

>  <ref_pdb>  (960) 
references/x0034-0B-x0212-0B-186393.holo_minimised_nolig.pdb

>  <original SMILES>  (960) 
Cc1ccc(S(=O)(=O)NC(CCC(=O)c2ccccc2)C(=O)O)cc1

>  <synthon>  (960) 
[Xe]c1ccccc1

>  <original_name>  (960) 
x0034-0B-x0212-0B-186393

>  <comRMSD_score>  (960) 
0.7211137733215711

>  <IF_score>  (960) 
0.65

>  <SuCOS_score>  (960) 
0.4432539960363905

>  <compound_ID>  (960) 
REAL:Z1898904286

$$$$

     RDKit          3D

 21 22  0  0  0  0  0  0  0  0999 V2000
  -12.4450    5.4360  -77.3810 C   0  0  0  0  0  0  0  0  0  0  0  0
  -11.3680    4.4260  -77.1380 C   0  0  0  0  0  0  0  0  0  0  0  0
  -11.2860    3.7170  -75.9280 C   0  0  0  0  0  0  0  0  0  0  0  0
  -10.4220    4.1800  -78.1300 C   0  0  0  0  0  0  0  0  0  0  0  0
  -10.2700    2.7800  -75.7310 C   0  0  0  0  0  0  0  0  0  0  0  0
   -9.4110    3.2490  -77.9320 C   0  0  0  0  0  0  0  0  0  0  0  0
   -9.3310    2.5430  -76.7290 C   0  0  0  0  0  0  0  0  0  0  0  0
   -8.2780    1.6220  -76.6130 N   0  0  0  0  0  0  0  0  0  0  0  0
   -8.3050    0.3230  -76.1620 C   0  0  0  0  0  0  0  0  0  0  0  0
   -9.7300   -0.5230  -75.4900 S   0  0  0  0  0  0  0  0  0  0  0  0
   -7.0520   -0.2250  -76.2790 N   0  0  0  0  0  0  0  0  0  0  0  0
   -5.9750    0.4580  -76.8380 C   0  0  0  0  0  0  0  0  0  0  0  0
   -6.0610    0.7940  -78.2000 N   0  0  0  0  0  0  0  0  0  0  0  0
   -6.8270    1.7370  -78.9160 C   0  0  0  0  0  0  0  0  0  0  0  0
   -6.7940    3.1670  -78.7540 O   0  0  0  0  0  0  0  0  0  0  0  0
   -7.7530    1.1950  -79.9970 C   0  0  0  0  0  0  0  0  0  0  0  0
   -8.2930   -0.0470  -79.7200 C   0  0  0  0  0  0  0  0  0  0  0  0
   -8.0900    1.8150  -81.2180 C   0  0  0  0  0  0  0  0  0  0  0  0
   -9.1340   -0.7070  -80.5850 C   0  0  0  0  0  0  0  0  0  0  0  0
   -8.9470    1.1450  -82.1110 C   0  0  0  0  0  0  0  0  0  0  0  0
   -9.4690   -0.1230  -81.7910 C   0  0  0  0  0  0  0  0  0  0  0  0
  1  2  1  0
  2  3  2  0
  2  4  1  0
  3  5  1  0
  4  6  2  0
  5  7  2  0
  6  7  1  0
  7  8  1  0
  8  9  1  0
  9 10  2  0
  9 11  1  0
 11 12  1  0
 12 13  1  0
 13 14  1  0
 14 15  2  0
 14 16  1  0
 16 17  2  0
 16 18  1  0
 17 19  1  0
 18 20  2  0
 19 21  2  0
 20 21  1  0
M  END
>  <ref_url>  (961) 
https://fakepage.com

>  <submitter_name>  (961) 
Steph Wills

>  <submitter_email>  (961) 
stephanie.wills@dtc.ox.ac.uk

>  <submitter_institution>  (961) 
University of Oxford

>  <generation_date>  (961) 
2020-06-04

>  <method>  (961) 
Fragment network

>  <ref_mols>  (961) 
x0034_0B,x0212_0B

>  <ref_pdb>  (961) 
references/x0034-0B-x0212-0B-186483.holo_minimised_nolig.pdb

>  <original SMILES>  (961) 
Cc1ccc(NC(=S)NCNC(=O)c2ccccc2)cc1

>  <synthon>  (961) 
[Xe]c1ccccc1

>  <original_name>  (961) 
x0034-0B-x0212-0B-186483

>  <comRMSD_score>  (961) 
0.6695612161873035

>  <IF_score>  (961) 
0.7083333333333333

>  <SuCOS_score>  (961) 
0.4979040582359961

>  <compound_ID>  (961) 
MOLPORT:003-010-184

$$$$

     RDKit          3D

 20 21  0  0  0  0  0  0  0  0999 V2000
   -6.2070    3.1430  -79.5120 O   0  0  0  0  0  0  0  0  0  0  0  0
   -7.1680    2.5100  -79.0720 C   0  0  0  0  0  0  0  0  0  0  0  0
   -7.6940    2.6190  -77.7060 N   0  0  0  0  0  0  0  0  0  0  0  0
   -7.9020    1.5510  -79.9380 C   0  0  0  0  0  0  0  0  0  0  0  0
   -7.0370    2.0730  -76.5770 N   0  0  0  0  0  0  0  0  0  0  0  0
   -8.2000    0.3140  -79.3820 C   0  0  0  0  0  0  0  0  0  0  0  0
   -8.3020    1.8380  -81.2590 C   0  0  0  0  0  0  0  0  0  0  0  0
   -7.3980    0.9290  -76.1080 C   0  0  0  0  0  0  0  0  0  0  0  0
   -8.9520   -0.7030  -80.1990 C   0  0  0  0  0  0  0  0  0  0  0  0
   -9.0010    0.8860  -82.0200 C   0  0  0  0  0  0  0  0  0  0  0  0
   -8.3580    0.0260  -76.4640 C   0  0  0  0  0  0  0  0  0  0  0  0
   -9.3190   -0.3760  -81.4770 C   0  0  0  0  0  0  0  0  0  0  0  0
   -9.6500    0.3380  -76.8180 C   0  0  0  0  0  0  0  0  0  0  0  0
   -9.9810   -1.2950  -82.1620 F   0  0  0  0  0  0  0  0  0  0  0  0
  -10.1320    1.6610  -76.8530 C   0  0  0  0  0  0  0  0  0  0  0  0
   -9.9700    2.5180  -78.0800 C   0  0  0  0  0  0  0  0  0  0  0  0
  -10.8020    2.2310  -75.7550 C   0  0  0  0  0  0  0  0  0  0  0  0
  -10.5380    3.9000  -78.0840 C   0  0  0  0  0  0  0  0  0  0  0  0
  -11.3380    3.5420  -75.7690 C   0  0  0  0  0  0  0  0  0  0  0  0
  -11.2390    4.3870  -76.8890 C   0  0  0  0  0  0  0  0  0  0  0  0
  1  2  2  0
  2  3  1  0
  2  4  1  0
  3  5  1  0
  4  6  2  0
  4  7  1  0
  5  8  2  3
  6  9  1  0
  7 10  2  0
  8 11  1  0
  9 12  2  0
 10 12  1  0
 11 13  2  3
 12 14  1  0
 13 15  1  0
 15 16  2  0
 15 17  1  0
 16 18  1  0
 17 19  2  0
 18 20  2  0
 19 20  1  0
M  END
>  <ref_url>  (962) 
https://fakepage.com

>  <submitter_name>  (962) 
Steph Wills

>  <submitter_email>  (962) 
stephanie.wills@dtc.ox.ac.uk

>  <submitter_institution>  (962) 
University of Oxford

>  <generation_date>  (962) 
2020-06-04

>  <method>  (962) 
Fragment network

>  <ref_mols>  (962) 
x0034_0B,x0212_0B

>  <ref_pdb>  (962) 
references/x0034-0B-x0212-0B-186861.holo_minimised_nolig.pdb

>  <original SMILES>  (962) 
O=C(NN=CC=Cc1ccccc1)c1ccc(F)cc1

>  <synthon>  (962) 
[Xe]c1ccccc1

>  <original_name>  (962) 
x0034-0B-x0212-0B-186861

>  <comRMSD_score>  (962) 
0.9139404308329458

>  <IF_score>  (962) 
0.375

>  <SuCOS_score>  (962) 
0.4599335487741906

>  <compound_ID>  (962) 
MOLPORT:002-976-489

$$$$

     RDKit          3D

 21 22  0  0  0  0  0  0  0  0999 V2000
  -12.3260    5.5400  -77.0940 C   0  0  0  0  0  0  0  0  0  0  0  0
  -11.5290    4.3020  -76.8030 C   0  0  0  0  0  0  0  0  0  0  0  0
  -11.4110    3.7690  -75.5180 C   0  0  0  0  0  0  0  0  0  0  0  0
  -10.8870    3.6560  -77.8380 C   0  0  0  0  0  0  0  0  0  0  0  0
  -10.6610    2.6170  -75.2890 C   0  0  0  0  0  0  0  0  0  0  0  0
  -10.1400    2.4940  -77.6150 C   0  0  0  0  0  0  0  0  0  0  0  0
  -10.0250    1.9810  -76.3370 C   0  0  0  0  0  0  0  0  0  0  0  0
   -9.5310    1.9160  -78.7720 N   0  0  0  0  0  0  0  0  0  0  0  0
   -8.8880    2.9050  -79.5720 C   0  0  0  0  0  0  0  0  0  0  0  0
   -8.6670    3.0530  -80.7540 O   0  0  0  0  0  0  0  0  0  0  0  0
   -8.3650    3.9410  -78.6880 C   0  0  0  0  0  0  0  0  0  0  0  0
   -7.7810    3.4850  -77.5070 C   0  0  0  0  0  0  0  0  0  0  0  0
   -7.2810    2.1480  -77.8120 N   0  0  0  0  0  0  0  0  0  0  0  0
   -6.7570    1.9960  -79.1860 C   0  0  0  0  0  0  0  0  0  0  0  0
   -5.6810    2.4380  -79.5800 O   0  0  0  0  0  0  0  0  0  0  0  0
   -7.6100    1.2630  -80.0400 C   0  0  0  0  0  0  0  0  0  0  0  0
   -8.1770   -0.0610  -79.5560 C   0  0  0  0  0  0  0  0  0  0  0  0
   -7.9640    1.7170  -81.3340 C   0  0  0  0  0  0  0  0  0  0  0  0
   -9.0160   -0.7880  -80.3830 C   0  0  0  0  0  0  0  0  0  0  0  0
   -8.8110    0.9760  -82.1560 C   0  0  0  0  0  0  0  0  0  0  0  0
   -9.3360   -0.2430  -81.7230 C   0  0  0  0  0  0  0  0  0  0  0  0
  1  2  1  0
  2  3  2  0
  2  4  1  0
  3  5  1  0
  4  6  2  0
  5  7  2  0
  6  7  1  0
  6  8  1  0
  8  9  1  0
  9 10  2  0
  9 11  1  0
 11 12  1  0
 12 13  1  0
 13 14  1  0
 14 15  2  0
 14 16  1  0
 16 17  2  0
 16 18  1  0
 17 19  1  0
 18 20  2  0
 19 21  2  0
 20 21  1  0
M  END
>  <ref_url>  (963) 
https://fakepage.com

>  <submitter_name>  (963) 
Steph Wills

>  <submitter_email>  (963) 
stephanie.wills@dtc.ox.ac.uk

>  <submitter_institution>  (963) 
University of Oxford

>  <generation_date>  (963) 
2020-06-04

>  <method>  (963) 
Fragment network

>  <ref_mols>  (963) 
x0034_0B,x0212_0B

>  <ref_pdb>  (963) 
references/x0034-0B-x0212-0B-187491.holo_minimised_nolig.pdb

>  <original SMILES>  (963) 
Cc1cccc(NC(=O)CCNC(=O)c2ccccc2)c1

>  <synthon>  (963) 
[Xe]c1ccccc1

>  <original_name>  (963) 
x0034-0B-x0212-0B-187491

>  <comRMSD_score>  (963) 
0.8319375226942629

>  <IF_score>  (963) 
0.2916666666666666

>  <SuCOS_score>  (963) 
0.4705637217938428

>  <compound_ID>  (963) 
MOLPORT:004-064-357

$$$$

     RDKit          3D

 19 20  0  0  0  0  0  0  0  0999 V2000
  -12.7830    5.3090  -77.1820 C   0  0  0  0  0  0  0  0  0  0  0  0
  -11.5480    4.4790  -77.1020 C   0  0  0  0  0  0  0  0  0  0  0  0
  -10.4860    4.6200  -78.2030 C   0  0  0  0  0  0  0  0  0  0  0  0
  -11.3200    3.5710  -76.0610 C   0  0  0  0  0  0  0  0  0  0  0  0
   -9.3310    3.8720  -78.1440 C   0  0  0  0  0  0  0  0  0  0  0  0
  -10.1390    2.8150  -76.0440 C   0  0  0  0  0  0  0  0  0  0  0  0
   -9.1580    2.9350  -77.0110 C   0  0  0  0  0  0  0  0  0  0  0  0
   -9.7370    1.9710  -75.2900 O   0  0  0  0  0  0  0  0  0  0  0  0
   -9.1230    0.9990  -76.1480 C   0  0  0  0  0  0  0  0  0  0  0  0
   -8.5850    1.4060  -77.5320 C   0  0  0  0  0  0  0  0  0  0  0  0
   -9.4850    1.7130  -78.3120 O   0  0  0  0  0  0  0  0  0  0  0  0
   -7.2790    1.4690  -77.8880 O   0  0  0  0  0  0  0  0  0  0  0  0
   -7.1010    2.1680  -79.1230 C   0  0  0  0  0  0  0  0  0  0  0  0
   -7.8660    1.4220  -80.0180 C   0  0  0  0  0  0  0  0  0  0  0  0
   -8.2280    1.9260  -81.2730 C   0  0  0  0  0  0  0  0  0  0  0  0
   -8.2860    0.1290  -79.6400 C   0  0  0  0  0  0  0  0  0  0  0  0
   -8.9980    1.1380  -82.1300 C   0  0  0  0  0  0  0  0  0  0  0  0
   -9.0520   -0.6460  -80.4940 C   0  0  0  0  0  0  0  0  0  0  0  0
   -9.3970   -0.1300  -81.7270 C   0  0  0  0  0  0  0  0  0  0  0  0
  1  2  1  0
  2  3  2  0
  2  4  1  0
  3  5  1  0
  4  6  2  0
  5  7  2  0
  6  7  1  0
  6  8  1  0
  8  9  1  0
  9 10  1  0
 10 11  2  0
 10 12  1  0
 12 13  1  0
 13 14  1  0
 14 15  2  0
 14 16  1  0
 15 17  1  0
 16 18  2  0
 17 19  2  0
 18 19  1  0
M  END
>  <ref_url>  (964) 
https://fakepage.com

>  <submitter_name>  (964) 
Steph Wills

>  <submitter_email>  (964) 
stephanie.wills@dtc.ox.ac.uk

>  <submitter_institution>  (964) 
University of Oxford

>  <generation_date>  (964) 
2020-06-04

>  <method>  (964) 
Fragment network

>  <ref_mols>  (964) 
x0034_0B,x0212_0B

>  <ref_pdb>  (964) 
references/x0034-0B-x0212-0B-187542.holo_minimised_nolig.pdb

>  <original SMILES>  (964) 
Cc1cccc(OCC(=O)OCc2ccccc2)c1

>  <synthon>  (964) 
[Xe]c1ccccc1

>  <original_name>  (964) 
x0034-0B-x0212-0B-187542

>  <comRMSD_score>  (964) 
0.8231915694417674

>  <IF_score>  (964) 
0.375

>  <SuCOS_score>  (964) 
0.4529454417919706

>  <compound_ID>  (964) 
CHEMSPACE-BB:CSMB00119746166

$$$$

     RDKit          3D

 24 25  0  0  0  0  0  0  0  0999 V2000
   -8.5400    0.3590  -75.8110 C   0  0  0  0  0  0  0  0  0  0  0  0
   -9.4060    1.4980  -76.1830 C   0  0  0  0  0  0  0  0  0  0  0  0
  -10.3270    2.1220  -75.3150 C   0  0  0  0  0  0  0  0  0  0  0  0
   -9.2720    1.9420  -77.4560 C   0  0  0  0  0  0  0  0  0  0  0  0
  -11.0920    3.2100  -75.7540 C   0  0  0  0  0  0  0  0  0  0  0  0
  -10.0040    2.9840  -77.8880 C   0  0  0  0  0  0  0  0  0  0  0  0
  -10.8990    3.6260  -77.0620 C   0  0  0  0  0  0  0  0  0  0  0  0
  -11.4710    4.6990  -77.8020 C   0  0  0  0  0  0  0  0  0  0  0  0
  -10.3430    4.7620  -78.6160 N   0  0  0  0  0  0  0  0  0  0  0  0
   -9.1040    4.0300  -78.0850 C   0  0  0  0  0  0  0  0  0  0  0  0
   -9.0340    3.6200  -76.9150 O   0  0  0  0  0  0  0  0  0  0  0  0
   -8.0020    3.8610  -78.9310 N   0  0  0  0  0  0  0  0  0  0  0  0
   -7.2620    2.5850  -79.0580 C   0  0  2  0  0  0  0  0  0  0  0  0
   -5.7730    2.7360  -79.4060 C   0  0  0  0  0  0  0  0  0  0  0  0
   -7.9500    1.6150  -80.0080 C   0  0  0  0  0  0  0  0  0  0  0  0
   -5.1480    3.9750  -79.2300 C   0  0  0  0  0  0  0  0  0  0  0  0
   -8.2890    1.9800  -81.3160 C   0  0  0  0  0  0  0  0  0  0  0  0
   -8.2520    0.3160  -79.5660 C   0  0  0  0  0  0  0  0  0  0  0  0
   -5.5650    4.9940  -80.0750 C   0  0  0  0  0  0  0  0  0  0  0  0
   -3.6440    3.7920  -79.4170 C   0  0  0  0  0  0  0  0  0  0  0  0
   -5.3540    4.4520  -77.7660 C   0  0  0  0  0  0  0  0  0  0  0  0
   -8.9170    1.0710  -82.1600 C   0  0  0  0  0  0  0  0  0  0  0  0
   -8.8810   -0.5880  -80.4180 C   0  0  0  0  0  0  0  0  0  0  0  0
   -9.2140   -0.2110  -81.7120 C   0  0  0  0  0  0  0  0  0  0  0  0
  1  2  1  0
  2  3  2  0
  2  4  1  0
  3  5  1  0
  4  6  2  0
  5  7  2  0
  6  7  1  0
  7  8  1  0
  8  9  1  0
  9 10  1  0
 10 11  2  0
 10 12  1  0
 12 13  1  0
 13 14  1  6
 13 15  1  0
 16 14  1  0
 15 17  2  0
 15 18  1  0
 16 19  1  0
 16 20  1  0
 16 21  1  0
 17 22  1  0
 18 23  2  0
 22 24  2  0
 23 24  1  0
M  END
>  <ref_url>  (965) 
https://fakepage.com

>  <submitter_name>  (965) 
Steph Wills

>  <submitter_email>  (965) 
stephanie.wills@dtc.ox.ac.uk

>  <submitter_institution>  (965) 
University of Oxford

>  <generation_date>  (965) 
2020-06-04

>  <method>  (965) 
Fragment network

>  <ref_mols>  (965) 
x0034_0B,x0212_0B

>  <ref_pdb>  (965) 
references/x0034-0B-x0212-0B-189835.holo_minimised_nolig.pdb

>  <original SMILES>  (965) 
Cc1ccc(CNC(=O)NC(CC(C)(C)C)c2ccccc2)cc1

>  <synthon>  (965) 
[Xe]c1ccccc1

>  <original_name>  (965) 
x0034-0B-x0212-0B-189835

>  <comRMSD_score>  (965) 
0.9413735921513838

>  <IF_score>  (965) 
0.5416666666666666

>  <SuCOS_score>  (965) 
0.4488872693037959

>  <compound_ID>  (965) 
REAL:PV-001952677919

$$$$

     RDKit          3D

 20 21  0  0  0  0  0  0  0  0999 V2000
  -12.4830    5.2930  -77.5410 C   0  0  0  0  0  0  0  0  0  0  0  0
  -11.3620    4.3760  -77.1430 C   0  0  0  0  0  0  0  0  0  0  0  0
  -10.2960    4.1770  -78.0250 C   0  0  0  0  0  0  0  0  0  0  0  0
  -11.3620    3.7190  -75.9050 C   0  0  0  0  0  0  0  0  0  0  0  0
   -9.2440    3.3390  -77.6770 C   0  0  0  0  0  0  0  0  0  0  0  0
  -10.3120    2.8790  -75.5630 C   0  0  0  0  0  0  0  0  0  0  0  0
   -9.2490    2.6870  -76.4420 C   0  0  0  0  0  0  0  0  0  0  0  0
   -8.1840    1.8710  -76.1350 N   0  0  0  0  0  0  0  0  0  0  0  0
   -8.1480    0.4560  -76.4040 C   0  0  0  0  0  0  0  0  0  0  0  0
   -9.0220   -0.3930  -76.2090 O   0  0  0  0  0  0  0  0  0  0  0  0
   -6.8140    0.0000  -76.9830 C   0  0  1  0  0  0  0  0  0  0  0  0
   -6.7910   -1.3390  -77.6260 C   0  0  0  0  0  0  0  0  0  0  0  0
   -6.1740    0.7540  -77.7820 O   0  0  0  0  0  0  0  0  0  0  0  0
   -6.9180    1.6690  -78.6540 C   0  0  0  0  0  0  0  0  0  0  0  0
   -7.8140    1.1460  -79.7710 C   0  0  0  0  0  0  0  0  0  0  0  0
   -8.0870    1.8660  -81.0950 C   0  0  0  0  0  0  0  0  0  0  0  0
   -8.4440   -0.0910  -79.5910 C   0  0  0  0  0  0  0  0  0  0  0  0
   -8.9000    1.3180  -82.0640 C   0  0  0  0  0  0  0  0  0  0  0  0
   -9.2830   -0.6660  -80.5700 C   0  0  0  0  0  0  0  0  0  0  0  0
   -9.5390   -0.0300  -81.7910 C   0  0  0  0  0  0  0  0  0  0  0  0
  1  2  1  0
  2  3  2  0
  2  4  1  0
  3  5  1  0
  4  6  2  0
  5  7  2  0
  6  7  1  0
  7  8  1  0
  8  9  1  0
  9 10  2  0
  9 11  1  0
 11 12  1  6
 11 13  1  0
 13 14  1  0
 14 15  1  0
 15 16  2  0
 15 17  1  0
 16 18  1  0
 17 19  2  0
 18 20  2  0
 19 20  1  0
M  END
>  <ref_url>  (966) 
https://fakepage.com

>  <submitter_name>  (966) 
Steph Wills

>  <submitter_email>  (966) 
stephanie.wills@dtc.ox.ac.uk

>  <submitter_institution>  (966) 
University of Oxford

>  <generation_date>  (966) 
2020-06-04

>  <method>  (966) 
Fragment network

>  <ref_mols>  (966) 
x0034_0B,x0212_0B

>  <ref_pdb>  (966) 
references/x0034-0B-x0212-0B-193151.holo_minimised_nolig.pdb

>  <original SMILES>  (966) 
Cc1ccc(NC(=O)C(C)OCc2ccccc2)cc1

>  <synthon>  (966) 
[Xe]c1ccccc1

>  <original_name>  (966) 
x0034-0B-x0212-0B-193151

>  <comRMSD_score>  (966) 
0.6351402586422539

>  <IF_score>  (966) 
0.625

>  <SuCOS_score>  (966) 
0.4913239977137447

>  <compound_ID>  (966) 
REAL:Z382865146

$$$$

     RDKit          3D

 21 22  0  0  0  0  0  0  0  0999 V2000
  -12.1380    5.4680  -77.5930 C   0  0  0  0  0  0  0  0  0  0  0  0
  -11.3150    4.3030  -77.1160 C   0  0  0  0  0  0  0  0  0  0  0  0
  -10.3450    3.7320  -77.9630 C   0  0  0  0  0  0  0  0  0  0  0  0
  -11.5010    3.7680  -75.8460 C   0  0  0  0  0  0  0  0  0  0  0  0
   -9.5870    2.6230  -77.5280 C   0  0  0  0  0  0  0  0  0  0  0  0
  -10.7600    2.6910  -75.4290 C   0  0  0  0  0  0  0  0  0  0  0  0
   -9.8080    2.1030  -76.2460 C   0  0  0  0  0  0  0  0  0  0  0  0
   -8.9800    0.7050  -75.5100 S   0  0  0  0  0  0  0  0  0  0  0  0
   -7.6990    0.1530  -76.6230 C   0  0  0  0  0  0  0  0  0  0  0  0
   -6.8580    1.2480  -76.9030 C   0  0  1  0  0  0  0  0  0  0  0  0
   -5.9590    1.5510  -75.7190 C   0  0  0  0  0  0  0  0  0  0  0  0
   -5.9310    1.1100  -78.0450 C   0  0  0  0  0  0  0  0  0  0  0  0
   -5.3030   -0.1410  -78.3280 O   0  0  0  0  0  0  0  0  0  0  0  0
   -5.6760    2.1710  -78.8210 O   0  0  0  0  0  0  0  0  0  0  0  0
   -6.8870    2.6060  -79.4330 C   0  0  0  0  0  0  0  0  0  0  0  0
   -7.7340    1.5500  -80.1580 C   0  0  0  0  0  0  0  0  0  0  0  0
   -8.2100    2.0020  -81.5080 C   0  0  0  0  0  0  0  0  0  0  0  0
   -8.0710    0.2660  -79.6900 C   0  0  0  0  0  0  0  0  0  0  0  0
   -9.0250    1.0070  -82.2750 C   0  0  0  0  0  0  0  0  0  0  0  0
   -8.8470   -0.6130  -80.4730 C   0  0  0  0  0  0  0  0  0  0  0  0
   -9.3160   -0.2580  -81.7470 C   0  0  0  0  0  0  0  0  0  0  0  0
  1  2  1  0
  2  3  2  0
  2  4  1  0
  3  5  1  0
  4  6  2  0
  5  7  2  0
  6  7  1  0
  7  8  1  0
  8  9  1  0
  9 10  1  0
 10 11  1  1
 10 12  1  0
 12 13  2  0
 12 14  1  0
 14 15  1  0
 15 16  1  0
 16 17  2  0
 16 18  1  0
 17 19  1  0
 18 20  2  0
 19 21  2  0
 20 21  1  0
M  END
>  <ref_url>  (967) 
https://fakepage.com

>  <submitter_name>  (967) 
Steph Wills

>  <submitter_email>  (967) 
stephanie.wills@dtc.ox.ac.uk

>  <submitter_institution>  (967) 
University of Oxford

>  <generation_date>  (967) 
2020-06-04

>  <method>  (967) 
Fragment network

>  <ref_mols>  (967) 
x0034_0B,x0212_0B

>  <ref_pdb>  (967) 
references/x0034-0B-x0212-0B-193158.holo_minimised_nolig.pdb

>  <original SMILES>  (967) 
Cc1ccc(SCC(C)C(=O)OCc2ccccc2)cc1

>  <synthon>  (967) 
[Xe]c1ccccc1

>  <original_name>  (967) 
x0034-0B-x0212-0B-193158

>  <comRMSD_score>  (967) 
0.8541406554305083

>  <IF_score>  (967) 
0.5416666666666666

>  <SuCOS_score>  (967) 
0.4683708941402347

>  <compound_ID>  (967) 
CHEMSPACE-BB:CSMB00014056368

$$$$

     RDKit          3D

 23 24  0  0  0  0  0  0  0  0999 V2000
  -12.4150    5.4840  -77.5190 C   0  0  0  0  0  0  0  0  0  0  0  0
  -11.3630    4.3950  -77.4400 C   0  0  0  0  0  0  0  0  0  0  0  0
  -10.3760    4.3070  -78.4130 C   0  0  0  0  0  0  0  0  0  0  0  0
  -11.3810    3.4760  -76.3900 C   0  0  0  0  0  0  0  0  0  0  0  0
   -9.3610    3.2480  -78.3310 C   0  0  0  0  0  0  0  0  0  0  0  0
  -10.4340    2.4700  -76.2860 C   0  0  0  0  0  0  0  0  0  0  0  0
   -9.4490    2.3700  -77.2510 C   0  0  0  0  0  0  0  0  0  0  0  0
   -8.4440    1.3390  -77.2060 N   0  0  0  0  0  0  0  0  0  0  0  0
   -8.7880    0.2870  -76.2710 C   0  0  0  0  0  0  0  0  0  0  0  0
   -9.7710   -0.4320  -76.2430 O   0  0  0  0  0  0  0  0  0  0  0  0
   -7.8050    0.1950  -75.3230 C   0  0  2  0  0  0  0  0  0  0  0  0
   -8.0900    0.7050  -74.0400 C   0  0  0  0  0  0  0  0  0  0  0  0
   -6.6340    0.9120  -75.7470 O   0  0  0  0  0  0  0  0  0  0  0  0
   -5.9440    0.2200  -76.7920 C   0  0  0  0  0  0  0  0  0  0  0  0
   -4.9170   -0.4330  -76.6650 O   0  0  0  0  0  0  0  0  0  0  0  0
   -6.6470    0.3700  -77.9790 C   0  0  0  0  0  0  0  0  0  0  0  0
   -7.1120    1.6330  -78.7070 C   0  0  0  0  0  0  0  0  0  0  0  0
   -7.9020    1.2140  -79.9050 C   0  0  0  0  0  0  0  0  0  0  0  0
   -8.5020   -0.0280  -79.7190 C   0  0  0  0  0  0  0  0  0  0  0  0
   -8.0880    1.9070  -81.1190 C   0  0  0  0  0  0  0  0  0  0  0  0
   -9.2770   -0.6070  -80.6960 C   0  0  0  0  0  0  0  0  0  0  0  0
   -8.8760    1.3100  -82.1070 C   0  0  0  0  0  0  0  0  0  0  0  0
   -9.4580    0.0660  -81.8820 C   0  0  0  0  0  0  0  0  0  0  0  0
  1  2  1  0
  2  3  2  0
  2  4  1  0
  3  5  1  0
  4  6  2  0
  5  7  2  0
  6  7  1  0
  7  8  1  0
  8  9  1  0
  9 10  2  0
  9 11  1  0
 11 12  1  1
 11 13  1  0
 13 14  1  0
 14 15  2  0
 14 16  1  0
 16 17  2  3
 17 18  1  0
 18 19  2  0
 18 20  1  0
 19 21  1  0
 20 22  2  0
 21 23  2  0
 22 23  1  0
M  END
>  <ref_url>  (968) 
https://fakepage.com

>  <submitter_name>  (968) 
Steph Wills

>  <submitter_email>  (968) 
stephanie.wills@dtc.ox.ac.uk

>  <submitter_institution>  (968) 
University of Oxford

>  <generation_date>  (968) 
2020-06-04

>  <method>  (968) 
Fragment network

>  <ref_mols>  (968) 
x0034_0B,x0212_0B

>  <ref_pdb>  (968) 
references/x0034-0B-x0212-0B-193212.holo_minimised_nolig.pdb

>  <original SMILES>  (968) 
Cc1ccc(NC(=O)C(C)OC(=O)C=Cc2ccccc2)cc1

>  <synthon>  (968) 
[Xe]c1ccccc1

>  <original_name>  (968) 
x0034-0B-x0212-0B-193212

>  <comRMSD_score>  (968) 
0.824543936793975

>  <IF_score>  (968) 
0.5

>  <SuCOS_score>  (968) 
0.4699704871107431

>  <compound_ID>  (968) 
MOLPORT:044-392-318

$$$$

     RDKit          3D

 22 23  0  0  0  0  0  0  0  0999 V2000
  -12.5730    5.6940  -76.8310 C   0  0  0  0  0  0  0  0  0  0  0  0
  -11.5640    4.5950  -76.9810 C   0  0  0  0  0  0  0  0  0  0  0  0
  -11.0000    4.3950  -78.2490 C   0  0  0  0  0  0  0  0  0  0  0  0
  -11.1670    3.7740  -75.9210 C   0  0  0  0  0  0  0  0  0  0  0  0
  -10.0590    3.4000  -78.4680 C   0  0  0  0  0  0  0  0  0  0  0  0
  -10.2170    2.7880  -76.1820 C   0  0  0  0  0  0  0  0  0  0  0  0
   -9.6620    2.5880  -77.4250 C   0  0  0  0  0  0  0  0  0  0  0  0
   -9.7290    1.8970  -75.2040 O   0  0  0  0  0  0  0  0  0  0  0  0
   -9.2840    0.6050  -75.6470 C   0  0  0  0  0  0  0  0  0  0  0  0
   -7.9130    0.4780  -76.3170 C   0  0  0  0  0  0  0  0  0  0  0  0
   -7.0880    1.6060  -76.4380 C   0  0  0  0  0  0  0  0  0  0  0  0
   -7.1750    2.1790  -77.7820 N   0  0  0  0  0  0  0  0  0  0  0  0
   -7.5730    3.5660  -77.8750 C   0  0  0  0  0  0  0  0  0  0  0  0
   -6.6620    1.4730  -78.9410 C   0  0  0  0  0  0  0  0  0  0  0  0
   -7.9070    3.9030  -79.3370 C   0  0  0  0  0  0  0  0  0  0  0  0
   -7.6660    0.9080  -79.9380 C   0  0  0  0  0  0  0  0  0  0  0  0
   -6.8810    4.4030  -79.7990 O   0  0  0  0  0  0  0  0  0  0  0  0
   -8.2880   -0.2870  -79.6230 C   0  0  0  0  0  0  0  0  0  0  0  0
   -7.9880    1.5440  -81.1650 C   0  0  0  0  0  0  0  0  0  0  0  0
   -9.3030   -0.9820  -80.5070 C   0  0  0  0  0  0  0  0  0  0  0  0
   -8.9110    0.9920  -82.0590 C   0  0  0  0  0  0  0  0  0  0  0  0
   -9.5700   -0.2160  -81.7940 C   0  0  0  0  0  0  0  0  0  0  0  0
  1  2  1  0
  2  3  2  0
  2  4  1  0
  3  5  1  0
  4  6  2  0
  5  7  2  0
  6  7  1  0
  6  8  1  0
  8  9  1  0
  9 10  1  0
 10 11  1  0
 11 12  1  0
 12 13  1  0
 12 14  1  0
 13 15  1  0
 14 16  1  0
 15 17  1  0
 16 18  2  0
 16 19  1  0
 18 20  1  0
 19 21  2  0
 20 22  2  0
 21 22  1  0
M  END
>  <ref_url>  (969) 
https://fakepage.com

>  <submitter_name>  (969) 
Steph Wills

>  <submitter_email>  (969) 
stephanie.wills@dtc.ox.ac.uk

>  <submitter_institution>  (969) 
University of Oxford

>  <generation_date>  (969) 
2020-06-04

>  <method>  (969) 
Fragment network

>  <ref_mols>  (969) 
x0034_0B,x0212_0B

>  <ref_pdb>  (969) 
references/x0034-0B-x0212-0B-193394.holo_minimised_nolig.pdb

>  <original SMILES>  (969) 
Cc1cccc(OCCCN(CCO)Cc2ccccc2)c1

>  <synthon>  (969) 
[Xe]c1ccccc1

>  <original_name>  (969) 
x0034-0B-x0212-0B-193394

>  <comRMSD_score>  (969) 
0.9147229316392304

>  <IF_score>  (969) 
0.375

>  <SuCOS_score>  (969) 
0.5232149599701537

>  <compound_ID>  (969) 
CHEMSPACE-BB:CSMB00000225382

$$$$

     RDKit          3D

 22 23  0  0  0  0  0  0  0  0999 V2000
  -11.0670   -0.1970  -76.6550 C   0  0  0  0  0  0  0  0  0  0  0  0
   -9.9980   -0.6610  -77.5950 C   0  0  1  0  0  0  0  0  0  0  0  0
   -8.7410   -0.9340  -76.9790 C   0  0  0  0  0  0  0  0  0  0  0  0
  -10.5570   -1.7480  -78.4850 N   0  0  0  0  0  0  0  0  0  0  0  0
   -8.4680    0.0880  -75.9980 O   0  0  0  0  0  0  0  0  0  0  0  0
  -10.7130   -1.5430  -80.1770 S   0  0  0  0  0  0  0  0  0  0  0  0
   -8.1300    1.3380  -76.4870 C   0  0  0  0  0  0  0  0  0  0  0  0
  -10.2570   -2.7550  -80.8210 O   0  0  0  0  0  0  0  0  0  0  0  0
  -11.9840   -0.9390  -80.4900 O   0  0  0  0  0  0  0  0  0  0  0  0
   -9.4420   -0.3310  -80.2850 C   0  0  0  0  0  0  0  0  0  0  0  0
   -9.1330    2.3080  -76.6900 C   0  0  0  0  0  0  0  0  0  0  0  0
   -8.3620   -0.5860  -79.3020 C   0  0  0  0  0  0  0  0  0  0  0  0
   -9.3680    0.7830  -81.1320 C   0  0  0  0  0  0  0  0  0  0  0  0
   -9.2040    3.1150  -77.9690 C   0  0  0  0  0  0  0  0  0  0  0  0
  -10.1070    2.5490  -75.6860 C   0  0  0  0  0  0  0  0  0  0  0  0
   -7.2920    0.4190  -79.2950 C   0  0  0  0  0  0  0  0  0  0  0  0
   -8.3060    1.7030  -81.0760 C   0  0  0  0  0  0  0  0  0  0  0  0
  -10.2970    4.1330  -78.1320 C   0  0  0  0  0  0  0  0  0  0  0  0
  -11.1290    3.5030  -75.8370 C   0  0  0  0  0  0  0  0  0  0  0  0
   -7.3100    1.4940  -80.1530 C   0  0  0  0  0  0  0  0  0  0  0  0
   -8.2420    2.7640  -81.8780 F   0  0  0  0  0  0  0  0  0  0  0  0
  -11.2780    4.2920  -76.9820 C   0  0  0  0  0  0  0  0  0  0  0  0
  2  1  1  1
  2  3  1  0
  2  4  1  0
  3  5  1  0
  6  4  1  0
  5  7  1  0
  6  8  2  0
  6  9  2  0
  6 10  1  0
  7 11  1  0
 10 12  2  0
 10 13  1  0
 11 14  2  0
 11 15  1  0
 12 16  1  0
 13 17  2  0
 14 18  1  0
 15 19  2  0
 16 20  2  0
 17 20  1  0
 17 21  1  0
 18 22  2  0
 19 22  1  0
M  END
>  <ref_url>  (970) 
https://fakepage.com

>  <submitter_name>  (970) 
Steph Wills

>  <submitter_email>  (970) 
stephanie.wills@dtc.ox.ac.uk

>  <submitter_institution>  (970) 
University of Oxford

>  <generation_date>  (970) 
2020-06-04

>  <method>  (970) 
Fragment network

>  <ref_mols>  (970) 
x0034_0B,x0212_0B

>  <ref_pdb>  (970) 
references/x0034-0B-x0212-0B-193748.holo_minimised_nolig.pdb

>  <original SMILES>  (970) 
CC(COCc1ccccc1)NS(=O)(=O)c1cccc(F)c1

>  <synthon>  (970) 
[Xe]c1ccccc1

>  <original_name>  (970) 
x0034-0B-x0212-0B-193748

>  <comRMSD_score>  (970) 
0.9893078201262552

>  <IF_score>  (970) 
0.5

>  <SuCOS_score>  (970) 
0.4498689959918011

>  <compound_ID>  (970) 
CHEMSPACE-BB:CSMB00016938174

$$$$

     RDKit          3D

 21 22  0  0  0  0  0  0  0  0999 V2000
   -7.1870   -3.3270  -78.0760 O   0  0  0  0  0  0  0  0  0  0  0  0
   -7.7520   -2.2390  -78.0280 C   0  0  0  0  0  0  0  0  0  0  0  0
   -7.4310   -1.2570  -76.9010 C   0  0  0  0  0  0  0  0  0  0  0  0
   -8.7530   -1.8490  -79.0500 N   0  0  0  0  0  0  0  0  0  0  0  0
   -8.7730   -0.1420  -76.6260 S   0  0  0  0  0  0  0  0  0  0  0  0
   -8.6030   -0.6100  -79.8180 C   0  0  0  0  0  0  0  0  0  0  0  0
   -9.7420   -0.2980  -77.9560 O   0  0  0  0  0  0  0  0  0  0  0  0
   -9.3140   -0.4660  -75.3270 O   0  0  0  0  0  0  0  0  0  0  0  0
   -8.0720    1.5210  -76.5950 C   0  0  0  0  0  0  0  0  0  0  0  0
   -9.2560   -0.4850  -81.1910 C   0  0  0  0  0  0  0  0  0  0  0  0
   -7.8710    0.4450  -79.2920 C   0  0  0  0  0  0  0  0  0  0  0  0
   -9.1120    2.4440  -76.7820 C   0  0  0  0  0  0  0  0  0  0  0  0
   -9.1100    0.6910  -81.9040 C   0  0  0  0  0  0  0  0  0  0  0  0
   -7.7210    1.6330  -80.0010 C   0  0  0  0  0  0  0  0  0  0  0  0
   -9.2040    3.1990  -77.9700 C   0  0  0  0  0  0  0  0  0  0  0  0
  -10.0870    2.6290  -75.7780 C   0  0  0  0  0  0  0  0  0  0  0  0
   -8.2950    1.8050  -81.2570 C   0  0  0  0  0  0  0  0  0  0  0  0
  -10.3360    4.1790  -78.1450 C   0  0  0  0  0  0  0  0  0  0  0  0
  -11.1490    3.5270  -75.8980 C   0  0  0  0  0  0  0  0  0  0  0  0
   -8.1170    2.9560  -81.8790 F   0  0  0  0  0  0  0  0  0  0  0  0
  -11.3220    4.3050  -77.0250 C   0  0  0  0  0  0  0  0  0  0  0  0
  1  2  2  0
  2  3  1  0
  2  4  1  0
  5  3  1  0
  4  6  1  0
  5  7  2  0
  5  8  2  0
  5  9  1  0
  6 10  2  0
  6 11  1  0
  9 12  1  0
 10 13  1  0
 11 14  2  0
 12 15  2  0
 12 16  1  0
 13 17  2  0
 14 17  1  0
 15 18  1  0
 16 19  2  0
 17 20  1  0
 18 21  2  0
 19 21  1  0
M  END
>  <ref_url>  (971) 
https://fakepage.com

>  <submitter_name>  (971) 
Steph Wills

>  <submitter_email>  (971) 
stephanie.wills@dtc.ox.ac.uk

>  <submitter_institution>  (971) 
University of Oxford

>  <generation_date>  (971) 
2020-06-04

>  <method>  (971) 
Fragment network

>  <ref_mols>  (971) 
x0034_0B,x0212_0B

>  <ref_pdb>  (971) 
references/x0034-0B-x0212-0B-201787.holo_minimised_nolig.pdb

>  <original SMILES>  (971) 
O=C(CS(=O)(=O)Cc1ccccc1)Nc1ccc(F)cc1

>  <synthon>  (971) 
[Xe]c1ccccc1

>  <original_name>  (971) 
x0034-0B-x0212-0B-201787

>  <comRMSD_score>  (971) 
0.5863702218198305

>  <IF_score>  (971) 
0.625

>  <SuCOS_score>  (971) 
0.5500477196584198

>  <compound_ID>  (971) 
MOLPORT:000-594-897, REAL:Z339636028

$$$$

     RDKit          3D

 27 28  0  0  0  0  0  0  0  0999 V2000
   -7.0390    2.9460  -79.6140 C   0  0  0  0  0  0  0  0  0  0  0  0
   -7.8470    1.8090  -80.2210 C   0  0  0  0  0  0  0  0  0  0  0  0
   -8.3790    1.9310  -81.5000 C   0  0  0  0  0  0  0  0  0  0  0  0
   -8.0620    0.6310  -79.5070 C   0  0  0  0  0  0  0  0  0  0  0  0
   -9.1690    0.8120  -82.0900 C   0  0  0  0  0  0  0  0  0  0  0  0
   -8.7980   -0.4160  -80.0470 C   0  0  0  0  0  0  0  0  0  0  0  0
   -9.3540   -0.3520  -81.3170 C   0  0  0  0  0  0  0  0  0  0  0  0
  -10.2690   -1.7910  -81.8330 S   0  0  0  0  0  0  0  0  0  0  0  0
   -9.3060   -2.7400  -82.7980 O   0  0  0  0  0  0  0  0  0  0  0  0
  -11.5930   -1.3610  -82.2500 O   0  0  0  0  0  0  0  0  0  0  0  0
  -10.4830   -2.6000  -80.3210 N   0  0  0  0  0  0  0  0  0  0  0  0
   -9.7370   -3.8210  -80.0140 C   0  0  0  0  0  0  0  0  0  0  0  0
   -8.3680   -3.5430  -79.9570 C   0  0  0  0  0  0  0  0  0  0  0  0
   -7.8520   -3.5140  -78.6450 C   0  0  0  0  0  0  0  0  0  0  0  0
   -8.8330   -3.0680  -77.5270 C   0  0  0  0  0  0  0  0  0  0  0  0
   -9.2860   -1.7570  -77.6890 C   0  0  0  0  0  0  0  0  0  0  0  0
  -10.0210   -1.2040  -76.4880 C   0  0  0  0  0  0  0  0  0  0  0  0
  -11.2080   -1.9530  -76.1910 O   0  0  0  0  0  0  0  0  0  0  0  0
   -9.4390   -0.0250  -75.8350 N   0  0  0  0  0  0  0  0  0  0  0  0
   -8.1360    0.3340  -76.0950 C   0  0  0  0  0  0  0  0  0  0  0  0
   -7.9380    1.6320  -76.6290 C   0  0  0  0  0  0  0  0  0  0  0  0
   -9.0590    2.4840  -76.7290 C   0  0  0  0  0  0  0  0  0  0  0  0
   -9.2640    3.2400  -77.8850 C   0  0  0  0  0  0  0  0  0  0  0  0
  -10.0010    2.6190  -75.6960 C   0  0  0  0  0  0  0  0  0  0  0  0
  -10.3430    4.1050  -78.0440 C   0  0  0  0  0  0  0  0  0  0  0  0
  -11.0940    3.4880  -75.8390 C   0  0  0  0  0  0  0  0  0  0  0  0
  -11.2690    4.2340  -77.0140 C   0  0  0  0  0  0  0  0  0  0  0  0
  1  2  1  0
  2  3  2  0
  2  4  1  0
  3  5  1  0
  4  6  2  0
  5  7  2  0
  6  7  1  0
  7  8  1  0
  8  9  2  0
  8 10  2  0
  8 11  1  0
 11 12  1  0
 12 13  1  0
 13 14  1  0
 14 15  1  0
 15 16  1  0
 16 17  1  0
 17 18  2  0
 17 19  1  0
 19 20  1  0
 20 21  1  0
 21 22  1  0
 22 23  2  0
 22 24  1  0
 23 25  1  0
 24 26  2  0
 25 27  2  0
 26 27  1  0
M  END
>  <ref_url>  (972) 
https://fakepage.com

>  <submitter_name>  (972) 
Steph Wills

>  <submitter_email>  (972) 
stephanie.wills@dtc.ox.ac.uk

>  <submitter_institution>  (972) 
University of Oxford

>  <generation_date>  (972) 
2020-06-04

>  <method>  (972) 
Fragment network

>  <ref_mols>  (972) 
x0034_0B,x0212_0B

>  <ref_pdb>  (972) 
references/x0034-0B-x0212-0B-208524.holo_minimised_nolig.pdb

>  <original SMILES>  (972) 
Cc1ccc(S(=O)(=O)NCCCCCC(=O)NCCc2ccccc2)cc1

>  <synthon>  (972) 
[Xe]c1ccccc1

>  <original_name>  (972) 
x0034-0B-x0212-0B-208524

>  <comRMSD_score>  (972) 
0.8014874135468848

>  <IF_score>  (972) 
0.625

>  <SuCOS_score>  (972) 
0.5235723076672878

>  <compound_ID>  (972) 
MOLPORT:001-933-281

$$$$

     RDKit          3D

 23 24  0  0  0  0  0  0  0  0999 V2000
   -6.5340    2.3420  -79.6770 C   0  0  0  0  0  0  0  0  0  0  0  0
   -7.6580    1.5070  -80.1930 C   0  0  0  0  0  0  0  0  0  0  0  0
   -8.3670    1.8630  -81.3460 C   0  0  0  0  0  0  0  0  0  0  0  0
   -8.0070    0.3470  -79.4980 C   0  0  0  0  0  0  0  0  0  0  0  0
   -9.4350    1.0660  -81.7820 C   0  0  0  0  0  0  0  0  0  0  0  0
   -9.0550   -0.4330  -79.9260 C   0  0  0  0  0  0  0  0  0  0  0  0
   -9.7760   -0.0760  -81.0450 C   0  0  0  0  0  0  0  0  0  0  0  0
  -11.1770   -1.0610  -81.5330 S   0  0  0  0  0  0  0  0  0  0  0  0
  -11.9410   -0.9170  -79.8720 C   0  0  0  0  0  0  0  0  0  0  0  0
  -10.9390   -0.2200  -78.9360 C   0  0  0  0  0  0  0  0  0  0  0  0
  -11.4460    0.2470  -77.5560 C   0  0  0  0  0  0  0  0  0  0  0  0
  -11.2100    1.6380  -77.2260 O   0  0  0  0  0  0  0  0  0  0  0  0
  -12.0560   -0.7430  -76.6760 N   0  0  0  0  0  0  0  0  0  0  0  0
  -11.0980   -1.1510  -75.6360 C   0  0  0  0  0  0  0  0  0  0  0  0
  -10.1400   -0.1380  -75.4230 C   0  0  0  0  0  0  0  0  0  0  0  0
   -8.5130   -0.4440  -76.2240 S   0  0  0  0  0  0  0  0  0  0  0  0
   -7.8740    1.1960  -76.4720 C   0  0  0  0  0  0  0  0  0  0  0  0
   -8.8630    2.3310  -76.6860 C   0  0  0  0  0  0  0  0  0  0  0  0
   -9.8960    2.5520  -75.6200 C   0  0  0  0  0  0  0  0  0  0  0  0
   -8.8610    3.1610  -77.8040 C   0  0  0  0  0  0  0  0  0  0  0  0
  -10.8190    3.5730  -75.7780 C   0  0  0  0  0  0  0  0  0  0  0  0
   -9.8060    4.1680  -77.9160 C   0  0  0  0  0  0  0  0  0  0  0  0
  -10.7700    4.3700  -76.9170 C   0  0  0  0  0  0  0  0  0  0  0  0
  1  2  1  0
  2  3  2  0
  2  4  1  0
  3  5  1  0
  4  6  2  0
  5  7  2  0
  6  7  1  0
  7  8  1  0
  8  9  1  0
  9 10  1  0
 10 11  1  0
 11 12  2  0
 11 13  1  0
 13 14  1  0
 14 15  1  0
 15 16  1  0
 16 17  1  0
 17 18  1  0
 18 19  2  0
 18 20  1  0
 19 21  1  0
 20 22  2  0
 21 23  2  0
 22 23  1  0
M  END
>  <ref_url>  (973) 
https://fakepage.com

>  <submitter_name>  (973) 
Steph Wills

>  <submitter_email>  (973) 
stephanie.wills@dtc.ox.ac.uk

>  <submitter_institution>  (973) 
University of Oxford

>  <generation_date>  (973) 
2020-06-04

>  <method>  (973) 
Fragment network

>  <ref_mols>  (973) 
x0034_0B,x0212_0B

>  <ref_pdb>  (973) 
references/x0034-0B-x0212-0B-209732.holo_minimised_nolig.pdb

>  <original SMILES>  (973) 
Cc1ccc(SCCC(=O)NCCSCc2ccccc2)cc1

>  <synthon>  (973) 
[Xe]c1ccccc1

>  <original_name>  (973) 
x0034-0B-x0212-0B-209732

>  <comRMSD_score>  (973) 
0.8833523776369896

>  <IF_score>  (973) 
0.7333333333333334

>  <SuCOS_score>  (973) 
0.484497504806353

>  <compound_ID>  (973) 
MOLPORT:006-799-146

$$$$

     RDKit          3D

 21 22  0  0  0  0  0  0  0  0999 V2000
  -12.5860    5.7280  -76.8400 C   0  0  0  0  0  0  0  0  0  0  0  0
  -11.6200    4.5520  -76.8400 C   0  0  0  0  0  0  0  0  0  0  0  0
  -11.4580    3.7890  -75.5050 C   0  0  0  0  0  0  0  0  0  0  0  0
  -10.9350    4.2040  -77.9850 C   0  0  0  0  0  0  0  0  0  0  0  0
  -10.4720    2.6240  -75.5980 C   0  0  0  0  0  0  0  0  0  0  0  0
  -10.0520    3.1370  -78.0010 C   0  0  0  0  0  0  0  0  0  0  0  0
   -9.8090    2.3600  -76.8780 C   0  0  0  0  0  0  0  0  0  0  0  0
   -9.3970    2.8420  -79.1540 N   0  0  0  0  0  0  0  0  0  0  0  0
   -8.6080    3.8410  -79.8250 C   0  0  0  0  0  0  0  0  0  0  0  0
   -7.2100    3.8170  -79.2450 C   0  0  1  0  0  0  0  0  0  0  0  0
   -6.3730    4.6620  -79.5150 O   0  0  0  0  0  0  0  0  0  0  0  0
   -7.4120    3.3640  -77.8200 C   0  0  0  0  0  0  0  0  0  0  0  0
   -7.2040    2.0220  -77.9710 N   0  0  0  0  0  0  0  0  0  0  0  0
   -7.4290    0.9890  -77.0450 C   0  0  0  0  0  0  0  0  0  0  0  0
   -6.7160    1.6040  -79.1810 C   0  0  0  0  0  0  0  0  0  0  0  0
   -7.6810    1.0720  -80.0420 C   0  0  0  0  0  0  0  0  0  0  0  0
   -8.3580   -0.2180  -79.7240 C   0  0  0  0  0  0  0  0  0  0  0  0
   -8.0800    1.6800  -81.2410 C   0  0  0  0  0  0  0  0  0  0  0  0
   -9.3180   -0.8260  -80.5210 C   0  0  0  0  0  0  0  0  0  0  0  0
   -9.1180    1.0060  -82.1010 C   0  0  0  0  0  0  0  0  0  0  0  0
   -9.6960   -0.2060  -81.7180 C   0  0  0  0  0  0  0  0  0  0  0  0
  1  2  1  0
  2  3  2  0
  2  4  1  0
  3  5  1  0
  4  6  2  0
  5  7  2  0
  6  7  1  0
  6  8  1  0
  8  9  1  0
  9 10  1  0
 10 11  1  1
 10 12  1  0
 12 13  1  0
 13 14  1  0
 13 15  1  0
 15 16  1  0
 16 17  2  0
 16 18  1  0
 17 19  1  0
 18 20  2  0
 19 21  2  0
 20 21  1  0
M  END
>  <ref_url>  (974) 
https://fakepage.com

>  <submitter_name>  (974) 
Steph Wills

>  <submitter_email>  (974) 
stephanie.wills@dtc.ox.ac.uk

>  <submitter_institution>  (974) 
University of Oxford

>  <generation_date>  (974) 
2020-06-04

>  <method>  (974) 
Fragment network

>  <ref_mols>  (974) 
x0034_0B,x0212_0B

>  <ref_pdb>  (974) 
references/x0034-0B-x0212-0B-209984.holo_minimised_nolig.pdb

>  <original SMILES>  (974) 
Cc1cccc(NCC(O)CN(C)Cc2ccccc2)c1

>  <synthon>  (974) 
[Xe]c1ccccc1

>  <original_name>  (974) 
x0034-0B-x0212-0B-209984

>  <comRMSD_score>  (974) 
0.9404785802983504

>  <IF_score>  (974) 
0.625

>  <SuCOS_score>  (974) 
0.4906835322588085

>  <compound_ID>  (974) 
REAL:Z2407214613

$$$$

     RDKit          3D

 22 23  0  0  0  0  0  0  0  0999 V2000
   -7.2730    3.3170  -79.7720 C   0  0  0  0  0  0  0  0  0  0  0  0
   -7.8750    2.0220  -80.2010 C   0  0  0  0  0  0  0  0  0  0  0  0
   -7.8750    1.0360  -79.2480 C   0  0  0  0  0  0  0  0  0  0  0  0
   -8.4140    1.7640  -81.4540 C   0  0  0  0  0  0  0  0  0  0  0  0
   -8.3930   -0.1870  -79.5100 C   0  0  0  0  0  0  0  0  0  0  0  0
   -8.9510    0.4910  -81.7230 C   0  0  0  0  0  0  0  0  0  0  0  0
   -8.9310   -0.5040  -80.7100 C   0  0  0  0  0  0  0  0  0  0  0  0
   -9.3100   -1.6590  -80.6700 O   0  0  0  0  0  0  0  0  0  0  0  0
   -8.9700   -2.2850  -79.3740 C   0  0  0  0  0  0  0  0  0  0  0  0
   -7.6780   -1.8460  -78.8900 C   0  0  2  0  0  0  0  0  0  0  0  0
   -6.8070   -2.6480  -79.2270 O   0  0  0  0  0  0  0  0  0  0  0  0
   -7.5680   -1.5540  -77.3430 C   0  0  0  0  0  0  0  0  0  0  0  0
   -8.9090   -0.4630  -76.8070 S   0  0  0  0  0  0  0  0  0  0  0  0
   -9.8860   -0.4290  -77.8590 O   0  0  0  0  0  0  0  0  0  0  0  0
   -9.3470   -0.8840  -75.4880 O   0  0  0  0  0  0  0  0  0  0  0  0
   -8.2210    1.1810  -76.6430 C   0  0  0  0  0  0  0  0  0  0  0  0
   -9.2530    2.3160  -76.8430 C   0  0  0  0  0  0  0  0  0  0  0  0
  -10.1890    2.5510  -75.6500 C   0  0  0  0  0  0  0  0  0  0  0  0
   -9.3860    3.1040  -78.0100 C   0  0  0  0  0  0  0  0  0  0  0  0
  -11.2410    3.6370  -75.7720 C   0  0  0  0  0  0  0  0  0  0  0  0
  -10.3650    4.1060  -78.1120 C   0  0  0  0  0  0  0  0  0  0  0  0
  -11.2640    4.3960  -77.0880 C   0  0  0  0  0  0  0  0  0  0  0  0
  1  2  1  0
  2  3  2  0
  2  4  1  0
  3  5  1  0
  4  6  2  0
  5  7  2  0
  6  7  1  0
  7  8  1  0
  8  9  1  0
  9 10  1  0
 10 11  1  1
 10 12  1  0
 13 12  1  0
 13 14  2  0
 13 15  2  0
 13 16  1  0
 16 17  1  0
 17 18  2  0
 17 19  1  0
 18 20  1  0
 19 21  2  0
 20 22  2  0
 21 22  1  0
M  END
>  <ref_url>  (975) 
https://fakepage.com

>  <submitter_name>  (975) 
Steph Wills

>  <submitter_email>  (975) 
stephanie.wills@dtc.ox.ac.uk

>  <submitter_institution>  (975) 
University of Oxford

>  <generation_date>  (975) 
2020-06-04

>  <method>  (975) 
Fragment network

>  <ref_mols>  (975) 
x0034_0B,x0212_0B

>  <ref_pdb>  (975) 
references/x0034-0B-x0212-0B-212963.holo_minimised_nolig.pdb

>  <original SMILES>  (975) 
Cc1ccc(OCC(O)CS(=O)(=O)Cc2ccccc2)cc1

>  <synthon>  (975) 
[Xe]c1ccccc1

>  <original_name>  (975) 
x0034-0B-x0212-0B-212963

>  <comRMSD_score>  (975) 
0.8033498615173841

>  <IF_score>  (975) 
0.625

>  <SuCOS_score>  (975) 
0.5040662117661394

>  <compound_ID>  (975) 
REAL:Z822341060

$$$$

     RDKit          3D

 20 21  0  0  0  0  0  0  0  0999 V2000
  -12.5220    5.1930  -77.4520 C   0  0  0  0  0  0  0  0  0  0  0  0
  -11.3290    4.3330  -77.1720 C   0  0  0  0  0  0  0  0  0  0  0  0
  -11.1880    3.6400  -75.9600 C   0  0  0  0  0  0  0  0  0  0  0  0
  -10.3260    4.2160  -78.1370 C   0  0  0  0  0  0  0  0  0  0  0  0
  -10.0600    2.8520  -75.7280 C   0  0  0  0  0  0  0  0  0  0  0  0
   -9.2050    3.4350  -77.9040 C   0  0  0  0  0  0  0  0  0  0  0  0
   -9.0630    2.7490  -76.6950 C   0  0  0  0  0  0  0  0  0  0  0  0
   -7.6560    1.7280  -76.2630 S   0  0  0  0  0  0  0  0  0  0  0  0
   -7.9920   -0.0070  -76.4930 C   0  0  0  0  0  0  0  0  0  0  0  0
   -6.7620   -0.7630  -76.9470 C   0  0  1  0  0  0  0  0  0  0  0  0
   -6.8680   -1.9730  -77.0960 O   0  0  0  0  0  0  0  0  0  0  0  0
   -6.1960   -0.2020  -78.2630 C   0  0  0  0  0  0  0  0  0  0  0  0
   -5.8900    1.1290  -78.2810 O   0  0  0  0  0  0  0  0  0  0  0  0
   -6.8190    2.0590  -78.9270 C   0  0  0  0  0  0  0  0  0  0  0  0
   -7.7620    1.3370  -79.9060 C   0  0  0  0  0  0  0  0  0  0  0  0
   -8.0980    1.8600  -81.1620 C   0  0  0  0  0  0  0  0  0  0  0  0
   -8.3400    0.1000  -79.5790 C   0  0  0  0  0  0  0  0  0  0  0  0
   -9.0140    1.1470  -82.1260 C   0  0  0  0  0  0  0  0  0  0  0  0
   -9.1990   -0.5850  -80.4580 C   0  0  0  0  0  0  0  0  0  0  0  0
   -9.5320   -0.0710  -81.7160 C   0  0  0  0  0  0  0  0  0  0  0  0
  1  2  1  0
  2  3  2  0
  2  4  1  0
  3  5  1  0
  4  6  2  0
  5  7  2  0
  6  7  1  0
  7  8  1  0
  8  9  1  0
  9 10  1  0
 10 11  1  6
 10 12  1  0
 12 13  1  0
 13 14  1  0
 14 15  1  0
 15 16  2  0
 15 17  1  0
 16 18  1  0
 17 19  2  0
 18 20  2  0
 19 20  1  0
M  END
>  <ref_url>  (976) 
https://fakepage.com

>  <submitter_name>  (976) 
Steph Wills

>  <submitter_email>  (976) 
stephanie.wills@dtc.ox.ac.uk

>  <submitter_institution>  (976) 
University of Oxford

>  <generation_date>  (976) 
2020-06-04

>  <method>  (976) 
Fragment network

>  <ref_mols>  (976) 
x0034_0B,x0212_0B

>  <ref_pdb>  (976) 
references/x0034-0B-x0212-0B-215029.holo_minimised_nolig.pdb

>  <original SMILES>  (976) 
Cc1ccc(SCC(O)COCc2ccccc2)cc1

>  <synthon>  (976) 
[Xe]c1ccccc1

>  <original_name>  (976) 
x0034-0B-x0212-0B-215029

>  <comRMSD_score>  (976) 
0.6973418578191523

>  <IF_score>  (976) 
0.625

>  <SuCOS_score>  (976) 
0.5131578838939552

>  <compound_ID>  (976) 
CHEMSPACE-BB:CSMB00000208590, CHEMSPACE-BB:CSMB00110452539, CHEMSPACE-BB:CSMB00110452562

$$$$

     RDKit          3D

 22 23  0  0  0  0  0  0  0  0999 V2000
  -12.4020    5.1550  -77.4910 C   0  0  0  0  0  0  0  0  0  0  0  0
  -11.2510    4.2570  -77.0600 C   0  0  0  0  0  0  0  0  0  0  0  0
  -10.1400    4.1150  -77.8800 C   0  0  0  0  0  0  0  0  0  0  0  0
  -11.2850    3.5650  -75.8410 C   0  0  0  0  0  0  0  0  0  0  0  0
   -9.0130    3.2480  -77.4540 C   0  0  0  0  0  0  0  0  0  0  0  0
  -10.2320    2.7400  -75.4340 C   0  0  0  0  0  0  0  0  0  0  0  0
   -9.0950    2.5680  -76.2080 C   0  0  0  0  0  0  0  0  0  0  0  0
   -8.1210    1.8470  -75.8860 O   0  0  0  0  0  0  0  0  0  0  0  0
   -8.2150    0.4540  -76.1940 C   0  0  1  0  0  0  0  0  0  0  0  0
   -9.1660   -0.3330  -75.5500 C   0  0  0  0  0  0  0  0  0  0  0  0
   -8.6570    0.5530  -77.6470 C   0  0  0  0  0  0  0  0  0  0  0  0
   -6.9100   -0.3720  -76.3520 C   0  0  0  0  0  0  0  0  0  0  0  0
   -8.1430    1.8530  -78.0330 O   0  0  0  0  0  0  0  0  0  0  0  0
   -6.8140   -1.4750  -76.8860 O   0  0  0  0  0  0  0  0  0  0  0  0
   -5.8140    0.2380  -75.8370 O   0  0  0  0  0  0  0  0  0  0  0  0
   -7.2370    1.9210  -79.1300 C   0  0  0  0  0  0  0  0  0  0  0  0
   -7.9630    1.2680  -80.0680 C   0  0  0  0  0  0  0  0  0  0  0  0
   -8.2930    1.9080  -81.3800 C   0  0  0  0  0  0  0  0  0  0  0  0
   -8.3980   -0.0120  -79.7480 C   0  0  0  0  0  0  0  0  0  0  0  0
   -9.1170    1.0400  -82.2630 C   0  0  0  0  0  0  0  0  0  0  0  0
   -9.1610   -0.7590  -80.6180 C   0  0  0  0  0  0  0  0  0  0  0  0
   -9.5140   -0.2410  -81.8460 C   0  0  0  0  0  0  0  0  0  0  0  0
  1  2  1  0
  2  3  2  0
  2  4  1  0
  3  5  1  0
  4  6  2  0
  5  7  2  0
  6  7  1  0
  7  8  1  0
  9  8  1  0
  9 10  1  1
  9 11  1  0
  9 12  1  0
 11 13  1  0
 12 14  2  0
 12 15  1  0
 13 16  1  0
 16 17  1  0
 17 18  2  0
 17 19  1  0
 18 20  1  0
 19 21  2  0
 20 22  2  0
 21 22  1  0
M  END
>  <ref_url>  (977) 
https://fakepage.com

>  <submitter_name>  (977) 
Steph Wills

>  <submitter_email>  (977) 
stephanie.wills@dtc.ox.ac.uk

>  <submitter_institution>  (977) 
University of Oxford

>  <generation_date>  (977) 
2020-06-04

>  <method>  (977) 
Fragment network

>  <ref_mols>  (977) 
x0034_0B,x0212_0B

>  <ref_pdb>  (977) 
references/x0034-0B-x0212-0B-215039.holo_minimised_nolig.pdb

>  <original SMILES>  (977) 
Cc1ccc(OC(C)(COCc2ccccc2)C(=O)O)cc1

>  <synthon>  (977) 
[Xe]c1ccccc1

>  <original_name>  (977) 
x0034-0B-x0212-0B-215039

>  <comRMSD_score>  (977) 
0.7285800497466903

>  <IF_score>  (977) 
0.625

>  <SuCOS_score>  (977) 
0.4988893213638715

>  <compound_ID>  (977) 
CHEMSPACE-BB:CSMB00117962470

$$$$

     RDKit          3D

 19 20  0  0  0  0  0  0  0  0999 V2000
  -12.6440    5.1660  -76.5400 C   0  0  0  0  0  0  0  0  0  0  0  0
  -11.4290    4.3860  -76.9350 C   0  0  0  0  0  0  0  0  0  0  0  0
  -11.0500    4.4120  -78.2740 C   0  0  0  0  0  0  0  0  0  0  0  0
  -10.6700    3.6500  -76.0150 C   0  0  0  0  0  0  0  0  0  0  0  0
   -9.9390    3.7150  -78.7060 C   0  0  0  0  0  0  0  0  0  0  0  0
   -9.5350    2.9550  -76.4830 C   0  0  0  0  0  0  0  0  0  0  0  0
   -9.2090    2.9990  -77.7950 C   0  0  0  0  0  0  0  0  0  0  0  0
   -8.6110    2.1770  -75.7070 N   0  0  0  0  0  0  0  0  0  0  0  0
   -7.0630    2.1910  -76.4440 S   0  0  0  0  0  0  0  0  0  0  0  0
   -6.1880    3.0430  -75.6710 O   0  0  0  0  0  0  0  0  0  0  0  0
   -6.6680    0.6150  -76.8160 O   0  0  0  0  0  0  0  0  0  0  0  0
   -7.3080    3.0380  -78.0780 C   0  0  0  0  0  0  0  0  0  0  0  0
   -6.6360    2.3110  -79.1850 C   0  0  0  0  0  0  0  0  0  0  0  0
   -7.6430    1.4460  -79.9730 C   0  0  0  0  0  0  0  0  0  0  0  0
   -8.0950    1.9720  -81.3010 C   0  0  0  0  0  0  0  0  0  0  0  0
   -8.1570    0.1930  -79.5460 C   0  0  0  0  0  0  0  0  0  0  0  0
   -9.0500    1.1200  -82.0860 C   0  0  0  0  0  0  0  0  0  0  0  0
   -9.0640   -0.5570  -80.3450 C   0  0  0  0  0  0  0  0  0  0  0  0
   -9.4950   -0.0900  -81.5990 C   0  0  0  0  0  0  0  0  0  0  0  0
  1  2  1  0
  2  3  2  0
  2  4  1  0
  3  5  1  0
  4  6  2  0
  5  7  2  0
  6  7  1  0
  6  8  1  0
  9  8  1  0
  9 10  2  0
  9 11  2  0
  9 12  1  0
 12 13  1  0
 13 14  1  0
 14 15  2  0
 14 16  1  0
 15 17  1  0
 16 18  2  0
 17 19  2  0
 18 19  1  0
M  END
>  <ref_url>  (978) 
https://fakepage.com

>  <submitter_name>  (978) 
Steph Wills

>  <submitter_email>  (978) 
stephanie.wills@dtc.ox.ac.uk

>  <submitter_institution>  (978) 
University of Oxford

>  <generation_date>  (978) 
2020-06-04

>  <method>  (978) 
Fragment network

>  <ref_mols>  (978) 
x0034_0B,x0212_0B

>  <ref_pdb>  (978) 
references/x0034-0B-x0212-0B-217516.holo_minimised_nolig.pdb

>  <original SMILES>  (978) 
Cc1cccc(NS(=O)(=O)CCc2ccccc2)c1

>  <synthon>  (978) 
[Xe]c1ccccc1

>  <original_name>  (978) 
x0034-0B-x0212-0B-217516

>  <comRMSD_score>  (978) 
0.994922288422568

>  <IF_score>  (978) 
0.625

>  <SuCOS_score>  (978) 
0.4406870435039226

>  <compound_ID>  (978) 
REAL:Z737683668

$$$$

     RDKit          3D

 28 29  0  0  0  0  0  0  0  0999 V2000
  -12.4160    5.1540  -77.8090 C   0  0  0  0  0  0  0  0  0  0  0  0
  -11.3280    4.2540  -77.3210 C   0  0  0  0  0  0  0  0  0  0  0  0
  -10.0910    4.1930  -77.9500 C   0  0  0  0  0  0  0  0  0  0  0  0
  -11.5260    3.4510  -76.2170 C   0  0  0  0  0  0  0  0  0  0  0  0
   -9.0800    3.3540  -77.4550 C   0  0  0  0  0  0  0  0  0  0  0  0
  -10.5300    2.6160  -75.7440 C   0  0  0  0  0  0  0  0  0  0  0  0
   -9.2840    2.5420  -76.3220 C   0  0  0  0  0  0  0  0  0  0  0  0
   -8.3360    1.6750  -75.7300 N   0  0  0  0  0  0  0  0  0  0  0  0
   -7.2240    2.2020  -74.9530 C   0  0  0  0  0  0  0  0  0  0  0  0
   -8.3190    0.3400  -76.2890 C   0  0  1  0  0  0  0  0  0  0  0  0
   -6.4420    1.5580  -74.0400 O   0  0  0  0  0  0  0  0  0  0  0  0
   -7.1180    3.3760  -75.2730 O   0  0  0  0  0  0  0  0  0  0  0  0
   -7.0710   -0.5140  -76.1630 C   0  0  0  0  0  0  0  0  0  0  0  0
   -9.5390   -0.4790  -75.8120 C   0  0  0  0  0  0  0  0  0  0  0  0
   -8.4320    0.6600  -77.7440 C   0  0  0  0  0  0  0  0  0  0  0  0
   -6.0090    3.7460  -76.0790 C   0  0  0  0  0  0  0  0  0  0  0  0
  -10.6990   -1.2750  -75.3870 N   0  0  0  0  0  0  0  0  0  0  0  0
   -7.3800    1.5720  -78.0160 O   0  0  0  0  0  0  0  0  0  0  0  0
   -5.5630    5.0990  -75.5490 C   0  0  0  0  0  0  0  0  0  0  0  0
   -4.9270    2.6340  -76.0230 C   0  0  0  0  0  0  0  0  0  0  0  0
   -6.3550    3.8470  -77.5610 C   0  0  0  0  0  0  0  0  0  0  0  0
   -7.4260    2.1790  -79.2130 C   0  0  0  0  0  0  0  0  0  0  0  0
   -8.0530    1.4230  -80.1510 C   0  0  0  0  0  0  0  0  0  0  0  0
   -8.3770    0.1270  -79.7300 C   0  0  0  0  0  0  0  0  0  0  0  0
   -8.3510    1.9110  -81.4270 C   0  0  0  0  0  0  0  0  0  0  0  0
   -9.0800   -0.7290  -80.7220 C   0  0  0  0  0  0  0  0  0  0  0  0
   -9.0020    1.1230  -82.3590 C   0  0  0  0  0  0  0  0  0  0  0  0
   -9.3790   -0.1740  -82.0530 C   0  0  0  0  0  0  0  0  0  0  0  0
  1  2  1  0
  2  3  2  0
  2  4  1  0
  3  5  1  0
  4  6  2  0
  5  7  2  0
  6  7  1  0
  7  8  1  0
  8  9  1  0
  8 10  1  0
  9 11  2  0
  9 12  1  0
 10 13  1  6
 10 14  1  0
 10 15  1  0
 16 12  1  0
 14 17  3  0
 15 18  1  0
 16 19  1  0
 16 20  1  0
 16 21  1  0
 18 22  1  0
 22 23  1  0
 23 24  2  0
 23 25  1  0
 24 26  1  0
 25 27  2  0
 26 28  2  0
 27 28  1  0
M  END
>  <ref_url>  (979) 
https://fakepage.com

>  <submitter_name>  (979) 
Steph Wills

>  <submitter_email>  (979) 
stephanie.wills@dtc.ox.ac.uk

>  <submitter_institution>  (979) 
University of Oxford

>  <generation_date>  (979) 
2020-06-04

>  <method>  (979) 
Fragment network

>  <ref_mols>  (979) 
x0034_0B,x0212_0B

>  <ref_pdb>  (979) 
references/x0034-0B-x0212-0B-219226.holo_minimised_nolig.pdb

>  <original SMILES>  (979) 
Cc1ccc(N(C(=O)OC(C)(C)C)C(C)(C#N)COCc2ccccc2)cc1

>  <synthon>  (979) 
[Xe]c1ccccc1

>  <original_name>  (979) 
x0034-0B-x0212-0B-219226

>  <comRMSD_score>  (979) 
0.7916761636857248

>  <IF_score>  (979) 
0.5

>  <SuCOS_score>  (979) 
0.4900815656344321

>  <compound_ID>  (979) 
CHEMSPACE-BB:CSMB00018396345

$$$$

     RDKit          3D

 22 23  0  0  0  0  0  0  0  0999 V2000
   -9.0560   -0.4100  -75.5820 C   0  0  0  0  0  0  0  0  0  0  0  0
   -8.5570    0.9910  -75.7630 C   0  0  0  0  0  0  0  0  0  0  0  0
   -7.1750    1.2320  -75.5050 O   0  0  0  0  0  0  0  0  0  0  0  0
   -9.3390    2.0510  -76.1900 C   0  0  0  0  0  0  0  0  0  0  0  0
  -10.5550    2.2860  -75.5840 C   0  0  0  0  0  0  0  0  0  0  0  0
   -8.8750    2.8550  -77.2320 C   0  0  0  0  0  0  0  0  0  0  0  0
  -11.3440    3.3210  -76.0180 C   0  0  0  0  0  0  0  0  0  0  0  0
   -9.6730    3.8990  -77.6940 C   0  0  0  0  0  0  0  0  0  0  0  0
   -7.5640    2.6240  -77.8460 N   0  0  0  0  0  0  0  0  0  0  0  0
  -12.5350    3.6400  -75.5000 F   0  0  0  0  0  0  0  0  0  0  0  0
  -10.9400    4.2000  -77.1380 C   0  0  0  0  0  0  0  0  0  0  0  0
   -7.3960    2.8000  -79.2730 C   0  0  0  0  0  0  0  0  0  0  0  0
   -6.3270    2.6610  -77.0260 C   0  0  0  0  0  0  0  0  0  0  0  0
  -11.7860    5.2330  -77.5700 C   0  0  0  0  0  0  0  0  0  0  0  0
   -8.0660    1.6540  -80.0140 C   0  0  0  0  0  0  0  0  0  0  0  0
   -6.0340    1.3000  -76.4330 C   0  0  0  0  0  0  0  0  0  0  0  0
   -6.4670    3.7420  -75.9270 C   0  0  0  0  0  0  0  0  0  0  0  0
   -8.3580    2.0350  -81.4340 C   0  0  0  0  0  0  0  0  0  0  0  0
   -8.3890    0.3970  -79.4860 C   0  0  0  0  0  0  0  0  0  0  0  0
   -9.0320    0.9380  -82.2140 C   0  0  0  0  0  0  0  0  0  0  0  0
   -9.0160   -0.5610  -80.2860 C   0  0  0  0  0  0  0  0  0  0  0  0
   -9.3310   -0.2970  -81.6180 C   0  0  0  0  0  0  0  0  0  0  0  0
  1  2  1  0
  2  3  2  0
  2  4  1  0
  4  5  2  0
  4  6  1  0
  5  7  1  0
  6  8  2  0
  6  9  1  0
  7 10  1  0
  7 11  2  0
  8 11  1  0
  9 12  1  0
  9 13  1  0
 11 14  1  0
 12 15  1  0
 13 16  1  0
 13 17  1  0
 15 18  2  0
 15 19  1  0
 18 20  1  0
 19 21  2  0
 20 22  2  0
 21 22  1  0
M  END
>  <ref_url>  (980) 
https://fakepage.com

>  <submitter_name>  (980) 
Steph Wills

>  <submitter_email>  (980) 
stephanie.wills@dtc.ox.ac.uk

>  <submitter_institution>  (980) 
University of Oxford

>  <generation_date>  (980) 
2020-06-04

>  <method>  (980) 
Fragment network

>  <ref_mols>  (980) 
x0034_0B,x0212_0B

>  <ref_pdb>  (980) 
references/x0034-0B-x0212-0B-219853.holo_minimised_nolig.pdb

>  <original SMILES>  (980) 
CC(=O)c1cc(F)c(C)cc1N(Cc1ccccc1)C(C)C

>  <synthon>  (980) 
[Xe]c1ccccc1

>  <original_name>  (980) 
x0034-0B-x0212-0B-219853

>  <comRMSD_score>  (980) 
0.690185857953144

>  <IF_score>  (980) 
0.625

>  <SuCOS_score>  (980) 
0.496442821149047

>  <compound_ID>  (980) 
CHEMSPACE-BB:CSMB00012707173

$$$$

     RDKit          3D

 20 21  0  0  0  0  0  0  0  0999 V2000
   -7.0780    2.4870  -79.2420 C   0  0  0  0  0  0  0  0  0  0  0  0
   -7.9030    1.5830  -80.1140 C   0  0  0  0  0  0  0  0  0  0  0  0
   -8.2120    1.9990  -81.4100 C   0  0  0  0  0  0  0  0  0  0  0  0
   -8.3980    0.3220  -79.7150 C   0  0  0  0  0  0  0  0  0  0  0  0
   -8.9690    1.1960  -82.2650 C   0  0  0  0  0  0  0  0  0  0  0  0
   -9.1480   -0.4650  -80.5680 C   0  0  0  0  0  0  0  0  0  0  0  0
   -8.2090   -0.2950  -78.4250 N   0  0  0  0  0  0  0  0  0  0  0  0
   -9.4380   -0.0420  -81.8410 C   0  0  0  0  0  0  0  0  0  0  0  0
   -9.3670   -0.8870  -77.7480 C   0  0  0  0  0  0  0  0  0  0  0  0
  -10.2370   -1.6370  -78.1940 O   0  0  0  0  0  0  0  0  0  0  0  0
   -9.5030   -0.5660  -76.4060 C   0  0  2  0  0  0  0  0  0  0  0  0
  -10.6180    0.3580  -75.9530 C   0  0  0  0  0  0  0  0  0  0  0  0
   -7.9300    0.1280  -75.8270 S   0  0  0  0  0  0  0  0  0  0  0  0
   -7.8390    1.7380  -76.6080 C   0  0  0  0  0  0  0  0  0  0  0  0
   -9.0640    2.6440  -76.7720 C   0  0  0  0  0  0  0  0  0  0  0  0
   -9.2560    3.3340  -77.9690 C   0  0  0  0  0  0  0  0  0  0  0  0
  -10.0030    2.8010  -75.7400 C   0  0  0  0  0  0  0  0  0  0  0  0
  -10.4350    4.2070  -78.1160 C   0  0  0  0  0  0  0  0  0  0  0  0
  -11.1200    3.6320  -75.8860 C   0  0  0  0  0  0  0  0  0  0  0  0
  -11.3400    4.3360  -77.0700 C   0  0  0  0  0  0  0  0  0  0  0  0
  1  2  1  0
  2  3  2  0
  2  4  1  0
  3  5  1  0
  4  6  2  0
  4  7  1  0
  5  8  2  0
  6  8  1  0
  7  9  1  0
  9 10  2  0
  9 11  1  0
 11 12  1  6
 11 13  1  0
 13 14  1  0
 14 15  1  0
 15 16  2  0
 15 17  1  0
 16 18  1  0
 17 19  2  0
 18 20  2  0
 19 20  1  0
M  END
>  <ref_url>  (981) 
https://fakepage.com

>  <submitter_name>  (981) 
Steph Wills

>  <submitter_email>  (981) 
stephanie.wills@dtc.ox.ac.uk

>  <submitter_institution>  (981) 
University of Oxford

>  <generation_date>  (981) 
2020-06-04

>  <method>  (981) 
Fragment network

>  <ref_mols>  (981) 
x0034_0B,x0212_0B

>  <ref_pdb>  (981) 
references/x0034-0B-x0212-0B-222405.holo_minimised_nolig.pdb

>  <original SMILES>  (981) 
Cc1ccccc1NC(=O)C(C)SCc1ccccc1

>  <synthon>  (981) 
[Xe]c1ccccc1

>  <original_name>  (981) 
x0034-0B-x0212-0B-222405

>  <comRMSD_score>  (981) 
0.5881201800260264

>  <IF_score>  (981) 
0.625

>  <SuCOS_score>  (981) 
0.5337182476014155

>  <compound_ID>  (981) 
MOLPORT:001-976-578

$$$$

     RDKit          3D

 22 23  0  0  0  0  0  0  0  0999 V2000
   -6.6950    2.3640  -79.5410 C   0  0  0  0  0  0  0  0  0  0  0  0
   -7.6260    1.4850  -80.3660 C   0  0  0  0  0  0  0  0  0  0  0  0
   -8.2740    2.0290  -81.4620 C   0  0  0  0  0  0  0  0  0  0  0  0
   -7.8650    0.1290  -80.0630 C   0  0  0  0  0  0  0  0  0  0  0  0
   -9.1890    1.1900  -82.2650 C   0  0  0  0  0  0  0  0  0  0  0  0
   -8.7310   -0.6640  -80.8080 C   0  0  0  0  0  0  0  0  0  0  0  0
   -7.2930   -0.3370  -79.1160 O   0  0  0  0  0  0  0  0  0  0  0  0
   -9.3900   -0.1390  -81.8980 C   0  0  0  0  0  0  0  0  0  0  0  0
   -8.1200   -0.3680  -78.0820 C   0  0  2  0  0  0  0  0  0  0  0  0
   -9.3300    0.6110  -78.1670 C   0  0  0  0  0  0  0  0  0  0  0  0
   -7.2610   -0.1410  -76.8410 C   0  0  0  0  0  0  0  0  0  0  0  0
   -5.9860    0.5620  -76.9140 N   0  0  0  0  0  0  0  0  0  0  0  0
   -5.8350    1.9000  -76.2690 C   0  0  0  0  0  0  0  0  0  0  0  0
   -4.7630    2.2980  -75.8380 O   0  0  0  0  0  0  0  0  0  0  0  0
   -6.9740    2.7520  -76.1370 O   0  0  0  0  0  0  0  0  0  0  0  0
   -8.1120    2.0220  -76.5580 C   0  0  0  0  0  0  0  0  0  0  0  0
   -9.2180    2.8440  -76.7470 C   0  0  0  0  0  0  0  0  0  0  0  0
  -10.1770    2.9150  -75.7430 C   0  0  0  0  0  0  0  0  0  0  0  0
   -9.3840    3.5870  -77.9260 C   0  0  0  0  0  0  0  0  0  0  0  0
  -11.2850    3.7240  -75.9250 C   0  0  0  0  0  0  0  0  0  0  0  0
  -10.5080    4.3920  -78.0940 C   0  0  0  0  0  0  0  0  0  0  0  0
  -11.4660    4.4610  -77.0870 C   0  0  0  0  0  0  0  0  0  0  0  0
  1  2  1  0
  2  3  2  0
  2  4  1  0
  3  5  1  0
  4  6  2  0
  4  7  1  0
  5  8  2  0
  6  8  1  0
  7  9  1  0
  9 10  1  6
  9 11  1  0
 11 12  1  0
 12 13  1  0
 13 14  2  0
 13 15  1  0
 15 16  1  0
 16 17  1  0
 17 18  2  0
 17 19  1  0
 18 20  1  0
 19 21  2  0
 20 22  2  0
 21 22  1  0
M  END
>  <ref_url>  (982) 
https://fakepage.com

>  <submitter_name>  (982) 
Steph Wills

>  <submitter_email>  (982) 
stephanie.wills@dtc.ox.ac.uk

>  <submitter_institution>  (982) 
University of Oxford

>  <generation_date>  (982) 
2020-06-04

>  <method>  (982) 
Fragment network

>  <ref_mols>  (982) 
x0034_0B,x0212_0B

>  <ref_pdb>  (982) 
references/x0034-0B-x0212-0B-222869.holo_minimised_nolig.pdb

>  <original SMILES>  (982) 
Cc1ccccc1OC(C)CNC(=O)OCc1ccccc1

>  <synthon>  (982) 
[Xe]c1ccccc1

>  <original_name>  (982) 
x0034-0B-x0212-0B-222869

>  <comRMSD_score>  (982) 
0.8779636894541825

>  <IF_score>  (982) 
0.625

>  <SuCOS_score>  (982) 
0.4503474010682172

>  <compound_ID>  (982) 
CHEMSPACE-BB:CSMB00113875067

$$$$

     RDKit          3D

 27 28  0  0  0  0  0  0  0  0999 V2000
  -10.4310   -1.5260  -74.1130 O   0  0  0  0  0  0  0  0  0  0  0  0
  -10.2660   -0.9530  -75.1850 C   0  0  0  0  0  0  0  0  0  0  0  0
  -10.8480   -1.4910  -76.4630 C   0  0  0  0  0  0  0  0  0  0  0  0
   -9.5650    0.2210  -75.4070 N   0  0  0  0  0  0  0  0  0  0  0  0
  -10.2070   -2.4060  -76.9600 O   0  0  0  0  0  0  0  0  0  0  0  0
   -8.2780    0.3360  -76.0840 C   0  0  0  0  0  0  0  0  0  0  0  0
   -9.8020   -2.2920  -78.2600 C   0  0  0  0  0  0  0  0  0  0  0  0
   -7.9070    1.6420  -76.4490 C   0  0  0  0  0  0  0  0  0  0  0  0
  -10.6520   -1.7900  -79.3090 O   0  0  0  0  0  0  0  0  0  0  0  0
   -8.4890   -2.7190  -78.4700 C   0  0  0  0  0  0  0  0  0  0  0  0
   -9.0750    2.6220  -76.6240 C   0  0  0  0  0  0  0  0  0  0  0  0
   -7.4550   -1.8480  -78.0570 N   0  0  0  0  0  0  0  0  0  0  0  0
  -10.0910    2.7070  -75.6700 C   0  0  0  0  0  0  0  0  0  0  0  0
   -9.1330    3.4530  -77.7550 C   0  0  0  0  0  0  0  0  0  0  0  0
   -6.3440   -1.3210  -79.2340 S   0  0  0  0  0  0  0  0  0  0  0  0
  -11.1490    3.6030  -75.8330 C   0  0  0  0  0  0  0  0  0  0  0  0
  -10.1890    4.3440  -77.9160 C   0  0  0  0  0  0  0  0  0  0  0  0
   -5.3740   -0.4740  -78.5740 O   0  0  0  0  0  0  0  0  0  0  0  0
   -5.9540   -2.4880  -80.0060 O   0  0  0  0  0  0  0  0  0  0  0  0
   -7.3730   -0.3040  -80.3000 C   0  0  0  0  0  0  0  0  0  0  0  0
  -11.1950    4.4210  -76.9570 C   0  0  0  0  0  0  0  0  0  0  0  0
   -8.4030   -1.0430  -81.1060 C   0  0  0  0  0  0  0  0  0  0  0  0
   -7.2610    1.0950  -80.4140 C   0  0  0  0  0  0  0  0  0  0  0  0
   -9.2610   -0.2230  -82.0080 C   0  0  0  0  0  0  0  0  0  0  0  0
   -8.0940    1.8380  -81.2830 C   0  0  0  0  0  0  0  0  0  0  0  0
   -9.0740    1.2300  -82.0770 C   0  0  0  0  0  0  0  0  0  0  0  0
   -7.9400    3.1600  -81.3480 F   0  0  0  0  0  0  0  0  0  0  0  0
  1  2  2  0
  2  3  1  0
  2  4  1  0
  3  5  1  0
  4  6  1  0
  5  7  1  0
  6  8  1  0
  7  9  2  0
  7 10  1  0
  8 11  1  0
 10 12  1  0
 11 13  2  0
 11 14  1  0
 15 12  1  0
 13 16  1  0
 14 17  2  0
 15 18  2  0
 15 19  2  0
 15 20  1  0
 16 21  2  0
 17 21  1  0
 20 22  2  0
 20 23  1  0
 22 24  1  0
 23 25  2  0
 24 26  2  0
 25 26  1  0
 25 27  1  0
M  END
>  <ref_url>  (983) 
https://fakepage.com

>  <submitter_name>  (983) 
Steph Wills

>  <submitter_email>  (983) 
stephanie.wills@dtc.ox.ac.uk

>  <submitter_institution>  (983) 
University of Oxford

>  <generation_date>  (983) 
2020-06-04

>  <method>  (983) 
Fragment network

>  <ref_mols>  (983) 
x0034_0B,x0212_0B

>  <ref_pdb>  (983) 
references/x0034-0B-x0212-0B-222891.holo_minimised_nolig.pdb

>  <original SMILES>  (983) 
O=C(COC(=O)CNS(=O)(=O)c1cccc(F)c1)NCCc1ccccc1

>  <synthon>  (983) 
[Xe]c1ccccc1

>  <original_name>  (983) 
x0034-0B-x0212-0B-222891

>  <comRMSD_score>  (983) 
0.8350268347872505

>  <IF_score>  (983) 
0.65

>  <SuCOS_score>  (983) 
0.4931520719596267

>  <compound_ID>  (983) 
MOLPORT:005-719-147

$$$$

     RDKit          3D

 23 24  0  0  0  0  0  0  0  0999 V2000
  -12.4930    5.3900  -77.2850 C   0  0  0  0  0  0  0  0  0  0  0  0
  -11.3940    4.3930  -77.0950 C   0  0  0  0  0  0  0  0  0  0  0  0
  -10.4840    4.1820  -78.1260 C   0  0  0  0  0  0  0  0  0  0  0  0
  -11.2610    3.6690  -75.8960 C   0  0  0  0  0  0  0  0  0  0  0  0
   -9.4560    3.2660  -77.9750 C   0  0  0  0  0  0  0  0  0  0  0  0
  -10.2220    2.7470  -75.7480 C   0  0  0  0  0  0  0  0  0  0  0  0
   -9.3180    2.5450  -76.7860 C   0  0  0  0  0  0  0  0  0  0  0  0
   -8.2030    1.5750  -76.6350 C   0  0  0  0  0  0  0  0  0  0  0  0
   -8.4860    0.1240  -76.2090 C   0  0  0  0  0  0  0  0  0  0  0  0
   -9.5270   -0.2670  -75.6780 O   0  0  0  0  0  0  0  0  0  0  0  0
   -7.3250   -0.7360  -76.5230 N   0  0  0  0  0  0  0  0  0  0  0  0
   -7.6670   -2.1660  -76.5530 C   0  0  0  0  0  0  0  0  0  0  0  0
   -5.9810   -0.2410  -76.8530 C   0  0  2  0  0  0  0  0  0  0  0  0
   -5.5420    0.6900  -75.9060 C   0  0  0  0  0  0  0  0  0  0  0  0
   -5.9580    0.4120  -78.2470 C   0  0  0  0  0  0  0  0  0  0  0  0
   -6.1660    1.8760  -78.1530 N   0  0  0  0  0  0  0  0  0  0  0  0
   -6.9100    2.5020  -79.2520 C   0  0  0  0  0  0  0  0  0  0  0  0
   -7.7860    1.5830  -80.0580 C   0  0  0  0  0  0  0  0  0  0  0  0
   -8.2190    1.9410  -81.4410 C   0  0  0  0  0  0  0  0  0  0  0  0
   -8.2310    0.3530  -79.5500 C   0  0  0  0  0  0  0  0  0  0  0  0
   -9.0190    1.0820  -82.1770 C   0  0  0  0  0  0  0  0  0  0  0  0
   -9.0400   -0.4900  -80.3240 C   0  0  0  0  0  0  0  0  0  0  0  0
   -9.4280   -0.1320  -81.6230 C   0  0  0  0  0  0  0  0  0  0  0  0
  1  2  1  0
  2  3  2  0
  2  4  1  0
  3  5  1  0
  4  6  2  0
  5  7  2  0
  6  7  1  0
  7  8  1  0
  8  9  1  0
  9 10  2  0
  9 11  1  0
 11 12  1  0
 11 13  1  0
 13 14  1  1
 13 15  1  0
 15 16  1  0
 16 17  1  0
 17 18  1  0
 18 19  2  0
 18 20  1  0
 19 21  1  0
 20 22  2  0
 21 23  2  0
 22 23  1  0
M  END
>  <ref_url>  (984) 
https://fakepage.com

>  <submitter_name>  (984) 
Steph Wills

>  <submitter_email>  (984) 
stephanie.wills@dtc.ox.ac.uk

>  <submitter_institution>  (984) 
University of Oxford

>  <generation_date>  (984) 
2020-06-04

>  <method>  (984) 
Fragment network

>  <ref_mols>  (984) 
x0034_0B,x0212_0B

>  <ref_pdb>  (984) 
references/x0034-0B-x0212-0B-223158.holo_minimised_nolig.pdb

>  <original SMILES>  (984) 
Cc1ccc(CC(=O)N(C)C(C)CNCc2ccccc2)cc1

>  <synthon>  (984) 
[Xe]c1ccccc1

>  <original_name>  (984) 
x0034-0B-x0212-0B-223158

>  <comRMSD_score>  (984) 
0.7722161470584381

>  <IF_score>  (984) 
0.875

>  <SuCOS_score>  (984) 
0.6155941109941299

>  <compound_ID>  (984) 
REAL:PV-000860522712

$$$$

     RDKit          3D

 19 20  0  0  0  0  0  0  0  0999 V2000
  -12.6250    5.3240  -77.3260 C   0  0  0  0  0  0  0  0  0  0  0  0
  -11.4330    4.4300  -77.2600 C   0  0  0  0  0  0  0  0  0  0  0  0
  -10.4340    4.5310  -78.2110 C   0  0  0  0  0  0  0  0  0  0  0  0
  -11.2940    3.4800  -76.2560 C   0  0  0  0  0  0  0  0  0  0  0  0
   -9.3180    3.7240  -78.1540 C   0  0  0  0  0  0  0  0  0  0  0  0
  -10.1750    2.6530  -76.1960 C   0  0  0  0  0  0  0  0  0  0  0  0
   -9.1900    2.7860  -77.1390 C   0  0  0  0  0  0  0  0  0  0  0  0
   -9.8510    1.5990  -75.2520 N   0  0  0  0  0  0  0  0  0  0  0  0
   -8.5380    0.9920  -75.5320 C   0  0  1  0  0  0  0  0  0  0  0  0
   -8.6400   -0.4380  -74.9930 C   0  0  0  0  0  0  0  0  0  0  0  0
   -8.2460    0.9700  -77.0660 C   0  0  0  0  0  0  0  0  0  0  0  0
   -7.2890    1.6810  -77.3830 O   0  0  0  0  0  0  0  0  0  0  0  0
   -7.3160    2.1790  -78.7340 C   0  0  0  0  0  0  0  0  0  0  0  0
   -7.9600    1.4060  -79.8390 C   0  0  0  0  0  0  0  0  0  0  0  0
   -8.2220    2.0560  -81.1960 C   0  0  0  0  0  0  0  0  0  0  0  0
   -8.3340    0.0740  -79.6350 C   0  0  0  0  0  0  0  0  0  0  0  0
   -8.8840    1.1680  -82.2190 C   0  0  0  0  0  0  0  0  0  0  0  0
   -8.9470   -0.6860  -80.6380 C   0  0  0  0  0  0  0  0  0  0  0  0
   -9.2160   -0.1550  -81.9010 C   0  0  0  0  0  0  0  0  0  0  0  0
  1  2  1  0
  2  3  2  0
  2  4  1  0
  3  5  1  0
  4  6  2  0
  5  7  2  0
  6  7  1  0
  6  8  1  0
  8  9  1  0
  9 10  1  6
  9 11  1  0
 11 12  1  0
 12 13  1  0
 13 14  1  0
 14 15  2  0
 14 16  1  0
 15 17  1  0
 16 18  2  0
 17 19  2  0
 18 19  1  0
M  END
>  <ref_url>  (985) 
https://fakepage.com

>  <submitter_name>  (985) 
Steph Wills

>  <submitter_email>  (985) 
stephanie.wills@dtc.ox.ac.uk

>  <submitter_institution>  (985) 
University of Oxford

>  <generation_date>  (985) 
2020-06-04

>  <method>  (985) 
Fragment network

>  <ref_mols>  (985) 
x0034_0B,x0212_0B

>  <ref_pdb>  (985) 
references/x0034-0B-x0212-0B-224008.holo_minimised_nolig.pdb

>  <original SMILES>  (985) 
Cc1cccc(NC(C)COCc2ccccc2)c1

>  <synthon>  (985) 
[Xe]c1ccccc1

>  <original_name>  (985) 
x0034-0B-x0212-0B-224008

>  <comRMSD_score>  (985) 
0.7986360873389081

>  <IF_score>  (985) 
0.375

>  <SuCOS_score>  (985) 
0.4663298021646559

>  <compound_ID>  (985) 
CHEMSPACE-BB:CSMB00019777720

$$$$

     RDKit          3D

 22 23  0  0  0  0  0  0  0  0999 V2000
  -12.4190    5.2990  -77.5370 C   0  0  0  0  0  0  0  0  0  0  0  0
  -11.3310    4.3300  -77.1910 C   0  0  0  0  0  0  0  0  0  0  0  0
  -11.3240    3.5710  -75.8460 C   0  0  0  0  0  0  0  0  0  0  0  0
  -10.2930    4.0970  -78.0880 C   0  0  0  0  0  0  0  0  0  0  0  0
  -10.2860    2.6870  -75.5790 C   0  0  0  0  0  0  0  0  0  0  0  0
   -9.2550    3.2020  -77.7890 C   0  0  0  0  0  0  0  0  0  0  0  0
   -9.1960    2.4810  -76.5720 C   0  0  0  0  0  0  0  0  0  0  0  0
   -8.1240    1.5940  -76.3020 N   0  0  0  0  0  0  0  0  0  0  0  0
   -8.0440    0.2120  -76.4030 C   0  0  0  0  0  0  0  0  0  0  0  0
   -9.3370   -0.5350  -76.4570 C   0  0  0  0  0  0  0  0  0  0  0  0
   -9.0380   -1.5380  -77.5140 N   0  0  0  0  0  0  0  0  0  0  0  0
  -10.1390   -2.0620  -78.3170 C   0  0  0  0  0  0  0  0  0  0  0  0
   -7.5850   -1.7260  -77.8000 C   0  0  0  0  0  0  0  0  0  0  0  0
   -6.9550   -0.8550  -78.7490 C   0  0  0  0  0  0  0  0  0  0  0  0
   -6.7170    0.2570  -78.1990 O   0  0  0  0  0  0  0  0  0  0  0  0
   -7.0730    1.4280  -78.9840 C   0  0  0  0  0  0  0  0  0  0  0  0
   -7.9240    1.0820  -80.0320 C   0  0  0  0  0  0  0  0  0  0  0  0
   -8.0960    1.8250  -81.2220 C   0  0  0  0  0  0  0  0  0  0  0  0
   -8.6420   -0.1130  -79.8590 C   0  0  0  0  0  0  0  0  0  0  0  0
   -8.9740    1.2920  -82.1520 C   0  0  0  0  0  0  0  0  0  0  0  0
   -9.5170   -0.6320  -80.7910 C   0  0  0  0  0  0  0  0  0  0  0  0
   -9.6550    0.1060  -81.9350 C   0  0  0  0  0  0  0  0  0  0  0  0
  1  2  1  0
  2  3  2  0
  2  4  1  0
  3  5  1  0
  4  6  2  0
  5  7  2  0
  6  7  1  0
  7  8  1  0
  8  9  1  0
  9 10  1  0
 10 11  1  0
 11 12  1  0
 11 13  1  0
 13 14  1  0
 14 15  1  0
 15 16  1  0
 16 17  1  0
 17 18  2  0
 17 19  1  0
 18 20  1  0
 19 21  2  0
 20 22  2  0
 21 22  1  0
M  END
>  <ref_url>  (986) 
https://fakepage.com

>  <submitter_name>  (986) 
Steph Wills

>  <submitter_email>  (986) 
stephanie.wills@dtc.ox.ac.uk

>  <submitter_institution>  (986) 
University of Oxford

>  <generation_date>  (986) 
2020-06-04

>  <method>  (986) 
Fragment network

>  <ref_mols>  (986) 
x0034_0B,x0212_0B

>  <ref_pdb>  (986) 
references/x0034-0B-x0212-0B-225131.holo_minimised_nolig.pdb

>  <original SMILES>  (986) 
Cc1ccc(NCCN(C)CCOCc2ccccc2)cc1

>  <synthon>  (986) 
[Xe]c1ccccc1

>  <original_name>  (986) 
x0034-0B-x0212-0B-225131

>  <comRMSD_score>  (986) 
0.698589239772505

>  <IF_score>  (986) 
0.625

>  <SuCOS_score>  (986) 
0.4821662913581533

>  <compound_ID>  (986) 
CHEMSPACE-BB:CSMB00017150631

$$$$

     RDKit          3D

 23 24  0  0  0  0  0  0  0  0999 V2000
   -5.8280   -1.3150  -78.5260 O   0  0  0  0  0  0  0  0  0  0  0  0
   -6.7840   -1.6200  -77.8280 C   0  0  0  0  0  0  0  0  0  0  0  0
   -7.0310   -1.0750  -76.4520 C   0  0  0  0  0  0  0  0  0  0  0  0
   -7.7370   -2.5100  -78.2440 N   0  0  0  0  0  0  0  0  0  0  0  0
   -8.6800   -0.1690  -76.5420 S   0  0  0  0  0  0  0  0  0  0  0  0
   -8.0910   -2.8070  -79.5420 C   0  0  0  0  0  0  0  0  0  0  0  0
   -9.3320   -0.5510  -77.7720 O   0  0  0  0  0  0  0  0  0  0  0  0
   -9.3690   -0.3690  -75.2910 O   0  0  0  0  0  0  0  0  0  0  0  0
   -8.1530    1.5360  -76.6640 C   0  0  0  0  0  0  0  0  0  0  0  0
   -9.3370   -2.1080  -79.9630 C   0  0  0  0  0  0  0  0  0  0  0  0
   -9.1940    2.4670  -76.7850 C   0  0  0  0  0  0  0  0  0  0  0  0
   -8.9890   -0.7070  -80.4750 C   0  0  0  0  0  0  0  0  0  0  0  0
  -10.1070    2.6220  -75.7190 C   0  0  0  0  0  0  0  0  0  0  0  0
   -9.3390    3.2480  -77.9640 C   0  0  0  0  0  0  0  0  0  0  0  0
   -8.1790    0.2000  -79.5870 C   0  0  0  0  0  0  0  0  0  0  0  0
   -9.3890   -0.2450  -81.7230 C   0  0  0  0  0  0  0  0  0  0  0  0
  -11.2250    3.6130  -75.8440 C   0  0  0  0  0  0  0  0  0  0  0  0
  -10.3800    4.1780  -78.0990 C   0  0  0  0  0  0  0  0  0  0  0  0
   -7.8600    1.4740  -80.0450 C   0  0  0  0  0  0  0  0  0  0  0  0
   -9.0380    1.0420  -82.1300 C   0  0  0  0  0  0  0  0  0  0  0  0
  -11.3310    4.4080  -77.1160 C   0  0  0  0  0  0  0  0  0  0  0  0
   -8.2870    1.8790  -81.3000 C   0  0  0  0  0  0  0  0  0  0  0  0
   -7.9680    3.1020  -81.7070 F   0  0  0  0  0  0  0  0  0  0  0  0
  1  2  2  0
  2  3  1  0
  2  4  1  0
  5  3  1  0
  4  6  1  0
  5  7  2  0
  5  8  2  0
  5  9  1  0
  6 10  1  0
  9 11  1  0
 10 12  1  0
 11 13  2  0
 11 14  1  0
 12 15  2  0
 12 16  1  0
 13 17  1  0
 14 18  2  0
 15 19  1  0
 16 20  2  0
 17 21  2  0
 18 21  1  0
 19 22  2  0
 20 22  1  0
 22 23  1  0
M  END
>  <ref_url>  (987) 
https://fakepage.com

>  <submitter_name>  (987) 
Steph Wills

>  <submitter_email>  (987) 
stephanie.wills@dtc.ox.ac.uk

>  <submitter_institution>  (987) 
University of Oxford

>  <generation_date>  (987) 
2020-06-04

>  <method>  (987) 
Fragment network

>  <ref_mols>  (987) 
x0034_0B,x0212_0B

>  <ref_pdb>  (987) 
references/x0034-0B-x0212-0B-225999.holo_minimised_nolig.pdb

>  <original SMILES>  (987) 
O=C(CS(=O)(=O)Cc1ccccc1)NCCc1ccc(F)cc1

>  <synthon>  (987) 
[Xe]c1ccccc1

>  <original_name>  (987) 
x0034-0B-x0212-0B-225999

>  <comRMSD_score>  (987) 
0.5066979887979153

>  <IF_score>  (987) 
0.7083333333333333

>  <SuCOS_score>  (987) 
0.5694979828754314

>  <compound_ID>  (987) 
MOLPORT:001-585-682, REAL:Z339635614

$$$$

     RDKit          3D

 18 19  0  0  0  0  0  0  0  0999 V2000
  -12.4180    5.3880  -77.5960 C   0  0  0  0  0  0  0  0  0  0  0  0
  -11.3830    4.4010  -77.1520 C   0  0  0  0  0  0  0  0  0  0  0  0
  -11.4530    3.8150  -75.8860 C   0  0  0  0  0  0  0  0  0  0  0  0
  -10.3310    4.0510  -77.9980 C   0  0  0  0  0  0  0  0  0  0  0  0
  -10.4920    2.9040  -75.4830 C   0  0  0  0  0  0  0  0  0  0  0  0
   -9.3700    3.1330  -77.5790 C   0  0  0  0  0  0  0  0  0  0  0  0
   -9.4440    2.5490  -76.3070 C   0  0  0  0  0  0  0  0  0  0  0  0
   -8.5300    1.6200  -75.7880 C   0  0  0  0  0  0  0  0  0  0  0  0
   -8.3770    0.2980  -76.4260 C   0  0  0  0  0  0  0  0  0  0  0  0
   -8.5160    0.5430  -77.8690 C   0  0  0  0  0  0  0  0  0  0  0  0
   -7.5690    1.2670  -78.6080 C   0  0  2  0  0  0  0  0  0  0  0  0
   -7.3510    2.6720  -78.2860 N   0  0  0  0  0  0  0  0  0  0  0  0
   -8.1060    1.0550  -79.9620 C   0  0  0  0  0  0  0  0  0  0  0  0
   -8.1650    1.9080  -81.0610 C   0  0  0  0  0  0  0  0  0  0  0  0
   -8.6280   -0.2350  -80.0350 C   0  0  0  0  0  0  0  0  0  0  0  0
   -8.8150    1.3640  -82.2890 C   0  0  0  0  0  0  0  0  0  0  0  0
   -9.2190   -0.7130  -81.1660 C   0  0  0  0  0  0  0  0  0  0  0  0
   -9.3100    0.0790  -82.2730 C   0  0  0  0  0  0  0  0  0  0  0  0
  1  2  1  0
  2  3  2  0
  2  4  1  0
  3  5  1  0
  4  6  2  0
  5  7  2  0
  6  7  1  0
  7  8  1  0
  8  9  1  0
  9 10  1  0
 10 11  1  0
 11 12  1  1
 11 13  1  0
 13 14  2  0
 13 15  1  0
 14 16  1  0
 15 17  2  0
 16 18  2  0
 17 18  1  0
M  END
>  <ref_url>  (988) 
https://fakepage.com

>  <submitter_name>  (988) 
Steph Wills

>  <submitter_email>  (988) 
stephanie.wills@dtc.ox.ac.uk

>  <submitter_institution>  (988) 
University of Oxford

>  <generation_date>  (988) 
2020-06-04

>  <method>  (988) 
Fragment network

>  <ref_mols>  (988) 
x0034_0B,x0212_0B

>  <ref_pdb>  (988) 
references/x0034-0B-x0212-0B-228579.holo_minimised_nolig.pdb

>  <original SMILES>  (988) 
Cc1ccc(CCCC(N)c2ccccc2)cc1

>  <synthon>  (988) 
[Xe]c1ccccc1

>  <original_name>  (988) 
x0034-0B-x0212-0B-228579

>  <comRMSD_score>  (988) 
0.6700195685367865

>  <IF_score>  (988) 
0.5416666666666666

>  <SuCOS_score>  (988) 
0.5529060941227226

>  <compound_ID>  (988) 
CHEMSPACE-BB:CSMB00008212254

$$$$

     RDKit          3D

 22 23  0  0  0  0  0  0  0  0999 V2000
   -6.9260    2.6170  -79.4600 C   0  0  0  0  0  0  0  0  0  0  0  0
   -7.7490    1.6440  -80.2480 C   0  0  0  0  0  0  0  0  0  0  0  0
   -8.3420    2.0370  -81.4390 C   0  0  0  0  0  0  0  0  0  0  0  0
   -7.9560    0.3230  -79.8350 C   0  0  0  0  0  0  0  0  0  0  0  0
   -9.1230    1.1490  -82.1840 C   0  0  0  0  0  0  0  0  0  0  0  0
   -8.7340   -0.5640  -80.5720 C   0  0  0  0  0  0  0  0  0  0  0  0
   -7.3620   -0.1980  -78.6260 N   0  0  0  0  0  0  0  0  0  0  0  0
   -9.3280   -0.1590  -81.7510 C   0  0  0  0  0  0  0  0  0  0  0  0
   -6.8700   -1.5720  -78.5290 C   0  0  0  0  0  0  0  0  0  0  0  0
   -6.4520   -2.3290  -79.4120 O   0  0  0  0  0  0  0  0  0  0  0  0
   -6.8860   -2.0860  -77.2410 C   0  0  0  0  0  0  0  0  0  0  0  0
   -7.3550   -1.1400  -76.1470 C   0  0  0  0  0  0  0  0  0  0  0  0
   -8.8460   -0.1970  -76.5780 S   0  0  0  0  0  0  0  0  0  0  0  0
   -9.7680   -0.3460  -75.4680 O   0  0  0  0  0  0  0  0  0  0  0  0
   -9.2280   -0.5850  -77.9180 O   0  0  0  0  0  0  0  0  0  0  0  0
   -8.2550    1.4880  -76.5780 C   0  0  0  0  0  0  0  0  0  0  0  0
   -9.3380    2.5420  -76.7460 C   0  0  0  0  0  0  0  0  0  0  0  0
  -10.2210    2.7580  -75.7010 C   0  0  0  0  0  0  0  0  0  0  0  0
   -9.4750    3.2850  -77.9350 C   0  0  0  0  0  0  0  0  0  0  0  0
  -11.2820    3.7720  -75.8550 C   0  0  0  0  0  0  0  0  0  0  0  0
  -10.4840    4.2400  -78.0800 C   0  0  0  0  0  0  0  0  0  0  0  0
  -11.3890    4.4910  -77.0450 C   0  0  0  0  0  0  0  0  0  0  0  0
  1  2  1  0
  2  3  2  0
  2  4  1  0
  3  5  1  0
  4  6  2  0
  4  7  1  0
  5  8  2  0
  6  8  1  0
  7  9  1  0
  9 10  2  0
  9 11  1  0
 11 12  1  0
 13 12  1  0
 13 14  2  0
 13 15  2  0
 13 16  1  0
 16 17  1  0
 17 18  2  0
 17 19  1  0
 18 20  1  0
 19 21  2  0
 20 22  2  0
 21 22  1  0
M  END
>  <ref_url>  (989) 
https://fakepage.com

>  <submitter_name>  (989) 
Steph Wills

>  <submitter_email>  (989) 
stephanie.wills@dtc.ox.ac.uk

>  <submitter_institution>  (989) 
University of Oxford

>  <generation_date>  (989) 
2020-06-04

>  <method>  (989) 
Fragment network

>  <ref_mols>  (989) 
x0034_0B,x0212_0B

>  <ref_pdb>  (989) 
references/x0034-0B-x0212-0B-229846.holo_minimised_nolig.pdb

>  <original SMILES>  (989) 
Cc1ccccc1NC(=O)CCS(=O)(=O)Cc1ccccc1

>  <synthon>  (989) 
[Xe]c1ccccc1

>  <original_name>  (989) 
x0034-0B-x0212-0B-229846

>  <comRMSD_score>  (989) 
0.5288163932574123

>  <IF_score>  (989) 
0.625

>  <SuCOS_score>  (989) 
0.5665675536943446

>  <compound_ID>  (989) 
REAL:Z1272862066

$$$$

     RDKit          3D

 20 21  0  0  0  0  0  0  0  0999 V2000
   -6.7460    2.4680  -79.4710 C   0  0  0  0  0  0  0  0  0  0  0  0
   -7.7200    1.6280  -80.2500 C   0  0  0  0  0  0  0  0  0  0  0  0
   -8.1100    2.0230  -81.5270 C   0  0  0  0  0  0  0  0  0  0  0  0
   -8.2470    0.4550  -79.7220 C   0  0  0  0  0  0  0  0  0  0  0  0
   -9.0060    1.2580  -82.2580 C   0  0  0  0  0  0  0  0  0  0  0  0
   -9.1600   -0.2990  -80.4570 C   0  0  0  0  0  0  0  0  0  0  0  0
   -9.5350    0.0930  -81.7260 C   0  0  0  0  0  0  0  0  0  0  0  0
   -9.5980   -1.2910  -79.9170 O   0  0  0  0  0  0  0  0  0  0  0  0
  -10.5790   -0.9740  -78.9380 C   0  0  0  0  0  0  0  0  0  0  0  0
  -10.2550    0.3020  -78.2200 C   0  0  2  0  0  0  0  0  0  0  0  0
  -10.4050    1.2620  -79.0090 O   0  0  0  0  0  0  0  0  0  0  0  0
   -8.9280    0.0790  -77.4950 C   0  0  0  0  0  0  0  0  0  0  0  0
   -8.0620    1.0970  -77.7130 O   0  0  0  0  0  0  0  0  0  0  0  0
   -7.9880    1.9000  -76.5870 C   0  0  0  0  0  0  0  0  0  0  0  0
   -9.1870    2.8160  -76.6990 C   0  0  0  0  0  0  0  0  0  0  0  0
   -9.3860    3.5640  -77.8420 C   0  0  0  0  0  0  0  0  0  0  0  0
  -10.1300    2.9260  -75.6750 C   0  0  0  0  0  0  0  0  0  0  0  0
  -10.5680    4.4770  -78.0180 C   0  0  0  0  0  0  0  0  0  0  0  0
  -11.2440    3.7710  -75.8040 C   0  0  0  0  0  0  0  0  0  0  0  0
  -11.4640    4.5380  -76.9640 C   0  0  0  0  0  0  0  0  0  0  0  0
  1  2  1  0
  2  3  2  0
  2  4  1  0
  3  5  1  0
  4  6  2  0
  5  7  2  0
  6  7  1  0
  6  8  1  0
  8  9  1  0
  9 10  1  0
 10 11  1  6
 10 12  1  0
 12 13  1  0
 13 14  1  0
 14 15  1  0
 15 16  2  0
 15 17  1  0
 16 18  1  0
 17 19  2  0
 18 20  2  0
 19 20  1  0
M  END
>  <ref_url>  (990) 
https://fakepage.com

>  <submitter_name>  (990) 
Steph Wills

>  <submitter_email>  (990) 
stephanie.wills@dtc.ox.ac.uk

>  <submitter_institution>  (990) 
University of Oxford

>  <generation_date>  (990) 
2020-06-04

>  <method>  (990) 
Fragment network

>  <ref_mols>  (990) 
x0034_0B,x0212_0B

>  <ref_pdb>  (990) 
references/x0034-0B-x0212-0B-230219.holo_minimised_nolig.pdb

>  <original SMILES>  (990) 
Cc1cccc(OCC(O)COCc2ccccc2)c1

>  <synthon>  (990) 
[Xe]c1ccccc1

>  <original_name>  (990) 
x0034-0B-x0212-0B-230219

>  <comRMSD_score>  (990) 
0.8595941600546152

>  <IF_score>  (990) 
0.625

>  <SuCOS_score>  (990) 
0.4506869375626043

>  <compound_ID>  (990) 
CHEMSPACE-BB:CSMB00121049031, CHEMSPACE-BB:CSMB00121052434, CHEMSPACE-BB:CSMB00121054245

$$$$

     RDKit          3D

 21 22  0  0  0  0  0  0  0  0999 V2000
  -12.2870    5.4530  -77.5390 C   0  0  0  0  0  0  0  0  0  0  0  0
  -11.4940    4.2670  -77.0550 C   0  0  0  0  0  0  0  0  0  0  0  0
  -11.4290    3.9660  -75.6850 C   0  0  0  0  0  0  0  0  0  0  0  0
  -10.8160    3.4440  -77.9490 C   0  0  0  0  0  0  0  0  0  0  0  0
  -10.6980    2.8730  -75.2310 C   0  0  0  0  0  0  0  0  0  0  0  0
  -10.0840    2.3390  -77.4750 C   0  0  0  0  0  0  0  0  0  0  0  0
  -10.0230    2.0650  -76.1220 C   0  0  0  0  0  0  0  0  0  0  0  0
   -9.3310    1.3710  -78.2050 O   0  0  0  0  0  0  0  0  0  0  0  0
   -8.3860    0.5650  -77.4960 C   0  0  0  0  0  0  0  0  0  0  0  0
   -6.9730    1.1030  -77.3640 C   0  0  0  0  0  0  0  0  0  0  0  0
   -6.8050    2.3650  -78.1110 N   0  0  0  0  0  0  0  0  0  0  0  0
   -7.7130    3.4130  -77.6250 C   0  0  0  0  0  0  0  0  0  0  0  0
   -6.4500    2.1630  -79.5350 C   0  0  0  0  0  0  0  0  0  0  0  0
   -8.6110    3.8200  -78.8030 C   0  0  0  0  0  0  0  0  0  0  0  0
   -7.5150    1.3970  -80.3370 C   0  0  0  0  0  0  0  0  0  0  0  0
   -8.0800    4.4020  -79.7450 O   0  0  0  0  0  0  0  0  0  0  0  0
   -7.8670   -0.0020  -79.8590 C   0  0  0  0  0  0  0  0  0  0  0  0
   -8.1690    1.9090  -81.4730 C   0  0  0  0  0  0  0  0  0  0  0  0
   -8.8260   -0.7140  -80.5690 C   0  0  0  0  0  0  0  0  0  0  0  0
   -9.1270    1.1700  -82.1790 C   0  0  0  0  0  0  0  0  0  0  0  0
   -9.5150   -0.1240  -81.8050 C   0  0  0  0  0  0  0  0  0  0  0  0
  1  2  1  0
  2  3  2  0
  2  4  1  0
  3  5  1  0
  4  6  2  0
  5  7  2  0
  6  7  1  0
  6  8  1  0
  8  9  1  0
  9 10  1  0
 10 11  1  0
 11 12  1  0
 11 13  1  0
 12 14  1  0
 13 15  1  0
 14 16  1  0
 15 17  2  0
 15 18  1  0
 17 19  1  0
 18 20  2  0
 19 21  2  0
 20 21  1  0
M  END
>  <ref_url>  (991) 
https://fakepage.com

>  <submitter_name>  (991) 
Steph Wills

>  <submitter_email>  (991) 
stephanie.wills@dtc.ox.ac.uk

>  <submitter_institution>  (991) 
University of Oxford

>  <generation_date>  (991) 
2020-06-04

>  <method>  (991) 
Fragment network

>  <ref_mols>  (991) 
x0034_0B,x0212_0B

>  <ref_pdb>  (991) 
references/x0034-0B-x0212-0B-234051.holo_minimised_nolig.pdb

>  <original SMILES>  (991) 
Cc1cccc(OCCN(CCO)Cc2ccccc2)c1

>  <synthon>  (991) 
[Xe]c1ccccc1

>  <original_name>  (991) 
x0034-0B-x0212-0B-234051

>  <comRMSD_score>  (991) 
0.9661938935845128

>  <IF_score>  (991) 
0.625

>  <SuCOS_score>  (991) 
0.4815140943530853

>  <compound_ID>  (991) 
CHEMSPACE-BB:CSMB00000225267

$$$$

     RDKit          3D

 20 21  0  0  0  0  0  0  0  0999 V2000
  -12.2240    5.4060  -76.9620 C   0  0  0  0  0  0  0  0  0  0  0  0
  -11.2480    4.2650  -76.9960 C   0  0  0  0  0  0  0  0  0  0  0  0
  -11.0510    3.4050  -75.9070 C   0  0  0  0  0  0  0  0  0  0  0  0
  -10.5080    4.0440  -78.1480 C   0  0  0  0  0  0  0  0  0  0  0  0
  -10.1300    2.3420  -75.9880 C   0  0  0  0  0  0  0  0  0  0  0  0
   -9.6080    2.9970  -78.2230 C   0  0  0  0  0  0  0  0  0  0  0  0
   -9.3820    2.1040  -77.1620 C   0  0  0  0  0  0  0  0  0  0  0  0
   -8.5650    1.1890  -77.3300 O   0  0  0  0  0  0  0  0  0  0  0  0
   -8.0450    0.3270  -76.3120 C   0  0  0  0  0  0  0  0  0  0  0  0
   -6.6190    0.7890  -76.0930 C   0  0  1  0  0  0  0  0  0  0  0  0
   -5.6900   -0.2920  -76.2160 O   0  0  0  0  0  0  0  0  0  0  0  0
   -6.2020    1.9080  -77.0350 C   0  0  0  0  0  0  0  0  0  0  0  0
   -7.3030    2.3260  -77.8360 O   0  0  0  0  0  0  0  0  0  0  0  0
   -6.9630    2.5020  -79.2050 C   0  0  0  0  0  0  0  0  0  0  0  0
   -7.8220    1.5740  -80.0580 C   0  0  0  0  0  0  0  0  0  0  0  0
   -8.2490    1.9540  -81.3180 C   0  0  0  0  0  0  0  0  0  0  0  0
   -8.2210    0.2980  -79.6090 C   0  0  0  0  0  0  0  0  0  0  0  0
   -9.0920    1.0700  -82.1870 C   0  0  0  0  0  0  0  0  0  0  0  0
   -9.0160   -0.5540  -80.4050 C   0  0  0  0  0  0  0  0  0  0  0  0
   -9.4470   -0.1730  -81.6830 C   0  0  0  0  0  0  0  0  0  0  0  0
  1  2  1  0
  2  3  2  0
  2  4  1  0
  3  5  1  0
  4  6  2  0
  5  7  2  0
  6  7  1  0
  7  8  1  0
  8  9  1  0
  9 10  1  0
 10 11  1  6
 10 12  1  0
 12 13  1  0
 13 14  1  0
 14 15  1  0
 15 16  2  0
 15 17  1  0
 16 18  1  0
 17 19  2  0
 18 20  2  0
 19 20  1  0
M  END
>  <ref_url>  (992) 
https://fakepage.com

>  <submitter_name>  (992) 
Steph Wills

>  <submitter_email>  (992) 
stephanie.wills@dtc.ox.ac.uk

>  <submitter_institution>  (992) 
University of Oxford

>  <generation_date>  (992) 
2020-06-04

>  <method>  (992) 
Fragment network

>  <ref_mols>  (992) 
x0034_0B,x0212_0B

>  <ref_pdb>  (992) 
references/x0034-0B-x0212-0B-234566.holo_minimised_nolig.pdb

>  <original SMILES>  (992) 
Cc1ccc(OCC(O)COCc2ccccc2)cc1

>  <synthon>  (992) 
[Xe]c1ccccc1

>  <original_name>  (992) 
x0034-0B-x0212-0B-234566

>  <comRMSD_score>  (992) 
0.7074383365354189

>  <IF_score>  (992) 
0.375

>  <SuCOS_score>  (992) 
0.4613808394449057

>  <compound_ID>  (992) 
CHEMSPACE-BB:CSMB00121049029, CHEMSPACE-BB:CSMB00121052432, CHEMSPACE-BB:CSMB00121054243

$$$$

     RDKit          3D

 24 25  0  0  0  0  0  0  0  0999 V2000
  -10.4620    0.5110  -78.0980 C   0  0  0  0  0  0  0  0  0  0  0  0
   -9.5550   -0.5400  -77.5720 C   0  0  2  0  0  0  0  0  0  0  0  0
  -10.0570   -1.6620  -77.4330 O   0  0  0  0  0  0  0  0  0  0  0  0
   -8.7190   -0.1880  -76.5170 C   0  0  1  0  0  0  0  0  0  0  0  0
   -9.2660   -0.4420  -75.2640 C   0  0  0  0  0  0  0  0  0  0  0  0
   -7.4740   -1.1070  -76.5980 C   0  0  0  0  0  0  0  0  0  0  0  0
   -8.1340    1.3020  -76.5770 C   0  0  0  0  0  0  0  0  0  0  0  0
   -7.2460   -1.6530  -77.8950 N   0  0  0  0  0  0  0  0  0  0  0  0
   -9.1260    2.3110  -76.6850 C   0  0  0  0  0  0  0  0  0  0  0  0
   -8.0290   -2.5280  -78.6390 C   0  0  0  0  0  0  0  0  0  0  0  0
   -9.1460    3.1660  -77.7930 C   0  0  0  0  0  0  0  0  0  0  0  0
  -10.0880    2.4570  -75.6830 C   0  0  0  0  0  0  0  0  0  0  0  0
   -7.8670   -3.8530  -78.4080 O   0  0  0  0  0  0  0  0  0  0  0  0
   -9.0680   -2.1020  -79.7180 C   0  0  0  0  0  0  0  0  0  0  0  0
  -10.1250    4.1540  -77.9000 C   0  0  0  0  0  0  0  0  0  0  0  0
  -11.0680    3.4510  -75.7950 C   0  0  0  0  0  0  0  0  0  0  0  0
   -8.7940   -0.6780  -80.2250 C   0  0  0  0  0  0  0  0  0  0  0  0
  -11.0910    4.2980  -76.9050 C   0  0  0  0  0  0  0  0  0  0  0  0
   -9.4240   -0.2440  -81.5380 C   0  0  0  0  0  0  0  0  0  0  0  0
   -7.9950    0.2650  -79.5560 C   0  0  0  0  0  0  0  0  0  0  0  0
   -9.1810    1.0340  -82.0040 C   0  0  0  0  0  0  0  0  0  0  0  0
   -7.8080    1.5370  -80.1060 C   0  0  0  0  0  0  0  0  0  0  0  0
   -8.3850    1.9280  -81.3120 C   0  0  0  0  0  0  0  0  0  0  0  0
   -8.1660    3.1450  -81.7770 F   0  0  0  0  0  0  0  0  0  0  0  0
  2  1  1  1
  2  3  1  0
  2  4  1  0
  4  5  1  1
  4  6  1  0
  4  7  1  0
  6  8  1  0
  7  9  1  0
  8 10  1  0
  9 11  2  0
  9 12  1  0
 10 13  2  0
 10 14  1  0
 11 15  1  0
 12 16  2  0
 14 17  1  0
 15 18  2  0
 16 18  1  0
 17 19  2  0
 17 20  1  0
 19 21  1  0
 20 22  2  0
 21 23  2  0
 22 23  1  0
 23 24  1  0
M  END
>  <ref_url>  (993) 
https://fakepage.com

>  <submitter_name>  (993) 
Steph Wills

>  <submitter_email>  (993) 
stephanie.wills@dtc.ox.ac.uk

>  <submitter_institution>  (993) 
University of Oxford

>  <generation_date>  (993) 
2020-06-04

>  <method>  (993) 
Fragment network

>  <ref_mols>  (993) 
x0034_0B,x0212_0B

>  <ref_pdb>  (993) 
references/x0034-0B-x0212-0B-236703.holo_minimised_nolig.pdb

>  <original SMILES>  (993) 
CC(O)C(C)(CNC(=O)Cc1ccc(F)cc1)Cc1ccccc1

>  <synthon>  (993) 
[Xe]c1ccccc1

>  <original_name>  (993) 
x0034-0B-x0212-0B-236703

>  <comRMSD_score>  (993) 
0.5196251141537133

>  <IF_score>  (993) 
0.55

>  <SuCOS_score>  (993) 
0.5159620002281529

>  <compound_ID>  (993) 
REAL:Z1843025178

$$$$

     RDKit          3D

 19 20  0  0  0  0  0  0  0  0999 V2000
  -12.3930    5.2780  -77.3800 C   0  0  0  0  0  0  0  0  0  0  0  0
  -11.2580    4.3610  -77.0410 C   0  0  0  0  0  0  0  0  0  0  0  0
  -11.2590    3.5960  -75.8650 C   0  0  0  0  0  0  0  0  0  0  0  0
  -10.1730    4.2620  -77.9050 C   0  0  0  0  0  0  0  0  0  0  0  0
  -10.1900    2.7420  -75.5700 C   0  0  0  0  0  0  0  0  0  0  0  0
   -9.1030    3.4180  -77.5980 C   0  0  0  0  0  0  0  0  0  0  0  0
   -9.0970    2.6400  -76.4280 C   0  0  0  0  0  0  0  0  0  0  0  0
   -7.9750    1.7840  -76.1970 N   0  0  0  0  0  0  0  0  0  0  0  0
   -8.0050    0.3930  -76.0540 C   0  0  0  0  0  0  0  0  0  0  0  0
   -9.1060   -0.1600  -76.9150 C   0  0  0  0  0  0  0  0  0  0  0  0
   -9.2520    0.4490  -78.1120 N   0  0  0  0  0  0  0  0  0  0  0  0
   -8.9510    1.8320  -77.9970 O   0  0  0  0  0  0  0  0  0  0  0  0
   -7.9010    2.1950  -78.8190 C   0  0  0  0  0  0  0  0  0  0  0  0
   -8.2410    1.3910  -80.0290 C   0  0  0  0  0  0  0  0  0  0  0  0
   -8.4650    0.0410  -79.7910 C   0  0  0  0  0  0  0  0  0  0  0  0
   -8.3630    1.9030  -81.3280 C   0  0  0  0  0  0  0  0  0  0  0  0
   -8.8170   -0.8150  -80.7830 C   0  0  0  0  0  0  0  0  0  0  0  0
   -8.7250    1.0050  -82.3310 C   0  0  0  0  0  0  0  0  0  0  0  0
   -8.9530   -0.3450  -82.0590 C   0  0  0  0  0  0  0  0  0  0  0  0
  1  2  1  0
  2  3  2  0
  2  4  1  0
  3  5  1  0
  4  6  2  0
  5  7  2  0
  6  7  1  0
  7  8  1  0
  8  9  1  0
  9 10  1  0
 10 11  1  0
 11 12  1  0
 12 13  1  0
 13 14  1  0
 14 15  2  0
 14 16  1  0
 15 17  1  0
 16 18  2  0
 17 19  2  0
 18 19  1  0
M  END
>  <ref_url>  (994) 
https://fakepage.com

>  <submitter_name>  (994) 
Steph Wills

>  <submitter_email>  (994) 
stephanie.wills@dtc.ox.ac.uk

>  <submitter_institution>  (994) 
University of Oxford

>  <generation_date>  (994) 
2020-06-04

>  <method>  (994) 
Fragment network

>  <ref_mols>  (994) 
x0034_0B,x0212_0B

>  <ref_pdb>  (994) 
references/x0034-0B-x0212-0B-237637.holo_minimised_nolig.pdb

>  <original SMILES>  (994) 
Cc1ccc(NCCNOCc2ccccc2)cc1

>  <synthon>  (994) 
[Xe]c1ccccc1

>  <original_name>  (994) 
x0034-0B-x0212-0B-237637

>  <comRMSD_score>  (994) 
0.8213172797853913

>  <IF_score>  (994) 
0.625

>  <SuCOS_score>  (994) 
0.4729595611289012

>  <compound_ID>  (994) 
CHEMSPACE-BB:CSMB00153710740

$$$$

     RDKit          3D

 20 21  0  0  0  0  0  0  0  0999 V2000
  -12.2310    5.3000  -77.0730 C   0  0  0  0  0  0  0  0  0  0  0  0
  -11.0920    4.3450  -76.8430 C   0  0  0  0  0  0  0  0  0  0  0  0
  -11.0670    3.3950  -75.6350 C   0  0  0  0  0  0  0  0  0  0  0  0
  -10.0130    4.2950  -77.7220 C   0  0  0  0  0  0  0  0  0  0  0  0
   -9.9840    2.5350  -75.4620 C   0  0  0  0  0  0  0  0  0  0  0  0
   -8.9250    3.4320  -77.5170 C   0  0  0  0  0  0  0  0  0  0  0  0
   -8.8340    2.5310  -76.4260 C   0  0  0  0  0  0  0  0  0  0  0  0
   -7.8800    1.7380  -76.2130 O   0  0  0  0  0  0  0  0  0  0  0  0
   -8.1290    0.3230  -76.3600 C   0  0  0  0  0  0  0  0  0  0  0  0
   -9.5630   -0.0450  -76.5770 C   0  0  2  0  0  0  0  0  0  0  0  0
   -9.7530   -1.5200  -76.9290 C   0  0  0  0  0  0  0  0  0  0  0  0
   -9.9420    0.9580  -77.6710 C   0  0  0  0  0  0  0  0  0  0  0  0
   -9.0340    2.0830  -77.8400 O   0  0  0  0  0  0  0  0  0  0  0  0
   -7.9550    1.9910  -78.7980 C   0  0  0  0  0  0  0  0  0  0  0  0
   -8.3610    1.2710  -79.8790 C   0  0  0  0  0  0  0  0  0  0  0  0
   -8.4960    1.8370  -81.1470 C   0  0  0  0  0  0  0  0  0  0  0  0
   -8.6430   -0.0550  -79.6410 C   0  0  0  0  0  0  0  0  0  0  0  0
   -8.9370    1.0330  -82.1850 C   0  0  0  0  0  0  0  0  0  0  0  0
   -9.0810   -0.8480  -80.6750 C   0  0  0  0  0  0  0  0  0  0  0  0
   -9.2270   -0.3050  -81.9330 C   0  0  0  0  0  0  0  0  0  0  0  0
  1  2  1  0
  2  3  2  0
  2  4  1  0
  3  5  1  0
  4  6  2  0
  5  7  2  0
  6  7  1  0
  7  8  1  0
  8  9  1  0
  9 10  1  0
 10 11  1  6
 10 12  1  0
 12 13  1  0
 13 14  1  0
 14 15  1  0
 15 16  2  0
 15 17  1  0
 16 18  1  0
 17 19  2  0
 18 20  2  0
 19 20  1  0
M  END
>  <ref_url>  (995) 
https://fakepage.com

>  <submitter_name>  (995) 
Steph Wills

>  <submitter_email>  (995) 
stephanie.wills@dtc.ox.ac.uk

>  <submitter_institution>  (995) 
University of Oxford

>  <generation_date>  (995) 
2020-06-04

>  <method>  (995) 
Fragment network

>  <ref_mols>  (995) 
x0034_0B,x0212_0B

>  <ref_pdb>  (995) 
references/x0034-0B-x0212-0B-243681.holo_minimised_nolig.pdb

>  <original SMILES>  (995) 
Cc1ccc(OCC(C)COCc2ccccc2)cc1

>  <synthon>  (995) 
[Xe]c1ccccc1

>  <original_name>  (995) 
x0034-0B-x0212-0B-243681

>  <comRMSD_score>  (995) 
0.7188120858853271

>  <IF_score>  (995) 
0.65

>  <SuCOS_score>  (995) 
0.458322668607515

>  <compound_ID>  (995) 
CHEMSPACE-BB:CSMB00049646109

$$$$

     RDKit          3D

 23 24  0  0  0  0  0  0  0  0999 V2000
   -6.1360   -1.4590  -77.3370 O   0  0  0  0  0  0  0  0  0  0  0  0
   -6.4190   -0.2610  -77.3350 C   0  0  0  0  0  0  0  0  0  0  0  0
   -7.2700    0.3790  -76.2750 C   0  0  0  0  0  0  0  0  0  0  0  0
   -5.9850    0.6790  -78.3610 N   0  0  0  0  0  0  0  0  0  0  0  0
   -8.1170    1.1540  -76.7220 O   0  0  0  0  0  0  0  0  0  0  0  0
   -6.2610    2.0600  -78.2360 N   0  0  0  0  0  0  0  0  0  0  0  0
   -7.9930    2.4790  -76.4870 C   0  0  0  0  0  0  0  0  0  0  0  0
   -6.8940    2.5570  -79.4420 C   0  0  0  0  0  0  0  0  0  0  0  0
   -6.8010    3.1560  -76.0400 O   0  0  0  0  0  0  0  0  0  0  0  0
   -9.1780    3.1160  -76.7360 C   0  0  0  0  0  0  0  0  0  0  0  0
   -6.7080    3.6690  -79.9100 O   0  0  0  0  0  0  0  0  0  0  0  0
   -7.8180    1.5710  -80.1620 C   0  0  0  0  0  0  0  0  0  0  0  0
   -9.3660    3.7670  -77.9420 C   0  0  0  0  0  0  0  0  0  0  0  0
  -10.1750    3.0910  -75.7610 C   0  0  0  0  0  0  0  0  0  0  0  0
   -8.2190    0.3600  -79.5920 C   0  0  0  0  0  0  0  0  0  0  0  0
   -8.2680    1.9070  -81.4420 C   0  0  0  0  0  0  0  0  0  0  0  0
  -10.6560    4.4600  -78.2070 C   0  0  0  0  0  0  0  0  0  0  0  0
  -11.3970    3.7210  -75.9430 C   0  0  0  0  0  0  0  0  0  0  0  0
   -9.1270   -0.5650  -80.3840 C   0  0  0  0  0  0  0  0  0  0  0  0
   -9.1020    1.0540  -82.1670 C   0  0  0  0  0  0  0  0  0  0  0  0
  -11.6890    4.4070  -77.1180 C   0  0  0  0  0  0  0  0  0  0  0  0
  -12.3040    3.6640  -74.9620 F   0  0  0  0  0  0  0  0  0  0  0  0
   -9.5280   -0.1680  -81.6490 C   0  0  0  0  0  0  0  0  0  0  0  0
  1  2  2  0
  2  3  1  0
  2  4  1  0
  3  5  1  0
  4  6  1  0
  5  7  1  0
  6  8  1  0
  7  9  2  0
  7 10  1  0
  8 11  2  0
  8 12  1  0
 10 13  2  0
 10 14  1  0
 12 15  2  0
 12 16  1  0
 13 17  1  0
 14 18  2  0
 15 19  1  0
 16 20  2  0
 17 21  2  0
 18 21  1  0
 18 22  1  0
 19 23  2  0
 20 23  1  0
M  END
>  <ref_url>  (996) 
https://fakepage.com

>  <submitter_name>  (996) 
Steph Wills

>  <submitter_email>  (996) 
stephanie.wills@dtc.ox.ac.uk

>  <submitter_institution>  (996) 
University of Oxford

>  <generation_date>  (996) 
2020-06-04

>  <method>  (996) 
Fragment network

>  <ref_mols>  (996) 
x0034_0B,x0212_0B

>  <ref_pdb>  (996) 
references/x0034-0B-x0212-0B-244866.holo_minimised_nolig.pdb

>  <original SMILES>  (996) 
O=C(COC(=O)c1cccc(F)c1)NNC(=O)c1ccccc1

>  <synthon>  (996) 
[Xe]c1ccccc1

>  <original_name>  (996) 
x0034-0B-x0212-0B-244866

>  <comRMSD_score>  (996) 
0.8778427393331907

>  <IF_score>  (996) 
0.625

>  <SuCOS_score>  (996) 
0.4873237921056382

>  <compound_ID>  (996) 
MOLPORT:004-015-928

$$$$

     RDKit          3D

 25 26  0  0  0  0  0  0  0  0999 V2000
  -12.5430    5.2170  -77.3050 C   0  0  0  0  0  0  0  0  0  0  0  0
  -11.3760    4.3040  -77.0770 C   0  0  0  0  0  0  0  0  0  0  0  0
  -11.2220    3.5730  -75.8800 C   0  0  0  0  0  0  0  0  0  0  0  0
  -10.4130    4.1710  -78.0720 C   0  0  0  0  0  0  0  0  0  0  0  0
  -10.1190    2.7360  -75.7060 C   0  0  0  0  0  0  0  0  0  0  0  0
   -9.3210    3.3480  -77.9000 C   0  0  0  0  0  0  0  0  0  0  0  0
   -9.1680    2.6270  -76.7140 C   0  0  0  0  0  0  0  0  0  0  0  0
   -7.7210    1.6100  -76.5780 S   0  0  0  0  0  0  0  0  0  0  0  0
   -6.8490    2.1760  -75.5870 O   0  0  0  0  0  0  0  0  0  0  0  0
   -7.1770    1.3700  -78.1120 O   0  0  0  0  0  0  0  0  0  0  0  0
   -8.0970    0.0080  -76.1400 N   0  0  0  0  0  0  0  0  0  0  0  0
   -9.4030   -0.2330  -75.5720 C   0  0  0  0  0  0  0  0  0  0  0  0
   -7.0090   -1.0140  -76.4130 C   0  0  0  0  0  0  0  0  0  0  0  0
   -5.6040   -0.4580  -76.4660 C   0  0  0  0  0  0  0  0  0  0  0  0
   -4.4920   -1.3540  -76.1720 O   0  0  0  0  0  0  0  0  0  0  0  0
   -5.5790    0.9350  -76.8310 O   0  0  0  0  0  0  0  0  0  0  0  0
   -5.6010    1.2130  -78.2340 C   0  0  0  0  0  0  0  0  0  0  0  0
   -6.2040    2.5540  -78.5320 C   0  0  0  0  0  0  0  0  0  0  0  0
   -7.3670    2.7680  -79.4850 C   0  0  0  0  0  0  0  0  0  0  0  0
   -8.0360    1.7760  -80.2040 C   0  0  0  0  0  0  0  0  0  0  0  0
   -8.4300    0.4180  -79.6100 C   0  0  0  0  0  0  0  0  0  0  0  0
   -8.3630    2.0200  -81.5140 C   0  0  0  0  0  0  0  0  0  0  0  0
   -9.0960   -0.4990  -80.4020 C   0  0  0  0  0  0  0  0  0  0  0  0
   -9.0300    1.0610  -82.2600 C   0  0  0  0  0  0  0  0  0  0  0  0
   -9.3970   -0.1810  -81.7270 C   0  0  0  0  0  0  0  0  0  0  0  0
  1  2  1  0
  2  3  2  0
  2  4  1  0
  3  5  1  0
  4  6  2  0
  5  7  2  0
  6  7  1  0
  7  8  1  0
  8  9  2  0
  8 10  2  0
  8 11  1  0
 11 12  1  0
 11 13  1  0
 13 14  1  0
 14 15  2  0
 14 16  1  0
 16 17  1  0
 17 18  1  0
 18 19  2  3
 19 20  1  0
 20 21  2  0
 20 22  1  0
 21 23  1  0
 22 24  2  0
 23 25  2  0
 24 25  1  0
M  END
>  <ref_url>  (997) 
https://fakepage.com

>  <submitter_name>  (997) 
Steph Wills

>  <submitter_email>  (997) 
stephanie.wills@dtc.ox.ac.uk

>  <submitter_institution>  (997) 
University of Oxford

>  <generation_date>  (997) 
2020-06-04

>  <method>  (997) 
Fragment network

>  <ref_mols>  (997) 
x0034_0B,x0212_0B

>  <ref_pdb>  (997) 
references/x0034-0B-x0212-0B-246037.holo_minimised_nolig.pdb

>  <original SMILES>  (997) 
Cc1ccc(S(=O)(=O)N(C)CC(=O)OCC=Cc2ccccc2)cc1

>  <synthon>  (997) 
[Xe]c1ccccc1

>  <original_name>  (997) 
x0034-0B-x0212-0B-246037

>  <comRMSD_score>  (997) 
0.6861240034776136

>  <IF_score>  (997) 
0.625

>  <SuCOS_score>  (997) 
0.5408870733307638

>  <compound_ID>  (997) 
MOLPORT:009-233-336

$$$$

     RDKit          3D

 26 27  0  0  0  0  0  0  0  0999 V2000
   -6.9260    2.8660  -79.4740 C   0  0  0  0  0  0  0  0  0  0  0  0
   -7.7200    1.7520  -80.0890 C   0  0  0  0  0  0  0  0  0  0  0  0
   -7.7870    0.5460  -79.4000 C   0  0  0  0  0  0  0  0  0  0  0  0
   -8.3870    1.8820  -81.3050 C   0  0  0  0  0  0  0  0  0  0  0  0
   -8.5110   -0.5060  -79.9050 C   0  0  0  0  0  0  0  0  0  0  0  0
   -9.1310    0.8110  -81.8240 C   0  0  0  0  0  0  0  0  0  0  0  0
   -9.1890   -0.3970  -81.0960 C   0  0  0  0  0  0  0  0  0  0  0  0
  -10.0860   -1.8680  -81.5510 S   0  0  0  0  0  0  0  0  0  0  0  0
  -11.3340   -1.5280  -82.1690 O   0  0  0  0  0  0  0  0  0  0  0  0
   -9.1460   -2.8040  -82.1470 O   0  0  0  0  0  0  0  0  0  0  0  0
  -10.4050   -2.4550  -79.9870 N   0  0  0  0  0  0  0  0  0  0  0  0
  -10.5540   -1.4440  -79.0440 C   0  0  2  0  0  0  0  0  0  0  0  0
   -9.6970   -1.5950  -77.9300 C   0  0  0  0  0  0  0  0  0  0  0  0
  -12.0150   -1.4180  -78.5550 C   0  0  0  0  0  0  0  0  0  0  0  0
   -8.9520   -2.8210  -77.8710 O   0  0  0  0  0  0  0  0  0  0  0  0
   -9.7110   -0.5350  -77.0460 N   0  0  0  0  0  0  0  0  0  0  0  0
  -12.8130   -1.7490  -79.6460 C   0  0  0  0  0  0  0  0  0  0  0  0
  -12.3370    0.0460  -78.2210 C   0  0  0  0  0  0  0  0  0  0  0  0
   -8.5820   -0.0180  -76.2610 C   0  0  0  0  0  0  0  0  0  0  0  0
   -8.1190    1.2650  -76.6050 C   0  0  0  0  0  0  0  0  0  0  0  0
   -9.2200    2.3380  -76.7900 C   0  0  0  0  0  0  0  0  0  0  0  0
  -10.1770    2.4940  -75.5960 C   0  0  0  0  0  0  0  0  0  0  0  0
   -9.3670    3.1370  -77.9520 C   0  0  0  0  0  0  0  0  0  0  0  0
  -11.2600    3.5460  -75.7610 C   0  0  0  0  0  0  0  0  0  0  0  0
  -10.3780    4.1050  -78.0850 C   0  0  0  0  0  0  0  0  0  0  0  0
  -11.2990    4.3260  -77.0620 C   0  0  0  0  0  0  0  0  0  0  0  0
  1  2  1  0
  2  3  2  0
  2  4  1  0
  3  5  1  0
  4  6  2  0
  5  7  2  0
  6  7  1  0
  7  8  1  0
  8  9  2  0
  8 10  2  0
  8 11  1  0
 12 11  1  6
 12 13  1  0
 12 14  1  0
 13 15  2  0
 13 16  1  0
 14 17  1  0
 14 18  1  0
 16 19  1  0
 19 20  1  0
 20 21  1  0
 21 22  2  0
 21 23  1  0
 22 24  1  0
 23 25  2  0
 24 26  2  0
 25 26  1  0
M  END
>  <ref_url>  (998) 
https://fakepage.com

>  <submitter_name>  (998) 
Steph Wills

>  <submitter_email>  (998) 
stephanie.wills@dtc.ox.ac.uk

>  <submitter_institution>  (998) 
University of Oxford

>  <generation_date>  (998) 
2020-06-04

>  <method>  (998) 
Fragment network

>  <ref_mols>  (998) 
x0034_0B,x0212_0B

>  <ref_pdb>  (998) 
references/x0034-0B-x0212-0B-252513.holo_minimised_nolig.pdb

>  <original SMILES>  (998) 
Cc1ccc(S(=O)(=O)NC(C(=O)NCCc2ccccc2)C(C)C)cc1

>  <synthon>  (998) 
[Xe]c1ccccc1

>  <original_name>  (998) 
x0034-0B-x0212-0B-252513

>  <comRMSD_score>  (998) 
0.6534036243366699

>  <IF_score>  (998) 
0.5833333333333333

>  <SuCOS_score>  (998) 
0.4868796175741828

>  <compound_ID>  (998) 
REAL:Z99082257

$$$$

     RDKit          3D

 22 23  0  0  0  0  0  0  0  0999 V2000
  -12.3180    5.3560  -77.2390 C   0  0  0  0  0  0  0  0  0  0  0  0
  -11.2580    4.2970  -77.1150 C   0  0  0  0  0  0  0  0  0  0  0  0
  -11.0990    3.5510  -75.9430 C   0  0  0  0  0  0  0  0  0  0  0  0
  -10.4140    4.0510  -78.1940 C   0  0  0  0  0  0  0  0  0  0  0  0
  -10.1070    2.5670  -75.8530 C   0  0  0  0  0  0  0  0  0  0  0  0
   -9.4310    3.0720  -78.1040 C   0  0  0  0  0  0  0  0  0  0  0  0
   -9.2620    2.3190  -76.9400 C   0  0  0  0  0  0  0  0  0  0  0  0
   -8.2870    1.3030  -76.7560 N   0  0  0  0  0  0  0  0  0  0  0  0
   -8.4990   -0.0460  -76.5200 C   0  0  0  0  0  0  0  0  0  0  0  0
   -7.0510    1.8170  -76.1570 C   0  0  0  0  0  0  0  0  0  0  0  0
   -6.1470    2.6080  -77.1060 C   0  0  1  0  0  0  0  0  0  0  0  0
   -5.1030    3.2540  -76.4400 N   0  0  0  0  0  0  0  0  0  0  0  0
   -5.5610    1.9700  -78.2120 C   0  0  1  0  0  0  0  0  0  0  0  0
   -5.8300    0.4820  -78.4200 C   0  0  0  0  0  0  0  0  0  0  0  0
   -5.8370    2.4660  -79.2850 O   0  0  0  0  0  0  0  0  0  0  0  0
   -7.2200    2.6750  -79.3440 C   0  0  0  0  0  0  0  0  0  0  0  0
   -7.9990    1.6610  -80.1380 C   0  0  0  0  0  0  0  0  0  0  0  0
   -8.3530    1.9580  -81.4230 C   0  0  0  0  0  0  0  0  0  0  0  0
   -8.3790    0.4090  -79.6110 C   0  0  0  0  0  0  0  0  0  0  0  0
   -9.1070    0.9770  -82.2030 C   0  0  0  0  0  0  0  0  0  0  0  0
   -9.1000   -0.5250  -80.3650 C   0  0  0  0  0  0  0  0  0  0  0  0
   -9.4760   -0.2560  -81.6730 C   0  0  0  0  0  0  0  0  0  0  0  0
  1  2  1  0
  2  3  2  0
  2  4  1  0
  3  5  1  0
  4  6  2  0
  5  7  2  0
  6  7  1  0
  7  8  1  0
  8  9  1  0
  8 10  1  0
 10 11  1  0
 11 12  1  1
 11 13  1  0
 13 14  1  6
 13 15  1  0
 15 16  1  0
 16 17  1  0
 17 18  2  0
 17 19  1  0
 18 20  1  0
 19 21  2  0
 20 22  2  0
 21 22  1  0
M  END
>  <ref_url>  (999) 
https://fakepage.com

>  <submitter_name>  (999) 
Steph Wills

>  <submitter_email>  (999) 
stephanie.wills@dtc.ox.ac.uk

>  <submitter_institution>  (999) 
University of Oxford

>  <generation_date>  (999) 
2020-06-04

>  <method>  (999) 
Fragment network

>  <ref_mols>  (999) 
x0034_0B,x0212_0B

>  <ref_pdb>  (999) 
references/x0034-0B-x0212-0B-255486.holo_minimised_nolig.pdb

>  <original SMILES>  (999) 
Cc1ccc(N(C)CC(N)C(C)OCc2ccccc2)cc1

>  <synthon>  (999) 
[Xe]c1ccccc1

>  <original_name>  (999) 
x0034-0B-x0212-0B-255486

>  <comRMSD_score>  (999) 
0.5547712241195569

>  <IF_score>  (999) 
0.625

>  <SuCOS_score>  (999) 
0.4685290883455916

>  <compound_ID>  (999) 
CHEMSPACE-BB:CSMB00023163340, CHEMSPACE-BB:CSMB00023164091

$$$$

     RDKit          3D

 25 26  0  0  0  0  0  0  0  0999 V2000
   -8.5090   -2.4140  -77.9980 C   0  0  0  0  0  0  0  0  0  0  0  0
   -7.3870   -1.5810  -78.2840 O   0  0  0  0  0  0  0  0  0  0  0  0
   -6.6890   -1.1470  -77.1060 C   0  0  2  0  0  0  0  0  0  0  0  0
   -5.7150   -2.0380  -76.6490 C   0  0  0  0  0  0  0  0  0  0  0  0
   -7.8120   -0.8240  -76.0400 C   0  0  0  0  0  0  0  0  0  0  0  0
   -5.8800    0.1670  -77.3660 C   0  0  0  0  0  0  0  0  0  0  0  0
   -8.6540    0.0910  -76.5770 N   0  0  0  0  0  0  0  0  0  0  0  0
   -5.8170    0.6100  -78.7580 O   0  0  0  0  0  0  0  0  0  0  0  0
   -7.9850    1.6220  -76.5480 S   0  0  0  0  0  0  0  0  0  0  0  0
   -6.6340    1.7410  -79.1850 C   0  0  0  0  0  0  0  0  0  0  0  0
   -7.2350    1.7540  -77.7690 O   0  0  0  0  0  0  0  0  0  0  0  0
   -7.3510    1.8480  -75.2880 O   0  0  0  0  0  0  0  0  0  0  0  0
   -9.3830    2.7060  -76.6860 C   0  0  0  0  0  0  0  0  0  0  0  0
   -7.6780    1.1710  -80.1060 C   0  0  0  0  0  0  0  0  0  0  0  0
   -9.4490    3.4330  -77.9530 C   0  0  0  0  0  0  0  0  0  0  0  0
  -10.3620    2.9030  -75.7210 C   0  0  0  0  0  0  0  0  0  0  0  0
   -8.0470    1.7570  -81.3310 C   0  0  0  0  0  0  0  0  0  0  0  0
   -8.2870   -0.0120  -79.7050 C   0  0  0  0  0  0  0  0  0  0  0  0
  -10.5530    4.4090  -78.2670 C   0  0  0  0  0  0  0  0  0  0  0  0
  -11.3880    3.8050  -75.9950 C   0  0  0  0  0  0  0  0  0  0  0  0
   -9.0020    1.1330  -82.1280 C   0  0  0  0  0  0  0  0  0  0  0  0
   -9.2370   -0.6270  -80.5000 C   0  0  0  0  0  0  0  0  0  0  0  0
  -11.5850    4.5760  -77.1590 C   0  0  0  0  0  0  0  0  0  0  0  0
   -9.5920   -0.0610  -81.7110 C   0  0  0  0  0  0  0  0  0  0  0  0
  -12.7220    5.5450  -77.3990 C   0  0  0  0  0  0  0  0  0  0  0  0
  1  2  1  0
  3  2  1  0
  3  4  1  1
  3  5  1  0
  3  6  1  0
  5  7  1  0
  6  8  1  0
  9  7  1  0
  8 10  1  0
  9 11  2  0
  9 12  2  0
  9 13  1  0
 10 14  1  0
 13 15  2  0
 13 16  1  0
 14 17  2  0
 14 18  1  0
 15 19  1  0
 16 20  2  0
 17 21  1  0
 18 22  2  0
 19 23  2  0
 20 23  1  0
 21 24  2  0
 22 24  1  0
 23 25  1  0
M  END
>  <ref_url>  (1000) 
https://fakepage.com

>  <submitter_name>  (1000) 
Steph Wills

>  <submitter_email>  (1000) 
stephanie.wills@dtc.ox.ac.uk

>  <submitter_institution>  (1000) 
University of Oxford

>  <generation_date>  (1000) 
2020-06-04

>  <method>  (1000) 
Fragment network

>  <ref_mols>  (1000) 
x0034_0B,x0212_0B

>  <ref_pdb>  (1000) 
references/x0034-0B-x0212-0B-255884.holo_minimised_nolig.pdb

>  <original SMILES>  (1000) 
COC(C)(CNS(=O)(=O)c1ccc(C)cc1)COCc1ccccc1

>  <synthon>  (1000) 
[Xe]c1ccccc1

>  <original_name>  (1000) 
x0034-0B-x0212-0B-255884

>  <comRMSD_score>  (1000) 
0.861190842186949

>  <IF_score>  (1000) 
0.625

>  <SuCOS_score>  (1000) 
0.5103188422330356

>  <compound_ID>  (1000) 
REAL:Z2581168351

$$$$

     RDKit          3D

 25 26  0  0  0  0  0  0  0  0999 V2000
   -7.0900    3.0470  -79.6500 C   0  0  0  0  0  0  0  0  0  0  0  0
   -7.8090    1.8590  -80.2110 C   0  0  0  0  0  0  0  0  0  0  0  0
   -7.9040    0.7040  -79.4540 C   0  0  0  0  0  0  0  0  0  0  0  0
   -8.3870    1.8930  -81.4770 C   0  0  0  0  0  0  0  0  0  0  0  0
   -8.5650   -0.4030  -79.9390 C   0  0  0  0  0  0  0  0  0  0  0  0
   -9.0630    0.7680  -81.9700 C   0  0  0  0  0  0  0  0  0  0  0  0
   -9.1500   -0.3910  -81.1790 C   0  0  0  0  0  0  0  0  0  0  0  0
   -9.9450   -1.9540  -81.5240 S   0  0  0  0  0  0  0  0  0  0  0  0
   -9.1280   -2.7520  -82.4210 O   0  0  0  0  0  0  0  0  0  0  0  0
  -11.3560   -1.7220  -81.7870 O   0  0  0  0  0  0  0  0  0  0  0  0
   -9.8060   -2.7410  -80.0100 N   0  0  0  0  0  0  0  0  0  0  0  0
  -10.2280   -2.0790  -78.8730 C   0  0  0  0  0  0  0  0  0  0  0  0
   -9.1550   -1.9660  -77.8000 C   0  0  0  0  0  0  0  0  0  0  0  0
   -8.8500   -2.9960  -77.2220 O   0  0  0  0  0  0  0  0  0  0  0  0
   -8.7150   -0.6760  -77.6690 O   0  0  0  0  0  0  0  0  0  0  0  0
   -8.4240   -0.1530  -76.3710 C   0  0  2  0  0  0  0  0  0  0  0  0
   -9.4820   -0.4360  -75.4990 C   0  0  0  0  0  0  0  0  0  0  0  0
   -8.1400    1.3890  -76.4600 C   0  0  0  0  0  0  0  0  0  0  0  0
   -7.0020    1.8110  -76.3470 O   0  0  0  0  0  0  0  0  0  0  0  0
   -9.1840    2.3310  -76.6580 C   0  0  0  0  0  0  0  0  0  0  0  0
  -10.2150    2.5800  -75.5720 C   0  0  0  0  0  0  0  0  0  0  0  0
   -9.2980    3.0720  -77.8550 C   0  0  0  0  0  0  0  0  0  0  0  0
  -11.2260    3.5080  -75.7720 C   0  0  0  0  0  0  0  0  0  0  0  0
  -10.3220    4.0100  -78.0540 C   0  0  0  0  0  0  0  0  0  0  0  0
  -11.2770    4.2460  -77.0620 C   0  0  0  0  0  0  0  0  0  0  0  0
  1  2  1  0
  2  3  2  0
  2  4  1  0
  3  5  1  0
  4  6  2  0
  5  7  2  0
  6  7  1  0
  7  8  1  0
  8  9  2  0
  8 10  2  0
  8 11  1  0
 11 12  1  0
 12 13  1  0
 13 14  2  0
 13 15  1  0
 15 16  1  0
 16 17  1  1
 16 18  1  0
 18 19  2  0
 18 20  1  0
 20 21  2  0
 20 22  1  0
 21 23  1  0
 22 24  2  0
 23 25  2  0
 24 25  1  0
M  END
>  <ref_url>  (1001) 
https://fakepage.com

>  <submitter_name>  (1001) 
Steph Wills

>  <submitter_email>  (1001) 
stephanie.wills@dtc.ox.ac.uk

>  <submitter_institution>  (1001) 
University of Oxford

>  <generation_date>  (1001) 
2020-06-04

>  <method>  (1001) 
Fragment network

>  <ref_mols>  (1001) 
x0034_0B,x0212_0B

>  <ref_pdb>  (1001) 
references/x0034-0B-x0212-0B-256065.holo_minimised_nolig.pdb

>  <original SMILES>  (1001) 
Cc1ccc(S(=O)(=O)NCC(=O)OC(C)C(=O)c2ccccc2)cc1

>  <synthon>  (1001) 
[Xe]c1ccccc1

>  <original_name>  (1001) 
x0034-0B-x0212-0B-256065

>  <comRMSD_score>  (1001) 
0.5704011259144267

>  <IF_score>  (1001) 
0.625

>  <SuCOS_score>  (1001) 
0.4944845205190974

>  <compound_ID>  (1001) 
MOLPORT:005-719-524

$$$$

     RDKit          3D

 22 23  0  0  0  0  0  0  0  0999 V2000
  -12.2700    5.4730  -76.8970 C   0  0  0  0  0  0  0  0  0  0  0  0
  -11.1910    4.4310  -76.7040 C   0  0  0  0  0  0  0  0  0  0  0  0
  -10.1350    4.3340  -77.6180 C   0  0  0  0  0  0  0  0  0  0  0  0
  -11.2190    3.5540  -75.6230 C   0  0  0  0  0  0  0  0  0  0  0  0
   -9.1270    3.3940  -77.4530 C   0  0  0  0  0  0  0  0  0  0  0  0
  -10.2090    2.6070  -75.4620 C   0  0  0  0  0  0  0  0  0  0  0  0
   -9.1530    2.5210  -76.3700 C   0  0  0  0  0  0  0  0  0  0  0  0
   -8.1050    1.6210  -76.2730 N   0  0  0  0  0  0  0  0  0  0  0  0
   -8.2380    0.1880  -76.0870 C   0  0  0  0  0  0  0  0  0  0  0  0
   -9.3180   -0.3410  -75.8190 O   0  0  0  0  0  0  0  0  0  0  0  0
   -7.1110   -0.4890  -76.2070 N   0  0  0  0  0  0  0  0  0  0  0  0
   -6.1040    0.2650  -76.8820 N   0  0  0  0  0  0  0  0  0  0  0  0
   -6.0470    0.2770  -78.1970 C   0  0  0  0  0  0  0  0  0  0  0  0
   -6.2010   -0.7250  -78.8960 O   0  0  0  0  0  0  0  0  0  0  0  0
   -5.8050    1.4090  -78.6160 O   0  0  0  0  0  0  0  0  0  0  0  0
   -6.8720    2.1110  -79.1000 C   0  0  0  0  0  0  0  0  0  0  0  0
   -7.8800    1.3920  -79.9850 C   0  0  0  0  0  0  0  0  0  0  0  0
   -8.2280    1.9840  -81.3050 C   0  0  0  0  0  0  0  0  0  0  0  0
   -8.4890    0.1880  -79.6050 C   0  0  0  0  0  0  0  0  0  0  0  0
   -9.2170    1.2380  -82.1600 C   0  0  0  0  0  0  0  0  0  0  0  0
   -9.4110   -0.4630  -80.4430 C   0  0  0  0  0  0  0  0  0  0  0  0
   -9.7720    0.0460  -81.6960 C   0  0  0  0  0  0  0  0  0  0  0  0
  1  2  1  0
  2  3  2  0
  2  4  1  0
  3  5  1  0
  4  6  2  0
  5  7  2  0
  6  7  1  0
  7  8  1  0
  8  9  1  0
  9 10  2  0
  9 11  1  0
 11 12  1  0
 12 13  1  0
 13 14  2  0
 13 15  1  0
 15 16  1  0
 16 17  1  0
 17 18  2  0
 17 19  1  0
 18 20  1  0
 19 21  2  0
 20 22  2  0
 21 22  1  0
M  END
>  <ref_url>  (1002) 
https://fakepage.com

>  <submitter_name>  (1002) 
Steph Wills

>  <submitter_email>  (1002) 
stephanie.wills@dtc.ox.ac.uk

>  <submitter_institution>  (1002) 
University of Oxford

>  <generation_date>  (1002) 
2020-06-04

>  <method>  (1002) 
Fragment network

>  <ref_mols>  (1002) 
x0034_0B,x0212_0B

>  <ref_pdb>  (1002) 
references/x0034-0B-x0212-0B-256255.holo_minimised_nolig.pdb

>  <original SMILES>  (1002) 
Cc1ccc(NC(=O)NNC(=O)OCc2ccccc2)cc1

>  <synthon>  (1002) 
[Xe]c1ccccc1

>  <original_name>  (1002) 
x0034-0B-x0212-0B-256255

>  <comRMSD_score>  (1002) 
0.5021178849337767

>  <IF_score>  (1002) 
0.65

>  <SuCOS_score>  (1002) 
0.5270458681603757

>  <compound_ID>  (1002) 
CHEMSPACE-BB:CSMB00114213821

$$$$

     RDKit          3D

 25 26  0  0  0  0  0  0  0  0999 V2000
   -9.8060    2.3540  -78.9320 C   0  0  0  0  0  0  0  0  0  0  0  0
  -11.1050    2.5180  -78.3820 O   0  0  0  0  0  0  0  0  0  0  0  0
  -11.6760    1.4900  -77.6650 C   0  0  2  0  0  0  0  0  0  0  0  0
  -10.9060    0.8510  -76.4690 C   0  0  0  0  0  0  0  0  0  0  0  0
  -11.7720    0.3340  -78.7000 C   0  0  0  0  0  0  0  0  0  0  0  0
  -12.9840    1.9390  -77.3530 C   0  0  0  0  0  0  0  0  0  0  0  0
  -11.1390   -0.9220  -78.2990 N   0  0  0  0  0  0  0  0  0  0  0  0
  -13.3450    3.0580  -77.8050 O   0  0  0  0  0  0  0  0  0  0  0  0
  -10.6760   -1.7800  -79.2760 C   0  0  0  0  0  0  0  0  0  0  0  0
  -12.6590    4.2100  -77.4280 C   0  0  0  0  0  0  0  0  0  0  0  0
  -11.4420   -2.4630  -79.9490 O   0  0  0  0  0  0  0  0  0  0  0  0
   -9.2170   -1.7730  -79.4040 N   0  0  0  0  0  0  0  0  0  0  0  0
  -11.3280    3.9100  -77.1750 C   0  0  0  0  0  0  0  0  0  0  0  0
   -8.9490   -0.6660  -80.0740 C   0  0  0  0  0  0  0  0  0  0  0  0
  -11.0220    3.2530  -76.0030 C   0  0  0  0  0  0  0  0  0  0  0  0
  -10.3040    4.2300  -78.0750 C   0  0  0  0  0  0  0  0  0  0  0  0
   -9.4340   -0.2740  -81.4660 C   0  0  0  0  0  0  0  0  0  0  0  0
   -8.1200    0.2400  -79.4130 C   0  0  0  0  0  0  0  0  0  0  0  0
   -9.7270    2.8890  -75.7240 C   0  0  0  0  0  0  0  0  0  0  0  0
   -8.9960    3.8620  -77.7910 C   0  0  0  0  0  0  0  0  0  0  0  0
   -8.9640    1.0790  -82.0150 C   0  0  0  0  0  0  0  0  0  0  0  0
   -7.7090    1.4740  -79.9440 C   0  0  0  0  0  0  0  0  0  0  0  0
   -8.7050    3.1820  -76.6100 C   0  0  0  0  0  0  0  0  0  0  0  0
   -8.1290    1.8700  -81.2150 C   0  0  0  0  0  0  0  0  0  0  0  0
   -6.8790    2.3130  -79.2030 C   0  0  0  0  0  0  0  0  0  0  0  0
  1  2  1  0
  3  2  1  0
  3  4  1  1
  3  5  1  0
  3  6  1  0
  5  7  1  0
  6  8  1  0
  7  9  1  0
  8 10  1  0
  9 11  2  0
  9 12  1  0
 10 13  1  0
 12 14  1  0
 13 15  2  0
 13 16  1  0
 14 17  2  0
 14 18  1  0
 15 19  1  0
 16 20  2  0
 17 21  1  0
 18 22  2  0
 19 23  2  0
 20 23  1  0
 21 24  2  0
 22 24  1  0
 22 25  1  0
M  END
>  <ref_url>  (1003) 
https://fakepage.com

>  <submitter_name>  (1003) 
Steph Wills

>  <submitter_email>  (1003) 
stephanie.wills@dtc.ox.ac.uk

>  <submitter_institution>  (1003) 
University of Oxford

>  <generation_date>  (1003) 
2020-06-04

>  <method>  (1003) 
Fragment network

>  <ref_mols>  (1003) 
x0034_0B,x0212_0B

>  <ref_pdb>  (1003) 
references/x0034-0B-x0212-0B-256689.holo_minimised_nolig.pdb

>  <original SMILES>  (1003) 
COC(C)(CNC(=O)Nc1cccc(C)c1)COCc1ccccc1

>  <synthon>  (1003) 
[Xe]c1ccccc1

>  <original_name>  (1003) 
x0034-0B-x0212-0B-256689

>  <comRMSD_score>  (1003) 
0.8746946371925091

>  <IF_score>  (1003) 
0.5

>  <SuCOS_score>  (1003) 
0.4172199336135848

>  <compound_ID>  (1003) 
REAL:Z2614910995

$$$$

     RDKit          3D

 21 22  0  0  0  0  0  0  0  0999 V2000
  -12.4260    5.3340  -77.3000 C   0  0  0  0  0  0  0  0  0  0  0  0
  -11.2990    4.3600  -77.1510 C   0  0  0  0  0  0  0  0  0  0  0  0
  -10.4230    4.1720  -78.2130 C   0  0  0  0  0  0  0  0  0  0  0  0
  -11.0990    3.6310  -75.9700 C   0  0  0  0  0  0  0  0  0  0  0  0
   -9.3610    3.2800  -78.1160 C   0  0  0  0  0  0  0  0  0  0  0  0
  -10.0320    2.7350  -75.8710 C   0  0  0  0  0  0  0  0  0  0  0  0
   -9.1460    2.5490  -76.9430 C   0  0  0  0  0  0  0  0  0  0  0  0
   -8.0790    1.6310  -76.7740 N   0  0  0  0  0  0  0  0  0  0  0  0
   -8.2280    0.3210  -76.3130 C   0  0  0  0  0  0  0  0  0  0  0  0
   -6.8680    2.3370  -76.3280 C   0  0  0  0  0  0  0  0  0  0  0  0
   -5.9010    2.8400  -77.4080 C   0  0  1  0  0  0  0  0  0  0  0  0
   -5.3140    1.7810  -78.0510 N   0  0  0  0  0  0  0  0  0  0  0  0
   -6.5260    3.7790  -78.4270 C   0  0  0  0  0  0  0  0  0  0  0  0
   -6.7660    3.2950  -79.5180 O   0  0  0  0  0  0  0  0  0  0  0  0
   -7.0530    1.9530  -79.2420 C   0  0  0  0  0  0  0  0  0  0  0  0
   -7.8240    1.2600  -80.1190 C   0  0  0  0  0  0  0  0  0  0  0  0
   -8.2320   -0.0000  -79.7220 C   0  0  0  0  0  0  0  0  0  0  0  0
   -8.2050    1.7690  -81.3820 C   0  0  0  0  0  0  0  0  0  0  0  0
   -9.0530   -0.8380  -80.5800 C   0  0  0  0  0  0  0  0  0  0  0  0
   -8.9990    1.0030  -82.2600 C   0  0  0  0  0  0  0  0  0  0  0  0
   -9.4290   -0.2790  -81.8930 C   0  0  0  0  0  0  0  0  0  0  0  0
  1  2  1  0
  2  3  2  0
  2  4  1  0
  3  5  1  0
  4  6  2  0
  5  7  2  0
  6  7  1  0
  7  8  1  0
  8  9  1  0
  8 10  1  0
 10 11  1  0
 11 12  1  6
 11 13  1  0
 13 14  1  0
 14 15  1  0
 15 16  1  0
 16 17  2  0
 16 18  1  0
 17 19  1  0
 18 20  2  0
 19 21  2  0
 20 21  1  0
M  END
>  <ref_url>  (1004) 
https://fakepage.com

>  <submitter_name>  (1004) 
Steph Wills

>  <submitter_email>  (1004) 
stephanie.wills@dtc.ox.ac.uk

>  <submitter_institution>  (1004) 
University of Oxford

>  <generation_date>  (1004) 
2020-06-04

>  <method>  (1004) 
Fragment network

>  <ref_mols>  (1004) 
x0034_0B,x0212_0B

>  <ref_pdb>  (1004) 
references/x0034-0B-x0212-0B-259547.holo_minimised_nolig.pdb

>  <original SMILES>  (1004) 
Cc1ccc(N(C)CC(N)COCc2ccccc2)cc1

>  <synthon>  (1004) 
[Xe]c1ccccc1

>  <original_name>  (1004) 
x0034-0B-x0212-0B-259547

>  <comRMSD_score>  (1004) 
0.7192020269406603

>  <IF_score>  (1004) 
0.5416666666666666

>  <SuCOS_score>  (1004) 
0.4608399804921133

>  <compound_ID>  (1004) 
CHEMSPACE-BB:CSMB00119329640, CHEMSPACE-BB:CSMB00119332517, CHEMSPACE-BB:CSMB00119337869

$$$$

     RDKit          3D

 25 26  0  0  0  0  0  0  0  0999 V2000
  -13.0000    5.2040  -78.3140 C   0  0  0  0  0  0  0  0  0  0  0  0
  -12.5860    4.3400  -77.1290 C   0  0  1  0  0  0  0  0  0  0  0  0
  -13.5730    3.1430  -76.9400 C   0  0  0  0  0  0  0  0  0  0  0  0
  -11.2860    3.8670  -77.1130 C   0  0  0  0  0  0  0  0  0  0  0  0
  -13.6110    2.1470  -78.0700 N   0  0  0  0  0  0  0  0  0  0  0  0
  -10.9890    3.1490  -75.9570 C   0  0  0  0  0  0  0  0  0  0  0  0
  -10.3060    4.0230  -78.1030 C   0  0  0  0  0  0  0  0  0  0  0  0
  -13.0440    0.8600  -77.8430 C   0  0  0  0  0  0  0  0  0  0  0  0
  -14.8500    2.1000  -78.7920 C   0  0  2  0  0  0  0  0  0  0  0  0
   -9.7490    2.5740  -75.7840 C   0  0  0  0  0  0  0  0  0  0  0  0
   -9.0500    3.4420  -77.9180 C   0  0  0  0  0  0  0  0  0  0  0  0
  -13.7200   -0.1650  -77.6760 O   0  0  0  0  0  0  0  0  0  0  0  0
  -11.5340    0.7680  -77.8160 C   0  0  0  0  0  0  0  0  0  0  0  0
  -15.3600    3.3990  -79.3620 C   0  0  0  0  0  0  0  0  0  0  0  0
  -16.0160    1.5480  -77.9610 C   0  0  0  0  0  0  0  0  0  0  0  0
   -8.7750    2.7160  -76.7600 C   0  0  0  0  0  0  0  0  0  0  0  0
  -10.8980   -0.2920  -78.6010 O   0  0  0  0  0  0  0  0  0  0  0  0
  -17.0390    1.4060  -78.6180 O   0  0  0  0  0  0  0  0  0  0  0  0
   -9.9920    0.1930  -79.5210 C   0  0  0  0  0  0  0  0  0  0  0  0
   -8.7980    0.8980  -78.9020 C   0  0  0  0  0  0  0  0  0  0  0  0
  -10.0680    0.1280  -80.9130 C   0  0  0  0  0  0  0  0  0  0  0  0
   -7.7650    1.5450  -79.7920 C   0  0  0  0  0  0  0  0  0  0  0  0
   -9.0920    0.7380  -81.7260 C   0  0  0  0  0  0  0  0  0  0  0  0
   -7.9880    1.4310  -81.2540 C   0  0  0  0  0  0  0  0  0  0  0  0
   -7.1240    1.9930  -82.0790 F   0  0  0  0  0  0  0  0  0  0  0  0
  2  1  1  6
  2  3  1  0
  2  4  1  0
  3  5  1  0
  4  6  2  0
  4  7  1  0
  5  8  1  0
  5  9  1  0
  6 10  1  0
  7 11  2  0
  8 12  2  0
  8 13  1  0
  9 14  1  1
  9 15  1  0
 10 16  2  0
 11 16  1  0
 13 17  1  0
 15 18  1  0
 17 19  1  0
 19 20  2  0
 19 21  1  0
 20 22  1  0
 21 23  2  0
 22 24  2  0
 23 24  1  0
 24 25  1  0
M  END
>  <ref_url>  (1005) 
https://fakepage.com

>  <submitter_name>  (1005) 
Steph Wills

>  <submitter_email>  (1005) 
stephanie.wills@dtc.ox.ac.uk

>  <submitter_institution>  (1005) 
University of Oxford

>  <generation_date>  (1005) 
2020-06-04

>  <method>  (1005) 
Fragment network

>  <ref_mols>  (1005) 
x0034_0B,x0212_0B

>  <ref_pdb>  (1005) 
references/x0034-0B-x0212-0B-262793.holo_minimised_nolig.pdb

>  <original SMILES>  (1005) 
CC(CN(C(=O)COc1ccc(F)cc1)C(C)CO)c1ccccc1

>  <synthon>  (1005) 
[Xe]c1ccccc1

>  <original_name>  (1005) 
x0034-0B-x0212-0B-262793

>  <comRMSD_score>  (1005) 
0.8896390419715183

>  <IF_score>  (1005) 
0.5

>  <SuCOS_score>  (1005) 
0.3528530351246677

>  <compound_ID>  (1005) 
REAL:Z2200408816

$$$$

     RDKit          3D

 21 22  0  0  0  0  0  0  0  0999 V2000
   -6.8620    2.5430  -79.3390 C   0  0  0  0  0  0  0  0  0  0  0  0
   -7.6690    1.5820  -80.1940 C   0  0  0  0  0  0  0  0  0  0  0  0
   -8.2570    2.0370  -81.3700 C   0  0  0  0  0  0  0  0  0  0  0  0
   -7.8450    0.2240  -79.8370 C   0  0  0  0  0  0  0  0  0  0  0  0
   -9.0460    1.1130  -82.2090 C   0  0  0  0  0  0  0  0  0  0  0  0
   -8.5960   -0.6540  -80.6190 C   0  0  0  0  0  0  0  0  0  0  0  0
   -7.2530   -0.2480  -78.6900 N   0  0  0  0  0  0  0  0  0  0  0  0
   -9.1950   -0.2170  -81.7970 C   0  0  0  0  0  0  0  0  0  0  0  0
   -7.6500   -1.4740  -78.0420 C   0  0  0  0  0  0  0  0  0  0  0  0
   -8.0070   -2.5220  -78.5710 O   0  0  0  0  0  0  0  0  0  0  0  0
   -7.5830   -1.3480  -76.5160 C   0  0  0  0  0  0  0  0  0  0  0  0
   -8.8270   -0.1870  -76.0200 S   0  0  0  0  0  0  0  0  0  0  0  0
   -8.8710   -0.2340  -74.5970 O   0  0  0  0  0  0  0  0  0  0  0  0
  -10.0440   -0.4960  -76.6940 O   0  0  0  0  0  0  0  0  0  0  0  0
   -8.2270    1.4030  -76.5670 C   0  0  0  0  0  0  0  0  0  0  0  0
   -9.3350    2.4330  -76.6710 C   0  0  0  0  0  0  0  0  0  0  0  0
   -9.4390    3.2070  -77.9530 C   0  0  0  0  0  0  0  0  0  0  0  0
  -10.2540    2.7050  -75.6660 C   0  0  0  0  0  0  0  0  0  0  0  0
  -10.4550    4.1630  -78.0810 C   0  0  0  0  0  0  0  0  0  0  0  0
  -11.2520    3.6640  -75.8260 C   0  0  0  0  0  0  0  0  0  0  0  0
  -11.3520    4.3870  -77.0270 C   0  0  0  0  0  0  0  0  0  0  0  0
  1  2  1  0
  2  3  2  0
  2  4  1  0
  3  5  1  0
  4  6  2  0
  4  7  1  0
  5  8  2  0
  6  8  1  0
  7  9  1  0
  9 10  2  0
  9 11  1  0
 12 11  1  0
 12 13  2  0
 12 14  2  0
 12 15  1  0
 15 16  1  0
 16 17  2  0
 16 18  1  0
 17 19  1  0
 18 20  2  0
 19 21  2  0
 20 21  1  0
M  END
>  <ref_url>  (1006) 
https://fakepage.com

>  <submitter_name>  (1006) 
Steph Wills

>  <submitter_email>  (1006) 
stephanie.wills@dtc.ox.ac.uk

>  <submitter_institution>  (1006) 
University of Oxford

>  <generation_date>  (1006) 
2020-06-04

>  <method>  (1006) 
Fragment network

>  <ref_mols>  (1006) 
x0034_0B,x0212_0B

>  <ref_pdb>  (1006) 
references/x0034-0B-x0212-0B-263028.holo_minimised_nolig.pdb

>  <original SMILES>  (1006) 
Cc1ccccc1NC(=O)CS(=O)(=O)Cc1ccccc1

>  <synthon>  (1006) 
[Xe]c1ccccc1

>  <original_name>  (1006) 
x0034-0B-x0212-0B-263028

>  <comRMSD_score>  (1006) 
0.663614569080801

>  <IF_score>  (1006) 
0.7083333333333333

>  <SuCOS_score>  (1006) 
0.5119046019228375

>  <compound_ID>  (1006) 
MOLPORT:009-632-474, REAL:Z339634480

$$$$

     RDKit          3D

 23 25  0  0  0  0  0  0  0  0999 V2000
   -7.8640   -1.7580  -78.2240 O   0  0  0  0  0  0  0  0  0  0  0  0
   -9.0440   -1.4630  -78.3990 C   0  0  0  0  0  0  0  0  0  0  0  0
   -9.9740   -0.9770  -77.3670 C   0  0  0  0  0  0  0  0  0  0  0  0
   -9.7720   -1.5320  -79.6300 N   0  0  0  0  0  0  0  0  0  0  0  0
   -9.6160   -0.2350  -76.2450 C   0  0  0  0  0  0  0  0  0  0  0  0
  -11.6290   -1.4410  -77.7740 S   0  0  0  0  0  0  0  0  0  0  0  0
  -11.1750   -1.5580  -79.5170 C   0  0  0  0  0  0  0  0  0  0  0  0
   -9.3530   -0.3990  -80.2700 C   0  0  0  0  0  0  0  0  0  0  0  0
   -8.2800    0.1030  -76.1020 C   0  0  0  0  0  0  0  0  0  0  0  0
  -12.3620   -1.6720  -80.6970 S   0  0  0  0  0  0  0  0  0  0  0  0
   -8.5040    0.4110  -79.5180 C   0  0  0  0  0  0  0  0  0  0  0  0
   -9.7100   -0.0300  -81.5620 C   0  0  0  0  0  0  0  0  0  0  0  0
   -7.9330    1.4470  -76.2840 C   0  0  0  0  0  0  0  0  0  0  0  0
   -8.0120    1.5890  -80.0440 C   0  0  0  0  0  0  0  0  0  0  0  0
   -9.2150    1.1570  -82.0940 C   0  0  0  0  0  0  0  0  0  0  0  0
   -9.0060    2.4710  -76.6010 C   0  0  0  0  0  0  0  0  0  0  0  0
   -8.3730    1.9510  -81.3240 C   0  0  0  0  0  0  0  0  0  0  0  0
  -10.0800    2.6060  -75.5780 C   0  0  0  0  0  0  0  0  0  0  0  0
   -9.0790    3.2870  -77.7480 C   0  0  0  0  0  0  0  0  0  0  0  0
   -7.9030    3.0800  -81.8120 F   0  0  0  0  0  0  0  0  0  0  0  0
  -11.1760    3.5530  -75.7440 C   0  0  0  0  0  0  0  0  0  0  0  0
  -10.1360    4.2060  -77.9230 C   0  0  0  0  0  0  0  0  0  0  0  0
  -11.1990    4.4070  -77.0050 C   0  0  0  0  0  0  0  0  0  0  0  0
  1  2  2  0
  2  3  1  0
  2  4  1  0
  3  5  2  3
  3  6  1  0
  4  7  1  0
  6  7  1  0
  4  8  1  0
  5  9  1  0
  7 10  2  0
  8 11  2  0
  8 12  1  0
  9 13  2  3
 11 14  1  0
 12 15  2  0
 13 16  1  0
 14 17  2  0
 15 17  1  0
 16 18  2  0
 16 19  1  0
 17 20  1  0
 18 21  1  0
 19 22  2  0
 21 23  2  0
 22 23  1  0
M  END
>  <ref_url>  (1007) 
https://fakepage.com

>  <submitter_name>  (1007) 
Steph Wills

>  <submitter_email>  (1007) 
stephanie.wills@dtc.ox.ac.uk

>  <submitter_institution>  (1007) 
University of Oxford

>  <generation_date>  (1007) 
2020-06-04

>  <method>  (1007) 
Fragment network

>  <ref_mols>  (1007) 
x0034_0B,x0212_0B

>  <ref_pdb>  (1007) 
references/x0034-0B-x0212-0B-263069.holo_minimised_nolig.pdb

>  <original SMILES>  (1007) 
O=C1C(=CC=Cc2ccccc2)SC(=S)N1c1ccc(F)cc1

>  <synthon>  (1007) 
[Xe]c1ccccc1

>  <original_name>  (1007) 
x0034-0B-x0212-0B-263069

>  <comRMSD_score>  (1007) 
0.563170357753186

>  <IF_score>  (1007) 
0.65

>  <SuCOS_score>  (1007) 
0.5073764608782403

>  <compound_ID>  (1007) 
MOLPORT:000-500-695, MOLPORT:019-760-968

$$$$

     RDKit          3D

 19 20  0  0  0  0  0  0  0  0999 V2000
   -7.4480    2.7950  -81.4900 F   0  0  0  0  0  0  0  0  0  0  0  0
   -8.2490    1.8340  -81.0440 C   0  0  0  0  0  0  0  0  0  0  0  0
   -8.8610    0.8840  -81.9750 C   0  0  0  0  0  0  0  0  0  0  0  0
   -8.5220    1.7130  -79.6980 C   0  0  0  0  0  0  0  0  0  0  0  0
   -9.6980   -0.1200  -81.5180 C   0  0  0  0  0  0  0  0  0  0  0  0
   -9.3870    0.6990  -79.2240 C   0  0  0  0  0  0  0  0  0  0  0  0
   -9.9590   -0.2070  -80.1490 C   0  0  0  0  0  0  0  0  0  0  0  0
   -9.7380    0.5090  -77.8650 N   0  0  0  0  0  0  0  0  0  0  0  0
  -10.8860    0.7170  -77.1020 C   0  0  0  0  0  0  0  0  0  0  0  0
  -12.0250    1.3570  -77.8910 C   0  0  0  0  0  0  0  0  0  0  0  0
  -12.0050    2.8990  -77.9960 C   0  0  0  0  0  0  0  0  0  0  0  0
  -13.0030    3.6600  -78.1450 O   0  0  0  0  0  0  0  0  0  0  0  0
  -12.3660    4.7350  -77.5740 C   0  0  0  0  0  0  0  0  0  0  0  0
  -11.0720    4.0850  -77.2030 C   0  0  0  0  0  0  0  0  0  0  0  0
  -10.9410    3.4130  -75.9960 C   0  0  0  0  0  0  0  0  0  0  0  0
   -9.9920    4.1100  -78.0940 C   0  0  0  0  0  0  0  0  0  0  0  0
   -9.6600    2.7050  -75.6790 C   0  0  0  0  0  0  0  0  0  0  0  0
   -8.7960    3.4570  -77.7940 C   0  0  0  0  0  0  0  0  0  0  0  0
   -8.6310    2.7550  -76.5990 C   0  0  0  0  0  0  0  0  0  0  0  0
  1  2  1  0
  2  3  2  0
  2  4  1  0
  3  5  1  0
  4  6  2  0
  5  7  2  0
  6  7  1  0
  6  8  1  0
  8  9  1  0
  9 10  1  0
 10 11  1  0
 11 12  1  0
 12 13  1  0
 13 14  1  0
 14 15  2  0
 14 16  1  0
 15 17  1  0
 16 18  2  0
 17 19  2  0
 18 19  1  0
M  END
>  <ref_url>  (1008) 
https://fakepage.com

>  <submitter_name>  (1008) 
Steph Wills

>  <submitter_email>  (1008) 
stephanie.wills@dtc.ox.ac.uk

>  <submitter_institution>  (1008) 
University of Oxford

>  <generation_date>  (1008) 
2020-06-04

>  <method>  (1008) 
Fragment network

>  <ref_mols>  (1008) 
x0034_0B,x0212_0B

>  <ref_pdb>  (1008) 
references/x0034-0B-x0212-0B-265009.holo_minimised_nolig.pdb

>  <original SMILES>  (1008) 
Fc1cccc(NCCCOCc2ccccc2)c1

>  <synthon>  (1008) 
[Xe]c1ccccc1

>  <original_name>  (1008) 
x0034-0B-x0212-0B-265009

>  <comRMSD_score>  (1008) 
0.8757537467804524

>  <IF_score>  (1008) 
0.5

>  <SuCOS_score>  (1008) 
0.3917856526891078

>  <compound_ID>  (1008) 
CHEMSPACE-BB:CSMB00015067982

$$$$

     RDKit          3D

 23 24  0  0  0  0  0  0  0  0999 V2000
  -10.6950   -2.4260  -76.8870 O   0  0  0  0  0  0  0  0  0  0  0  0
  -10.6060   -1.2190  -77.1270 C   0  0  0  0  0  0  0  0  0  0  0  0
  -11.3150   -0.5700  -78.3300 C   0  0  0  0  0  0  0  0  0  0  0  0
   -9.8550   -0.3580  -76.3270 N   0  0  0  0  0  0  0  0  0  0  0  0
  -11.5520   -1.5670  -79.4010 N   0  0  0  0  0  0  0  0  0  0  0  0
   -8.4520   -0.1020  -76.6260 C   0  0  0  0  0  0  0  0  0  0  0  0
  -11.2020   -1.2360  -81.0360 S   0  0  0  0  0  0  0  0  0  0  0  0
   -8.0760    1.2520  -76.5380 C   0  0  0  0  0  0  0  0  0  0  0  0
  -12.3250   -0.4580  -81.5330 O   0  0  0  0  0  0  0  0  0  0  0  0
  -10.7560   -2.4710  -81.6510 O   0  0  0  0  0  0  0  0  0  0  0  0
   -9.7900   -0.1260  -80.8210 C   0  0  0  0  0  0  0  0  0  0  0  0
   -9.1720    2.3050  -76.6220 C   0  0  0  0  0  0  0  0  0  0  0  0
   -8.9390   -0.4710  -79.6770 C   0  0  0  0  0  0  0  0  0  0  0  0
   -9.4740    0.9880  -81.6050 C   0  0  0  0  0  0  0  0  0  0  0  0
   -9.1770    3.1910  -77.8310 C   0  0  0  0  0  0  0  0  0  0  0  0
  -10.1600    2.5020  -75.6610 C   0  0  0  0  0  0  0  0  0  0  0  0
   -7.8580    0.3640  -79.4270 C   0  0  0  0  0  0  0  0  0  0  0  0
   -8.3830    1.7880  -81.2990 C   0  0  0  0  0  0  0  0  0  0  0  0
  -10.1760    4.1700  -77.9380 C   0  0  0  0  0  0  0  0  0  0  0  0
  -11.1360    3.4870  -75.8000 C   0  0  0  0  0  0  0  0  0  0  0  0
   -7.5740    1.4780  -80.2030 C   0  0  0  0  0  0  0  0  0  0  0  0
   -8.1000    2.8480  -82.0260 F   0  0  0  0  0  0  0  0  0  0  0  0
  -11.1480    4.3150  -76.9320 C   0  0  0  0  0  0  0  0  0  0  0  0
  1  2  2  0
  2  3  1  0
  2  4  1  0
  3  5  1  0
  4  6  1  0
  7  5  1  0
  6  8  1  0
  7  9  2  0
  7 10  2  0
  7 11  1  0
  8 12  1  0
 11 13  2  0
 11 14  1  0
 12 15  2  0
 12 16  1  0
 13 17  1  0
 14 18  2  0
 15 19  1  0
 16 20  2  0
 17 21  2  0
 18 21  1  0
 18 22  1  0
 19 23  2  0
 20 23  1  0
M  END
>  <ref_url>  (1009) 
https://fakepage.com

>  <submitter_name>  (1009) 
Steph Wills

>  <submitter_email>  (1009) 
stephanie.wills@dtc.ox.ac.uk

>  <submitter_institution>  (1009) 
University of Oxford

>  <generation_date>  (1009) 
2020-06-04

>  <method>  (1009) 
Fragment network

>  <ref_mols>  (1009) 
x0034_0B,x0212_0B

>  <ref_pdb>  (1009) 
references/x0034-0B-x0212-0B-269070.holo_minimised_nolig.pdb

>  <original SMILES>  (1009) 
O=C(CNS(=O)(=O)c1cccc(F)c1)NCCc1ccccc1

>  <synthon>  (1009) 
[Xe]c1ccccc1

>  <original_name>  (1009) 
x0034-0B-x0212-0B-269070

>  <comRMSD_score>  (1009) 
0.6100285967796009

>  <IF_score>  (1009) 
0.55

>  <SuCOS_score>  (1009) 
0.4842912200370113

>  <compound_ID>  (1009) 
REAL:Z27760739

$$$$

     RDKit          3D

 20 21  0  0  0  0  0  0  0  0999 V2000
  -12.2710    5.4330  -76.7940 C   0  0  0  0  0  0  0  0  0  0  0  0
  -11.1720    4.4140  -76.6630 C   0  0  0  0  0  0  0  0  0  0  0  0
  -10.1430    4.3580  -77.5980 C   0  0  0  0  0  0  0  0  0  0  0  0
  -11.1490    3.5010  -75.6100 C   0  0  0  0  0  0  0  0  0  0  0  0
   -9.1220    3.4260  -77.4850 C   0  0  0  0  0  0  0  0  0  0  0  0
  -10.1270    2.5530  -75.5000 C   0  0  0  0  0  0  0  0  0  0  0  0
   -9.0840    2.4890  -76.4360 C   0  0  0  0  0  0  0  0  0  0  0  0
   -8.0410    1.5220  -76.3430 N   0  0  0  0  0  0  0  0  0  0  0  0
   -8.1850    0.0480  -76.4620 C   0  0  0  0  0  0  0  0  0  0  0  0
   -9.6600   -0.1710  -76.5670 C   0  0  2  0  0  0  0  0  0  0  0  0
  -10.1650   -1.4320  -76.7750 O   0  0  0  0  0  0  0  0  0  0  0  0
  -10.0650    0.6950  -77.7740 C   0  0  0  0  0  0  0  0  0  0  0  0
   -9.2210    1.8890  -77.8670 O   0  0  0  0  0  0  0  0  0  0  0  0
   -8.1490    2.0030  -78.7470 C   0  0  0  0  0  0  0  0  0  0  0  0
   -8.4550    1.2850  -79.8920 C   0  0  0  0  0  0  0  0  0  0  0  0
   -8.4740    1.9080  -81.2280 C   0  0  0  0  0  0  0  0  0  0  0  0
   -8.7690   -0.0700  -79.7830 C   0  0  0  0  0  0  0  0  0  0  0  0
   -8.8320    1.1220  -82.4530 C   0  0  0  0  0  0  0  0  0  0  0  0
   -9.1090   -0.8460  -80.8940 C   0  0  0  0  0  0  0  0  0  0  0  0
   -9.1560   -0.3230  -82.1880 C   0  0  0  0  0  0  0  0  0  0  0  0
  1  2  1  0
  2  3  2  0
  2  4  1  0
  3  5  1  0
  4  6  2  0
  5  7  2  0
  6  7  1  0
  7  8  1  0
  8  9  1  0
  9 10  1  0
 10 11  1  6
 10 12  1  0
 12 13  1  0
 13 14  1  0
 14 15  1  0
 15 16  2  0
 15 17  1  0
 16 18  1  0
 17 19  2  0
 18 20  2  0
 19 20  1  0
M  END
>  <ref_url>  (1010) 
https://fakepage.com

>  <submitter_name>  (1010) 
Steph Wills

>  <submitter_email>  (1010) 
stephanie.wills@dtc.ox.ac.uk

>  <submitter_institution>  (1010) 
University of Oxford

>  <generation_date>  (1010) 
2020-06-04

>  <method>  (1010) 
Fragment network

>  <ref_mols>  (1010) 
x0034_0B,x0212_0B

>  <ref_pdb>  (1010) 
references/x0034-0B-x0212-0B-270438.holo_minimised_nolig.pdb

>  <original SMILES>  (1010) 
Cc1ccc(NCC(O)COCc2ccccc2)cc1

>  <synthon>  (1010) 
[Xe]c1ccccc1

>  <original_name>  (1010) 
x0034-0B-x0212-0B-270438

>  <comRMSD_score>  (1010) 
0.6709713522614473

>  <IF_score>  (1010) 
0.65

>  <SuCOS_score>  (1010) 
0.449359434218255

>  <compound_ID>  (1010) 
CHEMSPACE-BB:CSMB00011370920, CHEMSPACE-BB:CSMB00079359730, CHEMSPACE-BB:CSMB00070456675, REAL:Z2407215770, REAL:Z2407215843

$$$$

     RDKit          3D

 22 23  0  0  0  0  0  0  0  0999 V2000
  -12.4360    5.2960  -77.3750 C   0  0  0  0  0  0  0  0  0  0  0  0
  -11.3110    4.3110  -77.1150 C   0  0  0  0  0  0  0  0  0  0  0  0
  -10.3360    4.1130  -78.0910 C   0  0  0  0  0  0  0  0  0  0  0  0
  -11.2300    3.5900  -75.9040 C   0  0  0  0  0  0  0  0  0  0  0  0
   -9.2370    3.1600  -77.8480 C   0  0  0  0  0  0  0  0  0  0  0  0
  -10.1940    2.6780  -75.6630 C   0  0  0  0  0  0  0  0  0  0  0  0
   -9.2170    2.4730  -76.6210 C   0  0  0  0  0  0  0  0  0  0  0  0
   -8.0840    1.5530  -76.4730 N   0  0  0  0  0  0  0  0  0  0  0  0
   -8.4210    0.1470  -76.2270 C   0  0  0  0  0  0  0  0  0  0  0  0
   -9.3580   -0.2960  -75.5770 O   0  0  0  0  0  0  0  0  0  0  0  0
   -7.5050   -0.6890  -76.8610 C   0  0  2  0  0  0  0  0  0  0  0  0
   -6.3320   -1.0730  -76.2970 N   0  0  0  0  0  0  0  0  0  0  0  0
   -7.1450   -0.2470  -78.1310 C   0  0  2  0  0  0  0  0  0  0  0  0
   -6.0490   -1.0970  -78.8190 C   0  0  0  0  0  0  0  0  0  0  0  0
   -6.4990    1.0370  -78.0010 O   0  0  0  0  0  0  0  0  0  0  0  0
   -6.9950    1.9530  -78.9740 C   0  0  0  0  0  0  0  0  0  0  0  0
   -7.8940    1.2760  -79.9700 C   0  0  0  0  0  0  0  0  0  0  0  0
   -8.1790    1.8930  -81.3010 C   0  0  0  0  0  0  0  0  0  0  0  0
   -8.4930    0.0350  -79.6950 C   0  0  0  0  0  0  0  0  0  0  0  0
   -8.9930    1.2430  -82.1990 C   0  0  0  0  0  0  0  0  0  0  0  0
   -9.3060   -0.5720  -80.6400 C   0  0  0  0  0  0  0  0  0  0  0  0
   -9.5560    0.0170  -81.8720 C   0  0  0  0  0  0  0  0  0  0  0  0
  1  2  1  0
  2  3  2  0
  2  4  1  0
  3  5  1  0
  4  6  2  0
  5  7  2  0
  6  7  1  0
  7  8  1  0
  8  9  1  0
  9 10  2  0
  9 11  1  0
 11 12  1  1
 11 13  1  0
 13 14  1  1
 13 15  1  0
 15 16  1  0
 16 17  1  0
 17 18  2  0
 17 19  1  0
 18 20  1  0
 19 21  2  0
 20 22  2  0
 21 22  1  0
M  END
>  <ref_url>  (1011) 
https://fakepage.com

>  <submitter_name>  (1011) 
Steph Wills

>  <submitter_email>  (1011) 
stephanie.wills@dtc.ox.ac.uk

>  <submitter_institution>  (1011) 
University of Oxford

>  <generation_date>  (1011) 
2020-06-04

>  <method>  (1011) 
Fragment network

>  <ref_mols>  (1011) 
x0034_0B,x0212_0B

>  <ref_pdb>  (1011) 
references/x0034-0B-x0212-0B-270674.holo_minimised_nolig.pdb

>  <original SMILES>  (1011) 
Cc1ccc(NC(=O)C(N)C(C)OCc2ccccc2)cc1

>  <synthon>  (1011) 
[Xe]c1ccccc1

>  <original_name>  (1011) 
x0034-0B-x0212-0B-270674

>  <comRMSD_score>  (1011) 
0.593567307175983

>  <IF_score>  (1011) 
0.625

>  <SuCOS_score>  (1011) 
0.5393532734739686

>  <compound_ID>  (1011) 
CHEMSPACE-BB:CSMB00023160623, CHEMSPACE-BB:CSMB00023169345, REAL:Z2824630384

$$$$

     RDKit          3D

 19 20  0  0  0  0  0  0  0  0999 V2000
  -12.7910    5.3250  -76.5530 C   0  0  0  0  0  0  0  0  0  0  0  0
  -11.5620    4.5680  -76.9880 C   0  0  0  0  0  0  0  0  0  0  0  0
  -11.0950    4.7670  -78.2760 C   0  0  0  0  0  0  0  0  0  0  0  0
  -10.8950    3.6860  -76.1310 C   0  0  0  0  0  0  0  0  0  0  0  0
   -9.9030    4.0710  -78.7660 C   0  0  0  0  0  0  0  0  0  0  0  0
   -9.7570    3.0230  -76.6080 C   0  0  0  0  0  0  0  0  0  0  0  0
   -9.2740    3.2140  -77.8920 C   0  0  0  0  0  0  0  0  0  0  0  0
   -9.1210    2.2500  -75.9640 O   0  0  0  0  0  0  0  0  0  0  0  0
   -8.3500    1.4660  -76.7770 C   0  0  0  0  0  0  0  0  0  0  0  0
   -8.6110    0.0740  -76.9510 O   0  0  0  0  0  0  0  0  0  0  0  0
   -7.2440    2.0030  -77.4430 N   0  0  0  0  0  0  0  0  0  0  0  0
   -7.1740    2.3790  -78.8720 C   0  0  0  0  0  0  0  0  0  0  0  0
   -6.5350    3.3560  -79.2620 O   0  0  0  0  0  0  0  0  0  0  0  0
   -7.9110    1.4810  -79.9110 C   0  0  0  0  0  0  0  0  0  0  0  0
   -8.2270    1.9900  -81.1780 C   0  0  0  0  0  0  0  0  0  0  0  0
   -8.2560    0.1610  -79.5790 C   0  0  0  0  0  0  0  0  0  0  0  0
   -8.9350    1.1350  -82.2010 C   0  0  0  0  0  0  0  0  0  0  0  0
   -8.9130   -0.6870  -80.4740 C   0  0  0  0  0  0  0  0  0  0  0  0
   -9.2590   -0.2590  -81.7500 C   0  0  0  0  0  0  0  0  0  0  0  0
  1  2  1  0
  2  3  2  0
  2  4  1  0
  3  5  1  0
  4  6  2  0
  5  7  2  0
  6  7  1  0
  6  8  1  0
  8  9  1  0
  9 10  2  0
  9 11  1  0
 11 12  1  0
 12 13  2  0
 12 14  1  0
 14 15  2  0
 14 16  1  0
 15 17  1  0
 16 18  2  0
 17 19  2  0
 18 19  1  0
M  END
>  <ref_url>  (1012) 
https://fakepage.com

>  <submitter_name>  (1012) 
Steph Wills

>  <submitter_email>  (1012) 
stephanie.wills@dtc.ox.ac.uk

>  <submitter_institution>  (1012) 
University of Oxford

>  <generation_date>  (1012) 
2020-06-04

>  <method>  (1012) 
Fragment network

>  <ref_mols>  (1012) 
x0034_0B,x0212_0B

>  <ref_pdb>  (1012) 
references/x0034-0B-x0212-0B-270889.holo_minimised_nolig.pdb

>  <original SMILES>  (1012) 
Cc1cccc(OC(=O)NC(=O)c2ccccc2)c1

>  <synthon>  (1012) 
[Xe]c1ccccc1

>  <original_name>  (1012) 
x0034-0B-x0212-0B-270889

>  <comRMSD_score>  (1012) 
0.925273383024354

>  <IF_score>  (1012) 
0.375

>  <SuCOS_score>  (1012) 
0.4889429819113021

>  <compound_ID>  (1012) 
MOLPORT:002-112-223

$$$$

     RDKit          3D

 27 28  0  0  0  0  0  0  0  0999 V2000
   -6.8010    2.6580  -79.5750 C   0  0  0  0  0  0  0  0  0  0  0  0
   -7.8280    1.6900  -80.1280 C   0  0  0  0  0  0  0  0  0  0  0  0
   -8.4700    1.8960  -81.3490 C   0  0  0  0  0  0  0  0  0  0  0  0
   -8.1510    0.5520  -79.3930 C   0  0  0  0  0  0  0  0  0  0  0  0
   -9.4870    0.9070  -81.8210 C   0  0  0  0  0  0  0  0  0  0  0  0
   -9.0900   -0.3720  -79.8090 C   0  0  0  0  0  0  0  0  0  0  0  0
   -9.7700   -0.2150  -81.0020 C   0  0  0  0  0  0  0  0  0  0  0  0
  -10.9700   -1.4930  -81.3470 S   0  0  0  0  0  0  0  0  0  0  0  0
  -10.4520   -2.5130  -82.5430 O   0  0  0  0  0  0  0  0  0  0  0  0
  -12.2880   -0.8660  -81.3620 O   0  0  0  0  0  0  0  0  0  0  0  0
  -10.8630   -2.4010  -79.8720 N   0  0  0  0  0  0  0  0  0  0  0  0
  -11.8650   -2.3160  -78.8150 C   0  0  0  0  0  0  0  0  0  0  0  0
  -11.3240   -2.8600  -77.6450 C   0  0  0  0  0  0  0  0  0  0  0  0
  -11.7940   -3.8450  -77.0760 O   0  0  0  0  0  0  0  0  0  0  0  0
  -10.2320   -2.1510  -77.2650 O   0  0  0  0  0  0  0  0  0  0  0  0
   -9.6170   -2.4960  -76.0130 C   0  0  0  0  0  0  0  0  0  0  0  0
   -9.9740   -1.3900  -74.9900 C   0  0  0  0  0  0  0  0  0  0  0  0
  -10.5020   -1.5990  -73.9040 O   0  0  0  0  0  0  0  0  0  0  0  0
   -9.5980   -0.0360  -75.5110 N   0  0  0  0  0  0  0  0  0  0  0  0
   -8.4730   -0.0310  -76.4500 C   0  0  0  0  0  0  0  0  0  0  0  0
   -7.9290    1.3870  -76.6460 C   0  0  0  0  0  0  0  0  0  0  0  0
   -9.0610    2.4010  -76.7260 C   0  0  0  0  0  0  0  0  0  0  0  0
   -9.1540    3.2650  -77.8340 C   0  0  0  0  0  0  0  0  0  0  0  0
  -10.0320    2.5130  -75.7130 C   0  0  0  0  0  0  0  0  0  0  0  0
  -10.1800    4.2030  -77.9290 C   0  0  0  0  0  0  0  0  0  0  0  0
  -11.0630    3.4550  -75.8050 C   0  0  0  0  0  0  0  0  0  0  0  0
  -11.1260    4.2880  -76.9140 C   0  0  0  0  0  0  0  0  0  0  0  0
  1  2  1  0
  2  3  2  0
  2  4  1  0
  3  5  1  0
  4  6  2  0
  5  7  2  0
  6  7  1  0
  7  8  1  0
  8  9  2  0
  8 10  2  0
  8 11  1  0
 11 12  1  0
 12 13  1  0
 13 14  2  0
 13 15  1  0
 15 16  1  0
 16 17  1  0
 17 18  2  0
 17 19  1  0
 19 20  1  0
 20 21  1  0
 21 22  1  0
 22 23  2  0
 22 24  1  0
 23 25  1  0
 24 26  2  0
 25 27  2  0
 26 27  1  0
M  END
>  <ref_url>  (1013) 
https://fakepage.com

>  <submitter_name>  (1013) 
Steph Wills

>  <submitter_email>  (1013) 
stephanie.wills@dtc.ox.ac.uk

>  <submitter_institution>  (1013) 
University of Oxford

>  <generation_date>  (1013) 
2020-06-04

>  <method>  (1013) 
Fragment network

>  <ref_mols>  (1013) 
x0034_0B,x0212_0B

>  <ref_pdb>  (1013) 
references/x0034-0B-x0212-0B-272549.holo_minimised_nolig.pdb

>  <original SMILES>  (1013) 
Cc1ccc(S(=O)(=O)NCC(=O)OCC(=O)NCCc2ccccc2)cc1

>  <synthon>  (1013) 
[Xe]c1ccccc1

>  <original_name>  (1013) 
x0034-0B-x0212-0B-272549

>  <comRMSD_score>  (1013) 
0.533883154091064

>  <IF_score>  (1013) 
0.65

>  <SuCOS_score>  (1013) 
0.5200670937315364

>  <compound_ID>  (1013) 
MOLPORT:005-733-857

$$$$

     RDKit          3D

 21 22  0  0  0  0  0  0  0  0999 V2000
   -5.9930    0.0520  -76.1270 C   0  0  0  0  0  0  0  0  0  0  0  0
   -7.1190   -0.6570  -76.8050 C   0  0  1  0  0  0  0  0  0  0  0  0
   -8.6580    0.2200  -76.4770 S   0  0  0  0  0  0  0  0  0  0  0  0
   -6.8390   -0.7250  -78.3090 C   0  0  0  0  0  0  0  0  0  0  0  0
   -8.0300    1.9250  -76.5130 C   0  0  1  0  0  0  0  0  0  0  0  0
   -6.5940   -1.7920  -78.8700 O   0  0  0  0  0  0  0  0  0  0  0  0
   -6.8710    0.4990  -79.0060 N   0  0  0  0  0  0  0  0  0  0  0  0
   -7.0300    2.2210  -77.4340 C   0  0  0  0  0  0  0  0  0  0  0  0
   -9.2530    2.8310  -76.7380 C   0  0  0  0  0  0  0  0  0  0  0  0
   -7.8280    0.4940  -80.0790 C   0  0  0  0  0  0  0  0  0  0  0  0
   -9.3660    3.5200  -77.9610 C   0  0  0  0  0  0  0  0  0  0  0  0
  -10.2250    2.9500  -75.7350 C   0  0  0  0  0  0  0  0  0  0  0  0
   -8.6070   -0.6260  -79.9360 C   0  0  0  0  0  0  0  0  0  0  0  0
   -8.0310    1.4000  -81.1490 C   0  0  0  0  0  0  0  0  0  0  0  0
  -10.5480    4.4160  -78.2240 C   0  0  0  0  0  0  0  0  0  0  0  0
  -11.3190    3.7540  -75.9200 C   0  0  0  0  0  0  0  0  0  0  0  0
   -9.6440   -0.8880  -80.9000 C   0  0  0  0  0  0  0  0  0  0  0  0
   -9.0340    1.1300  -82.0730 C   0  0  0  0  0  0  0  0  0  0  0  0
   -7.3000    2.5050  -81.3170 F   0  0  0  0  0  0  0  0  0  0  0  0
  -11.5190    4.4650  -77.0740 C   0  0  0  0  0  0  0  0  0  0  0  0
   -9.8220   -0.0090  -81.9320 C   0  0  0  0  0  0  0  0  0  0  0  0
  2  1  1  1
  2  3  1  0
  2  4  1  0
  3  5  1  0
  4  6  2  0
  4  7  1  0
  5  8  1  6
  5  9  1  0
  7 10  1  0
  9 11  2  0
  9 12  1  0
 10 13  2  0
 10 14  1  0
 11 15  1  0
 12 16  2  0
 13 17  1  0
 14 18  2  0
 14 19  1  0
 15 20  2  0
 16 20  1  0
 17 21  2  0
 18 21  1  0
M  END
>  <ref_url>  (1014) 
https://fakepage.com

>  <submitter_name>  (1014) 
Steph Wills

>  <submitter_email>  (1014) 
stephanie.wills@dtc.ox.ac.uk

>  <submitter_institution>  (1014) 
University of Oxford

>  <generation_date>  (1014) 
2020-06-04

>  <method>  (1014) 
Fragment network

>  <ref_mols>  (1014) 
x0034_0B,x0212_0B

>  <ref_pdb>  (1014) 
references/x0034-0B-x0212-0B-272671.holo_minimised_nolig.pdb

>  <original SMILES>  (1014) 
CC(SC(C)c1ccccc1)C(=O)Nc1ccccc1F

>  <synthon>  (1014) 
[Xe]c1ccccc1

>  <original_name>  (1014) 
x0034-0B-x0212-0B-272671

>  <comRMSD_score>  (1014) 
0.9641363243088876

>  <IF_score>  (1014) 
0.625

>  <SuCOS_score>  (1014) 
0.4646933812785171

>  <compound_ID>  (1014) 
MOLPORT:009-479-329

$$$$

     RDKit          3D

 22 23  0  0  0  0  0  0  0  0999 V2000
   -6.8890    2.2410  -79.3590 C   0  0  0  0  0  0  0  0  0  0  0  0
   -7.8570    1.4350  -80.2290 C   0  0  0  0  0  0  0  0  0  0  0  0
   -8.2830    2.1830  -81.5080 C   0  0  0  0  0  0  0  0  0  0  0  0
   -8.3450    0.1330  -79.9450 C   0  0  0  0  0  0  0  0  0  0  0  0
   -9.2490    1.3850  -82.3900 C   0  0  0  0  0  0  0  0  0  0  0  0
   -9.2290   -0.5190  -80.8130 C   0  0  0  0  0  0  0  0  0  0  0  0
   -7.9930   -0.4280  -78.9250 O   0  0  0  0  0  0  0  0  0  0  0  0
   -9.6830    0.0390  -81.9800 C   0  0  0  0  0  0  0  0  0  0  0  0
   -9.0400   -1.1220  -78.2810 C   0  0  0  0  0  0  0  0  0  0  0  0
  -10.4310   -0.5320  -78.1920 C   0  0  0  0  0  0  0  0  0  0  0  0
  -10.6280    0.7100  -77.5540 C   0  0  0  0  0  0  0  0  0  0  0  0
  -10.5540    0.4710  -76.1200 N   0  0  0  0  0  0  0  0  0  0  0  0
   -9.3070   -0.1060  -75.6780 C   0  0  0  0  0  0  0  0  0  0  0  0
   -9.1530   -0.8130  -74.6950 O   0  0  0  0  0  0  0  0  0  0  0  0
   -8.3840    0.2840  -76.5790 O   0  0  0  0  0  0  0  0  0  0  0  0
   -7.8090    1.6150  -76.5950 C   0  0  0  0  0  0  0  0  0  0  0  0
   -8.9560    2.5940  -76.7370 C   0  0  0  0  0  0  0  0  0  0  0  0
   -9.9300    2.6800  -75.7280 C   0  0  0  0  0  0  0  0  0  0  0  0
   -9.0770    3.4280  -77.8670 C   0  0  0  0  0  0  0  0  0  0  0  0
  -11.0140    3.5720  -75.8340 C   0  0  0  0  0  0  0  0  0  0  0  0
  -10.1120    4.3260  -78.0430 C   0  0  0  0  0  0  0  0  0  0  0  0
  -11.1540    4.4030  -76.9560 C   0  0  0  0  0  0  0  0  0  0  0  0
  1  2  1  0
  2  3  2  0
  2  4  1  0
  3  5  1  0
  4  6  2  0
  4  7  1  0
  5  8  2  0
  6  8  1  0
  7  9  1  0
  9 10  1  0
 10 11  1  0
 11 12  1  0
 12 13  1  0
 13 14  2  0
 13 15  1  0
 15 16  1  0
 16 17  1  0
 17 18  2  0
 17 19  1  0
 18 20  1  0
 19 21  2  0
 20 22  2  0
 21 22  1  0
M  END
>  <ref_url>  (1015) 
https://fakepage.com

>  <submitter_name>  (1015) 
Steph Wills

>  <submitter_email>  (1015) 
stephanie.wills@dtc.ox.ac.uk

>  <submitter_institution>  (1015) 
University of Oxford

>  <generation_date>  (1015) 
2020-06-04

>  <method>  (1015) 
Fragment network

>  <ref_mols>  (1015) 
x0034_0B,x0212_0B

>  <ref_pdb>  (1015) 
references/x0034-0B-x0212-0B-273705.holo_minimised_nolig.pdb

>  <original SMILES>  (1015) 
Cc1ccccc1OCCCNC(=O)OCc1ccccc1

>  <synthon>  (1015) 
[Xe]c1ccccc1

>  <original_name>  (1015) 
x0034-0B-x0212-0B-273705

>  <comRMSD_score>  (1015) 
0.914688843268572

>  <IF_score>  (1015) 
0.65

>  <SuCOS_score>  (1015) 
0.5063591877468179

>  <compound_ID>  (1015) 
CHEMSPACE-BB:CSMB00114222589

$$$$

     RDKit          3D

 20 21  0  0  0  0  0  0  0  0999 V2000
  -12.4180    5.4110  -77.3750 C   0  0  0  0  0  0  0  0  0  0  0  0
  -11.3730    4.3760  -77.1120 C   0  0  0  0  0  0  0  0  0  0  0  0
  -10.4070    4.0950  -78.0720 C   0  0  0  0  0  0  0  0  0  0  0  0
  -11.3460    3.6750  -75.8980 C   0  0  0  0  0  0  0  0  0  0  0  0
   -9.4320    3.1300  -77.8230 C   0  0  0  0  0  0  0  0  0  0  0  0
  -10.3740    2.7120  -75.6510 C   0  0  0  0  0  0  0  0  0  0  0  0
   -9.4020    2.4220  -76.6060 C   0  0  0  0  0  0  0  0  0  0  0  0
   -8.4410    1.4450  -76.3140 N   0  0  0  0  0  0  0  0  0  0  0  0
   -8.6510    0.0190  -75.9990 C   0  0  0  0  0  0  0  0  0  0  0  0
   -9.7380   -0.5530  -75.4050 O   0  0  0  0  0  0  0  0  0  0  0  0
   -7.4270   -0.7410  -76.4480 C   0  0  0  0  0  0  0  0  0  0  0  0
   -6.9550   -0.1690  -77.7660 C   0  0  0  0  0  0  0  0  0  0  0  0
   -6.6560    1.3270  -77.8240 C   0  0  0  0  0  0  0  0  0  0  0  0
   -7.1590    2.1070  -78.8620 C   0  0  0  0  0  0  0  0  0  0  0  0
   -7.9600    1.4100  -79.9010 C   0  0  0  0  0  0  0  0  0  0  0  0
   -8.1830    2.0290  -81.2690 C   0  0  0  0  0  0  0  0  0  0  0  0
   -8.5060    0.1620  -79.6010 C   0  0  0  0  0  0  0  0  0  0  0  0
   -9.0050    1.1860  -82.2070 C   0  0  0  0  0  0  0  0  0  0  0  0
   -9.2580   -0.5570  -80.5260 C   0  0  0  0  0  0  0  0  0  0  0  0
   -9.5000   -0.0590  -81.7940 C   0  0  0  0  0  0  0  0  0  0  0  0
  1  2  1  0
  2  3  2  0
  2  4  1  0
  3  5  1  0
  4  6  2  0
  5  7  2  0
  6  7  1  0
  7  8  1  0
  8  9  1  0
  9 10  2  0
  9 11  1  0
 11 12  1  0
 12 13  1  0
 13 14  2  3
 14 15  1  0
 15 16  2  0
 15 17  1  0
 16 18  1  0
 17 19  2  0
 18 20  2  0
 19 20  1  0
M  END
>  <ref_url>  (1016) 
https://fakepage.com

>  <submitter_name>  (1016) 
Steph Wills

>  <submitter_email>  (1016) 
stephanie.wills@dtc.ox.ac.uk

>  <submitter_institution>  (1016) 
University of Oxford

>  <generation_date>  (1016) 
2020-06-04

>  <method>  (1016) 
Fragment network

>  <ref_mols>  (1016) 
x0034_0B,x0212_0B

>  <ref_pdb>  (1016) 
references/x0034-0B-x0212-0B-273749.holo_minimised_nolig.pdb

>  <original SMILES>  (1016) 
Cc1ccc(NC(=O)CCC=Cc2ccccc2)cc1

>  <synthon>  (1016) 
[Xe]c1ccccc1

>  <original_name>  (1016) 
x0034-0B-x0212-0B-273749

>  <comRMSD_score>  (1016) 
0.610687651264873

>  <IF_score>  (1016) 
0.625

>  <SuCOS_score>  (1016) 
0.5228925485265884

>  <compound_ID>  (1016) 
REAL:Z1239066228

$$$$

     RDKit          3D

 23 24  0  0  0  0  0  0  0  0999 V2000
  -10.7830    0.5900  -77.3850 C   0  0  0  0  0  0  0  0  0  0  0  0
  -10.0760   -0.4190  -76.4790 C   0  0  1  0  0  0  0  0  0  0  0  0
  -10.6090   -1.8400  -76.8040 C   0  0  0  0  0  0  0  0  0  0  0  0
   -8.3050   -0.2830  -76.7390 S   0  0  0  0  0  0  0  0  0  0  0  0
  -11.9950   -2.0770  -76.5890 O   0  0  0  0  0  0  0  0  0  0  0  0
   -9.6190   -2.8410  -77.3090 N   0  0  0  0  0  0  0  0  0  0  0  0
   -7.6670   -1.0780  -75.7280 O   0  0  0  0  0  0  0  0  0  0  0  0
   -7.9060    1.4450  -76.5110 C   0  0  0  0  0  0  0  0  0  0  0  0
   -9.0080   -2.6050  -78.5380 C   0  0  0  0  0  0  0  0  0  0  0  0
   -9.0190    2.4480  -76.6500 C   0  0  0  0  0  0  0  0  0  0  0  0
   -9.8370   -1.8990  -79.5590 C   0  0  0  0  0  0  0  0  0  0  0  0
  -10.0070    2.5470  -75.6630 C   0  0  0  0  0  0  0  0  0  0  0  0
   -9.0750    3.2930  -77.7710 C   0  0  0  0  0  0  0  0  0  0  0  0
   -9.3630   -0.6000  -80.2130 C   0  0  0  0  0  0  0  0  0  0  0  0
  -11.0580    3.4780  -75.7690 C   0  0  0  0  0  0  0  0  0  0  0  0
  -10.0750    4.2280  -77.9470 C   0  0  0  0  0  0  0  0  0  0  0  0
   -8.3570    0.1920  -79.3800 C   0  0  0  0  0  0  0  0  0  0  0  0
   -9.8040   -0.1580  -81.4610 C   0  0  0  0  0  0  0  0  0  0  0  0
  -11.1370    4.3310  -76.8830 C   0  0  0  0  0  0  0  0  0  0  0  0
   -7.8690    1.5010  -79.9900 C   0  0  0  0  0  0  0  0  0  0  0  0
   -9.3330    1.0480  -81.9980 C   0  0  0  0  0  0  0  0  0  0  0  0
   -8.4220    1.8540  -81.3260 C   0  0  0  0  0  0  0  0  0  0  0  0
   -8.0210    2.9820  -81.8840 F   0  0  0  0  0  0  0  0  0  0  0  0
  2  1  1  6
  2  3  1  0
  2  4  1  0
  3  5  2  0
  3  6  1  0
  4  7  1  1
  4  8  1  0
  6  9  1  0
  8 10  1  0
  9 11  1  0
 10 12  2  0
 10 13  1  0
 11 14  1  0
 12 15  1  0
 13 16  2  0
 14 17  2  0
 14 18  1  0
 15 19  2  0
 16 19  1  0
 17 20  1  0
 18 21  2  0
 20 22  2  0
 21 22  1  0
 22 23  1  0
M  CHG  2   4   1   7  -1
M  END
>  <ref_url>  (1017) 
https://fakepage.com

>  <submitter_name>  (1017) 
Steph Wills

>  <submitter_email>  (1017) 
stephanie.wills@dtc.ox.ac.uk

>  <submitter_institution>  (1017) 
University of Oxford

>  <generation_date>  (1017) 
2020-06-04

>  <method>  (1017) 
Fragment network

>  <ref_mols>  (1017) 
x0034_0B,x0212_0B

>  <ref_pdb>  (1017) 
references/x0034-0B-x0212-0B-273925.holo_minimised_nolig.pdb

>  <original SMILES>  (1017) 
CC(C(=O)NCCc1ccc(F)cc1)[S+]([O-])Cc1ccccc1

>  <synthon>  (1017) 
[Xe]c1ccccc1

>  <original_name>  (1017) 
x0034-0B-x0212-0B-273925

>  <comRMSD_score>  (1017) 
0.5589448392581632

>  <IF_score>  (1017) 
0.55

>  <SuCOS_score>  (1017) 
0.5114316074025598

>  <compound_ID>  (1017) 
REAL:Z1137996935

$$$$

     RDKit          3D

 21 22  0  0  0  0  0  0  0  0999 V2000
  -12.4190    5.2830  -77.3390 C   0  0  0  0  0  0  0  0  0  0  0  0
  -11.3170    4.3240  -77.0270 C   0  0  0  0  0  0  0  0  0  0  0  0
  -10.2350    4.2110  -77.9010 C   0  0  0  0  0  0  0  0  0  0  0  0
  -11.3460    3.5290  -75.8630 C   0  0  0  0  0  0  0  0  0  0  0  0
   -9.1970    3.3240  -77.6190 C   0  0  0  0  0  0  0  0  0  0  0  0
  -10.3180    2.6280  -75.5710 C   0  0  0  0  0  0  0  0  0  0  0  0
   -9.2480    2.5330  -76.4550 C   0  0  0  0  0  0  0  0  0  0  0  0
   -8.2930    1.7570  -76.2700 O   0  0  0  0  0  0  0  0  0  0  0  0
   -8.4950    0.3840  -75.8500 C   0  0  0  0  0  0  0  0  0  0  0  0
   -8.4790   -0.7480  -76.8490 C   0  0  1  0  0  0  0  0  0  0  0  0
   -9.2740   -1.8560  -76.3930 O   0  0  0  0  0  0  0  0  0  0  0  0
   -8.9970   -0.3040  -78.1930 C   0  0  0  0  0  0  0  0  0  0  0  0
   -9.0740    1.1470  -78.2680 N   0  0  0  0  0  0  0  0  0  0  0  0
   -7.7270    1.6540  -77.9140 O   0  0  0  0  0  0  0  0  0  0  0  0
   -7.0640    1.9870  -79.1160 C   0  0  0  0  0  0  0  0  0  0  0  0
   -7.7100    1.3670  -80.1670 C   0  0  0  0  0  0  0  0  0  0  0  0
   -8.2030    2.0720  -81.3540 C   0  0  0  0  0  0  0  0  0  0  0  0
   -7.9130   -0.0060  -80.0630 C   0  0  0  0  0  0  0  0  0  0  0  0
   -8.9280    1.3340  -82.4420 C   0  0  0  0  0  0  0  0  0  0  0  0
   -8.5800   -0.7370  -81.0400 C   0  0  0  0  0  0  0  0  0  0  0  0
   -9.0810   -0.1400  -82.1810 C   0  0  0  0  0  0  0  0  0  0  0  0
  1  2  1  0
  2  3  2  0
  2  4  1  0
  3  5  1  0
  4  6  2  0
  5  7  2  0
  6  7  1  0
  7  8  1  0
  8  9  1  0
  9 10  1  0
 10 11  1  1
 10 12  1  0
 12 13  1  0
 13 14  1  0
 14 15  1  0
 15 16  1  0
 16 17  2  0
 16 18  1  0
 17 19  1  0
 18 20  2  0
 19 21  2  0
 20 21  1  0
M  END
>  <ref_url>  (1018) 
https://fakepage.com

>  <submitter_name>  (1018) 
Steph Wills

>  <submitter_email>  (1018) 
stephanie.wills@dtc.ox.ac.uk

>  <submitter_institution>  (1018) 
University of Oxford

>  <generation_date>  (1018) 
2020-06-04

>  <method>  (1018) 
Fragment network

>  <ref_mols>  (1018) 
x0034_0B,x0212_0B

>  <ref_pdb>  (1018) 
references/x0034-0B-x0212-0B-274304.holo_minimised_nolig.pdb

>  <original SMILES>  (1018) 
Cc1ccc(OCC(O)CNOCc2ccccc2)cc1

>  <synthon>  (1018) 
[Xe]c1ccccc1

>  <original_name>  (1018) 
x0034-0B-x0212-0B-274304

>  <comRMSD_score>  (1018) 
0.7556183143869921

>  <IF_score>  (1018) 
0.625

>  <SuCOS_score>  (1018) 
0.4830435307669893

>  <compound_ID>  (1018) 
CHEMSPACE-BB:CSMB00012173944

$$$$

     RDKit          3D

 21 22  0  0  0  0  0  0  0  0999 V2000
   -6.9860    2.6590  -79.2900 C   0  0  0  0  0  0  0  0  0  0  0  0
   -7.8080    1.6520  -80.0900 C   0  0  0  0  0  0  0  0  0  0  0  0
   -8.3140    2.1550  -81.4510 C   0  0  0  0  0  0  0  0  0  0  0  0
   -8.0810    0.3670  -79.6200 C   0  0  0  0  0  0  0  0  0  0  0  0
   -9.1360    1.1060  -82.2100 C   0  0  0  0  0  0  0  0  0  0  0  0
   -8.8420   -0.5400  -80.3670 C   0  0  0  0  0  0  0  0  0  0  0  0
   -9.3660   -0.2280  -81.6120 C   0  0  0  0  0  0  0  0  0  0  0  0
   -9.1020   -1.8440  -79.8610 O   0  0  0  0  0  0  0  0  0  0  0  0
   -8.0340   -2.3950  -79.1820 C   0  0  0  0  0  0  0  0  0  0  0  0
   -7.9840   -1.8740  -77.7280 C   0  0  0  0  0  0  0  0  0  0  0  0
   -8.8410   -0.7250  -77.5150 N   0  0  0  0  0  0  0  0  0  0  0  0
   -9.4570   -0.5710  -76.2920 C   0  0  0  0  0  0  0  0  0  0  0  0
  -10.5330   -1.4170  -75.8810 O   0  0  0  0  0  0  0  0  0  0  0  0
   -9.0120    0.3380  -75.6180 O   0  0  0  0  0  0  0  0  0  0  0  0
   -8.3700    1.3750  -76.3780 C   0  0  0  0  0  0  0  0  0  0  0  0
   -9.3150    2.3810  -76.6320 C   0  0  0  0  0  0  0  0  0  0  0  0
   -9.3570    3.0790  -77.8460 C   0  0  0  0  0  0  0  0  0  0  0  0
  -10.2520    2.7030  -75.6450 C   0  0  0  0  0  0  0  0  0  0  0  0
  -10.3880    4.1360  -78.0660 C   0  0  0  0  0  0  0  0  0  0  0  0
  -11.2190    3.6910  -75.8480 C   0  0  0  0  0  0  0  0  0  0  0  0
  -11.2930    4.4030  -77.0500 C   0  0  0  0  0  0  0  0  0  0  0  0
  1  2  1  0
  2  3  2  0
  2  4  1  0
  3  5  1  0
  4  6  2  0
  5  7  2  0
  6  7  1  0
  6  8  1  0
  8  9  1  0
  9 10  1  0
 10 11  1  0
 11 12  1  0
 12 13  2  0
 12 14  1  0
 14 15  1  0
 15 16  1  0
 16 17  2  0
 16 18  1  0
 17 19  1  0
 18 20  2  0
 19 21  2  0
 20 21  1  0
M  END
>  <ref_url>  (1019) 
https://fakepage.com

>  <submitter_name>  (1019) 
Steph Wills

>  <submitter_email>  (1019) 
stephanie.wills@dtc.ox.ac.uk

>  <submitter_institution>  (1019) 
University of Oxford

>  <generation_date>  (1019) 
2020-06-04

>  <method>  (1019) 
Fragment network

>  <ref_mols>  (1019) 
x0034_0B,x0212_0B

>  <ref_pdb>  (1019) 
references/x0034-0B-x0212-0B-274555.holo_minimised_nolig.pdb

>  <original SMILES>  (1019) 
Cc1cccc(OCCNC(=O)OCc2ccccc2)c1

>  <synthon>  (1019) 
[Xe]c1ccccc1

>  <original_name>  (1019) 
x0034-0B-x0212-0B-274555

>  <comRMSD_score>  (1019) 
0.8644597542203258

>  <IF_score>  (1019) 
0.625

>  <SuCOS_score>  (1019) 
0.5076989344800442

>  <compound_ID>  (1019) 
CHEMSPACE-BB:CSMB00000191426

$$$$

     RDKit          3D

 22 23  0  0  0  0  0  0  0  0999 V2000
   -7.4120   -3.4660  -80.2610 O   0  0  0  0  0  0  0  0  0  0  0  0
   -8.2970   -2.7050  -79.8830 C   0  0  0  0  0  0  0  0  0  0  0  0
   -8.5520   -2.4660  -78.3890 C   0  0  0  0  0  0  0  0  0  0  0  0
   -9.1670   -1.9790  -80.8200 N   0  0  0  0  0  0  0  0  0  0  0  0
   -7.6880   -1.4790  -77.4800 C   0  0  0  0  0  0  0  0  0  0  0  0
   -8.8190   -0.6300  -80.6950 C   0  0  0  0  0  0  0  0  0  0  0  0
   -8.8190   -0.3130  -76.6400 S   0  0  0  0  0  0  0  0  0  0  0  0
   -8.4250   -0.2510  -79.4470 C   0  0  0  0  0  0  0  0  0  0  0  0
   -8.8330    0.3140  -81.7300 C   0  0  0  0  0  0  0  0  0  0  0  0
   -9.9340   -0.2320  -77.5480 O   0  0  0  0  0  0  0  0  0  0  0  0
   -9.0670   -0.7690  -75.2880 O   0  0  0  0  0  0  0  0  0  0  0  0
   -8.0950    1.3440  -76.6260 C   0  0  0  0  0  0  0  0  0  0  0  0
   -8.0270    1.0230  -79.1620 C   0  0  0  0  0  0  0  0  0  0  0  0
   -8.4210    1.6180  -81.4200 C   0  0  0  0  0  0  0  0  0  0  0  0
   -9.1660    2.3910  -76.7680 C   0  0  0  0  0  0  0  0  0  0  0  0
   -8.0190    1.9640  -80.1480 C   0  0  0  0  0  0  0  0  0  0  0  0
   -8.4080    2.5480  -82.3490 F   0  0  0  0  0  0  0  0  0  0  0  0
  -10.1530    2.5950  -75.6670 C   0  0  0  0  0  0  0  0  0  0  0  0
   -9.3070    3.2090  -77.9200 C   0  0  0  0  0  0  0  0  0  0  0  0
  -11.2450    3.6180  -75.7760 C   0  0  0  0  0  0  0  0  0  0  0  0
  -10.3310    4.1820  -78.0580 C   0  0  0  0  0  0  0  0  0  0  0  0
  -11.2940    4.4230  -77.0620 C   0  0  0  0  0  0  0  0  0  0  0  0
  1  2  2  0
  2  3  1  0
  2  4  1  0
  3  5  1  0
  4  6  1  0
  7  5  1  0
  6  8  2  0
  6  9  1  0
  7 10  2  0
  7 11  2  0
  7 12  1  0
  8 13  1  0
  9 14  2  0
 12 15  1  0
 13 16  2  0
 14 16  1  0
 14 17  1  0
 15 18  2  0
 15 19  1  0
 18 20  1  0
 19 21  2  0
 20 22  2  0
 21 22  1  0
M  END
>  <ref_url>  (1020) 
https://fakepage.com

>  <submitter_name>  (1020) 
Steph Wills

>  <submitter_email>  (1020) 
stephanie.wills@dtc.ox.ac.uk

>  <submitter_institution>  (1020) 
University of Oxford

>  <generation_date>  (1020) 
2020-06-04

>  <method>  (1020) 
Fragment network

>  <ref_mols>  (1020) 
x0034_0B,x0212_0B

>  <ref_pdb>  (1020) 
references/x0034-0B-x0212-0B-283407.holo_minimised_nolig.pdb

>  <original SMILES>  (1020) 
O=C(CCS(=O)(=O)Cc1ccccc1)Nc1cccc(F)c1

>  <synthon>  (1020) 
[Xe]c1ccccc1

>  <original_name>  (1020) 
x0034-0B-x0212-0B-283407

>  <comRMSD_score>  (1020) 
0.8062582299321565

>  <IF_score>  (1020) 
0.375

>  <SuCOS_score>  (1020) 
0.4943827261524604

>  <compound_ID>  (1020) 
REAL:Z339636668

$$$$

     RDKit          3D

 22 23  0  0  0  0  0  0  0  0999 V2000
  -12.5290    5.1350  -77.5670 C   0  0  0  0  0  0  0  0  0  0  0  0
  -11.3210    4.3040  -77.2720 C   0  0  0  0  0  0  0  0  0  0  0  0
  -11.1930    3.5940  -76.0640 C   0  0  0  0  0  0  0  0  0  0  0  0
  -10.2960    4.2330  -78.2160 C   0  0  0  0  0  0  0  0  0  0  0  0
  -10.0490    2.8270  -75.8150 C   0  0  0  0  0  0  0  0  0  0  0  0
   -9.1570    3.4760  -77.9730 C   0  0  0  0  0  0  0  0  0  0  0  0
   -9.0280    2.7710  -76.7690 C   0  0  0  0  0  0  0  0  0  0  0  0
   -7.5710    1.7830  -76.3750 S   0  0  0  0  0  0  0  0  0  0  0  0
   -8.1520    0.0870  -76.0520 C   0  0  0  0  0  0  0  0  0  0  0  0
   -8.5180   -0.6730  -77.2860 C   0  0  0  0  0  0  0  0  0  0  0  0
   -9.8050   -0.9520  -77.6680 O   0  0  0  0  0  0  0  0  0  0  0  0
   -7.3930   -1.0900  -77.9950 N   0  0  0  0  0  0  0  0  0  0  0  0
   -6.3120   -0.1900  -78.4380 C   0  0  0  0  0  0  0  0  0  0  0  0
   -5.3120   -0.8980  -79.1970 O   0  0  0  0  0  0  0  0  0  0  0  0
   -6.2380    1.0190  -78.2050 O   0  0  0  0  0  0  0  0  0  0  0  0
   -6.8660    1.9170  -79.1400 C   0  0  0  0  0  0  0  0  0  0  0  0
   -7.7560    1.3090  -80.0420 C   0  0  0  0  0  0  0  0  0  0  0  0
   -8.4200    0.0530  -79.6380 C   0  0  0  0  0  0  0  0  0  0  0  0
   -8.0180    1.8630  -81.3050 C   0  0  0  0  0  0  0  0  0  0  0  0
   -9.3660   -0.6340  -80.5810 C   0  0  0  0  0  0  0  0  0  0  0  0
   -8.8940    1.2470  -82.2000 C   0  0  0  0  0  0  0  0  0  0  0  0
   -9.5530    0.0580  -81.8890 C   0  0  0  0  0  0  0  0  0  0  0  0
  1  2  1  0
  2  3  2  0
  2  4  1  0
  3  5  1  0
  4  6  2  0
  5  7  2  0
  6  7  1  0
  7  8  1  0
  8  9  1  0
  9 10  1  0
 10 11  2  0
 10 12  1  0
 12 13  1  0
 13 14  2  0
 13 15  1  0
 15 16  1  0
 16 17  1  0
 17 18  2  0
 17 19  1  0
 18 20  1  0
 19 21  2  0
 20 22  2  0
 21 22  1  0
M  END
>  <ref_url>  (1021) 
https://fakepage.com

>  <submitter_name>  (1021) 
Steph Wills

>  <submitter_email>  (1021) 
stephanie.wills@dtc.ox.ac.uk

>  <submitter_institution>  (1021) 
University of Oxford

>  <generation_date>  (1021) 
2020-06-04

>  <method>  (1021) 
Fragment network

>  <ref_mols>  (1021) 
x0034_0B,x0212_0B

>  <ref_pdb>  (1021) 
references/x0034-0B-x0212-0B-284816.holo_minimised_nolig.pdb

>  <original SMILES>  (1021) 
Cc1ccc(SCC(=O)NC(=O)OCc2ccccc2)cc1

>  <synthon>  (1021) 
[Xe]c1ccccc1

>  <original_name>  (1021) 
x0034-0B-x0212-0B-284816

>  <comRMSD_score>  (1021) 
0.9543260371514484

>  <IF_score>  (1021) 
0.625

>  <SuCOS_score>  (1021) 
0.5235236756001428

>  <compound_ID>  (1021) 
CHEMSPACE-BB:CSMB00114193916

$$$$

     RDKit          3D

 25 26  0  0  0  0  0  0  0  0999 V2000
  -10.8490    4.7870  -78.7470 C   0  0  0  0  0  0  0  0  0  0  0  0
  -10.6120    3.8870  -77.6300 C   0  0  0  0  0  0  0  0  0  0  0  0
  -11.4060    4.0720  -76.5270 C   0  0  0  0  0  0  0  0  0  0  0  0
   -9.6500    2.8870  -77.6500 C   0  0  0  0  0  0  0  0  0  0  0  0
  -11.2500    3.2560  -75.4260 C   0  0  0  0  0  0  0  0  0  0  0  0
   -9.4800    2.0450  -76.5480 C   0  0  0  0  0  0  0  0  0  0  0  0
  -10.2890    2.2380  -75.4320 C   0  0  0  0  0  0  0  0  0  0  0  0
   -8.4150    0.9310  -76.5910 C   0  0  1  0  0  0  0  0  0  0  0  0
   -8.7580   -0.3540  -75.8840 C   0  0  0  0  0  0  0  0  0  0  0  0
   -8.2100    0.4880  -78.0070 C   0  0  0  0  0  0  0  0  0  0  0  0
   -9.1510    0.6780  -78.7800 O   0  0  0  0  0  0  0  0  0  0  0  0
   -7.0050   -0.1390  -78.3440 N   0  0  0  0  0  0  0  0  0  0  0  0
   -6.9820   -1.5760  -78.0680 C   0  0  0  0  0  0  0  0  0  0  0  0
   -5.6590    0.4770  -78.1940 C   0  0  1  0  0  0  0  0  0  0  0  0
   -5.0460    0.5470  -79.4480 C   0  0  0  0  0  0  0  0  0  0  0  0
   -5.8420    1.8820  -77.5800 C   0  0  0  0  0  0  0  0  0  0  0  0
   -6.8810    2.5120  -78.1420 N   0  0  0  0  0  0  0  0  0  0  0  0
   -6.9850    2.6180  -79.5530 C   0  0  0  0  0  0  0  0  0  0  0  0
   -6.4100    3.4950  -80.1930 O   0  0  0  0  0  0  0  0  0  0  0  0
   -7.7400    1.7090  -80.3130 C   0  0  0  0  0  0  0  0  0  0  0  0
   -8.2660    2.1120  -81.5180 C   0  0  0  0  0  0  0  0  0  0  0  0
   -7.9580    0.4030  -79.8610 C   0  0  0  0  0  0  0  0  0  0  0  0
   -9.0100    1.2270  -82.2800 C   0  0  0  0  0  0  0  0  0  0  0  0
   -8.7120   -0.4890  -80.6240 C   0  0  0  0  0  0  0  0  0  0  0  0
   -9.2380   -0.0760  -81.8320 C   0  0  0  0  0  0  0  0  0  0  0  0
  1  2  1  0
  2  3  2  0
  2  4  1  0
  3  5  1  0
  4  6  2  0
  5  7  2  0
  6  7  1  0
  6  8  1  0
  8  9  1  1
  8 10  1  0
 10 11  2  0
 10 12  1  0
 12 13  1  0
 12 14  1  0
 14 15  1  6
 14 16  1  0
 16 17  1  0
 17 18  1  0
 18 19  2  0
 18 20  1  0
 20 21  2  0
 20 22  1  0
 21 23  1  0
 22 24  2  0
 23 25  2  0
 24 25  1  0
M  END
>  <ref_url>  (1022) 
https://fakepage.com

>  <submitter_name>  (1022) 
Steph Wills

>  <submitter_email>  (1022) 
stephanie.wills@dtc.ox.ac.uk

>  <submitter_institution>  (1022) 
University of Oxford

>  <generation_date>  (1022) 
2020-06-04

>  <method>  (1022) 
Fragment network

>  <ref_mols>  (1022) 
x0034_0B,x0212_0B

>  <ref_pdb>  (1022) 
references/x0034-0B-x0212-0B-287591.holo_minimised_nolig.pdb

>  <original SMILES>  (1022) 
Cc1cccc(C(C)C(=O)N(C)C(C)CNC(=O)c2ccccc2)c1

>  <synthon>  (1022) 
[Xe]c1ccccc1

>  <original_name>  (1022) 
x0034-0B-x0212-0B-287591

>  <comRMSD_score>  (1022) 
0.7210824681864942

>  <IF_score>  (1022) 
0.625

>  <SuCOS_score>  (1022) 
0.5018714668309077

>  <compound_ID>  (1022) 
REAL:PV-001056045009

$$$$

     RDKit          3D

 19 20  0  0  0  0  0  0  0  0999 V2000
  -12.2390    5.3880  -77.0840 C   0  0  0  0  0  0  0  0  0  0  0  0
  -11.1400    4.3880  -76.8230 C   0  0  0  0  0  0  0  0  0  0  0  0
  -10.0650    4.2860  -77.7140 C   0  0  0  0  0  0  0  0  0  0  0  0
  -11.1650    3.5610  -75.7010 C   0  0  0  0  0  0  0  0  0  0  0  0
   -9.0290    3.3830  -77.4840 C   0  0  0  0  0  0  0  0  0  0  0  0
  -10.1350    2.6450  -75.4790 C   0  0  0  0  0  0  0  0  0  0  0  0
   -9.0530    2.5450  -76.3650 C   0  0  0  0  0  0  0  0  0  0  0  0
   -7.9970    1.6410  -76.1930 N   0  0  0  0  0  0  0  0  0  0  0  0
   -8.1630    0.2110  -76.4650 C   0  0  0  0  0  0  0  0  0  0  0  0
   -9.6390    0.0390  -76.5510 C   0  0  0  0  0  0  0  0  0  0  0  0
  -10.1050    0.9570  -77.6220 C   0  0  0  0  0  0  0  0  0  0  0  0
   -9.4700    2.0370  -77.7290 O   0  0  0  0  0  0  0  0  0  0  0  0
   -8.3530    2.1320  -78.6680 C   0  0  0  0  0  0  0  0  0  0  0  0
   -8.5590    1.3160  -79.8870 C   0  0  0  0  0  0  0  0  0  0  0  0
   -8.5380    1.9170  -81.2830 C   0  0  0  0  0  0  0  0  0  0  0  0
   -8.7990   -0.0620  -79.7380 C   0  0  0  0  0  0  0  0  0  0  0  0
   -8.7600    1.1080  -82.3500 C   0  0  0  0  0  0  0  0  0  0  0  0
   -9.0240   -0.8910  -80.8400 C   0  0  0  0  0  0  0  0  0  0  0  0
   -9.0160   -0.3590  -82.1180 C   0  0  0  0  0  0  0  0  0  0  0  0
  1  2  1  0
  2  3  2  0
  2  4  1  0
  3  5  1  0
  4  6  2  0
  5  7  2  0
  6  7  1  0
  7  8  1  0
  8  9  1  0
  9 10  1  0
 10 11  1  0
 11 12  1  0
 12 13  1  0
 13 14  1  0
 14 15  2  0
 14 16  1  0
 15 17  1  0
 16 18  2  0
 17 19  2  0
 18 19  1  0
M  END
>  <ref_url>  (1023) 
https://fakepage.com

>  <submitter_name>  (1023) 
Steph Wills

>  <submitter_email>  (1023) 
stephanie.wills@dtc.ox.ac.uk

>  <submitter_institution>  (1023) 
University of Oxford

>  <generation_date>  (1023) 
2020-06-04

>  <method>  (1023) 
Fragment network

>  <ref_mols>  (1023) 
x0034_0B,x0212_0B

>  <ref_pdb>  (1023) 
references/x0034-0B-x0212-0B-288011.holo_minimised_nolig.pdb

>  <original SMILES>  (1023) 
Cc1ccc(NCCCOCc2ccccc2)cc1

>  <synthon>  (1023) 
[Xe]c1ccccc1

>  <original_name>  (1023) 
x0034-0B-x0212-0B-288011

>  <comRMSD_score>  (1023) 
0.6793231108161191

>  <IF_score>  (1023) 
0.65

>  <SuCOS_score>  (1023) 
0.4400394804374227

>  <compound_ID>  (1023) 
CHEMSPACE-BB:CSMB00015068008

$$$$

     RDKit          3D

 23 24  0  0  0  0  0  0  0  0999 V2000
  -12.7440    2.5450  -73.9410 O   0  0  0  0  0  0  0  0  0  0  0  0
  -13.0900    2.7770  -75.1000 C   0  0  0  0  0  0  0  0  0  0  0  0
  -13.9540    4.0170  -75.4440 C   0  0  0  0  0  0  0  0  0  0  0  0
  -12.7320    1.9250  -76.1600 N   0  0  0  0  0  0  0  0  0  0  0  0
  -13.2200    5.0280  -76.1480 O   0  0  0  0  0  0  0  0  0  0  0  0
  -11.4920    2.1180  -76.8390 N   0  0  0  0  0  0  0  0  0  0  0  0
  -11.9670    4.6180  -76.4550 C   0  0  0  0  0  0  0  0  0  0  0  0
  -10.4140    1.2310  -76.6580 C   0  0  0  0  0  0  0  0  0  0  0  0
  -11.1340    4.0000  -75.5410 C   0  0  0  0  0  0  0  0  0  0  0  0
  -11.5260    4.8290  -77.7690 C   0  0  0  0  0  0  0  0  0  0  0  0
   -9.4760    1.4340  -75.8910 O   0  0  0  0  0  0  0  0  0  0  0  0
  -10.4290   -0.0400  -77.4950 C   0  0  0  0  0  0  0  0  0  0  0  0
   -9.8690    3.5760  -75.9270 C   0  0  0  0  0  0  0  0  0  0  0  0
  -10.2480    4.3990  -78.1490 C   0  0  0  0  0  0  0  0  0  0  0  0
   -9.1360   -0.2140  -78.0840 O   0  0  0  0  0  0  0  0  0  0  0  0
   -9.4270    3.7700  -77.2240 C   0  0  0  0  0  0  0  0  0  0  0  0
   -8.9510    0.2700  -79.3480 C   0  0  0  0  0  0  0  0  0  0  0  0
   -9.4110   -0.5890  -80.3410 C   0  0  0  0  0  0  0  0  0  0  0  0
   -8.3730    1.4900  -79.7150 C   0  0  0  0  0  0  0  0  0  0  0  0
   -9.3050   -0.2480  -81.6820 C   0  0  0  0  0  0  0  0  0  0  0  0
   -8.2770    1.8160  -81.0670 C   0  0  0  0  0  0  0  0  0  0  0  0
   -8.7360    0.9640  -82.0520 C   0  0  0  0  0  0  0  0  0  0  0  0
   -7.7280    2.9770  -81.4170 F   0  0  0  0  0  0  0  0  0  0  0  0
  1  2  2  0
  2  3  1  0
  2  4  1  0
  3  5  1  0
  4  6  1  0
  5  7  1  0
  6  8  1  0
  7  9  2  0
  7 10  1  0
  8 11  2  0
  8 12  1  0
  9 13  1  0
 10 14  2  0
 12 15  1  0
 13 16  2  0
 14 16  1  0
 15 17  1  0
 17 18  2  0
 17 19  1  0
 18 20  1  0
 19 21  2  0
 20 22  2  0
 21 22  1  0
 21 23  1  0
M  END
>  <ref_url>  (1024) 
https://fakepage.com

>  <submitter_name>  (1024) 
Steph Wills

>  <submitter_email>  (1024) 
stephanie.wills@dtc.ox.ac.uk

>  <submitter_institution>  (1024) 
University of Oxford

>  <generation_date>  (1024) 
2020-06-04

>  <method>  (1024) 
Fragment network

>  <ref_mols>  (1024) 
x0212_0B,x0438_0B

>  <ref_pdb>  (1024) 
references/x0212-0B-x0438-0B-133141.holo_minimised_nolig.pdb

>  <original SMILES>  (1024) 
O=C(COc1ccccc1)NNC(=O)COc1cccc(F)c1

>  <synthon>  (1024) 
[Xe]c1ccccc1

>  <original_name>  (1024) 
x0212-0B-x0438-0B-133141

>  <comRMSD_score>  (1024) 
0.857743631821907

>  <IF_score>  (1024) 
0.3095238095238095

>  <SuCOS_score>  (1024) 
0.4298207549419439

>  <compound_ID>  (1024) 
MOLPORT:005-574-319

$$$$

     RDKit          3D

 21 22  0  0  0  0  0  0  0  0999 V2000
   -6.1430    1.4380  -77.5260 C   0  0  0  0  0  0  0  0  0  0  0  0
   -7.1150    0.5820  -76.7040 C   0  0  1  0  0  0  0  0  0  0  0  0
   -8.5140    1.2440  -76.6090 C   0  0  0  0  0  0  0  0  0  0  0  0
   -7.2410   -0.7510  -77.2900 N   0  0  0  0  0  0  0  0  0  0  0  0
   -8.5030    2.6180  -77.1570 N   0  0  0  0  0  0  0  0  0  0  0  0
   -7.1760   -0.8430  -78.6440 C   0  0  0  0  0  0  0  0  0  0  0  0
   -9.6630    3.3870  -77.0670 C   0  0  0  0  0  0  0  0  0  0  0  0
   -6.2230   -0.3740  -79.2890 O   0  0  0  0  0  0  0  0  0  0  0  0
   -8.3810   -1.4130  -79.3670 C   0  0  0  0  0  0  0  0  0  0  0  0
  -10.0870    4.3280  -78.0100 C   0  0  0  0  0  0  0  0  0  0  0  0
  -10.4670    3.2000  -75.9460 C   0  0  0  0  0  0  0  0  0  0  0  0
   -8.5170   -0.2500  -80.2520 C   0  0  0  0  0  0  0  0  0  0  0  0
  -11.2700    5.0550  -77.8230 C   0  0  0  0  0  0  0  0  0  0  0  0
  -11.6430    3.9240  -75.7670 C   0  0  0  0  0  0  0  0  0  0  0  0
   -9.0420   -0.1730  -81.5350 C   0  0  0  0  0  0  0  0  0  0  0  0
   -7.9960    0.8710  -79.6290 C   0  0  0  0  0  0  0  0  0  0  0  0
  -12.0480    4.8570  -76.7000 C   0  0  0  0  0  0  0  0  0  0  0  0
   -9.0000    1.0730  -82.1530 C   0  0  0  0  0  0  0  0  0  0  0  0
   -7.9570    2.0760  -80.2370 C   0  0  0  0  0  0  0  0  0  0  0  0
   -8.4570    2.1630  -81.4990 C   0  0  0  0  0  0  0  0  0  0  0  0
   -8.4170    3.3300  -82.0960 F   0  0  0  0  0  0  0  0  0  0  0  0
  2  1  1  6
  2  3  1  0
  2  4  1  0
  3  5  1  0
  4  6  1  0
  5  7  1  0
  6  8  2  0
  6  9  1  0
  7 10  2  0
  7 11  1  0
  9 12  1  0
 10 13  1  0
 11 14  2  0
 12 15  2  0
 12 16  1  0
 13 17  2  0
 14 17  1  0
 15 18  1  0
 16 19  2  0
 18 20  2  0
 19 20  1  0
 20 21  1  0
M  END
>  <ref_url>  (1025) 
https://fakepage.com

>  <submitter_name>  (1025) 
Steph Wills

>  <submitter_email>  (1025) 
stephanie.wills@dtc.ox.ac.uk

>  <submitter_institution>  (1025) 
University of Oxford

>  <generation_date>  (1025) 
2020-06-04

>  <method>  (1025) 
Fragment network

>  <ref_mols>  (1025) 
x0212_0B,x0438_0B

>  <ref_pdb>  (1025) 
references/x0212-0B-x0438-0B-142201.holo_minimised_nolig.pdb

>  <original SMILES>  (1025) 
CC(CNc1ccccc1)NC(=O)Cc1ccc(F)cc1

>  <synthon>  (1025) 
[Xe]c1ccccc1

>  <original_name>  (1025) 
x0212-0B-x0438-0B-142201

>  <comRMSD_score>  (1025) 
0.862213611873531

>  <IF_score>  (1025) 
0.5476190476190476

>  <SuCOS_score>  (1025) 
0.5043734463918659

>  <compound_ID>  (1025) 
REAL:Z1410866312

$$$$

     RDKit          3D

 29 31  0  0  0  0  0  0  0  0999 V2000
   -9.7770    0.3290  -78.3850 C   0  0  0  0  0  0  0  0  0  0  0  0
   -9.3400   -1.0730  -78.0220 N   0  0  0  0  0  0  0  0  0  0  0  0
   -8.0880   -1.0820  -77.1680 C   0  0  0  0  0  0  0  0  0  0  0  0
   -9.1620   -1.9770  -79.4750 S   0  0  0  0  0  0  0  0  0  0  0  0
   -6.9760   -0.1470  -77.7030 C   0  0  0  0  0  0  0  0  0  0  0  0
   -7.9350   -2.7480  -79.4160 O   0  0  0  0  0  0  0  0  0  0  0  0
  -10.4330   -2.5280  -79.8880 O   0  0  0  0  0  0  0  0  0  0  0  0
   -8.8950   -0.4840  -80.3660 C   0  0  0  0  0  0  0  0  0  0  0  0
   -7.0850    1.2830  -77.1860 C   0  0  0  0  0  0  0  0  0  0  0  0
   -7.8800    0.3340  -79.8950 C   0  0  0  0  0  0  0  0  0  0  0  0
   -9.6740   -0.1290  -81.4660 C   0  0  0  0  0  0  0  0  0  0  0  0
   -8.4940    1.6610  -76.7760 C   0  0  0  0  0  0  0  0  0  0  0  0
   -7.6240    1.5390  -80.5000 C   0  0  0  0  0  0  0  0  0  0  0  0
   -9.4040    1.0900  -82.0720 C   0  0  0  0  0  0  0  0  0  0  0  0
   -9.1900    0.9380  -76.0790 O   0  0  0  0  0  0  0  0  0  0  0  0
   -8.8850    2.8920  -77.2720 N   0  0  0  0  0  0  0  0  0  0  0  0
   -8.3940    1.8990  -81.5750 C   0  0  0  0  0  0  0  0  0  0  0  0
   -9.9770    3.5440  -76.7310 C   0  0  0  0  0  0  0  0  0  0  0  0
   -8.1500    3.0610  -82.1350 F   0  0  0  0  0  0  0  0  0  0  0  0
  -10.6660    3.2730  -75.5470 C   0  0  0  0  0  0  0  0  0  0  0  0
  -10.6360    4.6400  -77.2680 C   0  0  0  0  0  0  0  0  0  0  0  0
  -11.6640    4.1210  -75.3330 N   0  0  0  0  0  0  0  0  0  0  0  0
  -11.6560    4.9740  -76.3800 N   0  0  0  0  0  0  0  0  0  0  0  0
  -12.6440    6.0200  -76.3920 C   0  0  0  0  0  0  0  0  0  0  0  0
  -13.9950    5.7030  -76.4820 C   0  0  0  0  0  0  0  0  0  0  0  0
  -12.2880    7.3780  -76.2970 C   0  0  0  0  0  0  0  0  0  0  0  0
  -14.9710    6.7030  -76.4850 C   0  0  0  0  0  0  0  0  0  0  0  0
  -13.2610    8.3750  -76.2950 C   0  0  0  0  0  0  0  0  0  0  0  0
  -14.6050    8.0360  -76.3900 C   0  0  0  0  0  0  0  0  0  0  0  0
  1  2  1  0
  2  3  1  0
  4  2  1  0
  3  5  1  0
  4  6  2  0
  4  7  2  0
  4  8  1  0
  5  9  1  0
  8 10  2  0
  8 11  1  0
  9 12  1  0
 10 13  1  0
 11 14  2  0
 12 15  2  0
 12 16  1  0
 13 17  2  0
 14 17  1  0
 16 18  1  0
 17 19  1  0
 18 20  1  0
 18 21  2  0
 20 22  2  0
 21 23  1  0
 22 23  1  0
 23 24  1  0
 24 25  2  0
 24 26  1  0
 25 27  1  0
 26 28  2  0
 27 29  2  0
 28 29  1  0
M  END
>  <ref_url>  (1026) 
https://fakepage.com

>  <submitter_name>  (1026) 
Steph Wills

>  <submitter_email>  (1026) 
stephanie.wills@dtc.ox.ac.uk

>  <submitter_institution>  (1026) 
University of Oxford

>  <generation_date>  (1026) 
2020-06-04

>  <method>  (1026) 
Fragment network

>  <ref_mols>  (1026) 
x0212_0B,x0438_0B

>  <ref_pdb>  (1026) 
references/x0212-0B-x0438-0B-162451.holo_minimised_nolig.pdb

>  <original SMILES>  (1026) 
CN(CCCC(=O)Nc1cnn(-c2ccccc2)c1)S(=O)(=O)c1ccc(F)cc1

>  <synthon>  (1026) 
[Xe]c1ccccc1

>  <original_name>  (1026) 
x0212-0B-x0438-0B-162451

>  <comRMSD_score>  (1026) 
0.921168415654814

>  <IF_score>  (1026) 
0.5714285714285714

>  <SuCOS_score>  (1026) 
0.5363513339566538

>  <compound_ID>  (1026) 
MOLPORT:009-107-390

$$$$

     RDKit          3D

 18 19  0  0  0  0  0  0  0  0999 V2000
   -7.8400    2.2830  -81.3150 C   0  0  0  0  0  0  0  0  0  0  0  0
   -6.9040    1.3690  -80.6810 N   0  0  0  0  0  0  0  0  0  0  0  0
   -6.2240    1.8380  -79.4710 C   0  0  0  0  0  0  0  0  0  0  0  0
   -6.5880    0.1770  -81.3470 C   0  0  0  0  0  0  0  0  0  0  0  0
   -7.1970    2.1240  -78.3260 C   0  0  0  0  0  0  0  0  0  0  0  0
   -5.4690   -0.3390  -81.2110 O   0  0  0  0  0  0  0  0  0  0  0  0
   -7.6730   -0.4570  -82.2450 C   0  0  0  0  0  0  0  0  0  0  0  0
   -8.0140    3.2090  -78.7510 O   0  0  0  0  0  0  0  0  0  0  0  0
   -7.8830   -1.9890  -82.1300 C   0  0  0  0  0  0  0  0  0  0  0  0
   -9.1480   -0.3590  -81.7770 C   0  0  0  0  0  0  0  0  0  0  0  0
   -9.0980    3.5830  -78.0060 C   0  0  0  0  0  0  0  0  0  0  0  0
   -9.3480   -1.7730  -82.1640 N   0  0  0  0  0  0  0  0  0  0  0  0
  -10.0800    4.4780  -78.4290 C   0  0  0  0  0  0  0  0  0  0  0  0
   -9.2140    3.0210  -76.7310 C   0  0  0  0  0  0  0  0  0  0  0  0
  -11.1550    4.8050  -77.5970 C   0  0  0  0  0  0  0  0  0  0  0  0
  -10.2840    3.3350  -75.8970 C   0  0  0  0  0  0  0  0  0  0  0  0
   -8.2860    2.1590  -76.2900 F   0  0  0  0  0  0  0  0  0  0  0  0
  -11.2610    4.2310  -76.3310 C   0  0  0  0  0  0  0  0  0  0  0  0
  1  2  1  0
  2  3  1  0
  2  4  1  0
  3  5  1  0
  4  6  2  0
  4  7  1  0
  5  8  1  0
  7  9  1  0
  7 10  1  0
  8 11  1  0
  9 12  1  0
 10 12  1  0
 11 13  2  0
 11 14  1  0
 13 15  1  0
 14 16  2  0
 14 17  1  0
 15 18  2  0
 16 18  1  0
M  END
>  <ref_url>  (1027) 
https://fakepage.com

>  <submitter_name>  (1027) 
Steph Wills

>  <submitter_email>  (1027) 
stephanie.wills@dtc.ox.ac.uk

>  <submitter_institution>  (1027) 
University of Oxford

>  <generation_date>  (1027) 
2020-06-04

>  <method>  (1027) 
Fragment network

>  <ref_mols>  (1027) 
x0276_0B,x0311_0B

>  <ref_pdb>  (1027) 
references/x0276-0B-x0311-0B-1501.holo_minimised_nolig.pdb

>  <original SMILES>  (1027) 
CN(CCOc1ccccc1F)C(=O)C1CNC1

>  <synthon>  (1027) 
[Xe]C1CNC1

>  <original_name>  (1027) 
x0276-0B-x0311-0B-1501

>  <comRMSD_score>  (1027) 
0.7841272483893574

>  <IF_score>  (1027) 
0.2909090909090909

>  <SuCOS_score>  (1027) 
0.3178284075571854

>  <compound_ID>  (1027) 
CHEMSPACE-BB:CSMB00003695813

$$$$

     RDKit          3D

 17 19  0  0  0  0  0  0  0  0999 V2000
   -8.4580    2.1340  -76.3050 F   0  0  0  0  0  0  0  0  0  0  0  0
   -9.3650    3.0300  -76.7170 C   0  0  0  0  0  0  0  0  0  0  0  0
  -10.4240    3.3550  -75.8780 C   0  0  0  0  0  0  0  0  0  0  0  0
   -9.2540    3.6280  -77.9720 C   0  0  0  0  0  0  0  0  0  0  0  0
  -11.3760    4.2860  -76.2990 C   0  0  0  0  0  0  0  0  0  0  0  0
  -10.1970    4.5560  -78.3900 C   0  0  0  0  0  0  0  0  0  0  0  0
   -8.2290    3.3280  -78.8250 O   0  0  0  0  0  0  0  0  0  0  0  0
  -11.2590    4.8880  -77.5540 C   0  0  0  0  0  0  0  0  0  0  0  0
   -8.3460    2.2620  -79.6330 C   0  0  0  0  0  0  0  0  0  0  0  0
   -8.7700    0.9550  -79.3540 C   0  0  0  0  0  0  0  0  0  0  0  0
   -8.0470    2.2760  -80.9740 C   0  0  0  0  0  0  0  0  0  0  0  0
   -8.7420    0.1750  -80.4290 N   0  0  0  0  0  0  0  0  0  0  0  0
   -8.2930    0.9950  -81.4020 N   0  0  0  0  0  0  0  0  0  0  0  0
   -8.0900    0.5070  -82.7700 C   0  0  0  0  0  0  0  0  0  0  0  0
   -8.2730   -1.0140  -82.8840 C   0  0  0  0  0  0  0  0  0  0  0  0
   -6.6200    0.1550  -83.0600 C   0  0  0  0  0  0  0  0  0  0  0  0
   -6.8610   -1.1830  -82.4930 N   0  0  0  0  0  0  0  0  0  0  0  0
  1  2  1  0
  2  3  2  0
  2  4  1  0
  3  5  1  0
  4  6  2  0
  4  7  1  0
  5  8  2  0
  6  8  1  0
  7  9  1  0
  9 10  1  0
  9 11  2  0
 10 12  2  0
 11 13  1  0
 12 13  1  0
 13 14  1  0
 14 15  1  0
 14 16  1  0
 15 17  1  0
 16 17  1  0
M  END
>  <ref_url>  (1028) 
https://fakepage.com

>  <submitter_name>  (1028) 
Steph Wills

>  <submitter_email>  (1028) 
stephanie.wills@dtc.ox.ac.uk

>  <submitter_institution>  (1028) 
University of Oxford

>  <generation_date>  (1028) 
2020-06-04

>  <method>  (1028) 
Fragment network

>  <ref_mols>  (1028) 
x0276_0B,x0311_0B

>  <ref_pdb>  (1028) 
references/x0276-0B-x0311-0B-1954.holo_minimised_nolig.pdb

>  <original SMILES>  (1028) 
Fc1ccccc1Oc1cnn(C2CNC2)c1

>  <synthon>  (1028) 
[Xe]C1CNC1

>  <original_name>  (1028) 
x0276-0B-x0311-0B-1954

>  <comRMSD_score>  (1028) 
0.8473523726751823

>  <IF_score>  (1028) 
0.3111111111111111

>  <SuCOS_score>  (1028) 
0.3156446207712133

>  <compound_ID>  (1028) 
CHEMSPACE-BB:CSMB00133329791

$$$$

     RDKit          3D

 16 17  0  0  0  0  0  0  0  0999 V2000
  -13.4070    5.6040  -75.8680 C   0  0  0  0  0  0  0  0  0  0  0  0
  -12.4990    5.6310  -77.3750 S   0  0  0  0  0  0  0  0  0  0  0  0
  -13.3490    5.1290  -78.4360 O   0  0  0  0  0  0  0  0  0  0  0  0
  -11.9050    6.9470  -77.4210 O   0  0  0  0  0  0  0  0  0  0  0  0
  -11.2050    4.4490  -77.0880 C   0  0  0  0  0  0  0  0  0  0  0  0
  -11.2980    3.6080  -75.9810 C   0  0  0  0  0  0  0  0  0  0  0  0
  -10.1150    4.3710  -77.9640 C   0  0  0  0  0  0  0  0  0  0  0  0
  -10.2950    2.6760  -75.7530 C   0  0  0  0  0  0  0  0  0  0  0  0
   -9.0940    3.4360  -77.7460 C   0  0  0  0  0  0  0  0  0  0  0  0
   -9.2180    2.5980  -76.6260 C   0  0  0  0  0  0  0  0  0  0  0  0
   -7.9700    3.3220  -78.6210 N   0  0  0  0  0  0  0  0  0  0  0  0
   -8.2760    1.6850  -76.3750 F   0  0  0  0  0  0  0  0  0  0  0  0
   -6.5910    3.6020  -78.3390 C   0  0  0  0  0  0  0  0  0  0  0  0
   -6.1380    3.5610  -76.8640 C   0  0  0  0  0  0  0  0  0  0  0  0
   -5.6250    2.4000  -78.4710 C   0  0  0  0  0  0  0  0  0  0  0  0
   -4.8460    3.0460  -77.3890 N   0  0  0  0  0  0  0  0  0  0  0  0
  2  1  1  0
  2  3  2  0
  2  4  2  0
  2  5  1  0
  5  6  2  0
  5  7  1  0
  6  8  1  0
  7  9  2  0
  8 10  2  0
  9 10  1  0
  9 11  1  0
 10 12  1  0
 11 13  1  0
 13 14  1  0
 13 15  1  0
 14 16  1  0
 15 16  1  0
M  END
>  <ref_url>  (1029) 
https://fakepage.com

>  <submitter_name>  (1029) 
Steph Wills

>  <submitter_email>  (1029) 
stephanie.wills@dtc.ox.ac.uk

>  <submitter_institution>  (1029) 
University of Oxford

>  <generation_date>  (1029) 
2020-06-04

>  <method>  (1029) 
Fragment network

>  <ref_mols>  (1029) 
x0276_0B,x0311_0B

>  <ref_pdb>  (1029) 
references/x0276-0B-x0311-0B-2167.holo_minimised_nolig.pdb

>  <original SMILES>  (1029) 
CS(=O)(=O)c1ccc(F)c(NC2CNC2)c1

>  <synthon>  (1029) 
[Xe]C1CNC1

>  <original_name>  (1029) 
x0276-0B-x0311-0B-2167

>  <comRMSD_score>  (1029) 
0.565937928690449

>  <IF_score>  (1029) 
0.2053571428571428

>  <SuCOS_score>  (1029) 
0.3808637860193301

>  <compound_ID>  (1029) 
CHEMSPACE-BB:CSMB00006026882

$$$$

     RDKit          3D

 16 17  0  0  0  0  0  0  0  0999 V2000
  -12.4140    5.4570  -77.8020 C   0  0  0  0  0  0  0  0  0  0  0  0
  -11.2690    4.5760  -77.4150 C   0  0  0  0  0  0  0  0  0  0  0  0
  -11.2940    3.9570  -76.1680 C   0  0  0  0  0  0  0  0  0  0  0  0
  -10.1710    4.3610  -78.2740 C   0  0  0  0  0  0  0  0  0  0  0  0
  -10.2490    3.1350  -75.7660 C   0  0  0  0  0  0  0  0  0  0  0  0
   -9.1210    3.5330  -77.8680 C   0  0  0  0  0  0  0  0  0  0  0  0
   -9.1700    2.9320  -76.6200 C   0  0  0  0  0  0  0  0  0  0  0  0
   -7.9800    3.2760  -78.6950 C   0  0  0  0  0  0  0  0  0  0  0  0
   -8.1650    2.1390  -76.2280 F   0  0  0  0  0  0  0  0  0  0  0  0
   -6.9830    3.0030  -79.3060 C   0  0  0  0  0  0  0  0  0  0  0  0
   -5.7260    2.6340  -79.9640 C   0  0  0  0  0  0  0  0  0  0  0  0
   -5.9810    1.8710  -81.1400 O   0  0  0  0  0  0  0  0  0  0  0  0
   -5.0740    0.7600  -81.3560 C   0  0  0  0  0  0  0  0  0  0  0  0
   -3.5590    1.0540  -81.4150 C   0  0  0  0  0  0  0  0  0  0  0  0
   -4.8640    0.2890  -82.8120 C   0  0  0  0  0  0  0  0  0  0  0  0
   -3.4470    0.0490  -82.4860 N   0  0  0  0  0  0  0  0  0  0  0  0
  1  2  1  0
  2  3  2  0
  2  4  1  0
  3  5  1  0
  4  6  2  0
  5  7  2  0
  6  7  1  0
  6  8  1  0
  7  9  1  0
  8 10  3  0
 10 11  1  0
 11 12  1  0
 12 13  1  0
 13 14  1  0
 13 15  1  0
 14 16  1  0
 15 16  1  0
M  END
>  <ref_url>  (1030) 
https://fakepage.com

>  <submitter_name>  (1030) 
Steph Wills

>  <submitter_email>  (1030) 
stephanie.wills@dtc.ox.ac.uk

>  <submitter_institution>  (1030) 
University of Oxford

>  <generation_date>  (1030) 
2020-06-04

>  <method>  (1030) 
Fragment network

>  <ref_mols>  (1030) 
x0276_0B,x0311_0B

>  <ref_pdb>  (1030) 
references/x0276-0B-x0311-0B-2606.holo_minimised_nolig.pdb

>  <original SMILES>  (1030) 
Cc1ccc(F)c(C#CCOC2CNC2)c1

>  <synthon>  (1030) 
[Xe]C1CNC1

>  <original_name>  (1030) 
x0276-0B-x0311-0B-2606

>  <comRMSD_score>  (1030) 
0.8326932524234714

>  <IF_score>  (1030) 
0.3111111111111111

>  <SuCOS_score>  (1030) 
0.3646163730974731

>  <compound_ID>  (1030) 
CHEMSPACE-BB:CSMB00123117946

$$$$

     RDKit          3D

 17 18  0  0  0  0  0  0  0  0999 V2000
   -9.4430    0.5720  -81.5900 C   0  0  0  0  0  0  0  0  0  0  0  0
   -8.3000   -0.2910  -81.0960 C   0  0  0  0  0  0  0  0  0  0  0  0
   -7.0220    0.4280  -80.9720 N   0  0  0  0  0  0  0  0  0  0  0  0
   -7.1820    1.8830  -81.2310 C   0  0  0  0  0  0  0  0  0  0  0  0
   -5.9310   -0.0350  -81.8820 C   0  0  0  0  0  0  0  0  0  0  0  0
   -8.2260    2.6020  -80.3690 C   0  0  0  0  0  0  0  0  0  0  0  0
   -4.5890    0.7070  -81.7790 C   0  0  0  0  0  0  0  0  0  0  0  0
   -5.1570   -1.2640  -81.3900 C   0  0  0  0  0  0  0  0  0  0  0  0
   -7.5880    3.0850  -78.7300 S   0  0  0  0  0  0  0  0  0  0  0  0
   -3.8840   -0.5970  -81.7410 N   0  0  0  0  0  0  0  0  0  0  0  0
   -9.0750    3.5230  -77.8430 C   0  0  0  0  0  0  0  0  0  0  0  0
   -9.9720    4.4600  -78.3620 C   0  0  0  0  0  0  0  0  0  0  0  0
   -9.3570    2.9390  -76.6090 C   0  0  0  0  0  0  0  0  0  0  0  0
  -11.1250    4.8060  -77.6490 C   0  0  0  0  0  0  0  0  0  0  0  0
  -10.5000    3.2740  -75.8940 C   0  0  0  0  0  0  0  0  0  0  0  0
   -8.5210    2.0370  -76.0850 F   0  0  0  0  0  0  0  0  0  0  0  0
  -11.3890    4.2120  -76.4150 C   0  0  0  0  0  0  0  0  0  0  0  0
  1  2  1  0
  2  3  1  0
  3  4  1  0
  3  5  1  0
  4  6  1  0
  5  7  1  0
  5  8  1  0
  6  9  1  0
  7 10  1  0
  8 10  1  0
  9 11  1  0
 11 12  2  0
 11 13  1  0
 12 14  1  0
 13 15  2  0
 13 16  1  0
 14 17  2  0
 15 17  1  0
M  END
>  <ref_url>  (1031) 
https://fakepage.com

>  <submitter_name>  (1031) 
Steph Wills

>  <submitter_email>  (1031) 
stephanie.wills@dtc.ox.ac.uk

>  <submitter_institution>  (1031) 
University of Oxford

>  <generation_date>  (1031) 
2020-06-04

>  <method>  (1031) 
Fragment network

>  <ref_mols>  (1031) 
x0276_0B,x0311_0B

>  <ref_pdb>  (1031) 
references/x0276-0B-x0311-0B-3753.holo_minimised_nolig.pdb

>  <original SMILES>  (1031) 
CCN(CCSc1ccccc1F)C1CNC1

>  <synthon>  (1031) 
[Xe]C1CNC1

>  <original_name>  (1031) 
x0276-0B-x0311-0B-3753

>  <comRMSD_score>  (1031) 
0.9223394739807902

>  <IF_score>  (1031) 
0.45

>  <SuCOS_score>  (1031) 
0.3595437021743866

>  <compound_ID>  (1031) 
CHEMSPACE-BB:CSMB00008345077

$$$$

     RDKit          3D

 16 17  0  0  0  0  0  0  0  0999 V2000
  -12.7760    6.7930  -75.3450 C   0  0  0  0  0  0  0  0  0  0  0  0
  -13.2540    5.7340  -76.3080 C   0  0  0  0  0  0  0  0  0  0  0  0
  -14.3810    5.2660  -76.2040 O   0  0  0  0  0  0  0  0  0  0  0  0
  -12.3010    5.3890  -77.2510 N   0  0  0  0  0  0  0  0  0  0  0  0
  -11.2690    4.4560  -77.0210 C   0  0  0  0  0  0  0  0  0  0  0  0
  -11.3020    3.5990  -75.9310 C   0  0  0  0  0  0  0  0  0  0  0  0
  -10.1790    4.3840  -77.9170 C   0  0  0  0  0  0  0  0  0  0  0  0
  -10.2840    2.6780  -75.7250 C   0  0  0  0  0  0  0  0  0  0  0  0
   -9.1310    3.4570  -77.7260 C   0  0  0  0  0  0  0  0  0  0  0  0
   -9.2210    2.6140  -76.6130 C   0  0  0  0  0  0  0  0  0  0  0  0
   -8.0190    3.3610  -78.6260 N   0  0  0  0  0  0  0  0  0  0  0  0
   -8.2660    1.7100  -76.3850 F   0  0  0  0  0  0  0  0  0  0  0  0
   -6.6260    3.6090  -78.3630 C   0  0  0  0  0  0  0  0  0  0  0  0
   -6.1890    3.6410  -76.8890 C   0  0  0  0  0  0  0  0  0  0  0  0
   -5.6800    2.3970  -78.4320 C   0  0  0  0  0  0  0  0  0  0  0  0
   -4.9010    3.0670  -77.3580 N   0  0  0  0  0  0  0  0  0  0  0  0
  1  2  1  0
  2  3  2  0
  2  4  1  0
  4  5  1  0
  5  6  2  0
  5  7  1  0
  6  8  1  0
  7  9  2  0
  8 10  2  0
  9 10  1  0
  9 11  1  0
 10 12  1  0
 11 13  1  0
 13 14  1  0
 13 15  1  0
 14 16  1  0
 15 16  1  0
M  END
>  <ref_url>  (1032) 
https://fakepage.com

>  <submitter_name>  (1032) 
Steph Wills

>  <submitter_email>  (1032) 
stephanie.wills@dtc.ox.ac.uk

>  <submitter_institution>  (1032) 
University of Oxford

>  <generation_date>  (1032) 
2020-06-04

>  <method>  (1032) 
Fragment network

>  <ref_mols>  (1032) 
x0276_0B,x0311_0B

>  <ref_pdb>  (1032) 
references/x0276-0B-x0311-0B-3854.holo_minimised_nolig.pdb

>  <original SMILES>  (1032) 
CC(=O)Nc1ccc(F)c(NC2CNC2)c1

>  <synthon>  (1032) 
[Xe]C1CNC1

>  <original_name>  (1032) 
x0276-0B-x0311-0B-3854

>  <comRMSD_score>  (1032) 
0.5888279318555916

>  <IF_score>  (1032) 
0.2053571428571428

>  <SuCOS_score>  (1032) 
0.3550939624517313

>  <compound_ID>  (1032) 
CHEMSPACE-BB:CSMB00006026816

$$$$

     RDKit          3D

 20 21  0  0  0  0  0  0  0  0999 V2000
  -12.8430    4.8840  -73.6390 C   0  0  0  0  0  0  0  0  0  0  0  0
  -12.7310    6.3230  -74.1480 C   0  0  0  0  0  0  0  0  0  0  0  0
  -14.0950    7.0120  -74.0990 C   0  0  0  0  0  0  0  0  0  0  0  0
  -11.7980    7.0980  -73.2520 C   0  0  0  0  0  0  0  0  0  0  0  0
  -12.3640    6.4140  -75.5420 O   0  0  0  0  0  0  0  0  0  0  0  0
  -13.1610    5.9310  -76.5300 C   0  0  0  0  0  0  0  0  0  0  0  0
  -14.3750    6.0280  -76.5760 O   0  0  0  0  0  0  0  0  0  0  0  0
  -12.3300    5.3360  -77.4310 N   0  0  0  0  0  0  0  0  0  0  0  0
  -11.3290    4.4100  -77.1280 C   0  0  0  0  0  0  0  0  0  0  0  0
  -11.4490    3.5650  -76.0320 C   0  0  0  0  0  0  0  0  0  0  0  0
  -10.1830    4.3290  -77.9470 C   0  0  0  0  0  0  0  0  0  0  0  0
  -10.4550    2.6460  -75.7420 C   0  0  0  0  0  0  0  0  0  0  0  0
   -9.1650    3.4000  -77.6680 C   0  0  0  0  0  0  0  0  0  0  0  0
   -9.3380    2.5710  -76.5540 C   0  0  0  0  0  0  0  0  0  0  0  0
   -7.9750    3.2340  -78.4350 N   0  0  0  0  0  0  0  0  0  0  0  0
   -8.3970    1.6720  -76.2560 F   0  0  0  0  0  0  0  0  0  0  0  0
   -6.7470    2.6470  -77.9630 C   0  0  0  0  0  0  0  0  0  0  0  0
   -5.5260    2.8710  -78.8880 C   0  0  0  0  0  0  0  0  0  0  0  0
   -5.9540    3.5430  -76.9840 C   0  0  0  0  0  0  0  0  0  0  0  0
   -4.7170    3.0850  -77.6600 N   0  0  0  0  0  0  0  0  0  0  0  0
  1  2  1  0
  2  3  1  0
  2  4  1  0
  2  5  1  0
  5  6  1  0
  6  7  2  0
  6  8  1  0
  8  9  1  0
  9 10  2  0
  9 11  1  0
 10 12  1  0
 11 13  2  0
 12 14  2  0
 13 14  1  0
 13 15  1  0
 14 16  1  0
 15 17  1  0
 17 18  1  0
 17 19  1  0
 18 20  1  0
 19 20  1  0
M  END
>  <ref_url>  (1033) 
https://fakepage.com

>  <submitter_name>  (1033) 
Steph Wills

>  <submitter_email>  (1033) 
stephanie.wills@dtc.ox.ac.uk

>  <submitter_institution>  (1033) 
University of Oxford

>  <generation_date>  (1033) 
2020-06-04

>  <method>  (1033) 
Fragment network

>  <ref_mols>  (1033) 
x0276_0B,x0311_0B

>  <ref_pdb>  (1033) 
references/x0276-0B-x0311-0B-3971.holo_minimised_nolig.pdb

>  <original SMILES>  (1033) 
CC(C)(C)OC(=O)Nc1ccc(F)c(NC2CNC2)c1

>  <synthon>  (1033) 
[Xe]C1CNC1

>  <original_name>  (1033) 
x0276-0B-x0311-0B-3971

>  <comRMSD_score>  (1033) 
0.5737801230694823

>  <IF_score>  (1033) 
0.2291666666666666

>  <SuCOS_score>  (1033) 
0.4143879702573453

>  <compound_ID>  (1033) 
CHEMSPACE-BB:CSMB00014198909

$$$$

     RDKit          3D

 26 27  0  0  0  0  0  0  0  0999 V2000
   -6.5630   -0.8090  -78.9570 O   0  0  0  0  0  0  0  0  0  0  0  0
   -6.7070   -0.5000  -77.7810 C   0  0  0  0  0  0  0  0  0  0  0  0
   -7.7940   -1.0660  -76.8940 C   0  0  0  0  0  0  0  0  0  0  0  0
   -5.9290    0.3870  -77.0970 O   0  0  0  0  0  0  0  0  0  0  0  0
   -8.6540    0.0690  -76.3700 C   0  0  0  0  0  0  0  0  0  0  0  0
   -5.4050    1.5150  -77.8140 C   0  0  0  0  0  0  0  0  0  0  0  0
   -9.5950   -0.3620  -75.3300 N   0  0  0  0  0  0  0  0  0  0  0  0
   -6.5130    2.4460  -78.1560 C   0  0  0  0  0  0  0  0  0  0  0  0
  -11.1670    0.2390  -75.2740 S   0  0  0  0  0  0  0  0  0  0  0  0
   -6.3770    3.3390  -79.2080 C   0  0  0  0  0  0  0  0  0  0  0  0
   -7.6830    2.4200  -77.4230 C   0  0  0  0  0  0  0  0  0  0  0  0
  -11.5160    0.3730  -73.8810 O   0  0  0  0  0  0  0  0  0  0  0  0
  -11.9740   -0.5660  -76.1600 O   0  0  0  0  0  0  0  0  0  0  0  0
  -11.0390    1.8680  -75.9710 C   0  0  0  0  0  0  0  0  0  0  0  0
   -7.4140    4.1920  -79.5130 C   0  0  0  0  0  0  0  0  0  0  0  0
   -8.7260    3.2810  -77.7360 C   0  0  0  0  0  0  0  0  0  0  0  0
   -9.7930    2.4330  -76.1600 C   0  0  0  0  0  0  0  0  0  0  0  0
  -12.2060    2.5680  -76.3290 C   0  0  0  0  0  0  0  0  0  0  0  0
   -8.5930    4.1710  -78.7870 C   0  0  0  0  0  0  0  0  0  0  0  0
   -9.6990    3.6980  -76.7210 C   0  0  0  0  0  0  0  0  0  0  0  0
  -12.1090    3.8500  -76.8910 C   0  0  0  0  0  0  0  0  0  0  0  0
  -10.8480    4.4020  -77.0880 C   0  0  0  0  0  0  0  0  0  0  0  0
  -13.3410    4.6260  -77.2750 C   0  0  0  0  0  0  0  0  0  0  0  0
  -13.2160    5.9560  -76.9920 F   0  0  0  0  0  0  0  0  0  0  0  0
  -13.6300    4.5360  -78.6000 F   0  0  0  0  0  0  0  0  0  0  0  0
  -14.4630    4.2180  -76.6230 F   0  0  0  0  0  0  0  0  0  0  0  0
  1  2  2  0
  2  3  1  0
  2  4  1  0
  3  5  1  0
  4  6  1  0
  5  7  1  0
  6  8  1  0
  9  7  1  0
  8 10  2  0
  8 11  1  0
  9 12  2  0
  9 13  2  0
  9 14  1  0
 10 15  1  0
 11 16  2  0
 14 17  2  0
 14 18  1  0
 15 19  2  0
 16 19  1  0
 17 20  1  0
 18 21  2  0
 20 22  2  0
 21 22  1  0
 21 23  1  0
 23 24  1  0
 23 25  1  0
 23 26  1  0
M  END
>  <ref_url>  (1034) 
https://fakepage.com

>  <submitter_name>  (1034) 
Steph Wills

>  <submitter_email>  (1034) 
stephanie.wills@dtc.ox.ac.uk

>  <submitter_institution>  (1034) 
University of Oxford

>  <generation_date>  (1034) 
2020-06-04

>  <method>  (1034) 
Fragment network

>  <ref_mols>  (1034) 
x0176_0B,x0208_0A

>  <ref_pdb>  (1034) 
references/x0176-0B-x0208-0A-164699.holo_minimised_nolig.pdb

>  <original SMILES>  (1034) 
O=C(CCNS(=O)(=O)c1cccc(C(F)(F)F)c1)OCc1ccccc1

>  <synthon>  (1034) 
[Xe]c1ccccc1

>  <original_name>  (1034) 
x0176-0B-x0208-0A-164699

>  <comRMSD_score>  (1034) 
0.9954501722610464

>  <IF_score>  (1034) 
0.3333333333333333

>  <SuCOS_score>  (1034) 
0.3888668220954816

>  <compound_ID>  (1034) 
MOLPORT:006-026-733

$$$$

     RDKit          3D

 20 21  0  0  0  0  0  0  0  0999 V2000
  -12.9430    5.8530  -77.5310 C   0  0  0  0  0  0  0  0  0  0  0  0
  -13.4810    5.8140  -76.0890 C   0  0  2  0  0  0  0  0  0  0  0  0
  -12.9120    6.8890  -75.2560 N   0  0  0  0  0  0  0  0  0  0  0  0
  -12.9680    4.4590  -75.6160 C   0  0  0  0  0  0  0  0  0  0  0  0
  -12.4960    6.5000  -73.6670 S   0  0  0  0  0  0  0  0  0  0  0  0
  -13.5520    3.2680  -74.9380 N   0  0  0  0  0  0  0  0  0  0  0  0
  -11.6790    4.3220  -75.8920 O   0  0  0  0  0  0  0  0  0  0  0  0
  -13.7510    7.3580  -72.8370 C   0  0  0  0  0  0  0  0  0  0  0  0
  -12.6550    5.0790  -73.4520 O   0  0  0  0  0  0  0  0  0  0  0  0
  -11.2320    7.1650  -73.4020 O   0  0  0  0  0  0  0  0  0  0  0  0
  -12.5050    2.4120  -74.8380 N   0  0  0  0  0  0  0  0  0  0  0  0
  -11.4740    3.0430  -75.3870 C   0  0  0  0  0  0  0  0  0  0  0  0
  -10.1590    2.8110  -75.6370 C   0  0  0  0  0  0  0  0  0  0  0  0
  -10.1130    2.9950  -76.8490 O   0  0  0  0  0  0  0  0  0  0  0  0
   -8.9100    3.1090  -77.4840 C   0  0  0  0  0  0  0  0  0  0  0  0
   -7.7670    2.3510  -77.2160 C   0  0  0  0  0  0  0  0  0  0  0  0
   -8.8680    4.0830  -78.5120 C   0  0  0  0  0  0  0  0  0  0  0  0
   -6.5520    2.5720  -78.0030 C   0  0  0  0  0  0  0  0  0  0  0  0
   -7.7020    4.2770  -79.2620 C   0  0  0  0  0  0  0  0  0  0  0  0
   -6.5660    3.5320  -79.0060 C   0  0  0  0  0  0  0  0  0  0  0  0
  2  1  1  6
  2  3  1  0
  2  4  1  0
  5  3  1  0
  4  6  2  0
  4  7  1  0
  5  8  1  0
  5  9  2  0
  5 10  2  0
  6 11  1  0
  7 12  1  0
 11 12  2  0
 12 13  1  0
 13 14  1  0
 14 15  1  0
 15 16  2  0
 15 17  1  0
 16 18  1  0
 17 19  2  0
 18 20  2  0
 19 20  1  0
M  END
>  <ref_url>  (1035) 
https://fakepage.com

>  <submitter_name>  (1035) 
Steph Wills

>  <submitter_email>  (1035) 
stephanie.wills@dtc.ox.ac.uk

>  <submitter_institution>  (1035) 
University of Oxford

>  <generation_date>  (1035) 
2020-06-04

>  <method>  (1035) 
Fragment network

>  <ref_mols>  (1035) 
x0176_0B,x0208_0A

>  <ref_pdb>  (1035) 
references/x0176-0B-x0208-0A-211711.holo_minimised_nolig.pdb

>  <original SMILES>  (1035) 
CC(NS(C)(=O)=O)c1nnc(COc2ccccc2)o1

>  <synthon>  (1035) 
[Xe]c1ccccc1

>  <original_name>  (1035) 
x0176-0B-x0208-0A-211711

>  <comRMSD_score>  (1035) 
0.8901618504519272

>  <IF_score>  (1035) 
0.5

>  <SuCOS_score>  (1035) 
0.4487800551793708

>  <compound_ID>  (1035) 
REAL:Z1664726466

$$$$

     RDKit          3D

 28 29  0  0  0  0  0  0  0  0999 V2000
  -13.4940    5.8670  -75.9850 C   0  0  0  0  0  0  0  0  0  0  0  0
  -12.3780    5.4820  -76.9370 C   0  0  0  0  0  0  0  0  0  0  0  0
  -11.8590    6.4670  -77.8250 O   0  0  0  0  0  0  0  0  0  0  0  0
  -11.7940    4.1210  -76.9520 C   0  0  0  0  0  0  0  0  0  0  0  0
  -10.8900    3.7820  -75.8200 C   0  0  0  0  0  0  0  0  0  0  0  0
  -12.0560    3.1890  -77.9230 C   0  0  0  0  0  0  0  0  0  0  0  0
  -10.3470    2.5070  -75.7790 C   0  0  0  0  0  0  0  0  0  0  0  0
  -11.4900    1.9180  -77.8320 C   0  0  0  0  0  0  0  0  0  0  0  0
  -10.6460    1.5740  -76.7600 C   0  0  0  0  0  0  0  0  0  0  0  0
   -9.9530   -0.0740  -76.6270 S   0  0  0  0  0  0  0  0  0  0  0  0
  -10.8200   -0.8240  -75.7410 O   0  0  0  0  0  0  0  0  0  0  0  0
   -8.5360    0.0500  -76.3950 O   0  0  0  0  0  0  0  0  0  0  0  0
  -10.2190   -0.7040  -78.0020 N   0  0  0  0  0  0  0  0  0  0  0  0
  -11.4850   -0.7740  -78.5990 C   0  0  0  0  0  0  0  0  0  0  0  0
   -9.1390   -0.6240  -79.0120 C   0  0  0  0  0  0  0  0  0  0  0  0
   -8.3760   -1.8890  -79.1200 C   0  0  0  0  0  0  0  0  0  0  0  0
   -7.3050   -1.9620  -78.2180 C   0  0  0  0  0  0  0  0  0  0  0  0
   -6.2410   -1.1250  -78.5740 C   0  0  0  0  0  0  0  0  0  0  0  0
   -5.0400   -1.5480  -79.0610 O   0  0  0  0  0  0  0  0  0  0  0  0
   -6.5680    0.1790  -78.3670 N   0  0  0  0  0  0  0  0  0  0  0  0
   -5.7690    0.7730  -77.3120 O   0  0  0  0  0  0  0  0  0  0  0  0
   -5.3910    2.0660  -77.7530 C   0  0  0  0  0  0  0  0  0  0  0  0
   -6.5770    2.7540  -77.9560 C   0  0  0  0  0  0  0  0  0  0  0  0
   -6.6960    3.5410  -79.0980 C   0  0  0  0  0  0  0  0  0  0  0  0
   -7.6630    2.6950  -77.0610 C   0  0  0  0  0  0  0  0  0  0  0  0
   -7.8500    4.2480  -79.3390 C   0  0  0  0  0  0  0  0  0  0  0  0
   -8.8270    3.4200  -77.3190 C   0  0  0  0  0  0  0  0  0  0  0  0
   -8.9160    4.1990  -78.4560 C   0  0  0  0  0  0  0  0  0  0  0  0
  1  2  1  0
  2  3  2  0
  2  4  1  0
  4  5  2  0
  4  6  1  0
  5  7  1  0
  6  8  2  0
  7  9  2  0
  8  9  1  0
  9 10  1  0
 10 11  2  0
 10 12  2  0
 10 13  1  0
 13 14  1  0
 13 15  1  0
 15 16  1  0
 16 17  1  0
 17 18  1  0
 18 19  2  0
 18 20  1  0
 20 21  1  0
 21 22  1  0
 22 23  1  0
 23 24  2  0
 23 25  1  0
 24 26  1  0
 25 27  2  0
 26 28  2  0
 27 28  1  0
M  END
>  <ref_url>  (1036) 
https://fakepage.com

>  <submitter_name>  (1036) 
Steph Wills

>  <submitter_email>  (1036) 
stephanie.wills@dtc.ox.ac.uk

>  <submitter_institution>  (1036) 
University of Oxford

>  <generation_date>  (1036) 
2020-06-04

>  <method>  (1036) 
Fragment network

>  <ref_mols>  (1036) 
x0176_0B,x0208_0A

>  <ref_pdb>  (1036) 
references/x0176-0B-x0208-0A-389315.holo_minimised_nolig.pdb

>  <original SMILES>  (1036) 
CC(=O)c1ccc(S(=O)(=O)N(C)CCCC(=O)NOCc2ccccc2)cc1

>  <synthon>  (1036) 
[Xe]c1ccccc1

>  <original_name>  (1036) 
x0176-0B-x0208-0A-389315

>  <comRMSD_score>  (1036) 
0.9788756943555184

>  <IF_score>  (1036) 
0.75

>  <SuCOS_score>  (1036) 
0.4070261672682811

>  <compound_ID>  (1036) 
MOLPORT:009-212-779

$$$$

     RDKit          3D

 21 21  0  0  0  0  0  0  0  0999 V2000
  -13.3480    8.8060  -73.2870 C   0  0  0  0  0  0  0  0  0  0  0  0
  -13.8190    7.5680  -73.0780 C   0  0  1  0  0  0  0  0  0  0  0  0
  -15.1670    7.1670  -73.6120 C   0  0  0  0  0  0  0  0  0  0  0  0
  -12.5770    6.4290  -73.6990 S   0  0  0  0  0  0  0  0  0  0  0  0
  -15.7670    8.2290  -74.2230 F   0  0  0  0  0  0  0  0  0  0  0  0
  -15.9650    6.8870  -72.5290 F   0  0  0  0  0  0  0  0  0  0  0  0
  -15.1760    6.1410  -74.4720 F   0  0  0  0  0  0  0  0  0  0  0  0
  -11.2840    7.0170  -73.3700 O   0  0  0  0  0  0  0  0  0  0  0  0
  -12.8890    5.0740  -73.3020 O   0  0  0  0  0  0  0  0  0  0  0  0
  -12.7770    6.5950  -75.3460 N   0  0  0  0  0  0  0  0  0  0  0  0
  -13.1990    5.3760  -76.0810 C   0  0  0  0  0  0  0  0  0  0  0  0
  -14.1670    4.6600  -75.8630 O   0  0  0  0  0  0  0  0  0  0  0  0
  -12.3750    4.9070  -77.2580 C   0  0  0  0  0  0  0  0  0  0  0  0
  -11.8720    3.6240  -77.0060 C   0  0  0  0  0  0  0  0  0  0  0  0
  -10.2790    3.6200  -76.1090 S   0  0  0  0  0  0  0  0  0  0  0  0
   -8.9490    3.5500  -77.2850 C   0  0  0  0  0  0  0  0  0  0  0  0
   -7.8420    2.7500  -76.9750 C   0  0  0  0  0  0  0  0  0  0  0  0
   -8.9490    4.2580  -78.4900 C   0  0  0  0  0  0  0  0  0  0  0  0
   -6.7130    2.6700  -77.9050 C   0  0  0  0  0  0  0  0  0  0  0  0
   -7.8660    4.1740  -79.3700 C   0  0  0  0  0  0  0  0  0  0  0  0
   -6.7570    3.3970  -79.0940 C   0  0  0  0  0  0  0  0  0  0  0  0
  2  1  1  6
  2  3  1  0
  2  4  1  0
  3  5  1  0
  3  6  1  0
  3  7  1  0
  4  8  2  0
  4  9  2  0
  4 10  1  0
 10 11  1  0
 11 12  2  0
 11 13  1  0
 13 14  1  0
 14 15  1  0
 15 16  1  0
 16 17  2  0
 16 18  1  0
 17 19  1  0
 18 20  2  0
 19 21  2  0
 20 21  1  0
M  END
>  <ref_url>  (1037) 
https://fakepage.com

>  <submitter_name>  (1037) 
Steph Wills

>  <submitter_email>  (1037) 
stephanie.wills@dtc.ox.ac.uk

>  <submitter_institution>  (1037) 
University of Oxford

>  <generation_date>  (1037) 
2020-06-04

>  <method>  (1037) 
Fragment network

>  <ref_mols>  (1037) 
x0176_0B,x0208_0A

>  <ref_pdb>  (1037) 
references/x0176-0B-x0208-0A-448806.holo_minimised_nolig.pdb

>  <original SMILES>  (1037) 
CC(C(F)(F)F)S(=O)(=O)NC(=O)CCSc1ccccc1

>  <synthon>  (1037) 
[Xe]c1ccccc1

>  <original_name>  (1037) 
x0176-0B-x0208-0A-448806

>  <comRMSD_score>  (1037) 
0.9024882752460136

>  <IF_score>  (1037) 
0.5

>  <SuCOS_score>  (1037) 
0.4934024216224265

>  <compound_ID>  (1037) 
MOLPORT:044-533-121

$$$$

     RDKit          3D

 20 20  0  0  0  0  0  0  0  0999 V2000
  -13.5160    9.0270  -73.1670 C   0  0  0  0  0  0  0  0  0  0  0  0
  -13.8760    7.5490  -73.2200 C   0  0  0  0  0  0  0  0  0  0  0  0
  -12.5030    6.5130  -73.7200 S   0  0  0  0  0  0  0  0  0  0  0  0
  -12.7530    5.1370  -73.3550 O   0  0  0  0  0  0  0  0  0  0  0  0
  -11.2830    7.1890  -73.3240 O   0  0  0  0  0  0  0  0  0  0  0  0
  -12.6290    6.5450  -75.3890 N   0  0  0  0  0  0  0  0  0  0  0  0
  -13.3670    5.6580  -76.1290 C   0  0  0  0  0  0  0  0  0  0  0  0
  -12.6920    5.1400  -77.3800 C   0  0  2  0  0  0  0  0  0  0  0  0
  -13.4200    4.4130  -78.3260 C   0  0  0  0  0  0  0  0  0  0  0  0
  -11.5670    4.2950  -76.9720 N   0  0  0  0  0  0  0  0  0  0  0  0
  -11.7960    3.1450  -76.2770 C   0  0  0  0  0  0  0  0  0  0  0  0
  -10.6420    2.3680  -76.1640 C   0  0  0  0  0  0  0  0  0  0  0  0
   -9.5520    3.2570  -76.0030 O   0  0  0  0  0  0  0  0  0  0  0  0
   -8.6860    3.3510  -77.1290 C   0  0  0  0  0  0  0  0  0  0  0  0
   -7.5090    2.6340  -77.0650 C   0  0  0  0  0  0  0  0  0  0  0  0
   -8.9250    4.1050  -78.2740 C   0  0  0  0  0  0  0  0  0  0  0  0
   -6.5630    2.6390  -78.0780 C   0  0  0  0  0  0  0  0  0  0  0  0
   -7.9930    4.1370  -79.3200 C   0  0  0  0  0  0  0  0  0  0  0  0
  -10.0300    4.8580  -78.4980 F   0  0  0  0  0  0  0  0  0  0  0  0
   -6.8050    3.4010  -79.2210 C   0  0  0  0  0  0  0  0  0  0  0  0
  1  2  1  0
  2  3  1  0
  3  4  2  0
  3  5  2  0
  3  6  1  0
  6  7  1  0
  7  8  1  0
  8  9  1  1
  8 10  1  0
 10 11  1  0
 11 12  1  0
 12 13  1  0
 13 14  1  0
 14 15  2  0
 14 16  1  0
 15 17  1  0
 16 18  2  0
 16 19  1  0
 17 20  2  0
 18 20  1  0
M  END
>  <ref_url>  (1038) 
https://fakepage.com

>  <submitter_name>  (1038) 
Steph Wills

>  <submitter_email>  (1038) 
stephanie.wills@dtc.ox.ac.uk

>  <submitter_institution>  (1038) 
University of Oxford

>  <generation_date>  (1038) 
2020-06-04

>  <method>  (1038) 
Fragment network

>  <ref_mols>  (1038) 
x0176_0B,x0208_0A

>  <ref_pdb>  (1038) 
references/x0176-0B-x0208-0A-470814.holo_minimised_nolig.pdb

>  <original SMILES>  (1038) 
CCS(=O)(=O)NCC(C)NCCOc1ccccc1F

>  <synthon>  (1038) 
Fc1ccccc1[Xe]

>  <original_name>  (1038) 
x0176-0B-x0208-0A-470814

>  <comRMSD_score>  (1038) 
0.6999089940842311

>  <IF_score>  (1038) 
0.625

>  <SuCOS_score>  (1038) 
0.5008140363013527

>  <compound_ID>  (1038) 
MOLPORT:045-936-013

$$$$
