ver_1.2
     RDKit          2D

  0  0  0  0  0  0  0  0  0  0999 V2000
M  END
>  <ref_url>  (1) 
https://github.com/stephwills/fragment_network_merges

>  <submitter_name>  (1) 
Steph Wills

>  <submitter_institution>  (1) 
University of Oxford

>  <submitter_email>  (1) 
stephanie.wills@balliol.ox.ac.uk

>  <generation_date>  (1) 
2023-08-10

>  <method>  (1) 
fragnetv3_corrected

>  <original SMILES>  (1) 
smiles

>  <original_name>  (1) 
name

>  <ref_mols>  (1) 
fragment hits

>  <ref_pdb>  (1) 
ref pdb

>  <SuCOS_score>  (1) 
Score SuCOS_score

>  <compound ID>  (1) 
compound ID

$$$$
x0771_0A-x0789_0A_130
     RDKit          3D

 21 24  0  0  0  0  0  0  0  0999 V2000
  -12.4630   -8.7250   -5.3360 C   0  0  0  0  0  0  0  0  0  0  0  0
  -11.6070   -9.7830   -5.5850 N   0  0  0  0  0  0  0  0  0  0  0  0
  -10.4120   -9.3000   -5.2440 C   0  0  0  0  0  0  0  0  0  0  0  0
   -9.0710   -9.9900   -5.2950 C   0  0  0  0  0  0  0  0  0  0  0  0
   -7.8620   -9.1270   -5.3710 N   0  0  0  0  0  0  0  0  0  0  0  0
   -6.8580   -9.7200   -6.2620 C   0  0  0  0  0  0  0  0  0  0  0  0
   -7.1820   -9.1190   -7.6190 C   0  0  0  0  0  0  0  0  0  0  0  0
   -7.4230   -7.6880   -7.2190 C   0  0  2  0  0  0  0  0  0  0  0  0
   -6.3560   -6.6740   -7.3220 C   0  0  0  0  0  0  0  0  0  0  0  0
   -7.1660   -5.3840   -7.2890 C   0  0  0  0  0  0  0  0  0  0  0  0
   -7.8630   -5.2700   -5.9260 C   0  0  0  0  0  0  0  0  0  0  0  0
   -7.6880   -6.5520   -5.0760 C   0  0  0  0  0  0  0  0  0  0  0  0
   -8.1190   -7.7610   -5.8820 C   0  0  2  0  0  0  0  0  0  0  0  0
  -10.4140   -8.1350   -4.8310 O   0  0  0  0  0  0  0  0  0  0  0  0
  -11.7110   -7.6920   -4.8620 C   0  0  0  0  0  0  0  0  0  0  0  0
  -11.9350   -6.2660   -4.3760 C   0  0  0  0  0  0  0  0  0  0  0  0
  -11.6890   -5.1960   -5.4100 C   0  0  0  0  0  0  0  0  0  0  0  0
  -11.5450   -3.8930   -4.6420 C   0  0  0  0  0  0  0  0  0  0  0  0
  -12.3240   -3.8700   -3.4380 O   0  0  0  0  0  0  0  0  0  0  0  0
  -13.5630   -4.5780   -3.5250 C   0  0  0  0  0  0  0  0  0  0  0  0
  -13.3070   -6.0650   -3.7390 C   0  0  0  0  0  0  0  0  0  0  0  0
  1  2  1  0
  2  3  2  0
  3  4  1  0
  4  5  1  0
  5  6  1  0
  6  7  1  0
  8  7  1  1
  8  9  1  0
  9 10  1  0
 10 11  1  0
 11 12  1  0
 13 12  1  1
  3 14  1  0
 14 15  1  0
 15 16  1  0
 16 17  1  0
 17 18  1  0
 18 19  1  0
 19 20  1  0
 20 21  1  0
 15  1  2  0
 21 16  1  0
 13  5  1  0
 13  8  1  0
A    1
 C1 
A    2
 N1 
A    3
 C2 
A    4
 C3 
A    5
 N2 
A    6
 C4 
A    7
 C5 
A    8
 C6 
A    9
 C7 
A   10
 C8 
A   11
 C9 
A   12
 C10
A   13
 C11
A   14
 O1 
A   15
 C12
A   16
 C13
A   17
 C14
A   18
 C15
A   19
 O2 
A   20
 C16
A   21
 C17
M  END
>  <ref_url>  (2) 
https://github.com/stephwills/fragment_network_merges

>  <submitter_name>  (2) 
Steph Wills

>  <submitter_institution>  (2) 
University of Oxford

>  <submitter_email>  (2) 
stephanie.wills@balliol.ox.ac.uk

>  <generation_date>  (2) 
2023-08-10

>  <method>  (2) 
fragnetv3_corrected

>  <original SMILES>  (2) 
c1nc(CN2CCC3CCCCC32)oc1C1CCOCC1

>  <original_name>  (2) 
x0771_0A-x0789_0A_130

>  <ref_mols>  (2) 
x0771_0A,x0789_0A

>  <ref_pdb>  (2) 
x0771_0A

>  <SuCOS_score>  (2) 
0.4506055910794847

>  <compound ID>  (2) 
ENAMINE:Z3878715845

$$$$
x0771_0A-x0789_0A_253
     RDKit          3D

 19 21  0  0  0  0  0  0  0  0999 V2000
  -10.0130   -5.2950   -7.2640 C   0  0  0  0  0  0  0  0  0  0  0  0
  -10.1370   -6.3670   -6.3880 N   0  0  0  0  0  0  0  0  0  0  0  0
  -11.4720   -6.5730   -5.7410 C   0  0  0  0  0  0  0  0  0  0  0  0
  -11.5330   -6.0580   -4.2860 C   0  0  2  0  0  0  0  0  0  0  0  0
  -12.9150   -6.1750   -3.6640 C   0  0  0  0  0  0  0  0  0  0  0  0
  -13.4710   -4.7950   -3.3910 C   0  0  0  0  0  0  0  0  0  0  0  0
  -12.4040   -3.8740   -3.6540 O   0  0  0  0  0  0  0  0  0  0  0  0
  -11.2370   -4.5670   -4.1580 C   0  0  0  0  0  0  0  0  0  0  0  0
   -9.3040   -7.5240   -6.3500 C   0  0  0  0  0  0  0  0  0  0  0  0
   -9.8260   -8.5460   -5.8760 O   0  0  0  0  0  0  0  0  0  0  0  0
   -7.8330   -7.6770   -6.8170 C   0  0  1  0  0  0  0  0  0  0  0  0
   -7.4640   -6.5380   -7.7330 C   0  0  0  0  0  0  0  0  0  0  0  0
   -7.4500   -5.1680   -7.0590 C   0  0  0  0  0  0  0  0  0  0  0  0
   -7.8310   -5.3000   -5.5530 C   0  0  0  0  0  0  0  0  0  0  0  0
   -7.2130   -6.4580   -4.7570 C   0  0  0  0  0  0  0  0  0  0  0  0
   -6.8740   -7.6290   -5.6720 C   0  0  1  0  0  0  0  0  0  0  0  0
   -7.0520   -8.9330   -5.0130 N   0  0  0  0  0  0  0  0  0  0  0  0
   -7.2810   -9.8920   -6.1050 C   0  0  0  0  0  0  0  0  0  0  0  0
   -7.4680   -9.0640   -7.3860 C   0  0  0  0  0  0  0  0  0  0  0  0
  1  2  1  0
  2  3  1  0
  4  3  1  6
  4  5  1  0
  5  6  1  0
  6  7  1  0
  7  8  1  0
  2  9  1  0
  9 10  2  0
 11  9  1  1
 11 12  1  0
 12 13  1  0
 13 14  1  0
 14 15  1  0
 16 15  1  1
 16 17  1  0
 17 18  1  0
 18 19  1  0
  8  4  1  0
 16 11  1  0
 19 11  1  0
A    1
 C1 
A    2
 N1 
A    3
 C2 
A    4
 C3 
A    5
 C4 
A    6
 C5 
A    7
 O1 
A    8
 C6 
A    9
 C7 
A   10
 O2 
A   11
 C8 
A   12
 C9 
A   13
 C10
A   14
 C11
A   15
 C12
A   16
 C13
A   17
 N2 
A   18
 C14
A   19
 C15
M  END
>  <ref_url>  (3) 
https://github.com/stephwills/fragment_network_merges

>  <submitter_name>  (3) 
Steph Wills

>  <submitter_institution>  (3) 
University of Oxford

>  <submitter_email>  (3) 
stephanie.wills@balliol.ox.ac.uk

>  <generation_date>  (3) 
2023-08-10

>  <method>  (3) 
fragnetv3_corrected

>  <original SMILES>  (3) 
CN(CC1CCOC1)C(=O)C12CCCCC1NCC2

>  <original_name>  (3) 
x0771_0A-x0789_0A_253

>  <ref_mols>  (3) 
x0771_0A,x0789_0A

>  <ref_pdb>  (3) 
x0771_0A

>  <SuCOS_score>  (3) 
0.44999505495484676

>  <compound ID>  (3) 
ENAMINE:Z3102250837

$$$$
x0771_0A-x0789_0A_135
     RDKit          3D

 19 21  0  0  0  0  0  0  0  0999 V2000
   -9.9630   -9.9210   -5.7120 O   0  0  0  0  0  0  0  0  0  0  0  0
   -9.3250   -8.9810   -5.2450 C   0  0  0  0  0  0  0  0  0  0  0  0
   -9.9520   -7.9230   -4.6160 N   0  0  0  0  0  0  0  0  0  0  0  0
  -11.1300   -7.2610   -5.1840 C   0  0  0  0  0  0  0  0  0  0  0  0
  -11.4770   -6.1610   -4.4190 C   0  0  0  0  0  0  0  0  0  0  0  0
  -11.2650   -4.7940   -5.0290 C   0  0  0  0  0  0  0  0  0  0  0  0
  -11.5450   -3.6380   -4.1190 C   0  0  0  0  0  0  0  0  0  0  0  0
  -12.5260   -3.9580   -3.1380 O   0  0  0  0  0  0  0  0  0  0  0  0
  -13.5220   -4.8650   -3.6070 C   0  0  0  0  0  0  0  0  0  0  0  0
  -12.9320   -6.2450   -3.9190 C   0  0  0  0  0  0  0  0  0  0  0  0
   -7.9300   -8.9280   -5.3340 N   0  0  0  0  0  0  0  0  0  0  0  0
   -7.2230   -9.8950   -6.1650 C   0  0  0  0  0  0  0  0  0  0  0  0
   -7.2620   -9.1610   -7.4980 C   0  0  0  0  0  0  0  0  0  0  0  0
   -7.5730   -7.6990   -7.1700 C   0  0  2  0  0  0  0  0  0  0  0  0
   -6.7940   -6.6650   -7.9240 C   0  0  0  0  0  0  0  0  0  0  0  0
   -7.4060   -5.3370   -7.5130 C   0  0  0  0  0  0  0  0  0  0  0  0
   -8.2600   -5.4350   -6.2220 C   0  0  0  0  0  0  0  0  0  0  0  0
   -7.7340   -6.3530   -5.0900 C   0  0  0  0  0  0  0  0  0  0  0  0
   -7.2650   -7.6680   -5.7040 C   0  0  1  0  0  0  0  0  0  0  0  0
  1  2  2  0
  2  3  1  0
  3  4  1  0
  4  5  1  0
  5  6  1  0
  6  7  1  0
  7  8  1  0
  8  9  1  0
  9 10  1  0
  2 11  1  0
 11 12  1  0
 12 13  1  0
 14 13  1  6
 14 15  1  0
 15 16  1  0
 16 17  1  0
 17 18  1  0
 19 18  1  1
 10  5  1  0
 19 11  1  0
 19 14  1  0
A    1
 O1 
A    2
 C1 
A    3
 N1 
A    4
 C2 
A    5
 C3 
A    6
 C4 
A    7
 C5 
A    8
 O2 
A    9
 C6 
A   10
 C7 
A   11
 N2 
A   12
 C8 
A   13
 C9 
A   14
 C10
A   15
 C11
A   16
 C12
A   17
 C13
A   18
 C14
A   19
 C15
M  END
>  <ref_url>  (4) 
https://github.com/stephwills/fragment_network_merges

>  <submitter_name>  (4) 
Steph Wills

>  <submitter_institution>  (4) 
University of Oxford

>  <submitter_email>  (4) 
stephanie.wills@balliol.ox.ac.uk

>  <generation_date>  (4) 
2023-08-10

>  <method>  (4) 
fragnetv3_corrected

>  <original SMILES>  (4) 
O=C(NCC1CCOCC1)N1CCC2CCCCC21

>  <original_name>  (4) 
x0771_0A-x0789_0A_135

>  <ref_mols>  (4) 
x0771_0A,x0789_0A

>  <ref_pdb>  (4) 
x0771_0A

>  <SuCOS_score>  (4) 
0.44234286358603436

>  <compound ID>  (4) 
ENAMINE:PV-001955744145

$$$$
x0771_0A-x0789_0A_252
     RDKit          3D

 22 24  0  0  0  0  0  0  0  0999 V2000
  -10.0140  -11.3430   -6.1670 O   0  0  0  0  0  0  0  0  0  0  0  0
   -9.3730  -10.0720   -5.9530 C   0  0  0  0  0  0  0  0  0  0  0  0
  -10.0610   -8.9040   -5.6290 N   0  0  0  0  0  0  0  0  0  0  0  0
  -11.3960   -8.8240   -5.0280 C   0  0  2  0  0  0  0  0  0  0  0  0
  -12.2370   -9.8000   -5.4460 C   0  0  0  0  0  0  0  0  0  0  0  0
  -13.3610   -9.2860   -6.1960 O   0  0  0  0  0  0  0  0  0  0  0  0
  -11.9440   -7.3920   -5.3090 C   0  0  0  0  0  0  0  0  0  0  0  0
  -11.9350   -6.4340   -4.1500 C   0  0  0  0  0  0  0  0  0  0  0  0
  -11.0230   -5.2770   -4.5660 C   0  0  0  0  0  0  0  0  0  0  0  0
  -11.2040   -4.0960   -3.6440 C   0  0  0  0  0  0  0  0  0  0  0  0
  -12.5610   -3.6850   -3.6290 O   0  0  0  0  0  0  0  0  0  0  0  0
  -13.4050   -4.6730   -3.0510 C   0  0  0  0  0  0  0  0  0  0  0  0
  -13.3700   -5.9700   -3.8550 C   0  0  0  0  0  0  0  0  0  0  0  0
   -7.8370   -9.8900   -6.0730 C   0  0  1  0  0  0  0  0  0  0  0  0
   -7.3490   -9.1700   -7.3260 C   0  0  0  0  0  0  0  0  0  0  0  0
   -7.6260   -7.7220   -7.0250 C   0  0  2  0  0  0  0  0  0  0  0  0
   -6.9180   -6.8250   -7.9640 C   0  0  0  0  0  0  0  0  0  0  0  0
   -7.5000   -5.4600   -7.4980 C   0  0  0  0  0  0  0  0  0  0  0  0
   -8.1890   -5.4730   -6.1170 C   0  0  0  0  0  0  0  0  0  0  0  0
   -7.5800   -6.3800   -5.0260 C   0  0  0  0  0  0  0  0  0  0  0  0
   -7.0320   -7.6380   -5.6640 C   0  0  1  0  0  0  0  0  0  0  0  0
   -7.4070   -8.9180   -5.0260 N   0  0  0  0  0  0  0  0  0  0  0  0
  1  2  2  0
  2  3  1  0
  3  4  1  0
  4  5  1  6
  5  6  1  0
  4  7  1  0
  7  8  1  0
  8  9  1  0
  9 10  1  0
 10 11  1  0
 11 12  1  0
 12 13  1  0
 14  2  1  6
 14 15  1  0
 16 15  1  6
 16 17  1  0
 17 18  1  0
 18 19  1  0
 19 20  1  0
 21 20  1  1
 21 22  1  0
 13  8  1  0
 22 14  1  0
 21 16  1  0
A    1
 O1 
A    2
 C1 
A    3
 N1 
A    4
 C2 
A    5
 C3 
A    6
 O2 
A    7
 C4 
A    8
 C5 
A    9
 C6 
A   10
 C7 
A   11
 O3 
A   12
 C8 
A   13
 C9 
A   14
 C10
A   15
 C11
A   16
 C12
A   17
 C13
A   18
 C14
A   19
 C15
A   20
 C16
A   21
 C17
A   22
 N2 
M  END
>  <ref_url>  (5) 
https://github.com/stephwills/fragment_network_merges

>  <submitter_name>  (5) 
Steph Wills

>  <submitter_institution>  (5) 
University of Oxford

>  <submitter_email>  (5) 
stephanie.wills@balliol.ox.ac.uk

>  <generation_date>  (5) 
2023-08-10

>  <method>  (5) 
fragnetv3_corrected

>  <original SMILES>  (5) 
O=C(NC(CO)CC1CCOCC1)C1CC2CCCCC2N1

>  <original_name>  (5) 
x0771_0A-x0789_0A_252

>  <ref_mols>  (5) 
x0771_0A,x0789_0A

>  <ref_pdb>  (5) 
x0771_0A

>  <SuCOS_score>  (5) 
0.43382310241538774

>  <compound ID>  (5) 
ENAMINE:Z3519787554

$$$$
x0771_0A-x0789_0A_40
     RDKit          3D

 19 21  0  0  0  0  0  0  0  0999 V2000
   -9.8300  -10.4140   -5.7500 O   0  0  0  0  0  0  0  0  0  0  0  0
   -9.3290   -9.3260   -5.4740 C   0  0  0  0  0  0  0  0  0  0  0  0
  -10.2360   -8.2190   -5.2240 C   0  0  0  0  0  0  0  0  0  0  0  0
  -10.9340   -7.2700   -4.9360 C   0  0  0  0  0  0  0  0  0  0  0  0
  -11.6320   -6.0900   -4.4370 C   0  0  0  0  0  0  0  0  0  0  0  0
  -11.5930   -4.9170   -5.3990 C   0  0  0  0  0  0  0  0  0  0  0  0
  -11.7800   -3.6600   -4.5810 C   0  0  0  0  0  0  0  0  0  0  0  0
  -12.5490   -3.9430   -3.4090 O   0  0  0  0  0  0  0  0  0  0  0  0
  -13.5960   -4.9140   -3.5950 C   0  0  0  0  0  0  0  0  0  0  0  0
  -13.0640   -6.2940   -3.9780 C   0  0  0  0  0  0  0  0  0  0  0  0
   -7.9470   -9.1290   -5.4020 N   0  0  0  0  0  0  0  0  0  0  0  0
   -7.1740  -10.0060   -6.2500 C   0  0  0  0  0  0  0  0  0  0  0  0
   -7.3250   -9.2780   -7.5790 C   0  0  0  0  0  0  0  0  0  0  0  0
   -7.5780   -7.8430   -7.1160 C   0  0  2  0  0  0  0  0  0  0  0  0
   -6.8770   -6.7140   -7.7960 C   0  0  0  0  0  0  0  0  0  0  0  0
   -7.5910   -5.4220   -7.4030 C   0  0  0  0  0  0  0  0  0  0  0  0
   -8.3570   -5.5590   -6.0780 C   0  0  0  0  0  0  0  0  0  0  0  0
   -7.7470   -6.5420   -5.0410 C   0  0  0  0  0  0  0  0  0  0  0  0
   -7.2760   -7.8690   -5.6480 C   0  0  1  0  0  0  0  0  0  0  0  0
  1  2  2  0
  2  3  1  0
  3  4  3  0
  4  5  1  0
  5  6  1  0
  6  7  1  0
  7  8  1  0
  8  9  1  0
  9 10  1  0
  2 11  1  0
 11 12  1  0
 12 13  1  0
 14 13  1  6
 14 15  1  0
 15 16  1  0
 16 17  1  0
 17 18  1  0
 19 18  1  1
 10  5  1  0
 19 11  1  0
 19 14  1  0
A    1
 O1 
A    2
 C1 
A    3
 C2 
A    4
 C3 
A    5
 C4 
A    6
 C5 
A    7
 C6 
A    8
 O2 
A    9
 C7 
A   10
 C8 
A   11
 N1 
A   12
 C9 
A   13
 C10
A   14
 C11
A   15
 C12
A   16
 C13
A   17
 C14
A   18
 C15
A   19
 C16
M  END
>  <ref_url>  (6) 
https://github.com/stephwills/fragment_network_merges

>  <submitter_name>  (6) 
Steph Wills

>  <submitter_institution>  (6) 
University of Oxford

>  <submitter_email>  (6) 
stephanie.wills@balliol.ox.ac.uk

>  <generation_date>  (6) 
2023-08-10

>  <method>  (6) 
fragnetv3_corrected

>  <original SMILES>  (6) 
O=C(C#CC1CCOCC1)N1CCC2CCCCC21

>  <original_name>  (6) 
x0771_0A-x0789_0A_40

>  <ref_mols>  (6) 
x0771_0A,x0789_0A

>  <ref_pdb>  (6) 
x0771_0A

>  <SuCOS_score>  (6) 
0.4327464345215218

>  <compound ID>  (6) 
ENAMINE:Z3709124851

$$$$
x0771_0A-x0789_0A_480
     RDKit          3D

 20 22  0  0  0  0  0  0  0  0999 V2000
  -10.3240   -9.2990   -5.7290 O   0  0  0  0  0  0  0  0  0  0  0  0
   -9.6010   -8.6010   -5.0310 C   0  0  0  0  0  0  0  0  0  0  0  0
   -8.1160   -8.7240   -5.2100 N   0  0  0  0  0  0  0  0  0  0  0  0
   -7.5150   -9.8190   -5.9970 C   0  0  0  0  0  0  0  0  0  0  0  0
   -7.3380   -9.1400   -7.3410 C   0  0  0  0  0  0  0  0  0  0  0  0
   -7.6080   -7.6700   -7.1070 C   0  0  2  0  0  0  0  0  0  0  0  0
   -6.8090   -6.6900   -7.9320 C   0  0  0  0  0  0  0  0  0  0  0  0
   -7.4010   -5.3100   -7.6400 C   0  0  0  0  0  0  0  0  0  0  0  0
   -8.2460   -5.2950   -6.3450 C   0  0  0  0  0  0  0  0  0  0  0  0
   -7.6830   -6.1680   -5.1870 C   0  0  0  0  0  0  0  0  0  0  0  0
   -7.3030   -7.5680   -5.6410 C   0  0  1  0  0  0  0  0  0  0  0  0
  -10.2350   -7.6280   -3.9540 C   0  0  0  0  0  0  0  0  0  0  0  0
   -9.2510   -6.9780   -3.2540 F   0  0  0  0  0  0  0  0  0  0  0  0
  -10.8870   -8.3590   -2.9940 F   0  0  0  0  0  0  0  0  0  0  0  0
  -11.2530   -6.5670   -4.4790 C   0  0  0  0  0  0  0  0  0  0  0  0
  -10.7060   -5.1380   -4.5380 C   0  0  0  0  0  0  0  0  0  0  0  0
  -11.1570   -4.2130   -3.4180 C   0  0  0  0  0  0  0  0  0  0  0  0
  -12.5720   -4.0420   -3.3700 O   0  0  0  0  0  0  0  0  0  0  0  0
  -13.3180   -5.1830   -3.7890 C   0  0  0  0  0  0  0  0  0  0  0  0
  -12.5320   -6.4910   -3.6040 C   0  0  0  0  0  0  0  0  0  0  0  0
  1  2  2  0
  2  3  1  0
  3  4  1  0
  4  5  1  0
  6  5  1  6
  6  7  1  0
  7  8  1  0
  8  9  1  0
  9 10  1  0
 11 10  1  1
  2 12  1  0
 12 13  1  0
 12 14  1  0
 12 15  1  0
 15 16  1  0
 16 17  1  0
 17 18  1  0
 18 19  1  0
 19 20  1  0
 11  3  1  0
 20 15  1  0
 11  6  1  0
A    1
 O1 
A    2
 C1 
A    3
 N1 
A    4
 C2 
A    5
 C3 
A    6
 C4 
A    7
 C5 
A    8
 C6 
A    9
 C7 
A   10
 C8 
A   11
 C9 
A   12
 C10
A   13
 F1 
A   14
 F2 
A   15
 C11
A   16
 C12
A   17
 C13
A   18
 O2 
A   19
 C14
A   20
 C15
M  END
>  <ref_url>  (7) 
https://github.com/stephwills/fragment_network_merges

>  <submitter_name>  (7) 
Steph Wills

>  <submitter_institution>  (7) 
University of Oxford

>  <submitter_email>  (7) 
stephanie.wills@balliol.ox.ac.uk

>  <generation_date>  (7) 
2023-08-10

>  <method>  (7) 
fragnetv3_corrected

>  <original SMILES>  (7) 
O=C(N1CCC2CCCCC21)C(F)(F)C1CCOCC1

>  <original_name>  (7) 
x0771_0A-x0789_0A_480

>  <ref_mols>  (7) 
x0771_0A,x0789_0A

>  <ref_pdb>  (7) 
x0771_0A

>  <SuCOS_score>  (7) 
0.432392553694633

>  <compound ID>  (7) 
ENAMINE:Z1839272403

$$$$
x0771_0A-x0789_0A_323
     RDKit          3D

 21 23  0  0  0  0  0  0  0  0999 V2000
   -7.5160  -12.4500   -8.6600 C   0  0  0  0  0  0  0  0  0  0  0  0
   -7.8410  -11.1360   -8.1880 O   0  0  0  0  0  0  0  0  0  0  0  0
   -7.7270  -11.0360   -6.8170 C   0  0  0  0  0  0  0  0  0  0  0  0
   -8.1840  -11.9950   -5.9150 O   0  0  0  0  0  0  0  0  0  0  0  0
   -7.1150   -9.8850   -6.5060 C   0  0  1  0  0  0  0  0  0  0  0  0
   -6.9420   -8.8860   -7.5820 C   0  0  0  0  0  0  0  0  0  0  0  0
   -6.7770   -7.5070   -6.9880 C   0  0  1  0  0  0  0  0  0  0  0  0
   -7.6460   -6.4810   -7.7010 C   0  0  0  0  0  0  0  0  0  0  0  0
   -7.5670   -5.1290   -7.0660 C   0  0  0  0  0  0  0  0  0  0  0  0
   -7.8280   -5.2020   -5.5540 C   0  0  0  0  0  0  0  0  0  0  0  0
   -8.1170   -6.6040   -5.0020 C   0  0  0  0  0  0  0  0  0  0  0  0
   -7.1820   -7.7060   -5.5300 C   0  0  1  0  0  0  0  0  0  0  0  0
   -7.7700   -9.0810   -5.4230 N   0  0  0  0  0  0  0  0  0  0  0  0
   -9.2570   -9.1520   -5.4730 C   0  0  0  0  0  0  0  0  0  0  0  0
   -9.9240   -7.7690   -5.3690 C   0  0  0  0  0  0  0  0  0  0  0  0
  -11.7230   -7.8110   -5.0570 S   0  0  0  0  0  0  0  0  0  0  0  0
  -11.9260   -6.3830   -3.9450 C   0  0  2  0  0  0  0  0  0  0  0  0
  -13.3840   -6.1100   -3.5600 C   0  0  0  0  0  0  0  0  0  0  0  0
  -13.5810   -4.6140   -3.4460 C   0  0  0  0  0  0  0  0  0  0  0  0
  -12.2980   -4.0270   -3.7100 O   0  0  0  0  0  0  0  0  0  0  0  0
  -11.4690   -5.0000   -4.3960 C   0  0  0  0  0  0  0  0  0  0  0  0
  1  2  1  0
  2  3  1  0
  3  4  2  0
  5  3  1  6
  5  6  1  0
  7  6  1  6
  7  8  1  0
  8  9  1  0
  9 10  1  0
 10 11  1  0
 12 11  1  6
 12 13  1  0
 13 14  1  0
 14 15  1  0
 15 16  1  0
 17 16  1  6
 17 18  1  0
 18 19  1  0
 19 20  1  0
 20 21  1  0
 13  5  1  0
 21 17  1  0
 12  7  1  0
A    1
 C1 
A    2
 O1 
A    3
 C2 
A    4
 O2 
A    5
 C3 
A    6
 C4 
A    7
 C5 
A    8
 C6 
A    9
 C7 
A   10
 C8 
A   11
 C9 
A   12
 C10
A   13
 N1 
A   14
 C11
A   15
 C12
A   16
 S1 
A   17
 C13
A   18
 C14
A   19
 C15
A   20
 O3 
A   21
 C16
M  END
>  <ref_url>  (8) 
https://github.com/stephwills/fragment_network_merges

>  <submitter_name>  (8) 
Steph Wills

>  <submitter_institution>  (8) 
University of Oxford

>  <submitter_email>  (8) 
stephanie.wills@balliol.ox.ac.uk

>  <generation_date>  (8) 
2023-08-10

>  <method>  (8) 
fragnetv3_corrected

>  <original SMILES>  (8) 
COC(=O)C1CC2CCCCC2N1CCSC1CCOC1

>  <original_name>  (8) 
x0771_0A-x0789_0A_323

>  <ref_mols>  (8) 
x0771_0A,x0789_0A

>  <ref_pdb>  (8) 
x0771_0A

>  <SuCOS_score>  (8) 
0.43151561453993514

>  <compound ID>  (8) 
ENAMINE:Z3319431677

$$$$
x0771_0A-x0789_0A_146
     RDKit          3D

 22 24  0  0  0  0  0  0  0  0999 V2000
   -6.7520  -11.4620   -5.4010 F   0  0  0  0  0  0  0  0  0  0  0  0
   -7.8580  -11.1380   -6.0970 C   0  0  0  0  0  0  0  0  0  0  0  0
   -7.8900  -11.9290   -7.2000 F   0  0  0  0  0  0  0  0  0  0  0  0
   -8.9290  -11.4880   -5.3420 F   0  0  0  0  0  0  0  0  0  0  0  0
   -7.9340   -9.6740   -6.4740 C   0  0  2  0  0  0  0  0  0  0  0  0
   -7.1690   -9.0460   -7.3940 C   0  0  0  0  0  0  0  0  0  0  0  0
   -7.5260   -7.6540   -7.1370 C   0  0  2  0  0  0  0  0  0  0  0  0
   -6.7490   -6.7260   -8.0130 C   0  0  0  0  0  0  0  0  0  0  0  0
   -7.2930   -5.3710   -7.7010 C   0  0  0  0  0  0  0  0  0  0  0  0
   -8.0480   -5.3000   -6.3430 C   0  0  0  0  0  0  0  0  0  0  0  0
   -7.5380   -6.2190   -5.2040 C   0  0  0  0  0  0  0  0  0  0  0  0
   -7.1320   -7.5930   -5.7210 C   0  0  1  0  0  0  0  0  0  0  0  0
   -7.8920   -8.7360   -5.2600 N   0  0  0  0  0  0  0  0  0  0  0  0
   -9.2580   -8.2630   -4.8690 C   0  0  0  0  0  0  0  0  0  0  0  0
   -9.3750   -7.3000   -3.6620 C   0  0  0  0  0  0  0  0  0  0  0  0
   -9.8260   -5.9840   -4.0670 O   0  0  0  0  0  0  0  0  0  0  0  0
  -11.2430   -5.8560   -3.9920 C   0  0  2  0  0  0  0  0  0  0  0  0
  -11.8250   -6.1960   -5.3500 C   0  0  0  0  0  0  0  0  0  0  0  0
  -13.3010   -6.4380   -5.1730 C   0  0  0  0  0  0  0  0  0  0  0  0
  -13.7350   -5.9820   -3.7810 C   0  0  0  0  0  0  0  0  0  0  0  0
  -13.1410   -4.6080   -3.4460 C   0  0  0  0  0  0  0  0  0  0  0  0
  -11.7240   -4.5610   -3.6330 O   0  0  0  0  0  0  0  0  0  0  0  0
  1  2  1  0
  2  3  1  0
  2  4  1  0
  5  2  1  1
  5  6  1  0
  7  6  1  6
  7  8  1  0
  8  9  1  0
  9 10  1  0
 10 11  1  0
 12 11  1  1
 12 13  1  0
 13 14  1  0
 14 15  1  0
 15 16  1  0
 17 16  1  6
 17 18  1  0
 18 19  1  0
 19 20  1  0
 20 21  1  0
 21 22  1  0
 13  5  1  0
 22 17  1  0
 12  7  1  0
A    1
 F1 
A    2
 C1 
A    3
 F2 
A    4
 F3 
A    5
 C2 
A    6
 C3 
A    7
 C4 
A    8
 C5 
A    9
 C6 
A   10
 C7 
A   11
 C8 
A   12
 C9 
A   13
 N1 
A   14
 C10
A   15
 C11
A   16
 O1 
A   17
 C12
A   18
 C13
A   19
 C14
A   20
 C15
A   21
 C16
A   22
 O2 
M  END
>  <ref_url>  (9) 
https://github.com/stephwills/fragment_network_merges

>  <submitter_name>  (9) 
Steph Wills

>  <submitter_institution>  (9) 
University of Oxford

>  <submitter_email>  (9) 
stephanie.wills@balliol.ox.ac.uk

>  <generation_date>  (9) 
2023-08-10

>  <method>  (9) 
fragnetv3_corrected

>  <original SMILES>  (9) 
FC(F)(F)C1CC2CCCCC2N1CCOC1CCCCO1

>  <original_name>  (9) 
x0771_0A-x0789_0A_146

>  <ref_mols>  (9) 
x0771_0A,x0789_0A

>  <ref_pdb>  (9) 
x0771_0A

>  <SuCOS_score>  (9) 
0.4291715977477932

>  <compound ID>  (9) 
ENAMINE:PV-002876944946

$$$$
x0771_0A-x0789_0A_88
     RDKit          3D

 23 26  0  0  0  0  0  0  0  0999 V2000
   -7.9540   -9.7960   -3.0850 O   0  0  0  0  0  0  0  0  0  0  0  0
   -8.1410   -9.2160   -4.1530 C   0  0  0  0  0  0  0  0  0  0  0  0
   -9.4480   -8.5000   -4.4020 C   0  0  0  0  0  0  0  0  0  0  0  0
   -9.5670   -7.2090   -3.9100 C   0  0  0  0  0  0  0  0  0  0  0  0
  -10.7240   -6.4750   -4.1120 C   0  0  0  0  0  0  0  0  0  0  0  0
  -11.8190   -6.9940   -4.8140 C   0  0  0  0  0  0  0  0  0  0  0  0
  -13.0430   -6.1380   -5.0010 C   0  0  0  0  0  0  0  0  0  0  0  0
  -12.7230   -4.7850   -5.6280 C   0  0  0  0  0  0  0  0  0  0  0  0
  -11.7710   -3.9980   -4.7270 C   0  0  0  0  0  0  0  0  0  0  0  0
  -12.2010   -4.0650   -3.3680 O   0  0  0  0  0  0  0  0  0  0  0  0
  -13.5590   -4.4890   -3.2280 C   0  0  0  0  0  0  0  0  0  0  0  0
  -13.7290   -5.9280   -3.6540 C   0  0  0  0  0  0  0  0  0  0  0  0
  -11.7540   -8.2940   -5.3190 C   0  0  0  0  0  0  0  0  0  0  0  0
  -10.4900   -9.1000   -5.1030 C   0  0  0  0  0  0  0  0  0  0  0  0
   -7.2410   -9.1530   -5.1890 N   0  0  0  0  0  0  0  0  0  0  0  0
   -7.2010  -10.1460   -6.2450 C   0  0  0  0  0  0  0  0  0  0  0  0
   -7.3440   -9.3630   -7.5500 C   0  0  0  0  0  0  0  0  0  0  0  0
   -7.5250   -7.9170   -7.1130 C   0  0  2  0  0  0  0  0  0  0  0  0
   -6.9040   -6.8380   -7.9690 C   0  0  0  0  0  0  0  0  0  0  0  0
   -7.4370   -5.5060   -7.4530 C   0  0  0  0  0  0  0  0  0  0  0  0
   -7.9900   -5.5670   -6.0090 C   0  0  0  0  0  0  0  0  0  0  0  0
   -7.3120   -6.5820   -5.0570 C   0  0  0  0  0  0  0  0  0  0  0  0
   -6.8630   -7.8640   -5.7700 C   0  0  1  0  0  0  0  0  0  0  0  0
  1  2  2  0
  2  3  1  0
  3  4  2  0
  4  5  1  0
  5  6  2  0
  6  7  1  0
  7  8  1  0
  8  9  1  0
  9 10  1  0
 10 11  1  0
 11 12  1  0
  6 13  1  0
 13 14  2  0
  2 15  1  0
 15 16  1  0
 16 17  1  0
 18 17  1  6
 18 19  1  0
 19 20  1  0
 20 21  1  0
 21 22  1  0
 23 22  1  1
 14  3  1  0
 23 15  1  0
 12  7  1  0
 23 18  1  0
A    1
 O1 
A    2
 C1 
A    3
 C2 
A    4
 C3 
A    5
 C4 
A    6
 C5 
A    7
 C6 
A    8
 C7 
A    9
 C8 
A   10
 O2 
A   11
 C9 
A   12
 C10
A   13
 C11
A   14
 C12
A   15
 N1 
A   16
 C13
A   17
 C14
A   18
 C15
A   19
 C16
A   20
 C17
A   21
 C18
A   22
 C19
A   23
 C20
M  END
>  <ref_url>  (10) 
https://github.com/stephwills/fragment_network_merges

>  <submitter_name>  (10) 
Steph Wills

>  <submitter_institution>  (10) 
University of Oxford

>  <submitter_email>  (10) 
stephanie.wills@balliol.ox.ac.uk

>  <generation_date>  (10) 
2023-08-10

>  <method>  (10) 
fragnetv3_corrected

>  <original SMILES>  (10) 
O=C(c1ccc(C2CCOCC2)cc1)N1CCC2CCCCC21

>  <original_name>  (10) 
x0771_0A-x0789_0A_88

>  <ref_mols>  (10) 
x0771_0A,x0789_0A

>  <ref_pdb>  (10) 
x0771_0A

>  <SuCOS_score>  (10) 
0.42784886090523083

>  <compound ID>  (10) 
ENAMINE:Z3709123132

$$$$
x0771_0A-x0789_0A_134
     RDKit          3D

 18 20  0  0  0  0  0  0  0  0999 V2000
  -10.3840   -9.9470   -4.8580 O   0  0  0  0  0  0  0  0  0  0  0  0
   -9.6210   -8.7400   -4.9050 C   0  0  0  0  0  0  0  0  0  0  0  0
  -10.1960   -7.5180   -4.5800 N   0  0  0  0  0  0  0  0  0  0  0  0
  -11.2310   -6.9530   -5.4470 C   0  0  0  0  0  0  0  0  0  0  0  0
  -12.0460   -5.8010   -4.8770 C   0  0  1  0  0  0  0  0  0  0  0  0
  -13.0180   -6.2090   -3.7800 C   0  0  0  0  0  0  0  0  0  0  0  0
  -13.3170   -4.9470   -3.0080 C   0  0  0  0  0  0  0  0  0  0  0  0
  -12.2550   -4.0290   -3.3430 O   0  0  0  0  0  0  0  0  0  0  0  0
  -11.2700   -4.7370   -4.1280 C   0  0  0  0  0  0  0  0  0  0  0  0
   -8.2770   -8.7520   -5.2860 N   0  0  0  0  0  0  0  0  0  0  0  0
   -7.8700   -9.8370   -6.1990 C   0  0  0  0  0  0  0  0  0  0  0  0
   -7.1830   -9.1110   -7.3570 C   0  0  0  0  0  0  0  0  0  0  0  0
   -7.6030   -7.6680   -7.0820 C   0  0  2  0  0  0  0  0  0  0  0  0
   -6.8410   -6.5960   -7.8280 C   0  0  0  0  0  0  0  0  0  0  0  0
   -7.4900   -5.2620   -7.5230 C   0  0  0  0  0  0  0  0  0  0  0  0
   -8.2020   -5.2450   -6.1550 C   0  0  0  0  0  0  0  0  0  0  0  0
   -7.6440   -6.2140   -5.0950 C   0  0  0  0  0  0  0  0  0  0  0  0
   -7.4050   -7.6260   -5.6040 C   0  0  1  0  0  0  0  0  0  0  0  0
  1  2  2  0
  2  3  1  0
  3  4  1  0
  5  4  1  1
  5  6  1  0
  6  7  1  0
  7  8  1  0
  8  9  1  0
  2 10  1  0
 10 11  1  0
 11 12  1  0
 13 12  1  6
 13 14  1  0
 14 15  1  0
 15 16  1  0
 16 17  1  0
 18 17  1  1
  9  5  1  0
 18 10  1  0
 18 13  1  0
A    1
 O1 
A    2
 C1 
A    3
 N1 
A    4
 C2 
A    5
 C3 
A    6
 C4 
A    7
 C5 
A    8
 O2 
A    9
 C6 
A   10
 N2 
A   11
 C7 
A   12
 C8 
A   13
 C9 
A   14
 C10
A   15
 C11
A   16
 C12
A   17
 C13
A   18
 C14
M  END
>  <ref_url>  (11) 
https://github.com/stephwills/fragment_network_merges

>  <submitter_name>  (11) 
Steph Wills

>  <submitter_institution>  (11) 
University of Oxford

>  <submitter_email>  (11) 
stephanie.wills@balliol.ox.ac.uk

>  <generation_date>  (11) 
2023-08-10

>  <method>  (11) 
fragnetv3_corrected

>  <original SMILES>  (11) 
O=C(NCC1CCOC1)N1CCC2CCCCC21

>  <original_name>  (11) 
x0771_0A-x0789_0A_134

>  <ref_mols>  (11) 
x0771_0A,x0789_0A

>  <ref_pdb>  (11) 
x0771_0A

>  <SuCOS_score>  (11) 
0.42622985524601104

>  <compound ID>  (11) 
ENAMINE:PV-001953281631

$$$$
x0771_0A-x0789_0A_468
     RDKit          3D

 23 26  0  0  0  0  0  0  0  0999 V2000
   -6.7370   -9.9550   -3.8070 O   0  0  0  0  0  0  0  0  0  0  0  0
   -7.6880   -9.8400   -4.5610 C   0  0  0  0  0  0  0  0  0  0  0  0
   -8.9180  -10.4370   -4.3020 N   0  0  0  0  0  0  0  0  0  0  0  0
   -9.9450   -9.6080   -4.5000 C   0  0  0  0  0  0  0  0  0  0  0  0
  -11.1120   -9.9710   -5.1550 N   0  0  0  0  0  0  0  0  0  0  0  0
  -12.0380   -8.8760   -5.2590 C   0  0  0  0  0  0  0  0  0  0  0  0
  -11.4680   -7.6190   -4.6130 C   0  0  0  0  0  0  0  0  0  0  0  0
  -12.2210   -6.2910   -4.5970 C   0  0  0  0  0  0  0  0  0  0  0  0
  -13.1640   -6.1730   -3.4060 C   0  0  0  0  0  0  0  0  0  0  0  0
  -13.7420   -4.7800   -3.2770 C   0  0  0  0  0  0  0  0  0  0  0  0
  -12.7420   -3.7590   -3.2920 O   0  0  0  0  0  0  0  0  0  0  0  0
  -11.4060   -4.2040   -3.4590 C   0  0  0  0  0  0  0  0  0  0  0  0
  -11.2390   -5.1090   -4.6740 C   0  0  0  0  0  0  0  0  0  0  0  0
   -9.9140   -7.9770   -3.9650 S   0  0  0  0  0  0  0  0  0  0  0  0
   -7.6110   -9.0970   -5.7430 N   0  0  0  0  0  0  0  0  0  0  0  0
   -7.6880   -9.6390   -7.0890 C   0  0  0  0  0  0  0  0  0  0  0  0
   -6.8780   -8.6540   -7.9160 C   0  0  0  0  0  0  0  0  0  0  0  0
   -6.4750   -7.4390   -7.1100 C   0  0  1  0  0  0  0  0  0  0  0  0
   -6.7730   -6.1860   -7.9340 C   0  0  0  0  0  0  0  0  0  0  0  0
   -7.9480   -5.3290   -7.4880 C   0  0  0  0  0  0  0  0  0  0  0  0
   -8.0560   -5.2970   -5.9840 C   0  0  0  0  0  0  0  0  0  0  0  0
   -8.2940   -6.7070   -5.4410 C   0  0  0  0  0  0  0  0  0  0  0  0
   -7.1600   -7.6740   -5.7440 C   0  0  1  0  0  0  0  0  0  0  0  0
  1  2  2  0
  2  3  1  0
  3  4  1  0
  4  5  2  0
  5  6  1  0
  6  7  2  0
  7  8  1  0
  8  9  1  0
  9 10  1  0
 10 11  1  0
 11 12  1  0
 12 13  1  0
  7 14  1  0
  2 15  1  0
 15 16  1  0
 16 17  1  0
 18 17  1  6
 18 19  1  0
 19 20  1  0
 20 21  1  0
 21 22  1  0
 23 22  1  6
 14  4  1  0
 23 15  1  0
 13  8  1  0
 23 18  1  0
A    1
 O1 
A    2
 C1 
A    3
 N1 
A    4
 C2 
A    5
 N2 
A    6
 C3 
A    7
 C4 
A    8
 C5 
A    9
 C6 
A   10
 C7 
A   11
 O2 
A   12
 C8 
A   13
 C9 
A   14
 S1 
A   15
 N3 
A   16
 C10
A   17
 C11
A   18
 C12
A   19
 C13
A   20
 C14
A   21
 C15
A   22
 C16
A   23
 C17
M  END
>  <ref_url>  (12) 
https://github.com/stephwills/fragment_network_merges

>  <submitter_name>  (12) 
Steph Wills

>  <submitter_institution>  (12) 
University of Oxford

>  <submitter_email>  (12) 
stephanie.wills@balliol.ox.ac.uk

>  <generation_date>  (12) 
2023-08-10

>  <method>  (12) 
fragnetv3_corrected

>  <original SMILES>  (12) 
O=C(Nc1ncc(C2CCOCC2)s1)N1CCC2CCCCC21

>  <original_name>  (12) 
x0771_0A-x0789_0A_468

>  <ref_mols>  (12) 
x0771_0A,x0789_0A

>  <ref_pdb>  (12) 
x0771_0A

>  <SuCOS_score>  (12) 
0.421497181992613

>  <compound ID>  (12) 
ENAMINE:Z2295681786

$$$$
x0771_0A-x0789_0A_101
     RDKit          3D

 21 23  0  0  0  0  0  0  0  0999 V2000
   -9.9570  -10.9200   -6.5530 O   0  0  0  0  0  0  0  0  0  0  0  0
   -9.3490  -10.0910   -5.8740 C   0  0  0  0  0  0  0  0  0  0  0  0
   -9.9610   -9.2580   -4.9390 N   0  0  0  0  0  0  0  0  0  0  0  0
  -11.3260   -8.7360   -5.0790 C   0  0  0  0  0  0  0  0  0  0  0  0
  -11.3510   -7.1960   -5.1470 C   0  0  0  0  0  0  0  0  0  0  0  0
  -12.7130   -6.6080   -5.0530 N   0  0  0  0  0  0  0  0  0  0  0  0
  -12.8420   -5.4570   -5.9610 C   0  0  0  0  0  0  0  0  0  0  0  0
  -11.7470   -4.3950   -5.8320 C   0  0  0  0  0  0  0  0  0  0  0  0
  -11.2790   -4.2140   -4.3920 C   0  0  0  0  0  0  0  0  0  0  0  0
  -12.3030   -3.9300   -3.4540 O   0  0  0  0  0  0  0  0  0  0  0  0
  -13.3950   -4.8380   -3.3940 C   0  0  0  0  0  0  0  0  0  0  0  0
  -13.0540   -6.3060   -3.6410 C   0  0  0  0  0  0  0  0  0  0  0  0
   -7.8110   -9.8990   -5.9790 C   0  0  1  0  0  0  0  0  0  0  0  0
   -7.3970   -9.2890   -7.3110 C   0  0  0  0  0  0  0  0  0  0  0  0
   -7.6200   -7.8010   -7.0180 C   0  0  2  0  0  0  0  0  0  0  0  0
   -7.0150   -6.7410   -7.9110 C   0  0  0  0  0  0  0  0  0  0  0  0
   -7.5300   -5.3760   -7.4690 C   0  0  0  0  0  0  0  0  0  0  0  0
   -8.1720   -5.4070   -6.0520 C   0  0  0  0  0  0  0  0  0  0  0  0
   -7.5190   -6.3690   -5.0300 C   0  0  0  0  0  0  0  0  0  0  0  0
   -7.0120   -7.6680   -5.6690 C   0  0  1  0  0  0  0  0  0  0  0  0
   -7.4110   -8.8910   -4.9500 N   0  0  0  0  0  0  0  0  0  0  0  0
  1  2  2  0
  2  3  1  0
  3  4  1  0
  4  5  1  0
  5  6  1  0
  6  7  1  0
  7  8  1  0
  8  9  1  0
  9 10  1  0
 10 11  1  0
 11 12  1  0
 13  2  1  6
 13 14  1  0
 15 14  1  6
 15 16  1  0
 16 17  1  0
 17 18  1  0
 18 19  1  0
 20 19  1  1
 20 21  1  0
 12  6  1  0
 21 13  1  0
 20 15  1  0
A    1
 O1 
A    2
 C1 
A    3
 N1 
A    4
 C2 
A    5
 C3 
A    6
 N2 
A    7
 C4 
A    8
 C5 
A    9
 C6 
A   10
 O2 
A   11
 C7 
A   12
 C8 
A   13
 C9 
A   14
 C10
A   15
 C11
A   16
 C12
A   17
 C13
A   18
 C14
A   19
 C15
A   20
 C16
A   21
 N3 
M  END
>  <ref_url>  (13) 
https://github.com/stephwills/fragment_network_merges

>  <submitter_name>  (13) 
Steph Wills

>  <submitter_institution>  (13) 
University of Oxford

>  <submitter_email>  (13) 
stephanie.wills@balliol.ox.ac.uk

>  <generation_date>  (13) 
2023-08-10

>  <method>  (13) 
fragnetv3_corrected

>  <original SMILES>  (13) 
O=C(NCCN1CCCOCC1)C1CC2CCCCC2N1

>  <original_name>  (13) 
x0771_0A-x0789_0A_101

>  <ref_mols>  (13) 
x0771_0A,x0789_0A

>  <ref_pdb>  (13) 
x0771_0A

>  <SuCOS_score>  (13) 
0.41924807211278786

>  <compound ID>  (13) 
ENAMINE:Z3105344180

$$$$
x0771_0A-x0789_0A_147
     RDKit          3D

 19 21  0  0  0  0  0  0  0  0999 V2000
  -10.7520  -10.2250   -5.9240 O   0  0  0  0  0  0  0  0  0  0  0  0
   -9.7220   -9.2530   -5.7750 C   0  0  0  0  0  0  0  0  0  0  0  0
   -9.9800   -7.9060   -5.4550 N   0  0  0  0  0  0  0  0  0  0  0  0
  -11.3120   -7.2730   -5.3470 C   0  0  0  0  0  0  0  0  0  0  0  0
  -11.6340   -6.7440   -3.9400 C   0  0  0  0  0  0  0  0  0  0  0  0
  -10.6900   -5.6110   -3.5230 C   0  0  0  0  0  0  0  0  0  0  0  0
  -11.1580   -4.3220   -4.1480 C   0  0  0  0  0  0  0  0  0  0  0  0
  -12.4170   -3.9680   -3.6150 O   0  0  0  0  0  0  0  0  0  0  0  0
  -13.4340   -4.8950   -3.9930 C   0  0  0  0  0  0  0  0  0  0  0  0
  -13.1090   -6.3670   -3.6950 C   0  0  0  0  0  0  0  0  0  0  0  0
   -8.2000   -9.5950   -5.9360 C   0  0  1  0  0  0  0  0  0  0  0  0
   -7.5170   -9.2480   -7.2400 C   0  0  0  0  0  0  0  0  0  0  0  0
   -7.5960   -7.7610   -7.0630 C   0  0  2  0  0  0  0  0  0  0  0  0
   -6.8740   -6.8140   -7.9900 C   0  0  0  0  0  0  0  0  0  0  0  0
   -7.3570   -5.3990   -7.6550 C   0  0  0  0  0  0  0  0  0  0  0  0
   -8.0700   -5.3300   -6.2800 C   0  0  0  0  0  0  0  0  0  0  0  0
   -7.5170   -6.2570   -5.1630 C   0  0  0  0  0  0  0  0  0  0  0  0
   -7.0130   -7.5920   -5.6910 C   0  0  1  0  0  0  0  0  0  0  0  0
   -7.4280   -8.7980   -4.9400 N   0  0  0  0  0  0  0  0  0  0  0  0
  1  2  2  0
  2  3  1  0
  3  4  1  0
  4  5  1  0
  5  6  1  0
  6  7  1  0
  7  8  1  0
  8  9  1  0
  9 10  1  0
 11  2  1  6
 11 12  1  0
 13 12  1  6
 13 14  1  0
 14 15  1  0
 15 16  1  0
 16 17  1  0
 18 17  1  1
 18 19  1  0
 10  5  1  0
 19 11  1  0
 18 13  1  0
A    1
 O1 
A    2
 C1 
A    3
 N1 
A    4
 C2 
A    5
 C3 
A    6
 C4 
A    7
 C5 
A    8
 O2 
A    9
 C6 
A   10
 C7 
A   11
 C8 
A   12
 C9 
A   13
 C10
A   14
 C11
A   15
 C12
A   16
 C13
A   17
 C14
A   18
 C15
A   19
 N2 
M  END
>  <ref_url>  (14) 
https://github.com/stephwills/fragment_network_merges

>  <submitter_name>  (14) 
Steph Wills

>  <submitter_institution>  (14) 
University of Oxford

>  <submitter_email>  (14) 
stephanie.wills@balliol.ox.ac.uk

>  <generation_date>  (14) 
2023-08-10

>  <method>  (14) 
fragnetv3_corrected

>  <original SMILES>  (14) 
O=C(NCC1CCOCC1)C1CC2CCCCC2N1

>  <original_name>  (14) 
x0771_0A-x0789_0A_147

>  <ref_mols>  (14) 
x0771_0A,x0789_0A

>  <ref_pdb>  (14) 
x0771_0A

>  <SuCOS_score>  (14) 
0.4189577939498579

>  <compound ID>  (14) 
ENAMINE:Z2448160486

$$$$
x0771_0A-x0789_0A_248
     RDKit          3D

 23 26  0  0  0  0  0  0  0  0999 V2000
   -7.8140  -10.3510   -3.8830 O   0  0  0  0  0  0  0  0  0  0  0  0
   -8.4950   -9.9720   -5.0990 C   0  0  0  0  0  0  0  0  0  0  0  0
   -9.7550  -10.4570   -5.4470 N   0  0  0  0  0  0  0  0  0  0  0  0
  -10.8130   -9.6130   -5.3490 C   0  0  0  0  0  0  0  0  0  0  0  0
  -12.1190   -9.7580   -5.5710 N   0  0  0  0  0  0  0  0  0  0  0  0
  -12.7330   -8.5500   -5.2980 C   0  0  0  0  0  0  0  0  0  0  0  0
  -11.7960   -7.4890   -4.8560 C   0  0  0  0  0  0  0  0  0  0  0  0
  -12.1950   -6.0700   -4.4670 C   0  0  0  0  0  0  0  0  0  0  0  0
  -12.0610   -5.0350   -5.5510 C   0  0  0  0  0  0  0  0  0  0  0  0
  -11.6950   -3.8520   -4.6980 C   0  0  0  0  0  0  0  0  0  0  0  0
  -12.4210   -3.8470   -3.4550 O   0  0  0  0  0  0  0  0  0  0  0  0
  -13.7120   -4.4780   -3.4930 C   0  0  0  0  0  0  0  0  0  0  0  0
  -13.5570   -5.9520   -3.8230 C   0  0  0  0  0  0  0  0  0  0  0  0
  -10.2200   -8.0960   -4.8250 S   0  0  0  0  0  0  0  0  0  0  0  0
   -7.9310   -9.0880   -6.0170 N   0  0  0  0  0  0  0  0  0  0  0  0
   -7.6520   -9.6840   -7.3010 C   0  0  0  0  0  0  0  0  0  0  0  0
   -6.8400   -8.6220   -8.0420 C   0  0  0  0  0  0  0  0  0  0  0  0
   -6.5110   -7.4650   -7.1640 C   0  0  1  0  0  0  0  0  0  0  0  0
   -6.8390   -6.1440   -7.8770 C   0  0  0  0  0  0  0  0  0  0  0  0
   -7.9560   -5.2900   -7.3010 C   0  0  0  0  0  0  0  0  0  0  0  0
   -8.7170   -5.9430   -6.1610 C   0  0  0  0  0  0  0  0  0  0  0  0
   -7.8350   -6.6700   -5.1580 C   0  0  0  0  0  0  0  0  0  0  0  0
   -7.1210   -7.8590   -5.7960 C   0  0  1  0  0  0  0  0  0  0  0  0
  1  2  2  0
  2  3  1  0
  3  4  1  0
  4  5  2  0
  5  6  1  0
  6  7  2  0
  7  8  1  0
  8  9  1  0
  9 10  1  0
 10 11  1  0
 11 12  1  0
 12 13  1  0
  7 14  1  0
  2 15  1  0
 15 16  1  0
 16 17  1  0
 18 17  1  6
 18 19  1  0
 19 20  1  0
 20 21  1  0
 21 22  1  0
 23 22  1  6
 14  4  1  0
 23 15  1  0
 13  8  1  0
 23 18  1  0
A    1
 O1 
A    2
 C1 
A    3
 N1 
A    4
 C2 
A    5
 N2 
A    6
 C3 
A    7
 C4 
A    8
 C5 
A    9
 C6 
A   10
 C7 
A   11
 O2 
A   12
 C8 
A   13
 C9 
A   14
 S1 
A   15
 N3 
A   16
 C10
A   17
 C11
A   18
 C12
A   19
 C13
A   20
 C14
A   21
 C15
A   22
 C16
A   23
 C17
M  END
>  <ref_url>  (15) 
https://github.com/stephwills/fragment_network_merges

>  <submitter_name>  (15) 
Steph Wills

>  <submitter_institution>  (15) 
University of Oxford

>  <submitter_email>  (15) 
stephanie.wills@balliol.ox.ac.uk

>  <generation_date>  (15) 
2023-08-10

>  <method>  (15) 
fragnetv3_corrected

>  <original SMILES>  (15) 
O=C(Nc1ncc(C2CCOCC2)s1)N1CCC2CCCCC21

>  <original_name>  (15) 
x0771_0A-x0789_0A_248

>  <ref_mols>  (15) 
x0771_0A,x0789_0A

>  <ref_pdb>  (15) 
x0771_0A

>  <SuCOS_score>  (15) 
0.4186568045644836

>  <compound ID>  (15) 
ENAMINE:Z2295681786

$$$$
x0771_0A-x0789_0A_199
     RDKit          3D

 21 24  0  0  0  0  0  0  0  0999 V2000
   -7.5910   -5.3370   -7.0840 C   0  0  0  0  0  0  0  0  0  0  0  0
   -7.6370   -5.5550   -5.5940 C   0  0  0  0  0  0  0  0  0  0  0  0
   -7.1490   -6.6600   -5.0010 C   0  0  0  0  0  0  0  0  0  0  0  0
   -7.9500   -7.8050   -5.4650 C   0  0  1  0  0  0  0  0  0  0  0  0
   -7.8260   -7.7740   -6.9800 C   0  0  1  0  0  0  0  0  0  0  0  0
   -7.0270   -6.6470   -7.6230 C   0  0  0  0  0  0  0  0  0  0  0  0
   -7.3720   -9.1630   -7.4140 C   0  0  0  0  0  0  0  0  0  0  0  0
   -6.8940   -9.7830   -6.1080 C   0  0  0  0  0  0  0  0  0  0  0  0
   -7.6080   -9.1620   -4.9960 N   0  0  0  0  0  0  0  0  0  0  0  0
   -8.8090   -9.9990   -4.8050 C   0  0  0  0  0  0  0  0  0  0  0  0
  -10.1350   -9.2960   -4.9550 C   0  0  0  0  0  0  0  0  0  0  0  0
  -11.2790   -9.7000   -5.4880 N   0  0  0  0  0  0  0  0  0  0  0  0
  -12.1790   -8.6480   -5.3610 N   0  0  0  0  0  0  0  0  0  0  0  0
  -11.5210   -7.6810   -4.7590 C   0  0  0  0  0  0  0  0  0  0  0  0
  -11.8930   -6.2790   -4.3060 C   0  0  0  0  0  0  0  0  0  0  0  0
  -11.6070   -5.2330   -5.3510 C   0  0  0  0  0  0  0  0  0  0  0  0
  -11.5790   -3.8810   -4.6580 C   0  0  0  0  0  0  0  0  0  0  0  0
  -12.4370   -3.8560   -3.5160 O   0  0  0  0  0  0  0  0  0  0  0  0
  -13.6100   -4.6830   -3.5620 C   0  0  0  0  0  0  0  0  0  0  0  0
  -13.3280   -6.1600   -3.8330 C   0  0  0  0  0  0  0  0  0  0  0  0
  -10.2270   -8.0230   -4.4720 O   0  0  0  0  0  0  0  0  0  0  0  0
  1  2  1  0
  2  3  1  0
  4  3  1  1
  4  5  1  0
  5  6  1  1
  5  7  1  0
  7  8  1  0
  8  9  1  0
  9 10  1  0
 10 11  1  0
 11 12  2  0
 12 13  1  0
 13 14  2  0
 14 15  1  0
 15 16  1  0
 16 17  1  0
 17 18  1  0
 18 19  1  0
 19 20  1  0
 14 21  1  0
  6  1  1  0
 21 11  1  0
  9  4  1  0
 20 15  1  0
A    1
 C1 
A    2
 C2 
A    3
 C3 
A    4
 C4 
A    5
 C5 
A    6
 C6 
A    7
 C7 
A    8
 C8 
A    9
 N1 
A   10
 C9 
A   11
 C10
A   12
 N2 
A   13
 N3 
A   14
 C11
A   15
 C12
A   16
 C13
A   17
 C14
A   18
 O1 
A   19
 C15
A   20
 C16
A   21
 O2 
M  END
>  <ref_url>  (16) 
https://github.com/stephwills/fragment_network_merges

>  <submitter_name>  (16) 
Steph Wills

>  <submitter_institution>  (16) 
University of Oxford

>  <submitter_email>  (16) 
stephanie.wills@balliol.ox.ac.uk

>  <generation_date>  (16) 
2023-08-10

>  <method>  (16) 
fragnetv3_corrected

>  <original SMILES>  (16) 
C1CCC2C(C1)CCN2Cc1nnc(C2CCOCC2)o1

>  <original_name>  (16) 
x0771_0A-x0789_0A_199

>  <ref_mols>  (16) 
x0771_0A,x0789_0A

>  <ref_pdb>  (16) 
x0771_0A

>  <SuCOS_score>  (16) 
0.4180442266787724

>  <compound ID>  (16) 
ENAMINE:Z990541480

$$$$
x0771_0A-x0980_0B_13
     RDKit          3D

 23 25  0  0  0  0  0  0  0  0999 V2000
  -12.0090   -9.5490   -5.6110 O   0  0  0  0  0  0  0  0  0  0  0  0
  -11.0340   -8.9140   -5.2180 C   0  0  0  0  0  0  0  0  0  0  0  0
  -11.0490   -8.0680   -3.9580 C   0  0  0  0  0  0  0  0  0  0  0  0
  -12.2480   -7.1210   -3.9020 C   0  0  0  0  0  0  0  0  0  0  0  0
  -12.1510   -5.9730   -4.9080 C   0  0  0  0  0  0  0  0  0  0  0  0
  -12.4690   -4.6530   -4.3490 N   0  0  0  0  0  0  0  0  0  0  0  0
  -11.7470   -3.5550   -4.8000 C   0  0  0  0  0  0  0  0  0  0  0  0
  -12.1840   -2.3030   -4.6140 C   0  0  0  0  0  0  0  0  0  0  0  0
  -13.4290   -2.0710   -3.9310 C   0  0  0  0  0  0  0  0  0  0  0  0
  -14.1410   -3.0990   -3.4540 C   0  0  0  0  0  0  0  0  0  0  0  0
  -13.6540   -4.4980   -3.6230 C   0  0  0  0  0  0  0  0  0  0  0  0
  -14.3060   -5.4150   -3.1310 O   0  0  0  0  0  0  0  0  0  0  0  0
   -9.8130   -8.8990   -5.8700 N   0  0  0  0  0  0  0  0  0  0  0  0
   -9.1250   -7.6670   -6.2490 C   0  0  0  0  0  0  0  0  0  0  0  0
   -7.7050   -7.8850   -6.8510 C   0  0  1  0  0  0  0  0  0  0  0  0
   -7.2150   -6.7480   -7.7410 C   0  0  0  0  0  0  0  0  0  0  0  0
   -7.6480   -5.4050   -7.1840 C   0  0  0  0  0  0  0  0  0  0  0  0
   -7.8430   -5.4150   -5.6540 C   0  0  0  0  0  0  0  0  0  0  0  0
   -7.1670   -6.5570   -4.8500 C   0  0  0  0  0  0  0  0  0  0  0  0
   -6.8210   -7.8210   -5.6520 C   0  0  1  0  0  0  0  0  0  0  0  0
   -7.0480   -9.1180   -5.0160 N   0  0  0  0  0  0  0  0  0  0  0  0
   -7.2700  -10.1140   -6.0710 C   0  0  0  0  0  0  0  0  0  0  0  0
   -7.4670   -9.3140   -7.3510 C   0  0  0  0  0  0  0  0  0  0  0  0
  1  2  2  0
  2  3  1  0
  3  4  1  0
  4  5  1  0
  5  6  1  0
  6  7  1  0
  7  8  2  0
  8  9  1  0
  9 10  2  0
 10 11  1  0
 11 12  2  0
  2 13  1  0
 13 14  1  0
 15 14  1  1
 15 16  1  0
 16 17  1  0
 17 18  1  0
 18 19  1  0
 20 19  1  1
 20 21  1  0
 21 22  1  0
 22 23  1  0
 11  6  1  0
 20 15  1  0
 23 15  1  0
A    1
 O1 
A    2
 C1 
A    3
 C2 
A    4
 C3 
A    5
 C4 
A    6
 N1 
A    7
 C5 
A    8
 C6 
A    9
 C7 
A   10
 C8 
A   11
 C9 
A   12
 O2 
A   13
 N2 
A   14
 C10
A   15
 C11
A   16
 C12
A   17
 C13
A   18
 C14
A   19
 C15
A   20
 C16
A   21
 N3 
A   22
 C17
A   23
 C18
M  END
>  <ref_url>  (17) 
https://github.com/stephwills/fragment_network_merges

>  <submitter_name>  (17) 
Steph Wills

>  <submitter_institution>  (17) 
University of Oxford

>  <submitter_email>  (17) 
stephanie.wills@balliol.ox.ac.uk

>  <generation_date>  (17) 
2023-08-10

>  <method>  (17) 
fragnetv3_corrected

>  <original SMILES>  (17) 
O=C(CCCn1ccccc1=O)NCC12CCCCC1NCC2

>  <original_name>  (17) 
x0771_0A-x0980_0B_13

>  <ref_mols>  (17) 
x0771_0A,x0980_0B

>  <ref_pdb>  (17) 
x0771_0A

>  <SuCOS_score>  (17) 
0.3845953720903663

>  <compound ID>  (17) 
ENAMINE:Z3385426260

$$$$
x0771_0A-x0980_0B_4
     RDKit          3D

 21 23  0  0  0  0  0  0  0  0999 V2000
  -10.2510   -6.1710   -3.7470 O   0  0  0  0  0  0  0  0  0  0  0  0
  -10.8190   -6.2610   -4.8340 C   0  0  0  0  0  0  0  0  0  0  0  0
  -12.2940   -5.9180   -4.9940 C   0  0  0  0  0  0  0  0  0  0  0  0
  -12.5550   -4.6000   -4.4140 N   0  0  0  0  0  0  0  0  0  0  0  0
  -11.8060   -3.5130   -4.8390 C   0  0  0  0  0  0  0  0  0  0  0  0
  -12.2150   -2.2570   -4.6130 C   0  0  0  0  0  0  0  0  0  0  0  0
  -13.4520   -2.0210   -3.9160 C   0  0  0  0  0  0  0  0  0  0  0  0
  -14.1730   -3.0450   -3.4410 C   0  0  0  0  0  0  0  0  0  0  0  0
  -13.6980   -4.4410   -3.6320 C   0  0  0  0  0  0  0  0  0  0  0  0
  -14.3140   -5.3690   -3.1100 O   0  0  0  0  0  0  0  0  0  0  0  0
  -10.1930   -6.6790   -5.9960 N   0  0  0  0  0  0  0  0  0  0  0  0
   -9.5100   -7.9530   -6.0280 C   0  0  0  0  0  0  0  0  0  0  0  0
   -8.0480   -7.9640   -6.5520 C   0  0  1  0  0  0  0  0  0  0  0  0
   -7.6330   -6.6890   -7.3650 C   0  0  0  0  0  0  0  0  0  0  0  0
   -7.6660   -5.3780   -6.6270 C   0  0  0  0  0  0  0  0  0  0  0  0
   -7.5420   -5.5800   -5.1260 C   0  0  0  0  0  0  0  0  0  0  0  0
   -6.7070   -6.8140   -4.7570 C   0  0  0  0  0  0  0  0  0  0  0  0
   -7.3740   -8.1000   -5.2060 C   0  0  2  0  0  0  0  0  0  0  0  0
   -6.4900   -9.2640   -5.2510 N   0  0  0  0  0  0  0  0  0  0  0  0
   -7.0650  -10.1800   -6.2350 C   0  0  0  0  0  0  0  0  0  0  0  0
   -7.7310   -9.3030   -7.2770 C   0  0  0  0  0  0  0  0  0  0  0  0
  1  2  2  0
  2  3  1  0
  3  4  1  0
  4  5  1  0
  5  6  2  0
  6  7  1  0
  7  8  2  0
  8  9  1  0
  9 10  2  0
  2 11  1  0
 11 12  1  0
 13 12  1  1
 13 14  1  0
 14 15  1  0
 15 16  1  0
 16 17  1  0
 18 17  1  6
 18 19  1  0
 19 20  1  0
 20 21  1  0
  9  4  1  0
 18 13  1  0
 21 13  1  0
A    1
 O1 
A    2
 C1 
A    3
 C2 
A    4
 N1 
A    5
 C3 
A    6
 C4 
A    7
 C5 
A    8
 C6 
A    9
 C7 
A   10
 O2 
A   11
 N2 
A   12
 C8 
A   13
 C9 
A   14
 C10
A   15
 C11
A   16
 C12
A   17
 C13
A   18
 C14
A   19
 N3 
A   20
 C15
A   21
 C16
M  END
>  <ref_url>  (18) 
https://github.com/stephwills/fragment_network_merges

>  <submitter_name>  (18) 
Steph Wills

>  <submitter_institution>  (18) 
University of Oxford

>  <submitter_email>  (18) 
stephanie.wills@balliol.ox.ac.uk

>  <generation_date>  (18) 
2023-08-10

>  <method>  (18) 
fragnetv3_corrected

>  <original SMILES>  (18) 
O=C(Cn1ccccc1=O)NCC12CCCCC1NCC2

>  <original_name>  (18) 
x0771_0A-x0980_0B_4

>  <ref_mols>  (18) 
x0771_0A,x0980_0B

>  <ref_pdb>  (18) 
x0771_0A

>  <SuCOS_score>  (18) 
0.3561196894561311

>  <compound ID>  (18) 
ENAMINE:Z3385427566

$$$$
x0771_0A-x0980_0B_27
     RDKit          3D

 23 25  0  0  0  0  0  0  0  0999 V2000
  -12.6250   -7.4550   -5.2410 O   0  0  0  0  0  0  0  0  0  0  0  0
  -11.6140   -6.8160   -5.5160 C   0  0  0  0  0  0  0  0  0  0  0  0
  -11.6420   -5.3030   -5.8200 C   0  0  0  0  0  0  0  0  0  0  0  0
  -13.0780   -4.7310   -5.9560 C   0  0  0  0  0  0  0  0  0  0  0  0
  -13.2100   -3.1780   -5.9500 C   0  0  0  0  0  0  0  0  0  0  0  0
  -13.1700   -2.5850   -4.6260 N   0  0  0  0  0  0  0  0  0  0  0  0
  -11.8820   -2.4240   -4.1730 C   0  0  0  0  0  0  0  0  0  0  0  0
  -11.3830   -3.3370   -3.3350 C   0  0  0  0  0  0  0  0  0  0  0  0
  -12.2190   -4.4450   -2.9250 C   0  0  0  0  0  0  0  0  0  0  0  0
  -13.5450   -4.3650   -3.0980 C   0  0  0  0  0  0  0  0  0  0  0  0
  -14.0740   -3.1320   -3.7230 C   0  0  0  0  0  0  0  0  0  0  0  0
  -15.1880   -2.6990   -3.4360 O   0  0  0  0  0  0  0  0  0  0  0  0
  -10.3440   -7.4090   -5.5960 N   0  0  0  0  0  0  0  0  0  0  0  0
   -9.2950   -6.8420   -6.4300 C   0  0  0  0  0  0  0  0  0  0  0  0
   -7.9330   -7.5990   -6.6890 C   0  0  1  0  0  0  0  0  0  0  0  0
   -7.1710   -6.6860   -7.6310 C   0  0  0  0  0  0  0  0  0  0  0  0
   -7.5000   -5.2610   -7.2040 C   0  0  0  0  0  0  0  0  0  0  0  0
   -7.8940   -5.1300   -5.7050 C   0  0  0  0  0  0  0  0  0  0  0  0
   -7.3950   -6.2300   -4.7320 C   0  0  0  0  0  0  0  0  0  0  0  0
   -7.1210   -7.5600   -5.4250 C   0  0  1  0  0  0  0  0  0  0  0  0
   -7.4560   -8.8090   -4.7510 N   0  0  0  0  0  0  0  0  0  0  0  0
   -7.4040   -9.8230   -5.8020 C   0  0  0  0  0  0  0  0  0  0  0  0
   -7.9620   -9.1170   -7.0270 C   0  0  0  0  0  0  0  0  0  0  0  0
  1  2  2  0
  2  3  1  0
  3  4  1  0
  4  5  1  0
  5  6  1  0
  6  7  1  0
  7  8  2  0
  8  9  1  0
  9 10  2  0
 10 11  1  0
 11 12  2  0
  2 13  1  0
 13 14  1  0
 15 14  1  1
 15 16  1  0
 16 17  1  0
 17 18  1  0
 18 19  1  0
 20 19  1  1
 20 21  1  0
 21 22  1  0
 22 23  1  0
 11  6  1  0
 20 15  1  0
 23 15  1  0
A    1
 O1 
A    2
 C1 
A    3
 C2 
A    4
 C3 
A    5
 C4 
A    6
 N1 
A    7
 C5 
A    8
 C6 
A    9
 C7 
A   10
 C8 
A   11
 C9 
A   12
 O2 
A   13
 N2 
A   14
 C10
A   15
 C11
A   16
 C12
A   17
 C13
A   18
 C14
A   19
 C15
A   20
 C16
A   21
 N3 
A   22
 C17
A   23
 C18
M  END
>  <ref_url>  (19) 
https://github.com/stephwills/fragment_network_merges

>  <submitter_name>  (19) 
Steph Wills

>  <submitter_institution>  (19) 
University of Oxford

>  <submitter_email>  (19) 
stephanie.wills@balliol.ox.ac.uk

>  <generation_date>  (19) 
2023-08-10

>  <method>  (19) 
fragnetv3_corrected

>  <original SMILES>  (19) 
O=C(CCCn1ccccc1=O)NCC12CCCCC1NCC2

>  <original_name>  (19) 
x0771_0A-x0980_0B_27

>  <ref_mols>  (19) 
x0771_0A,x0980_0B

>  <ref_pdb>  (19) 
x0771_0A

>  <SuCOS_score>  (19) 
0.3439069991481125

>  <compound ID>  (19) 
ENAMINE:Z3385426260

$$$$
x0771_0A-x0980_0B_9
     RDKit          3D

 23 25  0  0  0  0  0  0  0  0999 V2000
   -5.3120   -7.9950   -3.3870 C   0  0  0  0  0  0  0  0  0  0  0  0
   -6.5050   -8.8810   -3.6470 C   0  0  0  0  0  0  0  0  0  0  0  0
   -6.8520   -9.7310   -2.8260 O   0  0  0  0  0  0  0  0  0  0  0  0
   -7.1730   -8.6850   -4.8390 N   0  0  0  0  0  0  0  0  0  0  0  0
   -7.2750   -9.7000   -5.8880 C   0  0  0  0  0  0  0  0  0  0  0  0
   -7.7730   -8.9530   -7.1210 C   0  0  0  0  0  0  0  0  0  0  0  0
   -8.0890   -7.4900   -6.6440 C   0  0  2  0  0  0  0  0  0  0  0  0
   -9.6090   -7.2320   -6.2210 C   0  0  0  0  0  0  0  0  0  0  0  0
  -10.0710   -6.3800   -5.0910 N   0  0  0  0  0  0  0  0  0  0  0  0
  -11.4520   -6.2710   -4.7830 C   0  0  0  0  0  0  0  0  0  0  0  0
  -12.1810   -7.2590   -4.7630 O   0  0  0  0  0  0  0  0  0  0  0  0
  -12.0750   -4.9070   -4.4720 C   0  0  0  0  0  0  0  0  0  0  0  0
  -13.2150   -4.8100   -3.7440 C   0  0  0  0  0  0  0  0  0  0  0  0
  -13.7910   -3.5150   -3.4660 C   0  0  0  0  0  0  0  0  0  0  0  0
  -13.2460   -2.4100   -3.9830 C   0  0  0  0  0  0  0  0  0  0  0  0
  -12.0510   -2.5020   -4.8450 C   0  0  0  0  0  0  0  0  0  0  0  0
  -11.6390   -1.5000   -5.4200 O   0  0  0  0  0  0  0  0  0  0  0  0
  -11.4480   -3.7310   -4.9650 O   0  0  0  0  0  0  0  0  0  0  0  0
   -7.6990   -6.3900   -7.6230 C   0  0  0  0  0  0  0  0  0  0  0  0
   -7.6000   -5.0430   -6.9720 C   0  0  0  0  0  0  0  0  0  0  0  0
   -8.0620   -5.0120   -5.5010 C   0  0  0  0  0  0  0  0  0  0  0  0
   -7.6020   -6.1880   -4.6190 C   0  0  0  0  0  0  0  0  0  0  0  0
   -7.1660   -7.3620   -5.4630 C   0  0  1  0  0  0  0  0  0  0  0  0
  1  2  1  0
  2  3  2  0
  2  4  1  0
  4  5  1  0
  5  6  1  0
  6  7  1  0
  7  8  1  1
  8  9  1  0
  9 10  1  0
 10 11  2  0
 10 12  1  0
 12 13  2  0
 13 14  1  0
 14 15  2  0
 15 16  1  0
 16 17  2  0
 16 18  1  0
  7 19  1  0
 19 20  1  0
 20 21  1  0
 21 22  1  0
 23 22  1  1
 23  4  1  0
 23  7  1  0
 18 12  1  0
A    1
 C1 
A    2
 C2 
A    3
 O1 
A    4
 N1 
A    5
 C3 
A    6
 C4 
A    7
 C5 
A    8
 C6 
A    9
 N2 
A   10
 C7 
A   11
 O2 
A   12
 C8 
A   13
 C9 
A   14
 C10
A   15
 C11
A   16
 C12
A   17
 O3 
A   18
 O4 
A   19
 C13
A   20
 C14
A   21
 C15
A   22
 C16
A   23
 C17
M  END
>  <ref_url>  (20) 
https://github.com/stephwills/fragment_network_merges

>  <submitter_name>  (20) 
Steph Wills

>  <submitter_institution>  (20) 
University of Oxford

>  <submitter_email>  (20) 
stephanie.wills@balliol.ox.ac.uk

>  <generation_date>  (20) 
2023-08-10

>  <method>  (20) 
fragnetv3_corrected

>  <original SMILES>  (20) 
CC(=O)N1CCC2(CNC(=O)c3cccc(=O)o3)CCCCC12

>  <original_name>  (20) 
x0771_0A-x0980_0B_9

>  <ref_mols>  (20) 
x0771_0A,x0980_0B

>  <ref_pdb>  (20) 
x0771_0A

>  <SuCOS_score>  (20) 
0.3394086755946787

>  <compound ID>  (20) 
ENAMINE:PV-003214131428

$$$$
x0771_0A-x0980_0B_18
     RDKit          3D

 21 23  0  0  0  0  0  0  0  0999 V2000
  -11.4570   -4.3860   -6.3020 O   0  0  0  0  0  0  0  0  0  0  0  0
  -10.8540   -4.5890   -5.2500 C   0  0  0  0  0  0  0  0  0  0  0  0
  -10.9950   -3.5690   -4.0270 C   0  0  0  0  0  0  0  0  0  0  0  0
  -12.2330   -2.7750   -4.0390 N   0  0  0  0  0  0  0  0  0  0  0  0
  -12.6420   -2.5730   -5.3100 C   0  0  0  0  0  0  0  0  0  0  0  0
  -13.4140   -3.5240   -5.8270 C   0  0  0  0  0  0  0  0  0  0  0  0
  -13.7780   -4.6680   -5.0040 C   0  0  0  0  0  0  0  0  0  0  0  0
  -13.6990   -4.5580   -3.6760 C   0  0  0  0  0  0  0  0  0  0  0  0
  -13.2100   -3.2650   -3.1830 C   0  0  0  0  0  0  0  0  0  0  0  0
  -13.6350   -2.7350   -2.1560 O   0  0  0  0  0  0  0  0  0  0  0  0
  -10.0040   -5.7470   -5.1180 N   0  0  0  0  0  0  0  0  0  0  0  0
   -9.8140   -6.7980   -6.1890 C   0  0  0  0  0  0  0  0  0  0  0  0
   -8.3660   -7.4770   -6.4040 C   0  0  1  0  0  0  0  0  0  0  0  0
   -7.5630   -6.5310   -7.3120 C   0  0  0  0  0  0  0  0  0  0  0  0
   -7.6380   -5.1230   -6.8130 C   0  0  0  0  0  0  0  0  0  0  0  0
   -7.7080   -5.1340   -5.2820 C   0  0  0  0  0  0  0  0  0  0  0  0
   -7.0590   -6.3660   -4.6320 C   0  0  0  0  0  0  0  0  0  0  0  0
   -7.7710   -7.6370   -5.0280 C   0  0  2  0  0  0  0  0  0  0  0  0
   -6.8510   -8.7780   -5.0480 N   0  0  0  0  0  0  0  0  0  0  0  0
   -7.4390   -9.7550   -5.9510 C   0  0  0  0  0  0  0  0  0  0  0  0
   -8.3090   -8.9650   -6.9090 C   0  0  0  0  0  0  0  0  0  0  0  0
  1  2  2  0
  2  3  1  0
  3  4  1  0
  4  5  1  0
  5  6  2  0
  6  7  1  0
  7  8  2  0
  8  9  1  0
  9 10  2  0
  2 11  1  0
 11 12  1  0
 13 12  1  1
 13 14  1  0
 14 15  1  0
 15 16  1  0
 16 17  1  0
 18 17  1  6
 18 19  1  0
 19 20  1  0
 20 21  1  0
  9  4  1  0
 18 13  1  0
 21 13  1  0
A    1
 O1 
A    2
 C1 
A    3
 C2 
A    4
 N1 
A    5
 C3 
A    6
 C4 
A    7
 C5 
A    8
 C6 
A    9
 C7 
A   10
 O2 
A   11
 N2 
A   12
 C8 
A   13
 C9 
A   14
 C10
A   15
 C11
A   16
 C12
A   17
 C13
A   18
 C14
A   19
 N3 
A   20
 C15
A   21
 C16
M  END
>  <ref_url>  (21) 
https://github.com/stephwills/fragment_network_merges

>  <submitter_name>  (21) 
Steph Wills

>  <submitter_institution>  (21) 
University of Oxford

>  <submitter_email>  (21) 
stephanie.wills@balliol.ox.ac.uk

>  <generation_date>  (21) 
2023-08-10

>  <method>  (21) 
fragnetv3_corrected

>  <original SMILES>  (21) 
O=C(Cn1ccccc1=O)NCC12CCCCC1NCC2

>  <original_name>  (21) 
x0771_0A-x0980_0B_18

>  <ref_mols>  (21) 
x0771_0A,x0980_0B

>  <ref_pdb>  (21) 
x0771_0A

>  <SuCOS_score>  (21) 
0.33583520745303125

>  <compound ID>  (21) 
ENAMINE:Z3385427566

$$$$
x0771_0A-x0980_0B_22
     RDKit          3D

 22 25  0  0  0  0  0  0  0  0999 V2000
  -11.4260   -7.8930   -5.2820 O   0  0  0  0  0  0  0  0  0  0  0  0
  -10.6420   -6.9450   -5.2850 C   0  0  0  0  0  0  0  0  0  0  0  0
  -11.4670   -5.6360   -4.8300 C   0  0  0  0  0  0  0  0  0  0  0  0
  -12.6330   -6.0250   -4.1330 C   0  0  0  0  0  0  0  0  0  0  0  0
  -13.5970   -5.1420   -3.6010 C   0  0  0  0  0  0  0  0  0  0  0  0
  -13.4720   -3.7800   -3.7270 C   0  0  0  0  0  0  0  0  0  0  0  0
  -12.3680   -3.3240   -4.3910 C   0  0  0  0  0  0  0  0  0  0  0  0
  -11.3560   -4.1860   -4.9460 C   0  0  0  0  0  0  0  0  0  0  0  0
  -10.3500   -3.3070   -5.5650 C   0  0  0  0  0  0  0  0  0  0  0  0
  -10.7860   -1.9620   -4.9630 C   0  0  0  0  0  0  0  0  0  0  0  0
  -12.1720   -1.9860   -4.5620 O   0  0  0  0  0  0  0  0  0  0  0  0
   -9.2550   -7.3490   -5.6790 N   0  0  0  0  0  0  0  0  0  0  0  0
   -8.9570   -8.7860   -6.0040 C   0  0  2  0  0  0  0  0  0  0  0  0
   -8.8670   -9.6640   -4.7430 C   0  0  0  0  0  0  0  0  0  0  0  0
   -8.6660  -11.0330   -5.0950 O   0  0  0  0  0  0  0  0  0  0  0  0
   -7.6220   -8.8050   -6.7830 C   0  0  0  0  0  0  0  0  0  0  0  0
   -7.0360   -7.4130   -6.5350 C   0  0  1  0  0  0  0  0  0  0  0  0
   -6.8790   -6.5840   -7.8160 C   0  0  0  0  0  0  0  0  0  0  0  0
   -7.4250   -5.1500   -7.8120 C   0  0  0  0  0  0  0  0  0  0  0  0
   -8.3420   -4.7500   -6.6630 C   0  0  0  0  0  0  0  0  0  0  0  0
   -7.9200   -5.3220   -5.3370 C   0  0  0  0  0  0  0  0  0  0  0  0
   -7.9290   -6.8180   -5.4060 C   0  0  1  0  0  0  0  0  0  0  0  0
  1  2  2  0
  2  3  1  0
  3  4  2  0
  4  5  1  0
  5  6  2  0
  6  7  1  0
  7  8  2  0
  8  9  1  0
  9 10  1  0
 10 11  1  0
  2 12  1  0
 12 13  1  0
 13 14  1  1
 14 15  1  0
 13 16  1  0
 17 16  1  6
 17 18  1  0
 18 19  1  0
 19 20  1  0
 20 21  1  0
 22 21  1  6
  8  3  1  0
 22 12  1  0
 11  7  1  0
 22 17  1  0
A    1
 O1 
A    2
 C1 
A    3
 C2 
A    4
 C3 
A    5
 C4 
A    6
 C5 
A    7
 C6 
A    8
 C7 
A    9
 C8 
A   10
 C9 
A   11
 O2 
A   12
 N1 
A   13
 C10
A   14
 C11
A   15
 O3 
A   16
 C12
A   17
 C13
A   18
 C14
A   19
 C15
A   20
 C16
A   21
 C17
A   22
 C18
M  END
>  <ref_url>  (22) 
https://github.com/stephwills/fragment_network_merges

>  <submitter_name>  (22) 
Steph Wills

>  <submitter_institution>  (22) 
University of Oxford

>  <submitter_email>  (22) 
stephanie.wills@balliol.ox.ac.uk

>  <generation_date>  (22) 
2023-08-10

>  <method>  (22) 
fragnetv3_corrected

>  <original SMILES>  (22) 
O=C(c1cccc2c1CCO2)N1C(CO)CC2CCCCC21

>  <original_name>  (22) 
x0771_0A-x0980_0B_22

>  <ref_mols>  (22) 
x0771_0A,x0980_0B

>  <ref_pdb>  (22) 
x0771_0A

>  <SuCOS_score>  (22) 
0.32462072807550624

>  <compound ID>  (22) 
ENAMINE:Z3595368118

$$$$
x0771_0A-x0980_0B_25
     RDKit          3D

 23 26  0  0  0  0  0  0  0  0999 V2000
  -11.8890   -8.1320   -5.3770 O   0  0  0  0  0  0  0  0  0  0  0  0
  -10.9960   -7.4560   -4.4610 S   0  0  0  0  0  6  0  0  0  0  0  0
  -10.9960   -7.8790   -3.0750 O   0  0  0  0  0  0  0  0  0  0  0  0
  -11.6330   -5.6720   -4.3950 C   0  0  0  0  0  0  0  0  0  0  0  0
  -10.9990   -4.5310   -4.9940 C   0  0  0  0  0  0  0  0  0  0  0  0
  -11.5480   -3.2130   -4.8930 C   0  0  0  0  0  0  0  0  0  0  0  0
  -12.7340   -3.0160   -4.1980 C   0  0  0  0  0  0  0  0  0  0  0  0
  -13.3660   -4.1020   -3.6150 C   0  0  0  0  0  0  0  0  0  0  0  0
  -12.8570   -5.4100   -3.6920 C   0  0  0  0  0  0  0  0  0  0  0  0
  -14.5250   -3.7630   -2.9630 O   0  0  0  0  0  0  0  0  0  0  0  0
  -14.8030   -2.4130   -3.4160 C   0  0  0  0  0  0  0  0  0  0  0  0
  -13.5150   -1.7720   -3.9390 C   0  0  0  0  0  0  0  0  0  0  0  0
   -9.3550   -7.8150   -5.0400 N   0  0  0  0  0  0  0  0  0  0  0  0
   -8.6240   -9.1560   -5.1230 C   0  0  2  0  0  0  0  0  0  0  0  0
   -8.4460   -9.8130   -3.7480 C   0  0  0  0  0  0  0  0  0  0  0  0
   -7.9850  -11.1580   -3.8860 O   0  0  0  0  0  0  0  0  0  0  0  0
   -7.2550   -8.7830   -5.7750 C   0  0  0  0  0  0  0  0  0  0  0  0
   -7.7830   -7.9100   -6.8690 C   0  0  2  0  0  0  0  0  0  0  0  0
   -6.9110   -6.9700   -7.6860 C   0  0  0  0  0  0  0  0  0  0  0  0
   -7.6610   -5.6390   -7.8700 C   0  0  0  0  0  0  0  0  0  0  0  0
   -7.8330   -4.9110   -6.5590 C   0  0  0  0  0  0  0  0  0  0  0  0
   -8.2070   -5.8630   -5.4790 C   0  0  0  0  0  0  0  0  0  0  0  0
   -8.8260   -7.0540   -6.1420 C   0  0  2  0  0  0  0  0  0  0  0  0
  1  2  2  0
  2  3  2  0
  2  4  1  0
  4  5  2  0
  5  6  1  0
  6  7  2  0
  7  8  1  0
  8  9  2  0
  8 10  1  0
 10 11  1  0
 11 12  1  0
  2 13  1  0
 13 14  1  0
 14 15  1  1
 15 16  1  0
 14 17  1  0
 18 17  1  1
 18 19  1  0
 19 20  1  0
 20 21  1  0
 21 22  1  0
 23 22  1  1
  9  4  1  0
 23 13  1  0
 12  7  1  0
 23 18  1  0
A    1
 O1 
A    2
 S1 
A    3
 O2 
A    4
 C1 
A    5
 C2 
A    6
 C3 
A    7
 C4 
A    8
 C5 
A    9
 C6 
A   10
 O3 
A   11
 C7 
A   12
 C8 
A   13
 N1 
A   14
 C9 
A   15
 C10
A   16
 O4 
A   17
 C11
A   18
 C12
A   19
 C13
A   20
 C14
A   21
 C15
A   22
 C16
A   23
 C17
M  END
>  <ref_url>  (23) 
https://github.com/stephwills/fragment_network_merges

>  <submitter_name>  (23) 
Steph Wills

>  <submitter_institution>  (23) 
University of Oxford

>  <submitter_email>  (23) 
stephanie.wills@balliol.ox.ac.uk

>  <generation_date>  (23) 
2023-08-10

>  <method>  (23) 
fragnetv3_corrected

>  <original SMILES>  (23) 
O=S(=O)(c1ccc2c(c1)OCC2)N1C(CO)CC2CCCCC21

>  <original_name>  (23) 
x0771_0A-x0980_0B_25

>  <ref_mols>  (23) 
x0771_0A,x0980_0B

>  <ref_pdb>  (23) 
x0771_0A

>  <SuCOS_score>  (23) 
0.3233254347776455

>  <compound ID>  (23) 
ENAMINE:Z3620515155

$$$$
x0771_0A-x0980_0B_20
     RDKit          3D

 24 27  0  0  0  0  0  0  0  0999 V2000
   -6.9480  -11.0890   -7.1630 C   0  0  0  0  0  0  0  0  0  0  0  0
   -7.2790   -9.7860   -7.8370 C   0  0  0  0  0  0  0  0  0  0  0  0
   -6.8060   -9.4840   -8.9280 O   0  0  0  0  0  0  0  0  0  0  0  0
   -8.1630   -8.9830   -7.1480 N   0  0  0  0  0  0  0  0  0  0  0  0
   -7.7660   -7.6430   -6.6590 C   0  0  1  0  0  0  0  0  0  0  0  0
   -7.0350   -6.7320   -7.6730 C   0  0  0  0  0  0  0  0  0  0  0  0
   -7.8970   -5.5170   -8.0590 C   0  0  0  0  0  0  0  0  0  0  0  0
   -8.2010   -4.6020   -6.9200 C   0  0  0  0  0  0  0  0  0  0  0  0
   -8.1330   -5.4080   -5.6720 C   0  0  0  0  0  0  0  0  0  0  0  0
   -8.8370   -6.6790   -6.0720 C   0  0  2  0  0  0  0  0  0  0  0  0
   -9.4850   -7.2600   -4.9620 N   0  0  0  0  0  0  0  0  0  0  0  0
  -10.1020   -6.3960   -3.9370 C   0  0  0  0  0  0  0  0  0  0  0  0
   -9.6250   -6.4230   -2.8010 O   0  0  0  0  0  0  0  0  0  0  0  0
  -11.3340   -5.4060   -4.0570 C   0  0  0  0  0  0  0  0  0  0  0  0
  -12.5870   -5.9850   -4.2980 C   0  0  0  0  0  0  0  0  0  0  0  0
  -13.7770   -5.2240   -4.3910 C   0  0  0  0  0  0  0  0  0  0  0  0
  -13.7870   -3.8410   -4.2510 C   0  0  0  0  0  0  0  0  0  0  0  0
  -12.5890   -3.2210   -4.0200 C   0  0  0  0  0  0  0  0  0  0  0  0
  -11.3800   -3.9660   -3.9230 C   0  0  0  0  0  0  0  0  0  0  0  0
  -10.3220   -3.1400   -3.6780 O   0  0  0  0  0  0  0  0  0  0  0  0
  -10.8310   -1.7960   -3.8960 C   0  0  0  0  0  0  0  0  0  0  0  0
  -12.3590   -1.7710   -3.8380 C   0  0  0  0  0  0  0  0  0  0  0  0
   -8.5160   -8.3540   -4.6060 C   0  0  0  0  0  0  0  0  0  0  0  0
   -7.1810   -8.0200   -5.3390 C   0  0  0  0  0  0  0  0  0  0  0  0
  1  2  1  0
  2  3  2  0
  2  4  1  0
  5  4  1  6
  5  6  1  0
  6  7  1  0
  7  8  1  0
  8  9  1  0
 10  9  1  1
 10 11  1  0
 11 12  1  0
 12 13  2  0
 12 14  1  0
 14 15  2  0
 15 16  1  0
 16 17  2  0
 17 18  1  0
 18 19  2  0
 19 20  1  0
 20 21  1  0
 21 22  1  0
 11 23  1  0
 23 24  1  0
 10  5  1  0
 19 14  1  0
 24  5  1  0
 22 18  1  0
A    1
 C1 
A    2
 C2 
A    3
 O1 
A    4
 N1 
A    5
 C3 
A    6
 C4 
A    7
 C5 
A    8
 C6 
A    9
 C7 
A   10
 C8 
A   11
 N2 
A   12
 C9 
A   13
 O2 
A   14
 C10
A   15
 C11
A   16
 C12
A   17
 C13
A   18
 C14
A   19
 C15
A   20
 O3 
A   21
 C16
A   22
 C17
A   23
 C18
A   24
 C19
M  END
>  <ref_url>  (24) 
https://github.com/stephwills/fragment_network_merges

>  <submitter_name>  (24) 
Steph Wills

>  <submitter_institution>  (24) 
University of Oxford

>  <submitter_email>  (24) 
stephanie.wills@balliol.ox.ac.uk

>  <generation_date>  (24) 
2023-08-10

>  <method>  (24) 
fragnetv3_corrected

>  <original SMILES>  (24) 
CC(=O)NC12CCCCC1N(C(=O)c1cccc3c1OCC3)CC2

>  <original_name>  (24) 
x0771_0A-x0980_0B_20

>  <ref_mols>  (24) 
x0771_0A,x0980_0B

>  <ref_pdb>  (24) 
x0771_0A

>  <SuCOS_score>  (24) 
0.3206226303272851

>  <compound ID>  (24) 
ENAMINE:PV-003233555333

$$$$
x0771_0A-x0980_0B_8
     RDKit          3D

 22 25  0  0  0  0  0  0  0  0999 V2000
  -11.8170   -7.7170   -4.6740 O   0  0  0  0  0  0  0  0  0  0  0  0
  -11.0320   -6.8170   -4.9750 C   0  0  0  0  0  0  0  0  0  0  0  0
  -11.6250   -5.3970   -4.7060 C   0  0  0  0  0  0  0  0  0  0  0  0
  -11.0270   -4.1700   -5.0910 C   0  0  0  0  0  0  0  0  0  0  0  0
  -11.6350   -2.9100   -4.8110 C   0  0  0  0  0  0  0  0  0  0  0  0
  -12.8570   -2.8280   -4.1380 C   0  0  0  0  0  0  0  0  0  0  0  0
  -13.4450   -4.0150   -3.7580 C   0  0  0  0  0  0  0  0  0  0  0  0
  -12.8630   -5.2670   -4.0250 C   0  0  0  0  0  0  0  0  0  0  0  0
  -13.7580   -6.3170   -3.4820 C   0  0  0  0  0  0  0  0  0  0  0  0
  -14.6520   -5.4510   -2.5930 C   0  0  0  0  0  0  0  0  0  0  0  0
  -14.6410   -4.0940   -3.0920 O   0  0  0  0  0  0  0  0  0  0  0  0
   -9.7160   -7.2230   -5.5270 N   0  0  0  0  0  0  0  0  0  0  0  0
   -9.4260   -8.6860   -5.7680 C   0  0  2  0  0  0  0  0  0  0  0  0
   -9.3660   -9.4720   -4.4440 C   0  0  0  0  0  0  0  0  0  0  0  0
   -9.2330  -10.8720   -4.6890 O   0  0  0  0  0  0  0  0  0  0  0  0
   -8.0740   -8.7850   -6.5210 C   0  0  0  0  0  0  0  0  0  0  0  0
   -7.4490   -7.4100   -6.2940 C   0  0  1  0  0  0  0  0  0  0  0  0
   -7.2140   -6.5580   -7.5450 C   0  0  0  0  0  0  0  0  0  0  0  0
   -8.2050   -5.4180   -7.7220 C   0  0  0  0  0  0  0  0  0  0  0  0
   -8.4940   -4.5840   -6.4890 C   0  0  0  0  0  0  0  0  0  0  0  0
   -8.1420   -5.2590   -5.1810 C   0  0  0  0  0  0  0  0  0  0  0  0
   -8.3510   -6.7530   -5.2320 C   0  0  1  0  0  0  0  0  0  0  0  0
  1  2  2  0
  2  3  1  0
  3  4  2  0
  4  5  1  0
  5  6  2  0
  6  7  1  0
  7  8  2  0
  8  9  1  0
  9 10  1  0
 10 11  1  0
  2 12  1  0
 12 13  1  0
 13 14  1  1
 14 15  1  0
 13 16  1  0
 17 16  1  6
 17 18  1  0
 18 19  1  0
 19 20  1  0
 20 21  1  0
 22 21  1  6
  8  3  1  0
 22 12  1  0
 11  7  1  0
 22 17  1  0
A    1
 O1 
A    2
 C1 
A    3
 C2 
A    4
 C3 
A    5
 C4 
A    6
 C5 
A    7
 C6 
A    8
 C7 
A    9
 C8 
A   10
 C9 
A   11
 O2 
A   12
 N1 
A   13
 C10
A   14
 C11
A   15
 O3 
A   16
 C12
A   17
 C13
A   18
 C14
A   19
 C15
A   20
 C16
A   21
 C17
A   22
 C18
M  END
>  <ref_url>  (25) 
https://github.com/stephwills/fragment_network_merges

>  <submitter_name>  (25) 
Steph Wills

>  <submitter_institution>  (25) 
University of Oxford

>  <submitter_email>  (25) 
stephanie.wills@balliol.ox.ac.uk

>  <generation_date>  (25) 
2023-08-10

>  <method>  (25) 
fragnetv3_corrected

>  <original SMILES>  (25) 
O=C(c1cccc2c1CCO2)N1C(CO)CC2CCCCC21

>  <original_name>  (25) 
x0771_0A-x0980_0B_8

>  <ref_mols>  (25) 
x0771_0A,x0980_0B

>  <ref_pdb>  (25) 
x0771_0A

>  <SuCOS_score>  (25) 
0.3165541989955267

>  <compound ID>  (25) 
ENAMINE:Z3595368118

$$$$
x0771_0A-x0980_0B_11
     RDKit          3D

 23 26  0  0  0  0  0  0  0  0999 V2000
  -10.3790   -7.2590   -2.6000 O   0  0  0  0  0  0  0  0  0  0  0  0
   -9.8820   -6.3770   -3.6350 S   0  0  0  0  0  6  0  0  0  0  0  0
   -8.7370   -5.5490   -3.3160 O   0  0  0  0  0  0  0  0  0  0  0  0
  -11.3150   -5.1850   -3.9020 C   0  0  0  0  0  0  0  0  0  0  0  0
  -12.5930   -5.7550   -4.0710 C   0  0  0  0  0  0  0  0  0  0  0  0
  -13.7520   -4.9780   -4.2300 C   0  0  0  0  0  0  0  0  0  0  0  0
  -13.6570   -3.6050   -4.2240 C   0  0  0  0  0  0  0  0  0  0  0  0
  -12.4300   -2.9860   -4.0710 C   0  0  0  0  0  0  0  0  0  0  0  0
  -11.2350   -3.7340   -3.9120 C   0  0  0  0  0  0  0  0  0  0  0  0
  -12.5380   -1.6070   -4.0880 O   0  0  0  0  0  0  0  0  0  0  0  0
  -13.9500   -1.3580   -3.9060 C   0  0  0  0  0  0  0  0  0  0  0  0
  -14.7260   -2.5880   -4.3670 C   0  0  0  0  0  0  0  0  0  0  0  0
   -9.3850   -7.4780   -4.9290 N   0  0  0  0  0  0  0  0  0  0  0  0
   -8.4050   -8.6420   -4.7690 C   0  0  2  0  0  0  0  0  0  0  0  0
   -7.9310   -8.8200   -3.3210 C   0  0  0  0  0  0  0  0  0  0  0  0
   -7.8130  -10.2060   -2.9990 O   0  0  0  0  0  0  0  0  0  0  0  0
   -7.2140   -8.3300   -5.7050 C   0  0  0  0  0  0  0  0  0  0  0  0
   -7.9320   -7.6760   -6.8430 C   0  0  2  0  0  0  0  0  0  0  0  0
   -7.1880   -6.7800   -7.8260 C   0  0  0  0  0  0  0  0  0  0  0  0
   -7.9390   -5.4780   -8.0250 C   0  0  0  0  0  0  0  0  0  0  0  0
   -7.8570   -4.7050   -6.7600 C   0  0  0  0  0  0  0  0  0  0  0  0
   -8.4000   -5.5090   -5.6280 C   0  0  0  0  0  0  0  0  0  0  0  0
   -8.9710   -6.8110   -6.1420 C   0  0  2  0  0  0  0  0  0  0  0  0
  1  2  2  0
  2  3  2  0
  2  4  1  0
  4  5  2  0
  5  6  1  0
  6  7  2  0
  7  8  1  0
  8  9  2  0
  8 10  1  0
 10 11  1  0
 11 12  1  0
  2 13  1  0
 13 14  1  0
 14 15  1  1
 15 16  1  0
 14 17  1  0
 18 17  1  1
 18 19  1  0
 19 20  1  0
 20 21  1  0
 21 22  1  0
 23 22  1  1
  9  4  1  0
 23 13  1  0
 12  7  1  0
 23 18  1  0
A    1
 O1 
A    2
 S1 
A    3
 O2 
A    4
 C1 
A    5
 C2 
A    6
 C3 
A    7
 C4 
A    8
 C5 
A    9
 C6 
A   10
 O3 
A   11
 C7 
A   12
 C8 
A   13
 N1 
A   14
 C9 
A   15
 C10
A   16
 O4 
A   17
 C11
A   18
 C12
A   19
 C13
A   20
 C14
A   21
 C15
A   22
 C16
A   23
 C17
M  END
>  <ref_url>  (26) 
https://github.com/stephwills/fragment_network_merges

>  <submitter_name>  (26) 
Steph Wills

>  <submitter_institution>  (26) 
University of Oxford

>  <submitter_email>  (26) 
stephanie.wills@balliol.ox.ac.uk

>  <generation_date>  (26) 
2023-08-10

>  <method>  (26) 
fragnetv3_corrected

>  <original SMILES>  (26) 
O=S(=O)(c1ccc2c(c1)OCC2)N1C(CO)CC2CCCCC21

>  <original_name>  (26) 
x0771_0A-x0980_0B_11

>  <ref_mols>  (26) 
x0771_0A,x0980_0B

>  <ref_pdb>  (26) 
x0771_0A

>  <SuCOS_score>  (26) 
0.3134544884579936

>  <compound ID>  (26) 
ENAMINE:Z3620515155

$$$$
x0771_0A-x0980_0B_5
     RDKit          3D

 23 25  0  0  0  0  0  0  0  0999 V2000
   -6.9920   -8.9780   -7.8260 C   0  0  0  0  0  0  0  0  0  0  0  0
   -8.0820   -9.9350   -7.4680 C   0  0  0  0  0  0  0  0  0  0  0  0
   -8.2010  -11.0260   -8.0160 O   0  0  0  0  0  0  0  0  0  0  0  0
   -8.9200   -9.4710   -6.4820 N   0  0  0  0  0  0  0  0  0  0  0  0
   -9.1290   -8.0410   -6.2450 C   0  0  0  0  0  0  0  0  0  0  0  0
   -7.8870   -7.2390   -5.9150 C   0  0  1  0  0  0  0  0  0  0  0  0
   -6.9870   -6.8200   -7.1130 C   0  0  0  0  0  0  0  0  0  0  0  0
   -7.3890   -5.4790   -7.7140 C   0  0  0  0  0  0  0  0  0  0  0  0
   -8.8140   -5.1160   -7.3860 C   0  0  0  0  0  0  0  0  0  0  0  0
   -9.0150   -4.9500   -5.9030 C   0  0  0  0  0  0  0  0  0  0  0  0
   -8.3490   -6.0340   -5.0830 C   0  0  1  0  0  0  0  0  0  0  0  0
   -9.1820   -6.6970   -4.0830 N   0  0  0  0  0  0  0  0  0  0  0  0
  -10.6240   -6.5870   -4.1100 C   0  0  0  0  0  0  0  0  0  0  0  0
  -11.3250   -7.5890   -4.2220 O   0  0  0  0  0  0  0  0  0  0  0  0
  -11.3890   -5.2510   -3.9920 C   0  0  0  0  0  0  0  0  0  0  0  0
  -12.6600   -5.2580   -3.5120 C   0  0  0  0  0  0  0  0  0  0  0  0
  -13.4040   -4.0230   -3.3960 C   0  0  0  0  0  0  0  0  0  0  0  0
  -12.8930   -2.8870   -3.8780 C   0  0  0  0  0  0  0  0  0  0  0  0
  -11.5700   -2.8890   -4.5280 C   0  0  0  0  0  0  0  0  0  0  0  0
  -11.2050   -1.9060   -5.1670 O   0  0  0  0  0  0  0  0  0  0  0  0
  -10.7950   -4.0200   -4.3840 O   0  0  0  0  0  0  0  0  0  0  0  0
   -8.4460   -7.9910   -3.8390 C   0  0  0  0  0  0  0  0  0  0  0  0
   -7.2240   -7.9950   -4.7970 C   0  0  0  0  0  0  0  0  0  0  0  0
  1  2  1  0
  2  3  2  0
  2  4  1  0
  4  5  1  0
  6  5  1  6
  6  7  1  0
  7  8  1  0
  8  9  1  0
  9 10  1  0
 11 10  1  6
 11 12  1  0
 12 13  1  0
 13 14  2  0
 13 15  1  0
 15 16  2  0
 16 17  1  0
 17 18  2  0
 18 19  1  0
 19 20  2  0
 19 21  1  0
 12 22  1  0
 22 23  1  0
 11  6  1  0
 21 15  1  0
 23  6  1  0
A    1
 C1 
A    2
 C2 
A    3
 O1 
A    4
 N1 
A    5
 C3 
A    6
 C4 
A    7
 C5 
A    8
 C6 
A    9
 C7 
A   10
 C8 
A   11
 C9 
A   12
 N2 
A   13
 C10
A   14
 O2 
A   15
 C11
A   16
 C12
A   17
 C13
A   18
 C14
A   19
 C15
A   20
 O3 
A   21
 O4 
A   22
 C16
A   23
 C17
M  END
>  <ref_url>  (27) 
https://github.com/stephwills/fragment_network_merges

>  <submitter_name>  (27) 
Steph Wills

>  <submitter_institution>  (27) 
University of Oxford

>  <submitter_email>  (27) 
stephanie.wills@balliol.ox.ac.uk

>  <generation_date>  (27) 
2023-08-10

>  <method>  (27) 
fragnetv3_corrected

>  <original SMILES>  (27) 
CC(=O)NCC12CCCCC1N(C(=O)c1cccc(=O)o1)CC2

>  <original_name>  (27) 
x0771_0A-x0980_0B_5

>  <ref_mols>  (27) 
x0771_0A,x0980_0B

>  <ref_pdb>  (27) 
x0771_0A

>  <SuCOS_score>  (27) 
0.3067438576900208

>  <compound ID>  (27) 
ENAMINE:PV-003530420622

$$$$
x0771_0A-x0980_0B_6
     RDKit          3D

 24 27  0  0  0  0  0  0  0  0999 V2000
   -5.4250   -7.5910   -4.1190 C   0  0  0  0  0  0  0  0  0  0  0  0
   -5.4890   -7.6490   -5.6220 C   0  0  0  0  0  0  0  0  0  0  0  0
   -4.6880   -7.1430   -6.3530 O   0  0  0  0  0  0  0  0  0  0  0  0
   -6.5290   -8.3180   -6.1170 N   0  0  0  0  0  0  0  0  0  0  0  0
   -7.8360   -7.7280   -6.4020 C   0  0  2  0  0  0  0  0  0  0  0  0
   -7.8790   -6.6910   -7.5600 C   0  0  0  0  0  0  0  0  0  0  0  0
   -7.4400   -5.2920   -7.2320 C   0  0  0  0  0  0  0  0  0  0  0  0
   -8.1630   -4.8270   -5.9820 C   0  0  0  0  0  0  0  0  0  0  0  0
   -7.9200   -5.7460   -4.7980 C   0  0  0  0  0  0  0  0  0  0  0  0
   -8.5160   -7.0960   -5.1270 C   0  0  1  0  0  0  0  0  0  0  0  0
   -9.9530   -7.2700   -5.4010 N   0  0  0  0  0  0  0  0  0  0  0  0
  -11.1610   -6.7910   -4.7190 C   0  0  0  0  0  0  0  0  0  0  0  0
  -11.8630   -7.6410   -4.1680 O   0  0  0  0  0  0  0  0  0  0  0  0
  -11.7390   -5.3650   -4.5630 C   0  0  0  0  0  0  0  0  0  0  0  0
  -11.0970   -4.1980   -5.0470 C   0  0  0  0  0  0  0  0  0  0  0  0
  -11.6710   -2.9040   -4.8730 C   0  0  0  0  0  0  0  0  0  0  0  0
  -12.8960   -2.7320   -4.2170 C   0  0  0  0  0  0  0  0  0  0  0  0
  -13.5320   -3.8620   -3.7420 C   0  0  0  0  0  0  0  0  0  0  0  0
  -12.9730   -5.1430   -3.9090 C   0  0  0  0  0  0  0  0  0  0  0  0
  -13.7660   -6.1230   -3.3630 O   0  0  0  0  0  0  0  0  0  0  0  0
  -14.6870   -5.4030   -2.5100 C   0  0  0  0  0  0  0  0  0  0  0  0
  -14.8210   -3.9710   -3.0200 C   0  0  0  0  0  0  0  0  0  0  0  0
   -9.8770   -8.7410   -5.6430 C   0  0  0  0  0  0  0  0  0  0  0  0
   -8.6280   -9.0270   -6.5040 C   0  0  0  0  0  0  0  0  0  0  0  0
  1  2  1  0
  2  3  2  0
  2  4  1  0
  5  4  1  1
  5  6  1  0
  6  7  1  0
  7  8  1  0
  8  9  1  0
 10  9  1  6
 10 11  1  0
 11 12  1  0
 12 13  2  0
 12 14  1  0
 14 15  2  0
 15 16  1  0
 16 17  2  0
 17 18  1  0
 18 19  2  0
 19 20  1  0
 20 21  1  0
 21 22  1  0
 11 23  1  0
 23 24  1  0
 10  5  1  0
 19 14  1  0
 24  5  1  0
 22 18  1  0
A    1
 C1 
A    2
 C2 
A    3
 O1 
A    4
 N1 
A    5
 C3 
A    6
 C4 
A    7
 C5 
A    8
 C6 
A    9
 C7 
A   10
 C8 
A   11
 N2 
A   12
 C9 
A   13
 O2 
A   14
 C10
A   15
 C11
A   16
 C12
A   17
 C13
A   18
 C14
A   19
 C15
A   20
 O3 
A   21
 C16
A   22
 C17
A   23
 C18
A   24
 C19
M  END
>  <ref_url>  (28) 
https://github.com/stephwills/fragment_network_merges

>  <submitter_name>  (28) 
Steph Wills

>  <submitter_institution>  (28) 
University of Oxford

>  <submitter_email>  (28) 
stephanie.wills@balliol.ox.ac.uk

>  <generation_date>  (28) 
2023-08-10

>  <method>  (28) 
fragnetv3_corrected

>  <original SMILES>  (28) 
CC(=O)NC12CCCCC1N(C(=O)c1cccc3c1OCC3)CC2

>  <original_name>  (28) 
x0771_0A-x0980_0B_6

>  <ref_mols>  (28) 
x0771_0A,x0980_0B

>  <ref_pdb>  (28) 
x0771_0A

>  <SuCOS_score>  (28) 
0.3066663890849775

>  <compound ID>  (28) 
ENAMINE:PV-003233555333

$$$$
x0771_0A-x0980_0B_24
     RDKit          3D

 21 24  0  0  0  0  0  0  0  0999 V2000
   -9.3630   -6.0530   -2.3480 O   0  0  0  0  0  0  0  0  0  0  0  0
   -9.3930   -5.5790   -3.7190 S   0  0  0  0  0  6  0  0  0  0  0  0
   -8.3850   -4.6270   -4.1210 O   0  0  0  0  0  0  0  0  0  0  0  0
  -11.0610   -4.8760   -3.9320 C   0  0  0  0  0  0  0  0  0  0  0  0
  -12.1150   -5.7350   -4.2920 C   0  0  0  0  0  0  0  0  0  0  0  0
  -13.4330   -5.2590   -4.4560 C   0  0  0  0  0  0  0  0  0  0  0  0
  -13.7460   -3.9140   -4.2680 C   0  0  0  0  0  0  0  0  0  0  0  0
  -12.7270   -3.0580   -3.9190 C   0  0  0  0  0  0  0  0  0  0  0  0
  -11.4060   -3.5170   -3.7500 C   0  0  0  0  0  0  0  0  0  0  0  0
  -10.5780   -2.4890   -3.3970 O   0  0  0  0  0  0  0  0  0  0  0  0
  -11.3230   -1.2960   -3.7390 C   0  0  0  0  0  0  0  0  0  0  0  0
  -12.8110   -1.6000   -3.6670 C   0  0  0  0  0  0  0  0  0  0  0  0
   -9.1840   -7.0140   -4.7040 N   0  0  0  0  0  0  0  0  0  0  0  0
   -8.0940   -8.0030   -4.4350 C   0  0  0  0  0  0  0  0  0  0  0  0
   -7.0580   -7.7900   -5.5340 C   0  0  0  0  0  0  0  0  0  0  0  0
   -7.8400   -7.3090   -6.7400 C   0  0  2  0  0  0  0  0  0  0  0  0
   -7.1180   -6.3300   -7.7040 C   0  0  0  0  0  0  0  0  0  0  0  0
   -7.6800   -4.9180   -7.8580 C   0  0  0  0  0  0  0  0  0  0  0  0
   -8.4980   -4.5280   -6.6670 C   0  0  0  0  0  0  0  0  0  0  0  0
   -9.6610   -5.4920   -6.5780 C   0  0  0  0  0  0  0  0  0  0  0  0
   -9.2170   -6.8730   -6.1670 C   0  0  2  0  0  0  0  0  0  0  0  0
  1  2  2  0
  2  3  2  0
  2  4  1  0
  4  5  2  0
  5  6  1  0
  6  7  2  0
  7  8  1  0
  8  9  2  0
  9 10  1  0
 10 11  1  0
 11 12  1  0
  2 13  1  0
 13 14  1  0
 14 15  1  0
 16 15  1  1
 16 17  1  0
 17 18  1  0
 18 19  1  0
 19 20  1  0
 21 20  1  1
  9  4  1  0
 21 13  1  0
 12  8  1  0
 21 16  1  0
A    1
 O1 
A    2
 S1 
A    3
 O2 
A    4
 C1 
A    5
 C2 
A    6
 C3 
A    7
 C4 
A    8
 C5 
A    9
 C6 
A   10
 O3 
A   11
 C7 
A   12
 C8 
A   13
 N1 
A   14
 C9 
A   15
 C10
A   16
 C11
A   17
 C12
A   18
 C13
A   19
 C14
A   20
 C15
A   21
 C16
M  END
>  <ref_url>  (29) 
https://github.com/stephwills/fragment_network_merges

>  <submitter_name>  (29) 
Steph Wills

>  <submitter_institution>  (29) 
University of Oxford

>  <submitter_email>  (29) 
stephanie.wills@balliol.ox.ac.uk

>  <generation_date>  (29) 
2023-08-10

>  <method>  (29) 
fragnetv3_corrected

>  <original SMILES>  (29) 
O=S(=O)(c1cccc2c1OCC2)N1CCC2CCCCC21

>  <original_name>  (29) 
x0771_0A-x0980_0B_24

>  <ref_mols>  (29) 
x0771_0A,x0980_0B

>  <ref_pdb>  (29) 
x0771_0A

>  <SuCOS_score>  (29) 
0.29707736182369193

>  <compound ID>  (29) 
ENAMINE:Z2370616537

$$$$
x0771_0A-x1052_1A_538
     RDKit          3D

 18 20  0  0  0  0  0  0  0  0999 V2000
   -6.5870   -4.7840   -1.3740 C   0  0  0  0  0  0  0  0  0  0  0  0
   -5.6940   -5.6930   -2.1340 C   0  0  0  0  0  0  0  0  0  0  0  0
   -5.7320   -7.1330   -1.7090 C   0  0  0  0  0  0  0  0  0  0  0  0
   -4.7460   -8.3380   -2.5180 S   0  0  0  0  0  0  0  0  0  0  0  0
   -5.6410   -8.4330   -4.1160 C   0  0  0  0  0  0  0  0  0  0  0  0
   -6.9970   -9.1740   -4.0520 C   0  0  0  0  0  0  0  0  0  0  0  0
   -7.7960   -9.2900   -5.2710 N   0  0  0  0  0  0  0  0  0  0  0  0
   -7.3330  -10.2840   -6.2640 C   0  0  0  0  0  0  0  0  0  0  0  0
   -7.2350   -9.4200   -7.5340 C   0  0  0  0  0  0  0  0  0  0  0  0
   -6.9940   -8.0510   -6.9900 C   0  0  1  0  0  0  0  0  0  0  0  0
   -6.9780   -6.8880   -7.9250 C   0  0  0  0  0  0  0  0  0  0  0  0
   -7.8390   -5.7230   -7.4600 C   0  0  0  0  0  0  0  0  0  0  0  0
   -8.0370   -5.4960   -5.9520 C   0  0  0  0  0  0  0  0  0  0  0  0
   -8.0730   -6.7860   -5.1230 C   0  0  0  0  0  0  0  0  0  0  0  0
   -8.1060   -8.0410   -5.9960 C   0  0  2  0  0  0  0  0  0  0  0  0
   -6.5690   -7.5000   -0.6660 C   0  0  0  0  0  0  0  0  0  0  0  0
   -7.3330   -6.5120   -0.0730 C   0  0  0  0  0  0  0  0  0  0  0  0
   -7.3840   -5.1880   -0.3730 N   0  0  0  0  0  0  0  0  0  0  0  0
  1  2  2  0
  2  3  1  0
  3  4  1  0
  4  5  1  0
  5  6  1  0
  6  7  1  0
  7  8  1  0
  8  9  1  0
 10  9  1  6
 10 11  1  0
 11 12  1  0
 12 13  1  0
 13 14  1  0
 15 14  1  1
  3 16  2  0
 16 17  1  0
 17 18  2  0
 18  1  1  0
 15  7  1  0
 15 10  1  0
A    1
 C1 
A    2
 C2 
A    3
 C3 
A    4
 S1 
A    5
 C4 
A    6
 C5 
A    7
 N1 
A    8
 C6 
A    9
 C7 
A   10
 C8 
A   11
 C9 
A   12
 C10
A   13
 C11
A   14
 C12
A   15
 C13
A   16
 C14
A   17
 C15
A   18
 N2 
M  END
>  <ref_url>  (30) 
https://github.com/stephwills/fragment_network_merges

>  <submitter_name>  (30) 
Steph Wills

>  <submitter_institution>  (30) 
University of Oxford

>  <submitter_email>  (30) 
stephanie.wills@balliol.ox.ac.uk

>  <generation_date>  (30) 
2023-08-10

>  <method>  (30) 
fragnetv3_corrected

>  <original SMILES>  (30) 
c1cc(SCCN2CCC3CCCCC32)ccn1

>  <original_name>  (30) 
x0771_0A-x1052_1A_538

>  <ref_mols>  (30) 
x0771_0A,x1052_1A

>  <ref_pdb>  (30) 
x0771_0A

>  <SuCOS_score>  (30) 
0.40828257255653055

>  <compound ID>  (30) 
ENAMINE:Z3652695558

$$$$
x0771_0A-x1052_1A_625
     RDKit          3D

 21 22  0  0  0  0  0  0  0  0999 V2000
   -5.7790    1.6340   -1.0970 C   0  0  0  0  0  0  0  0  0  0  0  0
   -6.8880    0.7520   -1.0520 O   0  0  0  0  0  0  0  0  0  0  0  0
   -6.4820   -0.6160   -1.0940 C   0  0  0  0  0  0  0  0  0  0  0  0
   -7.6930   -1.5140   -1.2640 C   0  0  0  0  0  0  0  0  0  0  0  0
   -7.3500   -3.0100   -1.2170 C   0  0  0  0  0  0  0  0  0  0  0  0
   -6.3280   -3.4570   -1.7200 O   0  0  0  0  0  0  0  0  0  0  0  0
   -6.3120   -4.8820   -1.8250 C   0  0  0  0  0  0  0  0  0  0  0  0
   -6.5880   -5.2870   -3.2630 C   0  0  0  0  0  0  0  0  0  0  0  0
   -5.8300   -6.6100   -3.3850 C   0  0  0  0  0  0  0  0  0  0  0  0
   -4.7760   -6.8250   -2.7950 O   0  0  0  0  0  0  0  0  0  0  0  0
   -6.5860   -7.5330   -4.2710 N   0  0  0  0  0  0  0  0  0  0  0  0
   -5.9880   -7.8580   -5.5860 C   0  0  0  0  0  0  0  0  0  0  0  0
   -6.9990   -7.7690   -6.7050 C   0  0  2  0  0  0  0  0  0  0  0  0
   -7.0190   -6.7710   -7.6350 C   0  0  0  0  0  0  0  0  0  0  0  0
   -8.0330   -5.6470   -7.3440 C   0  0  0  0  0  0  0  0  0  0  0  0
   -8.1760   -5.3720   -5.8340 C   0  0  0  0  0  0  0  0  0  0  0  0
   -8.7200   -6.6780   -5.2220 C   0  0  0  0  0  0  0  0  0  0  0  0
   -8.3550   -7.8970   -6.0510 C   0  0  2  0  0  0  0  0  0  0  0  0
   -8.1860   -9.1710   -5.3210 N   0  0  0  0  0  0  0  0  0  0  0  0
   -7.4130  -10.0330   -6.2330 C   0  0  0  0  0  0  0  0  0  0  0  0
   -7.1230   -9.1180   -7.4030 C   0  0  0  0  0  0  0  0  0  0  0  0
  1  2  1  0
  2  3  1  0
  3  4  1  0
  4  5  1  0
  5  6  1  0
  6  7  1  0
  7  8  1  0
  8  9  1  0
  9 10  2  0
  9 11  1  0
 11 12  1  0
 13 12  1  1
 13 14  1  0
 14 15  1  0
 15 16  1  0
 16 17  1  0
 18 17  1  1
 18 19  1  0
 19 20  1  0
 20 21  1  0
 18 13  1  0
 21 13  1  0
A    1
 C1 
A    2
 O1 
A    3
 C2 
A    4
 C3 
A    5
 C4 
A    6
 O2 
A    7
 C5 
A    8
 C6 
A    9
 C7 
A   10
 O3 
A   11
 N1 
A   12
 C8 
A   13
 C9 
A   14
 C10
A   15
 C11
A   16
 C12
A   17
 C13
A   18
 C14
A   19
 N2 
A   20
 C15
A   21
 C16
M  END
>  <ref_url>  (31) 
https://github.com/stephwills/fragment_network_merges

>  <submitter_name>  (31) 
Steph Wills

>  <submitter_institution>  (31) 
University of Oxford

>  <submitter_email>  (31) 
stephanie.wills@balliol.ox.ac.uk

>  <generation_date>  (31) 
2023-08-10

>  <method>  (31) 
fragnetv3_corrected

>  <original SMILES>  (31) 
COCCCOCCC(=O)NCC12CCCCC1NCC2

>  <original_name>  (31) 
x0771_0A-x1052_1A_625

>  <ref_mols>  (31) 
x0771_0A,x1052_1A

>  <ref_pdb>  (31) 
x0771_0A

>  <SuCOS_score>  (31) 
0.3981358149538814

>  <compound ID>  (31) 
ENAMINE:Z3385424793

$$$$
x0771_0A-x1052_1A_782
     RDKit          3D

 22 23  0  0  0  0  0  0  0  0999 V2000
   -5.8390    1.3040   -1.1800 C   0  0  0  0  0  0  0  0  0  0  0  0
   -6.9730    0.4550   -1.0370 O   0  0  0  0  0  0  0  0  0  0  0  0
   -6.6240   -0.9110   -0.8240 C   0  0  0  0  0  0  0  0  0  0  0  0
   -6.0380   -1.2740    0.1900 O   0  0  0  0  0  0  0  0  0  0  0  0
   -6.9970   -1.7660   -1.8580 C   0  0  0  0  0  0  0  0  0  0  0  0
   -7.1410   -3.1960   -1.3100 C   0  0  0  0  0  0  0  0  0  0  0  0
   -6.2660   -4.1700   -1.8060 N   0  0  0  0  0  0  0  0  0  0  0  0
   -6.6880   -4.7490   -2.9320 C   0  0  0  0  0  0  0  0  0  0  0  0
   -6.7420   -4.1430   -3.9910 O   0  0  0  0  0  0  0  0  0  0  0  0
   -7.1150   -6.2540   -2.7700 C   0  0  0  0  0  0  0  0  0  0  0  0
   -6.4640   -7.2830   -3.7730 C   0  0  0  0  0  0  0  0  0  0  0  0
   -7.4910   -7.9850   -4.6420 N   0  0  0  0  0  0  0  0  0  0  0  0
   -6.9360   -9.1670   -5.3710 C   0  0  2  0  0  0  0  0  0  0  0  0
   -5.6620   -9.6030   -5.0480 C   0  0  0  0  0  0  0  0  0  0  0  0
   -5.5040  -11.0130   -5.1490 O   0  0  0  0  0  0  0  0  0  0  0  0
   -7.0490   -8.7120   -6.8780 C   0  0  0  0  0  0  0  0  0  0  0  0
   -6.9900   -7.2150   -6.7090 C   0  0  1  0  0  0  0  0  0  0  0  0
   -7.4910   -6.4350   -7.8520 C   0  0  0  0  0  0  0  0  0  0  0  0
   -7.6110   -4.9490   -7.6740 C   0  0  0  0  0  0  0  0  0  0  0  0
   -8.5350   -4.7180   -6.4850 C   0  0  0  0  0  0  0  0  0  0  0  0
   -8.1770   -5.6010   -5.2920 C   0  0  0  0  0  0  0  0  0  0  0  0
   -8.0220   -7.0710   -5.6260 C   0  0  2  0  0  0  0  0  0  0  0  0
  1  2  1  0
  2  3  1  0
  3  4  2  0
  3  5  1  0
  5  6  1  0
  6  7  1  0
  7  8  1  0
  8  9  2  0
  8 10  1  0
 10 11  1  0
 11 12  1  0
 12 13  1  0
 13 14  1  1
 14 15  1  0
 13 16  1  0
 17 16  1  6
 17 18  1  0
 18 19  1  0
 19 20  1  0
 20 21  1  0
 22 21  1  1
 22 12  1  0
 22 17  1  0
A    1
 C1 
A    2
 O1 
A    3
 C2 
A    4
 O2 
A    5
 C3 
A    6
 C4 
A    7
 N1 
A    8
 C5 
A    9
 O3 
A   10
 C6 
A   11
 C7 
A   12
 N2 
A   13
 C8 
A   14
 C9 
A   15
 O4 
A   16
 C10
A   17
 C11
A   18
 C12
A   19
 C13
A   20
 C14
A   21
 C15
A   22
 C16
M  END
>  <ref_url>  (32) 
https://github.com/stephwills/fragment_network_merges

>  <submitter_name>  (32) 
Steph Wills

>  <submitter_institution>  (32) 
University of Oxford

>  <submitter_email>  (32) 
stephanie.wills@balliol.ox.ac.uk

>  <generation_date>  (32) 
2023-08-10

>  <method>  (32) 
fragnetv3_corrected

>  <original SMILES>  (32) 
COC(=O)CCNC(=O)CCN1C(CO)CC2CCCCC21

>  <original_name>  (32) 
x0771_0A-x1052_1A_782

>  <ref_mols>  (32) 
x0771_0A,x1052_1A

>  <ref_pdb>  (32) 
x0771_0A

>  <SuCOS_score>  (32) 
0.3977013333889051

>  <compound ID>  (32) 
ENAMINE:Z3320949780

$$$$
x0771_0A-x1052_1A_155
     RDKit          3D

 24 27  0  0  0  0  0  0  0  0999 V2000
   -5.5840   -9.5750   -2.4690 O   0  0  0  0  0  0  0  0  0  0  0  0
   -5.3300   -8.6000   -3.1770 C   0  0  0  0  0  0  0  0  0  0  0  0
   -4.7530   -7.4560   -2.7100 N   0  0  0  0  0  0  0  0  0  0  0  0
   -5.6020   -6.6220   -1.9210 C   0  0  0  0  0  0  0  0  0  0  0  0
   -6.3070   -7.1260   -0.7570 C   0  0  0  0  0  0  0  0  0  0  0  0
   -7.0560   -6.1860   -0.1780 N   0  0  0  0  0  0  0  0  0  0  0  0
   -6.8730   -5.0180   -0.9350 N   0  0  0  0  0  0  0  0  0  0  0  0
   -7.5180   -3.8230   -0.6060 C   0  0  0  0  0  0  0  0  0  0  0  0
   -8.6370   -3.7690    0.0880 N   0  0  0  0  0  0  0  0  0  0  0  0
   -8.9970   -2.4440    0.2380 C   0  0  0  0  0  0  0  0  0  0  0  0
   -8.1460   -1.5200   -0.3450 C   0  0  0  0  0  0  0  0  0  0  0  0
   -6.8460   -2.3360   -1.1100 S   0  0  0  0  0  0  0  0  0  0  0  0
   -6.0070   -5.1640   -2.0200 C   0  0  0  0  0  0  0  0  0  0  0  0
   -5.6580   -8.5060   -4.6860 C   0  0  0  0  0  0  0  0  0  0  0  0
   -4.7790   -8.1120   -5.4390 O   0  0  0  0  0  0  0  0  0  0  0  0
   -6.9200   -8.8370   -5.1260 N   0  0  0  0  0  0  0  0  0  0  0  0
   -7.1940   -9.9340   -6.0260 C   0  0  0  0  0  0  0  0  0  0  0  0
   -7.4970   -9.1570   -7.2680 C   0  0  0  0  0  0  0  0  0  0  0  0
   -7.8550   -7.8210   -6.9840 C   0  0  2  0  0  0  0  0  0  0  0  0
   -7.2170   -6.7620   -7.6290 C   0  0  0  0  0  0  0  0  0  0  0  0
   -7.6910   -5.5270   -7.2270 C   0  0  0  0  0  0  0  0  0  0  0  0
   -7.9930   -5.5100   -5.8710 C   0  0  0  0  0  0  0  0  0  0  0  0
   -7.4100   -6.4890   -5.0430 C   0  0  0  0  0  0  0  0  0  0  0  0
   -7.8230   -7.7450   -5.4640 C   0  0  2  0  0  0  0  0  0  0  0  0
  1  2  2  0
  2  3  1  0
  3  4  1  0
  4  5  1  0
  5  6  2  0
  6  7  1  0
  7  8  1  0
  8  9  2  0
  9 10  1  0
 10 11  2  0
 11 12  1  0
  7 13  1  0
  2 14  1  0
 14 15  2  0
 14 16  1  0
 16 17  1  0
 17 18  1  0
 19 18  1  1
 19 20  1  0
 20 21  1  0
 21 22  1  0
 22 23  1  0
 24 23  1  6
 13  4  2  0
 24 16  1  0
 12  8  1  0
 24 19  1  0
A    1
 O1 
A    2
 C1 
A    3
 N1 
A    4
 C2 
A    5
 C3 
A    6
 N2 
A    7
 N3 
A    8
 C4 
A    9
 N4 
A   10
 C5 
A   11
 C6 
A   12
 S1 
A   13
 C7 
A   14
 C8 
A   15
 O2 
A   16
 N5 
A   17
 C9 
A   18
 C10
A   19
 C11
A   20
 C12
A   21
 C13
A   22
 C14
A   23
 C15
A   24
 C16
M  END
>  <ref_url>  (33) 
https://github.com/stephwills/fragment_network_merges

>  <submitter_name>  (33) 
Steph Wills

>  <submitter_institution>  (33) 
University of Oxford

>  <submitter_email>  (33) 
stephanie.wills@balliol.ox.ac.uk

>  <generation_date>  (33) 
2023-08-10

>  <method>  (33) 
fragnetv3_corrected

>  <original SMILES>  (33) 
O=C(Nc1cnn(-c2nccs2)c1)C(=O)N1CCC2CCCCC21

>  <original_name>  (33) 
x0771_0A-x1052_1A_155

>  <ref_mols>  (33) 
x0771_0A,x1052_1A

>  <ref_pdb>  (33) 
x0771_0A

>  <SuCOS_score>  (33) 
0.3965145310492266

>  <compound ID>  (33) 
ENAMINE:Z1522433888

$$$$
x0771_0A-x1052_1A_441
     RDKit          3D

 22 24  0  0  0  0  0  0  0  0999 V2000
   -5.9470   -9.3280   -3.3470 O   0  0  0  0  0  0  0  0  0  0  0  0
   -7.0930   -9.7340   -3.2500 C   0  0  0  0  0  0  0  0  0  0  0  0
   -7.6270  -10.2860   -2.1020 N   0  0  0  0  0  0  0  0  0  0  0  0
   -7.1560   -9.9220   -0.7850 C   0  0  0  0  0  0  0  0  0  0  0  0
   -7.9940   -8.8490   -0.0390 C   0  0  0  0  0  0  0  0  0  0  0  0
   -7.1080   -7.7340    0.5890 C   0  0  0  0  0  0  0  0  0  0  0  0
   -6.5510   -6.9190   -0.3650 N   0  0  0  0  0  0  0  0  0  0  0  0
   -5.4820   -7.2320   -1.2000 C   0  0  0  0  0  0  0  0  0  0  0  0
   -5.2980   -6.0230   -2.0160 C   0  0  0  0  0  0  0  0  0  0  0  0
   -6.3360   -5.0690   -1.5470 C   0  0  0  0  0  0  0  0  0  0  0  0
   -7.0730   -5.6280   -0.5590 N   0  0  0  0  0  0  0  0  0  0  0  0
   -8.1110   -9.6670   -4.4220 C   0  0  0  0  0  0  0  0  0  0  0  0
   -9.2180  -10.1660   -4.2310 O   0  0  0  0  0  0  0  0  0  0  0  0
   -7.7220   -9.0660   -5.6120 N   0  0  0  0  0  0  0  0  0  0  0  0
   -7.6760   -9.7520   -6.9020 C   0  0  0  0  0  0  0  0  0  0  0  0
   -7.0080   -8.7120   -7.7760 C   0  0  0  0  0  0  0  0  0  0  0  0
   -6.9830   -7.4030   -7.0130 C   0  0  1  0  0  0  0  0  0  0  0  0
   -7.4380   -6.4080   -7.7580 C   0  0  0  0  0  0  0  0  0  0  0  0
   -7.6660   -5.1560   -7.0790 C   0  0  0  0  0  0  0  0  0  0  0  0
   -8.0460   -5.1790   -5.5950 C   0  0  0  0  0  0  0  0  0  0  0  0
   -7.8450   -6.5440   -4.9170 C   0  0  0  0  0  0  0  0  0  0  0  0
   -7.9870   -7.6720   -5.9220 C   0  0  2  0  0  0  0  0  0  0  0  0
  1  2  2  0
  2  3  1  0
  3  4  1  0
  4  5  1  0
  5  6  1  0
  6  7  1  0
  7  8  1  0
  8  9  2  0
  9 10  1  0
 10 11  2  0
  2 12  1  0
 12 13  2  0
 12 14  1  0
 14 15  1  0
 15 16  1  0
 17 16  1  6
 17 18  1  0
 18 19  1  0
 19 20  1  0
 20 21  1  0
 22 21  1  1
 11  7  1  0
 22 14  1  0
 22 17  1  0
A    1
 O1 
A    2
 C1 
A    3
 N1 
A    4
 C2 
A    5
 C3 
A    6
 C4 
A    7
 N2 
A    8
 C5 
A    9
 C6 
A   10
 C7 
A   11
 N3 
A   12
 C8 
A   13
 O2 
A   14
 N4 
A   15
 C9 
A   16
 C10
A   17
 C11
A   18
 C12
A   19
 C13
A   20
 C14
A   21
 C15
A   22
 C16
M  END
>  <ref_url>  (34) 
https://github.com/stephwills/fragment_network_merges

>  <submitter_name>  (34) 
Steph Wills

>  <submitter_institution>  (34) 
University of Oxford

>  <submitter_email>  (34) 
stephanie.wills@balliol.ox.ac.uk

>  <generation_date>  (34) 
2023-08-10

>  <method>  (34) 
fragnetv3_corrected

>  <original SMILES>  (34) 
O=C(NCCCn1cccn1)C(=O)N1CCC2CCCCC21

>  <original_name>  (34) 
x0771_0A-x1052_1A_441

>  <ref_mols>  (34) 
x0771_0A,x1052_1A

>  <ref_pdb>  (34) 
x0771_0A

>  <SuCOS_score>  (34) 
0.39535925372214503

>  <compound ID>  (34) 
ENAMINE:Z2035079690

$$$$
x0771_0A-x1052_1A_586
     RDKit          3D

 20 22  0  0  0  0  0  0  0  0999 V2000
   -7.2230  -11.1730   -4.5550 O   0  0  0  0  0  0  0  0  0  0  0  0
   -7.0600   -9.9570   -4.5710 C   0  0  0  0  0  0  0  0  0  0  0  0
   -6.3900   -9.2170   -3.4250 C   0  0  0  0  0  0  0  0  0  0  0  0
   -6.4330   -9.9890   -2.1080 C   0  0  0  0  0  0  0  0  0  0  0  0
   -6.1220   -9.3880   -0.8960 C   0  0  0  0  0  0  0  0  0  0  0  0
   -6.2540   -7.8420   -1.0040 C   0  0  0  0  0  0  0  0  0  0  0  0
   -5.3040   -7.2720   -2.0460 C   0  0  0  0  0  0  0  0  0  0  0  0
   -5.3720   -5.7670   -2.2440 C   0  0  0  0  0  0  0  0  0  0  0  0
   -6.3890   -5.0600   -1.3480 C   0  0  0  0  0  0  0  0  0  0  0  0
   -7.2150   -5.6720   -0.4120 N   0  0  0  0  0  0  0  0  0  0  0  0
   -7.1190   -7.0230   -0.2760 C   0  0  0  0  0  0  0  0  0  0  0  0
   -7.4860   -9.1790   -5.6430 N   0  0  0  0  0  0  0  0  0  0  0  0
   -7.6440   -9.6630   -6.9240 C   0  0  0  0  0  0  0  0  0  0  0  0
   -6.9630   -8.7340   -7.7890 C   0  0  0  0  0  0  0  0  0  0  0  0
   -6.6450   -7.4680   -7.2140 C   0  0  1  0  0  0  0  0  0  0  0  0
   -6.9460   -6.2660   -7.8360 C   0  0  0  0  0  0  0  0  0  0  0  0
   -8.0600   -5.3650   -7.3410 C   0  0  0  0  0  0  0  0  0  0  0  0
   -8.2050   -5.4190   -5.8280 C   0  0  0  0  0  0  0  0  0  0  0  0
   -8.4010   -6.8770   -5.3910 C   0  0  0  0  0  0  0  0  0  0  0  0
   -7.1740   -7.7160   -5.7570 C   0  0  1  0  0  0  0  0  0  0  0  0
  1  2  2  0
  2  3  1  0
  3  4  1  0
  4  5  1  0
  5  6  1  0
  6  7  2  0
  7  8  1  0
  8  9  2  0
  9 10  1  0
 10 11  2  0
  2 12  1  0
 12 13  1  0
 13 14  1  0
 15 14  1  6
 15 16  1  0
 16 17  1  0
 17 18  1  0
 18 19  1  0
 20 19  1  6
 11  6  1  0
 20 12  1  0
 20 15  1  0
A    1
 O1 
A    2
 C1 
A    3
 C2 
A    4
 C3 
A    5
 C4 
A    6
 C5 
A    7
 C6 
A    8
 C7 
A    9
 C8 
A   10
 N1 
A   11
 C9 
A   12
 N2 
A   13
 C10
A   14
 C11
A   15
 C12
A   16
 C13
A   17
 C14
A   18
 C15
A   19
 C16
A   20
 C17
M  END
>  <ref_url>  (35) 
https://github.com/stephwills/fragment_network_merges

>  <submitter_name>  (35) 
Steph Wills

>  <submitter_institution>  (35) 
University of Oxford

>  <submitter_email>  (35) 
stephanie.wills@balliol.ox.ac.uk

>  <generation_date>  (35) 
2023-08-10

>  <method>  (35) 
fragnetv3_corrected

>  <original SMILES>  (35) 
O=C(CCCc1cccnc1)N1CCC2CCCCC21

>  <original_name>  (35) 
x0771_0A-x1052_1A_586

>  <ref_mols>  (35) 
x0771_0A,x1052_1A

>  <ref_pdb>  (35) 
x0771_0A

>  <SuCOS_score>  (35) 
0.39472502917868457

>  <compound ID>  (35) 
ENAMINE:Z3709124060

$$$$
x0771_0A-x1052_1A_617
     RDKit          3D

 21 22  0  0  0  0  0  0  0  0999 V2000
   -5.9680    1.8810   -1.0470 C   0  0  0  0  0  0  0  0  0  0  0  0
   -6.8720    0.7820   -1.0770 O   0  0  0  0  0  0  0  0  0  0  0  0
   -6.2300   -0.4030   -1.2710 C   0  0  0  0  0  0  0  0  0  0  0  0
   -7.1980   -1.5600   -1.1390 C   0  0  0  0  0  0  0  0  0  0  0  0
   -6.4740   -2.6850   -0.6330 O   0  0  0  0  0  0  0  0  0  0  0  0
   -6.9260   -3.9270   -1.1400 C   0  0  0  0  0  0  0  0  0  0  0  0
   -6.6190   -4.1070   -2.6030 C   0  0  0  0  0  0  0  0  0  0  0  0
   -6.8820   -5.5930   -2.9660 C   0  0  0  0  0  0  0  0  0  0  0  0
   -6.6460   -5.9770   -4.4260 C   0  0  0  0  0  0  0  0  0  0  0  0
   -7.1540   -5.3430   -5.3300 O   0  0  0  0  0  0  0  0  0  0  0  0
   -5.8040   -7.0200   -4.6060 N   0  0  0  0  0  0  0  0  0  0  0  0
   -5.7860   -7.7290   -5.8850 C   0  0  0  0  0  0  0  0  0  0  0  0
   -7.0370   -7.7750   -6.7860 C   0  0  2  0  0  0  0  0  0  0  0  0
   -7.2020   -6.5180   -7.5880 C   0  0  0  0  0  0  0  0  0  0  0  0
   -8.2020   -5.5800   -7.3060 C   0  0  0  0  0  0  0  0  0  0  0  0
   -8.9700   -5.6950   -6.1530 C   0  0  0  0  0  0  0  0  0  0  0  0
   -8.7930   -6.8900   -5.2170 C   0  0  0  0  0  0  0  0  0  0  0  0
   -8.2850   -8.0790   -6.0060 C   0  0  2  0  0  0  0  0  0  0  0  0
   -7.8210   -9.2690   -5.2840 N   0  0  0  0  0  0  0  0  0  0  0  0
   -7.1990  -10.0270   -6.2420 C   0  0  0  0  0  0  0  0  0  0  0  0
   -7.1330   -9.1260   -7.4700 C   0  0  0  0  0  0  0  0  0  0  0  0
  1  2  1  0
  2  3  1  0
  3  4  1  0
  4  5  1  0
  5  6  1  0
  6  7  1  0
  7  8  2  3
  8  9  1  0
  9 10  2  0
  9 11  1  0
 11 12  1  0
 13 12  1  1
 13 14  1  0
 14 15  1  0
 15 16  1  0
 16 17  1  0
 18 17  1  1
 18 19  1  0
 19 20  1  0
 20 21  1  0
 18 13  1  0
 21 13  1  0
A    1
 C1 
A    2
 O1 
A    3
 C2 
A    4
 C3 
A    5
 O2 
A    6
 C4 
A    7
 C5 
A    8
 C6 
A    9
 C7 
A   10
 O3 
A   11
 N1 
A   12
 C8 
A   13
 C9 
A   14
 C10
A   15
 C11
A   16
 C12
A   17
 C13
A   18
 C14
A   19
 N2 
A   20
 C15
A   21
 C16
M  END
>  <ref_url>  (36) 
https://github.com/stephwills/fragment_network_merges

>  <submitter_name>  (36) 
Steph Wills

>  <submitter_institution>  (36) 
University of Oxford

>  <submitter_email>  (36) 
stephanie.wills@balliol.ox.ac.uk

>  <generation_date>  (36) 
2023-08-10

>  <method>  (36) 
fragnetv3_corrected

>  <original SMILES>  (36) 
COCCOCC=CC(=O)NCC12CCCCC1NCC2

>  <original_name>  (36) 
x0771_0A-x1052_1A_617

>  <ref_mols>  (36) 
x0771_0A,x1052_1A

>  <ref_pdb>  (36) 
x0771_0A

>  <SuCOS_score>  (36) 
0.394312405479718

>  <compound ID>  (36) 
ENAMINE:Z3519277000

$$$$
x0771_0A-x1052_1A_550
     RDKit          3D

 23 25  0  0  0  0  0  0  0  0999 V2000
   -5.3550  -10.5280   -4.5090 O   0  0  0  0  0  0  0  0  0  0  0  0
   -6.1550   -9.6200   -4.2910 C   0  0  0  0  0  0  0  0  0  0  0  0
   -6.1020   -8.8470   -2.9940 C   0  0  0  0  0  0  0  0  0  0  0  0
   -7.0920   -9.5660   -2.0410 C   0  0  0  0  0  0  0  0  0  0  0  0
   -6.4590   -9.9400   -0.6970 C   0  0  0  0  0  0  0  0  0  0  0  0
   -6.5410   -8.8360    0.2090 O   0  0  0  0  0  0  0  0  0  0  0  0
   -6.4570   -7.5940   -0.3370 C   0  0  0  0  0  0  0  0  0  0  0  0
   -5.2680   -7.4130   -1.2910 C   0  0  0  0  0  0  0  0  0  0  0  0
   -5.1680   -6.0200   -1.9270 C   0  0  0  0  0  0  0  0  0  0  0  0
   -6.2600   -5.0590   -1.4930 C   0  0  0  0  0  0  0  0  0  0  0  0
   -7.2580   -5.3270   -0.6390 N   0  0  0  0  0  0  0  0  0  0  0  0
   -7.3280   -6.5580   -0.1000 C   0  0  0  0  0  0  0  0  0  0  0  0
   -7.1200   -9.2730   -5.2270 N   0  0  0  0  0  0  0  0  0  0  0  0
   -7.5170  -10.1570   -6.3480 C   0  0  2  0  0  0  0  0  0  0  0  0
   -6.7290  -11.4530   -6.6030 C   0  0  0  0  0  0  0  0  0  0  0  0
   -7.1640  -12.0780   -7.8100 O   0  0  0  0  0  0  0  0  0  0  0  0
   -7.4200   -9.2770   -7.3690 C   0  0  0  0  0  0  0  0  0  0  0  0
   -7.7130   -7.8860   -7.0470 C   0  0  2  0  0  0  0  0  0  0  0  0
   -7.1380   -6.7500   -7.8470 C   0  0  0  0  0  0  0  0  0  0  0  0
   -7.7590   -5.4650   -7.2810 C   0  0  0  0  0  0  0  0  0  0  0  0
   -8.0890   -5.5480   -5.7490 C   0  0  0  0  0  0  0  0  0  0  0  0
   -7.9600   -6.9140   -5.0050 C   0  0  0  0  0  0  0  0  0  0  0  0
   -7.1690   -7.8380   -5.6610 C   0  0  1  0  0  0  0  0  0  0  0  0
  1  2  2  0
  2  3  1  0
  3  4  1  0
  4  5  1  0
  5  6  1  0
  6  7  1  0
  7  8  2  0
  8  9  1  0
  9 10  2  0
 10 11  1  0
 11 12  2  0
  2 13  1  0
 13 14  1  0
 14 15  1  6
 15 16  1  0
 14 17  1  0
 18 17  1  6
 18 19  1  0
 19 20  1  0
 20 21  1  0
 21 22  1  0
 23 22  1  1
 12  7  1  0
 23 13  1  0
 23 18  1  0
A    1
 O1 
A    2
 C1 
A    3
 C2 
A    4
 C3 
A    5
 C4 
A    6
 O2 
A    7
 C5 
A    8
 C6 
A    9
 C7 
A   10
 C8 
A   11
 N1 
A   12
 C9 
A   13
 N2 
A   14
 C10
A   15
 C11
A   16
 O3 
A   17
 C12
A   18
 C13
A   19
 C14
A   20
 C15
A   21
 C16
A   22
 C17
A   23
 C18
M  END
>  <ref_url>  (37) 
https://github.com/stephwills/fragment_network_merges

>  <submitter_name>  (37) 
Steph Wills

>  <submitter_institution>  (37) 
University of Oxford

>  <submitter_email>  (37) 
stephanie.wills@balliol.ox.ac.uk

>  <generation_date>  (37) 
2023-08-10

>  <method>  (37) 
fragnetv3_corrected

>  <original SMILES>  (37) 
O=C(CCCOc1cccnc1)N1C(CO)CC2CCCCC21

>  <original_name>  (37) 
x0771_0A-x1052_1A_550

>  <ref_mols>  (37) 
x0771_0A,x1052_1A

>  <ref_pdb>  (37) 
x0771_0A

>  <SuCOS_score>  (37) 
0.39332303351671744

>  <compound ID>  (37) 
ENAMINE:Z3595365325

$$$$
x0771_0A-x1052_1A_224
     RDKit          3D

 20 22  0  0  0  0  0  0  0  0999 V2000
   -5.6240  -11.5120   -5.2490 O   0  0  0  0  0  0  0  0  0  0  0  0
   -6.0000  -10.3430   -5.2960 C   0  0  0  0  0  0  0  0  0  0  0  0
   -5.2770   -9.2940   -4.5870 N   0  0  0  0  0  0  0  0  0  0  0  0
   -5.2720   -9.3970   -3.1220 C   0  0  0  0  0  0  0  0  0  0  0  0
   -4.4760   -8.2780   -2.4300 C   0  0  0  0  0  0  0  0  0  0  0  0
   -5.3970   -7.3110   -1.7410 C   0  0  0  0  0  0  0  0  0  0  0  0
   -5.4660   -5.9840   -2.1550 C   0  0  0  0  0  0  0  0  0  0  0  0
   -6.3330   -5.1280   -1.4990 C   0  0  0  0  0  0  0  0  0  0  0  0
   -7.1200   -5.5110   -0.4750 N   0  0  0  0  0  0  0  0  0  0  0  0
   -7.0310   -6.8050   -0.0920 C   0  0  0  0  0  0  0  0  0  0  0  0
   -6.1950   -7.7300   -0.6840 C   0  0  0  0  0  0  0  0  0  0  0  0
   -7.2610   -9.8970   -6.0780 C   0  0  2  0  0  0  0  0  0  0  0  0
   -7.0690   -9.0100   -7.3150 C   0  0  0  0  0  0  0  0  0  0  0  0
   -6.8140   -7.5870   -6.7950 C   0  0  1  0  0  0  0  0  0  0  0  0
   -7.5930   -6.6250   -7.6600 C   0  0  0  0  0  0  0  0  0  0  0  0
   -7.6020   -5.1750   -7.2730 C   0  0  0  0  0  0  0  0  0  0  0  0
   -8.0030   -5.1260   -5.7980 C   0  0  0  0  0  0  0  0  0  0  0  0
   -8.4650   -6.4920   -5.2550 C   0  0  0  0  0  0  0  0  0  0  0  0
   -7.4340   -7.6210   -5.4030 C   0  0  1  0  0  0  0  0  0  0  0  0
   -8.0280   -8.9650   -5.2330 N   0  0  0  0  0  0  0  0  0  0  0  0
  1  2  2  0
  2  3  1  0
  3  4  1  0
  4  5  1  0
  5  6  1  0
  6  7  2  0
  7  8  1  0
  8  9  2  0
  9 10  1  0
 10 11  2  0
 12  2  1  1
 12 13  1  0
 14 13  1  6
 14 15  1  0
 15 16  1  0
 16 17  1  0
 17 18  1  0
 19 18  1  6
 19 20  1  0
 11  6  1  0
 20 12  1  0
 19 14  1  0
A    1
 O1 
A    2
 C1 
A    3
 N1 
A    4
 C2 
A    5
 C3 
A    6
 C4 
A    7
 C5 
A    8
 C6 
A    9
 N2 
A   10
 C7 
A   11
 C8 
A   12
 C9 
A   13
 C10
A   14
 C11
A   15
 C12
A   16
 C13
A   17
 C14
A   18
 C15
A   19
 C16
A   20
 N3 
M  END
>  <ref_url>  (38) 
https://github.com/stephwills/fragment_network_merges

>  <submitter_name>  (38) 
Steph Wills

>  <submitter_institution>  (38) 
University of Oxford

>  <submitter_email>  (38) 
stephanie.wills@balliol.ox.ac.uk

>  <generation_date>  (38) 
2023-08-10

>  <method>  (38) 
fragnetv3_corrected

>  <original SMILES>  (38) 
O=C(NCCc1ccncc1)C1CC2CCCCC2N1

>  <original_name>  (38) 
x0771_0A-x1052_1A_224

>  <ref_mols>  (38) 
x0771_0A,x1052_1A

>  <ref_pdb>  (38) 
x0771_0A

>  <SuCOS_score>  (38) 
0.3923813346623683

>  <compound ID>  (38) 
ENAMINE:Z2452444414

$$$$
x0771_0A-x1052_1A_318
     RDKit          3D

 23 25  0  0  0  0  0  0  0  0999 V2000
   -6.1810  -11.7670   -7.0030 O   0  0  0  0  0  0  0  0  0  0  0  0
   -6.5540  -11.1010   -6.0340 C   0  0  0  0  0  0  0  0  0  0  0  0
   -6.0350  -11.2580   -4.8100 O   0  0  0  0  0  0  0  0  0  0  0  0
   -7.6380  -10.0570   -6.1440 C   0  0  2  0  0  0  0  0  0  0  0  0
   -7.4970   -9.2850   -7.4280 C   0  0  0  0  0  0  0  0  0  0  0  0
   -7.7780   -7.8400   -7.0110 C   0  0  2  0  0  0  0  0  0  0  0  0
   -7.2170   -6.6420   -7.8050 C   0  0  0  0  0  0  0  0  0  0  0  0
   -8.0030   -5.4160   -7.2900 C   0  0  0  0  0  0  0  0  0  0  0  0
   -8.0920   -5.2870   -5.7580 C   0  0  0  0  0  0  0  0  0  0  0  0
   -8.1490   -6.6040   -4.9490 C   0  0  0  0  0  0  0  0  0  0  0  0
   -7.3560   -7.7330   -5.5900 C   0  0  1  0  0  0  0  0  0  0  0  0
   -7.6050   -9.0690   -5.0150 N   0  0  0  0  0  0  0  0  0  0  0  0
   -8.3480   -9.3890   -3.8870 C   0  0  0  0  0  0  0  0  0  0  0  0
   -9.3240  -10.1360   -3.9490 O   0  0  0  0  0  0  0  0  0  0  0  0
   -7.9080   -8.7820   -2.6160 N   0  0  0  0  0  0  0  0  0  0  0  0
   -7.8000   -9.5090   -1.4310 C   0  0  0  0  0  0  0  0  0  0  0  0
   -8.3600   -8.8490   -0.1660 C   0  0  0  0  0  0  0  0  0  0  0  0
   -7.4850   -7.7670    0.4250 C   0  0  0  0  0  0  0  0  0  0  0  0
   -6.7920   -6.9230   -0.4410 C   0  0  0  0  0  0  0  0  0  0  0  0
   -7.0850   -5.6410   -0.6270 N   0  0  0  0  0  0  0  0  0  0  0  0
   -6.1700   -5.1010   -1.6070 C   0  0  0  0  0  0  0  0  0  0  0  0
   -5.2680   -6.0310   -2.0670 C   0  0  0  0  0  0  0  0  0  0  0  0
   -5.4700   -7.5570   -1.3510 S   0  0  0  0  0  0  0  0  0  0  0  0
  1  2  2  0
  2  3  1  0
  4  2  1  1
  4  5  1  0
  6  5  1  6
  6  7  1  0
  7  8  1  0
  8  9  1  0
  9 10  1  0
 11 10  1  1
 11 12  1  0
 12 13  1  0
 13 14  2  0
 13 15  1  0
 15 16  1  0
 16 17  1  0
 17 18  1  0
 18 19  1  0
 19 20  2  0
 20 21  1  0
 21 22  2  0
 22 23  1  0
 12  4  1  0
 23 19  1  0
 11  6  1  0
A    1
 O1 
A    2
 C1 
A    3
 O2 
A    4
 C2 
A    5
 C3 
A    6
 C4 
A    7
 C5 
A    8
 C6 
A    9
 C7 
A   10
 C8 
A   11
 C9 
A   12
 N1 
A   13
 C10
A   14
 O3 
A   15
 N2 
A   16
 C11
A   17
 C12
A   18
 C13
A   19
 C14
A   20
 N3 
A   21
 C15
A   22
 C16
A   23
 S1 
M  END
>  <ref_url>  (39) 
https://github.com/stephwills/fragment_network_merges

>  <submitter_name>  (39) 
Steph Wills

>  <submitter_institution>  (39) 
University of Oxford

>  <submitter_email>  (39) 
stephanie.wills@balliol.ox.ac.uk

>  <generation_date>  (39) 
2023-08-10

>  <method>  (39) 
fragnetv3_corrected

>  <original SMILES>  (39) 
O=C(O)C1CC2CCCCC2N1C(=O)NCCCc1nccs1

>  <original_name>  (39) 
x0771_0A-x1052_1A_318

>  <ref_mols>  (39) 
x0771_0A,x1052_1A

>  <ref_pdb>  (39) 
x0771_0A

>  <SuCOS_score>  (39) 
0.3884307900263125

>  <compound ID>  (39) 
ENAMINE:Z3293840893

$$$$
x0771_0A-x1052_1A_535
     RDKit          3D

 21 23  0  0  0  0  0  0  0  0999 V2000
   -4.7170   -8.2860   -4.1690 O   0  0  0  0  0  0  0  0  0  0  0  0
   -5.5510   -8.7590   -3.4360 C   0  0  0  0  0  0  0  0  0  0  0  0
   -6.7030   -9.5870   -3.9850 C   0  0  0  0  0  0  0  0  0  0  0  0
   -7.3800   -9.1500   -5.0640 N   0  0  0  0  0  0  0  0  0  0  0  0
   -7.1640   -9.9000   -6.3200 C   0  0  1  0  0  0  0  0  0  0  0  0
   -7.7810  -11.1470   -6.4770 C   0  0  0  0  0  0  0  0  0  0  0  0
   -8.1180  -11.4010   -7.8380 O   0  0  0  0  0  0  0  0  0  0  0  0
   -7.6840   -8.9020   -7.3530 C   0  0  0  0  0  0  0  0  0  0  0  0
   -7.3400   -7.6070   -6.9070 C   0  0  1  0  0  0  0  0  0  0  0  0
   -8.2510   -6.4830   -7.4270 C   0  0  0  0  0  0  0  0  0  0  0  0
   -7.8850   -5.1490   -6.7880 C   0  0  0  0  0  0  0  0  0  0  0  0
   -7.9640   -5.2400   -5.2790 C   0  0  0  0  0  0  0  0  0  0  0  0
   -8.2630   -6.6720   -4.7990 C   0  0  0  0  0  0  0  0  0  0  0  0
   -7.3020   -7.7080   -5.3970 C   0  0  1  0  0  0  0  0  0  0  0  0
   -5.5350   -8.5510   -2.0870 N   0  0  0  0  0  0  0  0  0  0  0  0
   -6.0310   -7.3750   -1.5560 C   0  0  0  0  0  0  0  0  0  0  0  0
   -5.6220   -6.1170   -1.9800 C   0  0  0  0  0  0  0  0  0  0  0  0
   -6.2080   -5.0090   -1.3970 C   0  0  0  0  0  0  0  0  0  0  0  0
   -7.1510   -5.0950   -0.4400 N   0  0  0  0  0  0  0  0  0  0  0  0
   -7.5160   -6.3360   -0.0480 C   0  0  0  0  0  0  0  0  0  0  0  0
   -6.9930   -7.4920   -0.5700 C   0  0  0  0  0  0  0  0  0  0  0  0
  1  2  2  0
  2  3  1  0
  3  4  1  0
  4  5  1  0
  5  6  1  1
  6  7  1  0
  5  8  1  0
  9  8  1  6
  9 10  1  0
 10 11  1  0
 11 12  1  0
 12 13  1  0
 14 13  1  1
  2 15  1  0
 15 16  1  0
 16 17  2  0
 17 18  1  0
 18 19  2  0
 19 20  1  0
 20 21  2  0
 14  4  1  0
 21 16  1  0
 14  9  1  0
A    1
 O1 
A    2
 C1 
A    3
 C2 
A    4
 N1 
A    5
 C3 
A    6
 C4 
A    7
 O2 
A    8
 C5 
A    9
 C6 
A   10
 C7 
A   11
 C8 
A   12
 C9 
A   13
 C10
A   14
 C11
A   15
 N2 
A   16
 C12
A   17
 C13
A   18
 C14
A   19
 N3 
A   20
 C15
A   21
 C16
M  END
>  <ref_url>  (40) 
https://github.com/stephwills/fragment_network_merges

>  <submitter_name>  (40) 
Steph Wills

>  <submitter_institution>  (40) 
University of Oxford

>  <submitter_email>  (40) 
stephanie.wills@balliol.ox.ac.uk

>  <generation_date>  (40) 
2023-08-10

>  <method>  (40) 
fragnetv3_corrected

>  <original SMILES>  (40) 
O=C(CN1C(CO)CC2CCCCC21)Nc1ccncc1

>  <original_name>  (40) 
x0771_0A-x1052_1A_535

>  <ref_mols>  (40) 
x0771_0A,x1052_1A

>  <ref_pdb>  (40) 
x0771_0A

>  <SuCOS_score>  (40) 
0.38635801851655405

>  <compound ID>  (40) 
ENAMINE:Z3320950816

$$$$
x0771_0A-x1052_1A_605
     RDKit          3D

 18 20  0  0  0  0  0  0  0  0999 V2000
   -6.4710  -10.4450   -3.3810 O   0  0  0  0  0  0  0  0  0  0  0  0
   -6.2960   -9.3660   -3.9440 C   0  0  0  0  0  0  0  0  0  0  0  0
   -5.5160   -8.3560   -3.3930 N   0  0  0  0  0  0  0  0  0  0  0  0
   -6.0440   -7.4950   -2.3170 C   0  0  0  0  0  0  0  0  0  0  0  0
   -5.7200   -6.0130   -2.4840 C   0  0  0  0  0  0  0  0  0  0  0  0
   -6.2420   -5.0370   -1.4540 C   0  0  0  0  0  0  0  0  0  0  0  0
   -6.9780   -5.4470   -0.4010 N   0  0  0  0  0  0  0  0  0  0  0  0
   -7.2410   -6.7750   -0.2610 C   0  0  0  0  0  0  0  0  0  0  0  0
   -6.7870   -7.8790   -1.2180 C   0  0  0  0  0  0  0  0  0  0  0  0
   -6.9080   -9.0900   -5.1740 N   0  0  0  0  0  0  0  0  0  0  0  0
   -7.2710  -10.0870   -6.1640 C   0  0  0  0  0  0  0  0  0  0  0  0
   -7.3350   -9.3040   -7.4520 C   0  0  0  0  0  0  0  0  0  0  0  0
   -7.4620   -7.8940   -7.1790 C   0  0  2  0  0  0  0  0  0  0  0  0
   -6.9980   -6.8170   -7.8700 C   0  0  0  0  0  0  0  0  0  0  0  0
   -7.6270   -5.5270   -7.3240 C   0  0  0  0  0  0  0  0  0  0  0  0
   -8.1540   -5.5250   -6.0000 C   0  0  0  0  0  0  0  0  0  0  0  0
   -7.5460   -6.6130   -5.0780 C   0  0  0  0  0  0  0  0  0  0  0  0
   -6.8330   -7.7590   -5.8020 C   0  0  1  0  0  0  0  0  0  0  0  0
  1  2  2  0
  2  3  1  0
  3  4  1  0
  4  5  2  0
  5  6  1  0
  6  7  2  0
  7  8  1  0
  8  9  2  0
  2 10  1  0
 10 11  1  0
 11 12  1  0
 13 12  1  6
 13 14  1  0
 14 15  1  0
 15 16  1  0
 16 17  1  0
 18 17  1  1
  9  4  1  0
 18 10  1  0
 18 13  1  0
A    1
 O1 
A    2
 C1 
A    3
 N1 
A    4
 C2 
A    5
 C3 
A    6
 C4 
A    7
 N2 
A    8
 C5 
A    9
 C6 
A   10
 N3 
A   11
 C7 
A   12
 C8 
A   13
 C9 
A   14
 C10
A   15
 C11
A   16
 C12
A   17
 C13
A   18
 C14
M  END
>  <ref_url>  (41) 
https://github.com/stephwills/fragment_network_merges

>  <submitter_name>  (41) 
Steph Wills

>  <submitter_institution>  (41) 
University of Oxford

>  <submitter_email>  (41) 
stephanie.wills@balliol.ox.ac.uk

>  <generation_date>  (41) 
2023-08-10

>  <method>  (41) 
fragnetv3_corrected

>  <original SMILES>  (41) 
O=C(Nc1ccncc1)N1CCC2CCCCC21

>  <original_name>  (41) 
x0771_0A-x1052_1A_605

>  <ref_mols>  (41) 
x0771_0A,x1052_1A

>  <ref_pdb>  (41) 
x0771_0A

>  <SuCOS_score>  (41) 
0.3846360080575958

>  <compound ID>  (41) 
ENAMINE:PV-001945140605

$$$$
x0771_0A-x1052_1A_177
     RDKit          3D

 20 22  0  0  0  0  0  0  0  0999 V2000
   -8.9030   -9.8650   -3.4000 O   0  0  0  0  0  0  0  0  0  0  0  0
   -7.8880   -9.6500   -4.0600 C   0  0  0  0  0  0  0  0  0  0  0  0
   -6.6330   -9.7680   -3.5340 N   0  0  0  0  0  0  0  0  0  0  0  0
   -5.6680   -8.6950   -3.7080 C   0  0  0  0  0  0  0  0  0  0  0  0
   -4.9110   -8.3350   -2.4290 C   0  0  0  0  0  0  0  0  0  0  0  0
   -5.7470   -7.3640   -1.6460 C   0  0  0  0  0  0  0  0  0  0  0  0
   -5.5410   -5.9480   -2.1830 C   0  0  0  0  0  0  0  0  0  0  0  0
   -6.3550   -4.8770   -1.4770 C   0  0  0  0  0  0  0  0  0  0  0  0
   -7.1890   -5.1720   -0.4570 N   0  0  0  0  0  0  0  0  0  0  0  0
   -7.2930   -6.5940   -0.0280 C   0  0  0  0  0  0  0  0  0  0  0  0
   -6.6030   -7.6490   -0.5950 C   0  0  0  0  0  0  0  0  0  0  0  0
   -7.9260   -9.2810   -5.3840 N   0  0  0  0  0  0  0  0  0  0  0  0
   -7.2560  -10.1130   -6.3650 C   0  0  0  0  0  0  0  0  0  0  0  0
   -7.1890   -9.2350   -7.4380 C   0  0  0  0  0  0  0  0  0  0  0  0
   -6.8940   -7.9760   -6.9500 C   0  0  1  0  0  0  0  0  0  0  0  0
   -7.0080   -6.9360   -7.8520 C   0  0  0  0  0  0  0  0  0  0  0  0
   -7.8960   -5.7260   -7.4780 C   0  0  0  0  0  0  0  0  0  0  0  0
   -8.0190   -5.4620   -5.9680 C   0  0  0  0  0  0  0  0  0  0  0  0
   -8.0600   -6.7310   -5.1000 C   0  0  0  0  0  0  0  0  0  0  0  0
   -8.0810   -7.9550   -5.9980 C   0  0  2  0  0  0  0  0  0  0  0  0
  1  2  2  0
  2  3  1  0
  3  4  1  0
  4  5  1  0
  5  6  1  0
  6  7  2  0
  7  8  1  0
  8  9  2  0
  9 10  1  0
 10 11  2  0
  2 12  1  0
 12 13  1  0
 13 14  1  0
 15 14  1  6
 15 16  1  0
 16 17  1  0
 17 18  1  0
 18 19  1  0
 20 19  1  1
 11  6  1  0
 20 12  1  0
 20 15  1  0
A    1
 O1 
A    2
 C1 
A    3
 N1 
A    4
 C2 
A    5
 C3 
A    6
 C4 
A    7
 C5 
A    8
 C6 
A    9
 N2 
A   10
 C7 
A   11
 C8 
A   12
 N3 
A   13
 C9 
A   14
 C10
A   15
 C11
A   16
 C12
A   17
 C13
A   18
 C14
A   19
 C15
A   20
 C16
M  END
>  <ref_url>  (42) 
https://github.com/stephwills/fragment_network_merges

>  <submitter_name>  (42) 
Steph Wills

>  <submitter_institution>  (42) 
University of Oxford

>  <submitter_email>  (42) 
stephanie.wills@balliol.ox.ac.uk

>  <generation_date>  (42) 
2023-08-10

>  <method>  (42) 
fragnetv3_corrected

>  <original SMILES>  (42) 
O=C(NCCc1ccncc1)N1CCC2CCCCC21

>  <original_name>  (42) 
x0771_0A-x1052_1A_177

>  <ref_mols>  (42) 
x0771_0A,x1052_1A

>  <ref_pdb>  (42) 
x0771_0A

>  <SuCOS_score>  (42) 
0.3844792015965423

>  <compound ID>  (42) 
ENAMINE:PV-001958606341

$$$$
x0771_0A-x1052_1A_111
     RDKit          3D

 21 23  0  0  0  0  0  0  0  0999 V2000
   -6.3180  -10.4360   -3.4830 O   0  0  0  0  0  0  0  0  0  0  0  0
   -6.0970   -9.4550   -4.1990 C   0  0  0  0  0  0  0  0  0  0  0  0
   -4.9920   -8.4880   -3.9060 C   0  0  0  0  0  0  0  0  0  0  0  0
   -4.6370   -8.4900   -2.1520 S   0  0  0  0  0  0  0  0  0  0  0  0
   -5.6520   -7.1910   -1.5500 C   0  0  0  0  0  0  0  0  0  0  0  0
   -5.5280   -5.9390   -2.1140 C   0  0  0  0  0  0  0  0  0  0  0  0
   -6.4000   -4.9930   -1.5380 C   0  0  0  0  0  0  0  0  0  0  0  0
   -7.2800   -5.2370   -0.5440 N   0  0  0  0  0  0  0  0  0  0  0  0
   -7.3270   -6.4840   -0.0620 C   0  0  0  0  0  0  0  0  0  0  0  0
   -6.5370   -7.4850   -0.5300 C   0  0  0  0  0  0  0  0  0  0  0  0
   -6.8530   -9.2020   -5.3140 N   0  0  0  0  0  0  0  0  0  0  0  0
   -7.4140  -10.1790   -6.2220 C   0  0  2  0  0  0  0  0  0  0  0  0
   -6.6630  -11.3320   -6.4960 C   0  0  0  0  0  0  0  0  0  0  0  0
   -7.1570  -11.9280   -7.6920 O   0  0  0  0  0  0  0  0  0  0  0  0
   -7.5790   -9.3080   -7.4690 C   0  0  0  0  0  0  0  0  0  0  0  0
   -7.8980   -8.0080   -6.9770 C   0  0  2  0  0  0  0  0  0  0  0  0
   -7.3040   -6.7530   -7.6410 C   0  0  0  0  0  0  0  0  0  0  0  0
   -8.0450   -5.5080   -7.1940 C   0  0  0  0  0  0  0  0  0  0  0  0
   -8.0980   -5.4840   -5.6710 C   0  0  0  0  0  0  0  0  0  0  0  0
   -7.2710   -6.6300   -5.0240 C   0  0  0  0  0  0  0  0  0  0  0  0
   -7.6910   -8.0290   -5.4750 C   0  0  2  0  0  0  0  0  0  0  0  0
  1  2  2  0
  2  3  1  0
  3  4  1  0
  4  5  1  0
  5  6  2  0
  6  7  1  0
  7  8  2  0
  8  9  1  0
  9 10  2  0
  2 11  1  0
 11 12  1  0
 12 13  1  6
 13 14  1  0
 12 15  1  0
 16 15  1  6
 16 17  1  0
 17 18  1  0
 18 19  1  0
 19 20  1  0
 21 20  1  6
 10  5  1  0
 21 11  1  0
 21 16  1  0
A    1
 O1 
A    2
 C1 
A    3
 C2 
A    4
 S1 
A    5
 C3 
A    6
 C4 
A    7
 C5 
A    8
 N1 
A    9
 C6 
A   10
 C7 
A   11
 N2 
A   12
 C8 
A   13
 C9 
A   14
 O2 
A   15
 C10
A   16
 C11
A   17
 C12
A   18
 C13
A   19
 C14
A   20
 C15
A   21
 C16
M  END
>  <ref_url>  (43) 
https://github.com/stephwills/fragment_network_merges

>  <submitter_name>  (43) 
Steph Wills

>  <submitter_institution>  (43) 
University of Oxford

>  <submitter_email>  (43) 
stephanie.wills@balliol.ox.ac.uk

>  <generation_date>  (43) 
2023-08-10

>  <method>  (43) 
fragnetv3_corrected

>  <original SMILES>  (43) 
O=C(CSc1ccncc1)N1C(CO)CC2CCCCC21

>  <original_name>  (43) 
x0771_0A-x1052_1A_111

>  <ref_mols>  (43) 
x0771_0A,x1052_1A

>  <ref_pdb>  (43) 
x0771_0A

>  <SuCOS_score>  (43) 
0.3824526430188409

>  <compound ID>  (43) 
ENAMINE:Z3595375749

$$$$
x0771_0A-x1083_0A_488
     RDKit          3D

 22 25  0  0  0  0  0  0  0  0999 V2000
   -6.4750  -10.7880   -3.3770 O   0  0  0  0  0  0  0  0  0  0  0  0
   -6.8960   -9.4570   -3.7110 C   0  0  0  0  0  0  0  0  0  0  0  0
   -7.0180   -8.5800   -2.3950 C   0  0  0  0  0  0  0  0  0  0  0  0
   -8.3450   -7.8340   -2.2180 C   0  0  0  0  0  0  0  0  0  0  0  0
   -8.3830   -7.0250   -0.9260 C   0  0  0  0  0  0  0  0  0  0  0  0
   -7.1930   -7.0690   -0.0550 N   0  0  0  0  0  0  0  0  0  0  0  0
   -6.1030   -7.8050   -0.4020 C   0  0  0  0  0  0  0  0  0  0  0  0
   -5.0340   -7.7870    0.4790 N   0  0  0  0  0  0  0  0  0  0  0  0
   -5.1530   -8.4270    1.7930 C   0  0  0  0  0  0  0  0  0  0  0  0
   -3.7720   -8.1880    2.3990 C   0  0  0  0  0  0  0  0  0  0  0  0
   -2.8280   -7.8330    1.2480 C   0  0  0  0  0  0  0  0  0  0  0  0
   -3.6440   -7.8250   -0.0340 C   0  0  0  0  0  0  0  0  0  0  0  0
   -5.9850   -8.5460   -1.5240 N   0  0  0  0  0  0  0  0  0  0  0  0
   -7.1880   -9.0230   -5.0160 N   0  0  0  0  0  0  0  0  0  0  0  0
   -7.1500   -9.9450   -6.1380 C   0  0  0  0  0  0  0  0  0  0  0  0
   -7.2800   -9.0500   -7.3560 C   0  0  0  0  0  0  0  0  0  0  0  0
   -6.8740   -7.6280   -6.9820 C   0  0  1  0  0  0  0  0  0  0  0  0
   -7.7210   -6.5380   -7.6520 C   0  0  0  0  0  0  0  0  0  0  0  0
   -7.5930   -5.2010   -6.9670 C   0  0  0  0  0  0  0  0  0  0  0  0
   -7.8760   -5.2650   -5.4710 C   0  0  0  0  0  0  0  0  0  0  0  0
   -8.1530   -6.7140   -4.9930 C   0  0  0  0  0  0  0  0  0  0  0  0
   -6.9870   -7.6150   -5.4500 C   0  0  1  0  0  0  0  0  0  0  0  0
  1  2  2  0
  2  3  1  0
  3  4  2  0
  4  5  1  0
  5  6  2  0
  6  7  1  0
  7  8  1  0
  8  9  1  0
  9 10  1  0
 10 11  1  0
 11 12  1  0
  7 13  2  0
  2 14  1  0
 14 15  1  0
 15 16  1  0
 17 16  1  6
 17 18  1  0
 18 19  1  0
 19 20  1  0
 20 21  1  0
 22 21  1  6
 13  3  1  0
 22 14  1  0
 12  8  1  0
 22 17  1  0
A    1
 O1 
A    2
 C1 
A    3
 C2 
A    4
 C3 
A    5
 C4 
A    6
 N1 
A    7
 C5 
A    8
 N2 
A    9
 C6 
A   10
 C7 
A   11
 C8 
A   12
 C9 
A   13
 N3 
A   14
 N4 
A   15
 C10
A   16
 C11
A   17
 C12
A   18
 C13
A   19
 C14
A   20
 C15
A   21
 C16
A   22
 C17
M  END
>  <ref_url>  (44) 
https://github.com/stephwills/fragment_network_merges

>  <submitter_name>  (44) 
Steph Wills

>  <submitter_institution>  (44) 
University of Oxford

>  <submitter_email>  (44) 
stephanie.wills@balliol.ox.ac.uk

>  <generation_date>  (44) 
2023-08-10

>  <method>  (44) 
fragnetv3_corrected

>  <original SMILES>  (44) 
O=C(c1ccnc(N2CCCC2)n1)N1CCC2CCCCC21

>  <original_name>  (44) 
x0771_0A-x1083_0A_488

>  <ref_mols>  (44) 
x0771_0A,x1083_0A

>  <ref_pdb>  (44) 
x0771_0A

>  <SuCOS_score>  (44) 
0.4471901926181304

>  <compound ID>  (44) 
ENAMINE:Z1246667611

$$$$
x0771_0A-x1083_0A_122
     RDKit          3D

 24 26  0  0  0  0  0  0  0  0999 V2000
   -5.2680   -6.2930   -1.1300 C   0  0  0  0  0  0  0  0  0  0  0  0
   -5.7170   -7.3680   -0.3860 N   0  0  0  0  0  0  0  0  0  0  0  0
   -7.1090   -7.8990   -0.5100 C   0  0  0  0  0  0  0  0  0  0  0  0
   -7.7980   -8.1550    0.4820 O   0  0  0  0  0  0  0  0  0  0  0  0
   -7.6120   -8.0950   -1.9330 C   0  0  0  0  0  0  0  0  0  0  0  0
   -6.7110   -9.6740   -2.1540 S   0  0  0  0  0  0  0  0  0  0  0  0
   -5.7030   -8.4650   -3.0800 C   0  0  0  0  0  0  0  0  0  0  0  0
   -5.8400   -8.5550   -4.6030 C   0  0  0  0  0  0  0  0  0  0  0  0
   -4.8700   -8.4380   -5.3390 O   0  0  0  0  0  0  0  0  0  0  0  0
   -7.0800   -8.7430   -5.1800 N   0  0  0  0  0  0  0  0  0  0  0  0
   -7.1430   -9.7830   -6.1880 C   0  0  0  0  0  0  0  0  0  0  0  0
   -7.1490   -8.9510   -7.4750 C   0  0  0  0  0  0  0  0  0  0  0  0
   -7.1130   -7.4720   -7.0800 C   0  0  1  0  0  0  0  0  0  0  0  0
   -7.6640   -6.3630   -7.9560 C   0  0  0  0  0  0  0  0  0  0  0  0
   -7.4510   -5.0730   -7.2200 C   0  0  0  0  0  0  0  0  0  0  0  0
   -8.0950   -5.1120   -5.8270 C   0  0  0  0  0  0  0  0  0  0  0  0
   -7.7320   -6.3210   -4.9660 C   0  0  0  0  0  0  0  0  0  0  0  0
   -7.8290   -7.6210   -5.7440 C   0  0  2  0  0  0  0  0  0  0  0  0
   -4.7470   -8.1430    0.4120 C   0  0  0  0  0  0  0  0  0  0  0  0
   -5.2670   -8.5060    1.8150 C   0  0  0  0  0  0  0  0  0  0  0  0
   -4.2030   -8.3120    2.8970 C   0  0  0  0  0  0  0  0  0  0  0  0
   -2.8430   -8.8440    2.4750 C   0  0  0  0  0  0  0  0  0  0  0  0
   -2.3050   -8.0510    1.2980 C   0  0  0  0  0  0  0  0  0  0  0  0
   -3.4000   -7.4050    0.4520 C   0  0  0  0  0  0  0  0  0  0  0  0
  1  2  1  0
  2  3  1  0
  3  4  2  0
  3  5  1  0
  5  6  1  0
  6  7  1  0
  7  8  1  0
  8  9  2  0
  8 10  1  0
 10 11  1  0
 11 12  1  0
 13 12  1  6
 13 14  1  0
 14 15  1  0
 15 16  1  0
 16 17  1  0
 18 17  1  1
  2 19  1  0
 19 20  1  0
 20 21  1  0
 21 22  1  0
 22 23  1  0
 23 24  1  0
 18 10  1  0
 24 19  1  0
 18 13  1  0
A    1
 C1 
A    2
 N1 
A    3
 C2 
A    4
 O1 
A    5
 C3 
A    6
 S1 
A    7
 C4 
A    8
 C5 
A    9
 O2 
A   10
 N2 
A   11
 C6 
A   12
 C7 
A   13
 C8 
A   14
 C9 
A   15
 C10
A   16
 C11
A   17
 C12
A   18
 C13
A   19
 C14
A   20
 C15
A   21
 C16
A   22
 C17
A   23
 C18
A   24
 C19
M  END
>  <ref_url>  (45) 
https://github.com/stephwills/fragment_network_merges

>  <submitter_name>  (45) 
Steph Wills

>  <submitter_institution>  (45) 
University of Oxford

>  <submitter_email>  (45) 
stephanie.wills@balliol.ox.ac.uk

>  <generation_date>  (45) 
2023-08-10

>  <method>  (45) 
fragnetv3_corrected

>  <original SMILES>  (45) 
CN(C(=O)CSCC(=O)N1CCC2CCCCC21)C1CCCCC1

>  <original_name>  (45) 
x0771_0A-x1083_0A_122

>  <ref_mols>  (45) 
x0771_0A,x1083_0A

>  <ref_pdb>  (45) 
x0771_0A

>  <SuCOS_score>  (45) 
0.4385527183914209

>  <compound ID>  (45) 
ENAMINE:Z977430986

$$$$
x0771_0A-x1083_0A_329
     RDKit          3D

 22 24  0  0  0  0  0  0  0  0999 V2000
   -5.5790   -5.6340   -0.6630 O   0  0  0  0  0  0  0  0  0  0  0  0
   -5.2310   -6.8030   -0.5450 C   0  0  0  0  0  0  0  0  0  0  0  0
   -5.6160   -7.7800   -1.4230 N   0  0  0  0  0  0  0  0  0  0  0  0
   -5.1840   -7.7630   -2.8050 C   0  0  0  0  0  0  0  0  0  0  0  0
   -5.6830   -8.6670   -3.4070 C   0  0  0  0  0  0  0  0  0  0  0  0
   -6.7400   -9.5860   -4.0540 C   0  0  0  0  0  0  0  0  0  0  0  0
   -7.0410  -10.6820   -3.5780 O   0  0  0  0  0  0  0  0  0  0  0  0
   -7.3430   -9.0980   -5.1900 N   0  0  0  0  0  0  0  0  0  0  0  0
   -7.6340   -9.8620   -6.3900 C   0  0  0  0  0  0  0  0  0  0  0  0
   -7.1310   -9.0470   -7.5710 C   0  0  0  0  0  0  0  0  0  0  0  0
   -7.7000   -7.7750   -7.0210 C   0  0  2  0  0  0  0  0  0  0  0  0
   -7.0930   -6.6470   -7.8020 C   0  0  0  0  0  0  0  0  0  0  0  0
   -7.8310   -5.3970   -7.3320 C   0  0  0  0  0  0  0  0  0  0  0  0
   -8.0080   -5.3060   -5.7970 C   0  0  0  0  0  0  0  0  0  0  0  0
   -8.0120   -6.6230   -4.9630 C   0  0  0  0  0  0  0  0  0  0  0  0
   -7.1850   -7.7090   -5.6230 C   0  0  1  0  0  0  0  0  0  0  0  0
   -4.3550   -7.3200    0.5440 C   0  0  0  0  0  0  0  0  0  0  0  0
   -5.1020   -8.2750    1.4850 C   0  0  0  0  0  0  0  0  0  0  0  0
   -4.2280   -8.2720    2.7340 C   0  0  0  0  0  0  0  0  0  0  0  0
   -2.8620   -8.8900    2.3960 C   0  0  0  0  0  0  0  0  0  0  0  0
   -2.1570   -8.2170    1.2160 C   0  0  0  0  0  0  0  0  0  0  0  0
   -3.0800   -7.9210    0.0350 C   0  0  0  0  0  0  0  0  0  0  0  0
  1  2  2  0
  2  3  1  0
  3  4  1  0
  4  5  1  0
  5  6  1  0
  6  7  2  0
  6  8  1  0
  8  9  1  0
  9 10  1  0
 11 10  1  6
 11 12  1  0
 12 13  1  0
 13 14  1  0
 14 15  1  0
 16 15  1  1
  2 17  1  0
 17 18  1  0
 18 19  1  0
 19 20  1  0
 20 21  1  0
 21 22  1  0
 16  8  1  0
 22 17  1  0
 16 11  1  0
A    1
 O1 
A    2
 C1 
A    3
 N1 
A    4
 C2 
A    5
 C3 
A    6
 C4 
A    7
 O2 
A    8
 N2 
A    9
 C5 
A   10
 C6 
A   11
 C7 
A   12
 C8 
A   13
 C9 
A   14
 C10
A   15
 C11
A   16
 C12
A   17
 C13
A   18
 C14
A   19
 C15
A   20
 C16
A   21
 C17
A   22
 C18
M  END
>  <ref_url>  (46) 
https://github.com/stephwills/fragment_network_merges

>  <submitter_name>  (46) 
Steph Wills

>  <submitter_institution>  (46) 
University of Oxford

>  <submitter_email>  (46) 
stephanie.wills@balliol.ox.ac.uk

>  <generation_date>  (46) 
2023-08-10

>  <method>  (46) 
fragnetv3_corrected

>  <original SMILES>  (46) 
O=C(NCCC(=O)N1CCC2CCCCC21)C1CCCCC1

>  <original_name>  (46) 
x0771_0A-x1083_0A_329

>  <ref_mols>  (46) 
x0771_0A,x1083_0A

>  <ref_pdb>  (46) 
x0771_0A

>  <SuCOS_score>  (46) 
0.436215273769976

>  <compound ID>  (46) 
ENAMINE:Z1000096934

$$$$
x0771_0A-x1083_0A_17
     RDKit          3D

 21 23  0  0  0  0  0  0  0  0999 V2000
   -7.1880  -10.9640   -2.6690 O   0  0  0  0  0  0  0  0  0  0  0  0
   -7.4310   -9.7620   -2.7680 C   0  0  0  0  0  0  0  0  0  0  0  0
   -8.1440   -9.1450   -3.9860 C   0  0  0  0  0  0  0  0  0  0  0  0
   -7.2210   -9.0130   -5.1200 N   0  0  0  0  0  0  0  0  0  0  0  0
   -7.3530  -10.0010   -6.2040 C   0  0  0  0  0  0  0  0  0  0  0  0
   -7.2580   -9.2130   -7.5080 C   0  0  0  0  0  0  0  0  0  0  0  0
   -7.5680   -7.7980   -7.0820 C   0  0  2  0  0  0  0  0  0  0  0  0
   -7.0760   -6.6270   -7.8720 C   0  0  0  0  0  0  0  0  0  0  0  0
   -7.7800   -5.3640   -7.3920 C   0  0  0  0  0  0  0  0  0  0  0  0
   -8.0120   -5.2920   -5.8550 C   0  0  0  0  0  0  0  0  0  0  0  0
   -7.9340   -6.6060   -5.0450 C   0  0  0  0  0  0  0  0  0  0  0  0
   -7.0630   -7.6740   -5.6990 C   0  0  1  0  0  0  0  0  0  0  0  0
   -7.0830   -8.8420   -1.7870 N   0  0  0  0  0  0  0  0  0  0  0  0
   -5.7290   -8.3070   -1.7200 C   0  0  0  0  0  0  0  0  0  0  0  0
   -5.6360   -7.3200   -0.5420 C   0  0  0  0  0  0  0  0  0  0  0  0
   -6.3420   -6.3050   -0.5070 O   0  0  0  0  0  0  0  0  0  0  0  0
   -4.7380   -7.6210    0.4560 N   0  0  0  0  0  0  0  0  0  0  0  0
   -5.0090   -8.3630    1.6730 C   0  0  0  0  0  0  0  0  0  0  0  0
   -3.7420   -8.1590    2.4980 C   0  0  0  0  0  0  0  0  0  0  0  0
   -2.6350   -7.8800    1.4620 C   0  0  0  0  0  0  0  0  0  0  0  0
   -3.3570   -7.8320    0.1190 C   0  0  0  0  0  0  0  0  0  0  0  0
  1  2  2  0
  2  3  1  0
  3  4  1  0
  4  5  1  0
  5  6  1  0
  7  6  1  6
  7  8  1  0
  8  9  1  0
  9 10  1  0
 10 11  1  0
 12 11  1  1
  2 13  1  0
 13 14  1  0
 14 15  1  0
 15 16  2  0
 15 17  1  0
 17 18  1  0
 18 19  1  0
 19 20  1  0
 20 21  1  0
 12  4  1  0
 21 17  1  0
 12  7  1  0
A    1
 O1 
A    2
 C1 
A    3
 C2 
A    4
 N1 
A    5
 C3 
A    6
 C4 
A    7
 C5 
A    8
 C6 
A    9
 C7 
A   10
 C8 
A   11
 C9 
A   12
 C10
A   13
 N2 
A   14
 C11
A   15
 C12
A   16
 O2 
A   17
 N3 
A   18
 C13
A   19
 C14
A   20
 C15
A   21
 C16
M  END
>  <ref_url>  (47) 
https://github.com/stephwills/fragment_network_merges

>  <submitter_name>  (47) 
Steph Wills

>  <submitter_institution>  (47) 
University of Oxford

>  <submitter_email>  (47) 
stephanie.wills@balliol.ox.ac.uk

>  <generation_date>  (47) 
2023-08-10

>  <method>  (47) 
fragnetv3_corrected

>  <original SMILES>  (47) 
O=C(CN1CCC2CCCCC21)NCC(=O)N1CCCC1

>  <original_name>  (47) 
x0771_0A-x1083_0A_17

>  <ref_mols>  (47) 
x0771_0A,x1083_0A

>  <ref_pdb>  (47) 
x0771_0A

>  <SuCOS_score>  (47) 
0.43616585103651034

>  <compound ID>  (47) 
ENAMINE:Z977567760

$$$$
x0771_0A-x1083_0A_386
     RDKit          3D

 21 23  0  0  0  0  0  0  0  0999 V2000
   -5.6150   -5.7340   -0.9500 O   0  0  0  0  0  0  0  0  0  0  0  0
   -5.7030   -6.9960   -0.2760 C   0  0  0  0  0  0  0  0  0  0  0  0
   -7.0940   -7.6460   -0.4460 C   0  0  0  0  0  0  0  0  0  0  0  0
   -7.0570   -8.9540   -1.2440 C   0  0  0  0  0  0  0  0  0  0  0  0
   -7.4630   -8.8010   -2.6550 N   0  0  0  0  0  0  0  0  0  0  0  0
   -7.0990   -9.7600   -3.7160 C   0  0  0  0  0  0  0  0  0  0  0  0
   -6.8210  -10.9310   -3.4680 O   0  0  0  0  0  0  0  0  0  0  0  0
   -7.1020   -9.2260   -5.0670 N   0  0  0  0  0  0  0  0  0  0  0  0
   -7.2160  -10.1150   -6.1010 C   0  0  0  0  0  0  0  0  0  0  0  0
   -7.4770   -9.3360   -7.3740 C   0  0  0  0  0  0  0  0  0  0  0  0
   -7.9110   -7.9370   -6.9320 C   0  0  2  0  0  0  0  0  0  0  0  0
   -7.1170   -6.8380   -7.6170 C   0  0  0  0  0  0  0  0  0  0  0  0
   -7.6390   -5.4760   -7.1860 C   0  0  0  0  0  0  0  0  0  0  0  0
   -8.0440   -5.5280   -5.6990 C   0  0  0  0  0  0  0  0  0  0  0  0
   -7.1540   -6.6020   -5.0410 C   0  0  0  0  0  0  0  0  0  0  0  0
   -7.7610   -7.9510   -5.4110 C   0  0  2  0  0  0  0  0  0  0  0  0
   -4.7210   -7.6130    0.4680 N   0  0  0  0  0  0  0  0  0  0  0  0
   -3.3390   -7.8390    0.0750 C   0  0  0  0  0  0  0  0  0  0  0  0
   -2.6200   -7.8820    1.4330 C   0  0  0  0  0  0  0  0  0  0  0  0
   -3.7030   -8.2140    2.4610 C   0  0  0  0  0  0  0  0  0  0  0  0
   -5.0190   -8.3420    1.6940 C   0  0  0  0  0  0  0  0  0  0  0  0
  1  2  2  0
  2  3  1  0
  3  4  1  0
  4  5  1  0
  5  6  1  0
  6  7  2  0
  6  8  1  0
  8  9  1  0
  9 10  1  0
 11 10  1  6
 11 12  1  0
 12 13  1  0
 13 14  1  0
 14 15  1  0
 16 15  1  6
  2 17  1  0
 17 18  1  0
 18 19  1  0
 19 20  1  0
 20 21  1  0
 16  8  1  0
 21 17  1  0
 16 11  1  0
A    1
 O1 
A    2
 C1 
A    3
 C2 
A    4
 C3 
A    5
 N1 
A    6
 C4 
A    7
 O2 
A    8
 N2 
A    9
 C5 
A   10
 C6 
A   11
 C7 
A   12
 C8 
A   13
 C9 
A   14
 C10
A   15
 C11
A   16
 C12
A   17
 N3 
A   18
 C13
A   19
 C14
A   20
 C15
A   21
 C16
M  END
>  <ref_url>  (48) 
https://github.com/stephwills/fragment_network_merges

>  <submitter_name>  (48) 
Steph Wills

>  <submitter_institution>  (48) 
University of Oxford

>  <submitter_email>  (48) 
stephanie.wills@balliol.ox.ac.uk

>  <generation_date>  (48) 
2023-08-10

>  <method>  (48) 
fragnetv3_corrected

>  <original SMILES>  (48) 
O=C(CCNC(=O)N1CCC2CCCCC21)N1CCCC1

>  <original_name>  (48) 
x0771_0A-x1083_0A_386

>  <ref_mols>  (48) 
x0771_0A,x1083_0A

>  <ref_pdb>  (48) 
x0771_0A

>  <SuCOS_score>  (48) 
0.43001949481568014

>  <compound ID>  (48) 
ENAMINE:Z976674790

$$$$
x0771_0A-x1083_0A_320
     RDKit          3D

 22 25  0  0  0  0  0  0  0  0999 V2000
   -8.7560  -10.4570   -3.8980 O   0  0  0  0  0  0  0  0  0  0  0  0
   -7.9880   -9.4810   -3.9400 C   0  0  0  0  0  0  0  0  0  0  0  0
   -7.6310   -8.8340   -2.7520 N   0  0  0  0  0  0  0  0  0  0  0  0
   -6.9200   -7.6280   -2.5570 C   0  0  0  0  0  0  0  0  0  0  0  0
   -5.8210   -7.4880   -1.4810 C   0  0  0  0  0  0  0  0  0  0  0  0
   -4.9490   -6.5940   -1.1320 N   0  0  0  0  0  0  0  0  0  0  0  0
   -4.2540   -7.1130   -0.0680 N   0  0  0  0  0  0  0  0  0  0  0  0
   -4.6660   -8.3190    0.2750 C   0  0  0  0  0  0  0  0  0  0  0  0
   -4.0160   -9.0550    1.4120 C   0  0  0  0  0  0  0  0  0  0  0  0
   -2.5840   -8.5060    1.5130 C   0  0  0  0  0  0  0  0  0  0  0  0
   -2.8870   -8.0420    2.8750 C   0  0  0  0  0  0  0  0  0  0  0  0
   -4.3400   -8.4620    2.8510 C   0  0  0  0  0  0  0  0  0  0  0  0
   -5.9550   -9.0640   -0.6060 S   0  0  0  0  0  0  0  0  0  0  0  0
   -7.4600   -8.9880   -5.1130 N   0  0  0  0  0  0  0  0  0  0  0  0
   -7.0710   -9.9250   -6.1660 C   0  0  0  0  0  0  0  0  0  0  0  0
   -7.2240   -9.1110   -7.4400 C   0  0  0  0  0  0  0  0  0  0  0  0
   -7.6870   -7.7150   -7.0240 C   0  0  2  0  0  0  0  0  0  0  0  0
   -7.0390   -6.6030   -7.8110 C   0  0  0  0  0  0  0  0  0  0  0  0
   -7.9490   -5.4220   -7.5050 C   0  0  0  0  0  0  0  0  0  0  0  0
   -7.9730   -5.2470   -5.9760 C   0  0  0  0  0  0  0  0  0  0  0  0
   -8.2460   -6.5060   -5.1050 C   0  0  0  0  0  0  0  0  0  0  0  0
   -7.3230   -7.6060   -5.5840 C   0  0  1  0  0  0  0  0  0  0  0  0
  1  2  2  0
  2  3  1  0
  3  4  1  0
  4  5  1  0
  5  6  2  0
  6  7  1  0
  7  8  2  0
  8  9  1  0
  9 10  1  0
 10 11  1  0
 11 12  1  0
  8 13  1  0
  2 14  1  0
 14 15  1  0
 15 16  1  0
 17 16  1  6
 17 18  1  0
 18 19  1  0
 19 20  1  0
 20 21  1  0
 22 21  1  1
 13  5  1  0
 22 14  1  0
 12  9  1  0
 22 17  1  0
A    1
 O1 
A    2
 C1 
A    3
 N1 
A    4
 C2 
A    5
 C3 
A    6
 N2 
A    7
 N3 
A    8
 C4 
A    9
 C5 
A   10
 C6 
A   11
 C7 
A   12
 C8 
A   13
 S1 
A   14
 N4 
A   15
 C9 
A   16
 C10
A   17
 C11
A   18
 C12
A   19
 C13
A   20
 C14
A   21
 C15
A   22
 C16
M  END
>  <ref_url>  (49) 
https://github.com/stephwills/fragment_network_merges

>  <submitter_name>  (49) 
Steph Wills

>  <submitter_institution>  (49) 
University of Oxford

>  <submitter_email>  (49) 
stephanie.wills@balliol.ox.ac.uk

>  <generation_date>  (49) 
2023-08-10

>  <method>  (49) 
fragnetv3_corrected

>  <original SMILES>  (49) 
O=C(NCc1nnc(C2CCC2)s1)N1CCC2CCCCC21

>  <original_name>  (49) 
x0771_0A-x1083_0A_320

>  <ref_mols>  (49) 
x0771_0A,x1083_0A

>  <ref_pdb>  (49) 
x0771_0A

>  <SuCOS_score>  (49) 
0.42304088686921

>  <compound ID>  (49) 
ENAMINE:Z4158281263

$$$$
x0771_0A-x1083_0A_593
     RDKit          3D

 23 25  0  0  0  0  0  0  0  0999 V2000
   -7.1480  -11.4010   -3.4310 O   0  0  0  0  0  0  0  0  0  0  0  0
   -6.8130  -10.2810   -3.0510 C   0  0  0  0  0  0  0  0  0  0  0  0
   -6.6920   -9.9390   -1.7130 N   0  0  0  0  0  0  0  0  0  0  0  0
   -7.5240   -8.9200   -1.0310 C   0  0  0  0  0  0  0  0  0  0  0  0
   -6.9010   -7.5470   -1.2530 C   0  0  0  0  0  0  0  0  0  0  0  0
   -6.2000   -7.1680   -0.0630 O   0  0  0  0  0  0  0  0  0  0  0  0
   -4.7800   -7.1310   -0.2240 C   0  0  0  0  0  0  0  0  0  0  0  0
   -4.0890   -8.2230    0.5640 C   0  0  0  0  0  0  0  0  0  0  0  0
   -2.6840   -7.8680    1.0910 C   0  0  0  0  0  0  0  0  0  0  0  0
   -2.5150   -8.4510    2.4710 C   0  0  0  0  0  0  0  0  0  0  0  0
   -3.9200   -8.6010    3.0060 C   0  0  0  0  0  0  0  0  0  0  0  0
   -4.8960   -8.6340    1.8220 C   0  0  0  0  0  0  0  0  0  0  0  0
   -6.4880   -9.1170   -4.0300 C   0  0  0  0  0  0  0  0  0  0  0  0
   -5.5760   -8.3490   -3.7340 O   0  0  0  0  0  0  0  0  0  0  0  0
   -7.2570   -9.0100   -5.1760 N   0  0  0  0  0  0  0  0  0  0  0  0
   -7.1800   -9.9620   -6.2750 C   0  0  0  0  0  0  0  0  0  0  0  0
   -7.1350   -9.0450   -7.4920 C   0  0  0  0  0  0  0  0  0  0  0  0
   -7.0020   -7.5950   -6.9850 C   0  0  1  0  0  0  0  0  0  0  0  0
   -7.6690   -6.4860   -7.7670 C   0  0  0  0  0  0  0  0  0  0  0  0
   -7.5550   -5.1260   -7.1230 C   0  0  0  0  0  0  0  0  0  0  0  0
   -8.1230   -5.3090   -5.7190 C   0  0  0  0  0  0  0  0  0  0  0  0
   -7.4950   -6.4540   -4.8850 C   0  0  0  0  0  0  0  0  0  0  0  0
   -7.7500   -7.7290   -5.6730 C   0  0  2  0  0  0  0  0  0  0  0  0
  1  2  2  0
  2  3  1  0
  3  4  1  0
  4  5  1  0
  5  6  1  0
  6  7  1  0
  7  8  1  0
  8  9  1  0
  9 10  1  0
 10 11  1  0
 11 12  1  0
  2 13  1  0
 13 14  2  0
 13 15  1  0
 15 16  1  0
 16 17  1  0
 18 17  1  6
 18 19  1  0
 19 20  1  0
 20 21  1  0
 21 22  1  0
 23 22  1  1
 12  8  1  0
 23 15  1  0
 23 18  1  0
A    1
 O1 
A    2
 C1 
A    3
 N1 
A    4
 C2 
A    5
 C3 
A    6
 O2 
A    7
 C4 
A    8
 C5 
A    9
 C6 
A   10
 C7 
A   11
 C8 
A   12
 C9 
A   13
 C10
A   14
 O3 
A   15
 N2 
A   16
 C11
A   17
 C12
A   18
 C13
A   19
 C14
A   20
 C15
A   21
 C16
A   22
 C17
A   23
 C18
M  END
>  <ref_url>  (50) 
https://github.com/stephwills/fragment_network_merges

>  <submitter_name>  (50) 
Steph Wills

>  <submitter_institution>  (50) 
University of Oxford

>  <submitter_email>  (50) 
stephanie.wills@balliol.ox.ac.uk

>  <generation_date>  (50) 
2023-08-10

>  <method>  (50) 
fragnetv3_corrected

>  <original SMILES>  (50) 
O=C(NCCOCC1CCCC1)C(=O)N1CCC2CCCCC21

>  <original_name>  (50) 
x0771_0A-x1083_0A_593

>  <ref_mols>  (50) 
x0771_0A,x1083_0A

>  <ref_pdb>  (50) 
x0771_0A

>  <SuCOS_score>  (50) 
0.4214862436272333

>  <compound ID>  (50) 
ENAMINE:Z2376176565

$$$$
x0771_0A-x1083_0A_300
     RDKit          3D

 22 25  0  0  0  0  0  0  0  0999 V2000
   -8.7040   -9.8630   -3.2830 O   0  0  0  0  0  0  0  0  0  0  0  0
   -7.3940   -9.3820   -3.5800 C   0  0  0  0  0  0  0  0  0  0  0  0
   -6.3740   -9.2990   -2.6070 N   0  0  0  0  0  0  0  0  0  0  0  0
   -6.0330   -8.0870   -1.8040 C   0  0  0  0  0  0  0  0  0  0  0  0
   -6.5900   -6.7790   -2.2600 C   0  0  0  0  0  0  0  0  0  0  0  0
   -6.1100   -5.7300   -1.3170 C   0  0  0  0  0  0  0  0  0  0  0  0
   -5.3440   -6.3460   -0.3920 N   0  0  0  0  0  0  0  0  0  0  0  0
   -5.2810   -7.7160   -0.6450 N   0  0  0  0  0  0  0  0  0  0  0  0
   -4.4520   -8.4680    0.3020 C   0  0  0  0  0  0  0  0  0  0  0  0
   -3.0280   -7.9400    0.1290 C   0  0  0  0  0  0  0  0  0  0  0  0
   -2.4010   -7.8960    1.5170 C   0  0  0  0  0  0  0  0  0  0  0  0
   -3.4350   -8.2980    2.5450 C   0  0  0  0  0  0  0  0  0  0  0  0
   -4.7730   -8.5030    1.8320 C   0  0  0  0  0  0  0  0  0  0  0  0
   -7.1180   -8.9800   -4.9210 N   0  0  0  0  0  0  0  0  0  0  0  0
   -7.0060   -9.9810   -5.9900 C   0  0  0  0  0  0  0  0  0  0  0  0
   -7.2450   -9.1920   -7.2940 C   0  0  0  0  0  0  0  0  0  0  0  0
   -7.6550   -7.9160   -6.9710 C   0  0  2  0  0  0  0  0  0  0  0  0
   -7.2250   -6.6950   -7.7640 C   0  0  0  0  0  0  0  0  0  0  0  0
   -8.1710   -5.5530   -7.3870 C   0  0  0  0  0  0  0  0  0  0  0  0
   -8.0350   -5.3110   -5.8550 C   0  0  0  0  0  0  0  0  0  0  0  0
   -8.1960   -6.6380   -5.0690 C   0  0  0  0  0  0  0  0  0  0  0  0
   -7.2020   -7.6580   -5.5560 C   0  0  1  0  0  0  0  0  0  0  0  0
  1  2  2  0
  2  3  1  0
  3  4  1  0
  4  5  2  0
  5  6  1  0
  6  7  2  0
  7  8  1  0
  8  9  1  0
  9 10  1  0
 10 11  1  0
 11 12  1  0
 12 13  1  0
  2 14  1  0
 14 15  1  0
 15 16  1  0
 17 16  1  6
 17 18  1  0
 18 19  1  0
 19 20  1  0
 20 21  1  0
 22 21  1  1
  8  4  1  0
 13  9  1  0
 22 14  1  0
 22 17  1  0
A    1
 O1 
A    2
 C1 
A    3
 N1 
A    4
 C2 
A    5
 C3 
A    6
 C4 
A    7
 N2 
A    8
 N3 
A    9
 C5 
A   10
 C6 
A   11
 C7 
A   12
 C8 
A   13
 C9 
A   14
 N4 
A   15
 C10
A   16
 C11
A   17
 C12
A   18
 C13
A   19
 C14
A   20
 C15
A   21
 C16
A   22
 C17
M  END
>  <ref_url>  (51) 
https://github.com/stephwills/fragment_network_merges

>  <submitter_name>  (51) 
Steph Wills

>  <submitter_institution>  (51) 
University of Oxford

>  <submitter_email>  (51) 
stephanie.wills@balliol.ox.ac.uk

>  <generation_date>  (51) 
2023-08-10

>  <method>  (51) 
fragnetv3_corrected

>  <original SMILES>  (51) 
O=C(Nc1ccnn1C1CCCC1)N1CCC2CCCCC21

>  <original_name>  (51) 
x0771_0A-x1083_0A_300

>  <ref_mols>  (51) 
x0771_0A,x1083_0A

>  <ref_pdb>  (51) 
x0771_0A

>  <SuCOS_score>  (51) 
0.41945317210347083

>  <compound ID>  (51) 
ENAMINE:Z1327704270

$$$$
x0771_0A-x1083_0A_215
     RDKit          3D

 23 26  0  0  0  0  0  0  0  0999 V2000
   -6.9190  -11.0650   -4.2100 O   0  0  0  0  0  0  0  0  0  0  0  0
   -7.6030   -9.8170   -4.3200 C   0  0  0  0  0  0  0  0  0  0  0  0
   -8.2860   -9.3890   -3.0110 C   0  0  0  0  0  0  0  0  0  0  0  0
   -7.8670   -8.0040   -2.5000 C   0  0  0  0  0  0  0  0  0  0  0  0
   -7.1520   -8.0760   -1.2150 N   0  0  0  0  0  0  0  0  0  0  0  0
   -5.8780   -8.4600   -0.9960 C   0  0  0  0  0  0  0  0  0  0  0  0
   -5.7310   -8.3250    0.4850 C   0  0  0  0  0  0  0  0  0  0  0  0
   -4.3700   -8.7010    1.0350 C   0  0  0  0  0  0  0  0  0  0  0  0
   -4.3530   -8.4670    2.5440 C   0  0  0  0  0  0  0  0  0  0  0  0
   -2.9400   -7.9620    2.7430 C   0  0  0  0  0  0  0  0  0  0  0  0
   -2.2250   -7.6630    1.4390 C   0  0  0  0  0  0  0  0  0  0  0  0
   -3.2700   -7.8590    0.3510 C   0  0  0  0  0  0  0  0  0  0  0  0
   -6.9010   -7.8800    1.0150 N   0  0  0  0  0  0  0  0  0  0  0  0
   -7.7540   -7.7320   -0.0290 N   0  0  0  0  0  0  0  0  0  0  0  0
   -7.6990   -9.0380   -5.4620 N   0  0  0  0  0  0  0  0  0  0  0  0
   -7.8680   -9.5710   -6.8100 C   0  0  0  0  0  0  0  0  0  0  0  0
   -7.0410   -8.8050   -7.5050 C   0  0  0  0  0  0  0  0  0  0  0  0
   -7.0260   -7.3770   -6.9810 C   0  0  1  0  0  0  0  0  0  0  0  0
   -8.0690   -6.4060   -7.6020 C   0  0  0  0  0  0  0  0  0  0  0  0
   -7.4690   -5.1290   -7.0770 C   0  0  0  0  0  0  0  0  0  0  0  0
   -8.1770   -5.2050   -5.7080 C   0  0  0  0  0  0  0  0  0  0  0  0
   -8.4150   -6.5970   -5.1140 C   0  0  0  0  0  0  0  0  0  0  0  0
   -7.3600   -7.6100   -5.5200 C   0  0  1  0  0  0  0  0  0  0  0  0
  1  2  2  0
  2  3  1  0
  3  4  1  0
  4  5  1  0
  5  6  1  0
  6  7  2  0
  7  8  1  0
  8  9  1  0
  9 10  1  0
 10 11  1  0
 11 12  1  0
  7 13  1  0
 13 14  2  0
  2 15  1  0
 15 16  1  0
 16 17  1  0
 18 17  1  6
 18 19  1  0
 19 20  1  0
 20 21  1  0
 21 22  1  0
 23 22  1  6
 14  5  1  0
 23 15  1  0
 12  8  1  0
 23 18  1  0
A    1
 O1 
A    2
 C1 
A    3
 C2 
A    4
 C3 
A    5
 N1 
A    6
 C4 
A    7
 C5 
A    8
 C6 
A    9
 C7 
A   10
 C8 
A   11
 C9 
A   12
 C10
A   13
 N2 
A   14
 N3 
A   15
 N4 
A   16
 C11
A   17
 C12
A   18
 C13
A   19
 C14
A   20
 C15
A   21
 C16
A   22
 C17
A   23
 C18
M  END
>  <ref_url>  (52) 
https://github.com/stephwills/fragment_network_merges

>  <submitter_name>  (52) 
Steph Wills

>  <submitter_institution>  (52) 
University of Oxford

>  <submitter_email>  (52) 
stephanie.wills@balliol.ox.ac.uk

>  <generation_date>  (52) 
2023-08-10

>  <method>  (52) 
fragnetv3_corrected

>  <original SMILES>  (52) 
O=C(CCn1cc(C2CCCC2)nn1)N1CCC2CCCCC21

>  <original_name>  (52) 
x0771_0A-x1083_0A_215

>  <ref_mols>  (52) 
x0771_0A,x1083_0A

>  <ref_pdb>  (52) 
x0771_0A

>  <SuCOS_score>  (52) 
0.4185344935923815

>  <compound ID>  (52) 
ENAMINE:PV-003013365490

$$$$
x0771_0A-x1083_0A_195
     RDKit          3D

 24 27  0  0  0  0  0  0  0  0999 V2000
   -6.0510   -9.2470   -3.5150 O   0  0  0  0  0  0  0  0  0  0  0  0
   -5.7880   -8.0400   -3.4540 C   0  0  0  0  0  0  0  0  0  0  0  0
   -5.7060   -7.2150   -4.5990 N   0  0  0  0  0  0  0  0  0  0  0  0
   -5.8130   -7.7700   -5.9690 C   0  0  0  0  0  0  0  0  0  0  0  0
   -7.1800   -7.9160   -6.7250 C   0  0  2  0  0  0  0  0  0  0  0  0
   -7.0410   -6.7540   -7.7400 C   0  0  0  0  0  0  0  0  0  0  0  0
   -7.2660   -5.6550   -6.6940 C   0  0  0  0  0  0  0  0  0  0  0  0
   -8.6560   -5.6710   -6.1030 C   0  0  0  0  0  0  0  0  0  0  0  0
   -8.6740   -6.7820   -5.0650 C   0  0  0  0  0  0  0  0  0  0  0  0
   -8.4090   -8.0250   -5.8710 C   0  0  2  0  0  0  0  0  0  0  0  0
   -8.0400   -9.3020   -5.2360 N   0  0  0  0  0  0  0  0  0  0  0  0
   -7.3600  -10.1560   -6.0950 C   0  0  0  0  0  0  0  0  0  0  0  0
   -7.3100   -9.3000   -7.3590 C   0  0  0  0  0  0  0  0  0  0  0  0
   -5.5150   -7.3490   -2.0640 C   0  0  0  0  0  0  0  0  0  0  0  0
   -5.4470   -6.1280   -1.9930 O   0  0  0  0  0  0  0  0  0  0  0  0
   -5.3810   -8.2260   -0.9840 N   0  0  0  0  0  0  0  0  0  0  0  0
   -4.6480   -7.9020    0.2610 C   0  0  0  0  0  0  0  0  0  0  0  0
   -5.0530   -8.9120    1.3970 C   0  0  0  0  0  0  0  0  0  0  0  0
   -4.3320   -8.1210    2.5310 C   0  0  0  0  0  0  0  0  0  0  0  0
   -3.0480   -8.8450    2.2550 C   0  0  0  0  0  0  0  0  0  0  0  0
   -2.2520   -8.2030    1.1490 C   0  0  0  0  0  0  0  0  0  0  0  0
   -3.1480   -7.9000   -0.0520 C   0  0  0  0  0  0  0  0  0  0  0  0
   -2.9380  -10.3430    2.4770 C   0  0  0  0  0  0  0  0  0  0  0  0
   -2.2980   -9.4000    3.4490 C   0  0  0  0  0  0  0  0  0  0  0  0
  1  2  2  0
  2  3  1  0
  3  4  1  0
  5  4  1  1
  5  6  1  0
  6  7  1  0
  7  8  1  0
  8  9  1  0
 10  9  1  1
 10 11  1  0
 11 12  1  0
 12 13  1  0
  2 14  1  0
 14 15  2  0
 14 16  1  0
 16 17  1  0
 17 18  1  0
 18 19  1  0
 19 20  1  0
 20 21  1  0
 21 22  1  0
 20 23  1  0
 23 24  1  0
 10  5  1  0
 22 17  1  0
 13  5  1  0
 24 20  1  0
A    1
 O1 
A    2
 C1 
A    3
 N1 
A    4
 C2 
A    5
 C3 
A    6
 C4 
A    7
 C5 
A    8
 C6 
A    9
 C7 
A   10
 C8 
A   11
 N2 
A   12
 C9 
A   13
 C10
A   14
 C11
A   15
 O2 
A   16
 N3 
A   17
 C12
A   18
 C13
A   19
 C14
A   20
 C15
A   21
 C16
A   22
 C17
A   23
 C18
A   24
 C19
M  END
>  <ref_url>  (53) 
https://github.com/stephwills/fragment_network_merges

>  <submitter_name>  (53) 
Steph Wills

>  <submitter_institution>  (53) 
University of Oxford

>  <submitter_email>  (53) 
stephanie.wills@balliol.ox.ac.uk

>  <generation_date>  (53) 
2023-08-10

>  <method>  (53) 
fragnetv3_corrected

>  <original SMILES>  (53) 
O=C(NCC12CCCCC1NCC2)C(=O)NC1CCC2(CC1)CC2

>  <original_name>  (53) 
x0771_0A-x1083_0A_195

>  <ref_mols>  (53) 
x0771_0A,x1083_0A

>  <ref_pdb>  (53) 
x0771_0A

>  <SuCOS_score>  (53) 
0.4172640649456056

>  <compound ID>  (53) 
ENAMINE:Z3403430521

$$$$
x0771_0A-x1083_0A_147
     RDKit          3D

 21 23  0  0  0  0  0  0  0  0999 V2000
   -7.4800   -9.9900   -3.0740 O   0  0  0  0  0  0  0  0  0  0  0  0
   -6.9710   -9.1540   -3.8180 C   0  0  0  0  0  0  0  0  0  0  0  0
   -5.9490   -8.3220   -3.4120 N   0  0  0  0  0  0  0  0  0  0  0  0
   -5.4510   -8.2370   -2.0250 C   0  0  0  0  0  0  0  0  0  0  0  0
   -4.9250   -6.8350   -1.7910 C   0  0  0  0  0  0  0  0  0  0  0  0
   -3.7710   -6.8840   -0.9360 O   0  0  0  0  0  0  0  0  0  0  0  0
   -3.7480   -7.9580    0.0140 C   0  0  0  0  0  0  0  0  0  0  0  0
   -5.1510   -8.1040    0.6560 C   0  0  0  0  0  0  0  0  0  0  0  0
   -5.2450   -8.5250    2.1220 C   0  0  0  0  0  0  0  0  0  0  0  0
   -3.9940   -8.2610    2.9690 C   0  0  0  0  0  0  0  0  0  0  0  0
   -2.7060   -8.5960    2.2370 C   0  0  0  0  0  0  0  0  0  0  0  0
   -2.5930   -7.7100    1.0040 C   0  0  0  0  0  0  0  0  0  0  0  0
   -7.4080   -8.9700   -5.2180 N   0  0  0  0  0  0  0  0  0  0  0  0
   -6.8860   -9.7410   -6.3340 C   0  0  0  0  0  0  0  0  0  0  0  0
   -7.1660   -8.9880   -7.5040 C   0  0  0  0  0  0  0  0  0  0  0  0
   -7.0910   -7.5400   -6.9940 C   0  0  1  0  0  0  0  0  0  0  0  0
   -7.6970   -6.4270   -7.8390 C   0  0  0  0  0  0  0  0  0  0  0  0
   -7.5220   -5.1140   -7.1310 C   0  0  0  0  0  0  0  0  0  0  0  0
   -8.2150   -5.1780   -5.7600 C   0  0  0  0  0  0  0  0  0  0  0  0
   -7.7570   -6.4000   -4.9440 C   0  0  0  0  0  0  0  0  0  0  0  0
   -7.8890   -7.6900   -5.7300 C   0  0  2  0  0  0  0  0  0  0  0  0
  1  2  2  0
  2  3  1  0
  3  4  1  0
  4  5  1  0
  5  6  1  0
  6  7  1  0
  7  8  1  0
  8  9  1  0
  9 10  1  0
 10 11  1  0
 11 12  1  0
  2 13  1  0
 13 14  1  0
 14 15  1  0
 16 15  1  6
 16 17  1  0
 17 18  1  0
 18 19  1  0
 19 20  1  0
 21 20  1  1
 12  7  1  0
 21 13  1  0
 21 16  1  0
A    1
 O1 
A    2
 C1 
A    3
 N1 
A    4
 C2 
A    5
 C3 
A    6
 O2 
A    7
 C4 
A    8
 C5 
A    9
 C6 
A   10
 C7 
A   11
 C8 
A   12
 C9 
A   13
 N2 
A   14
 C10
A   15
 C11
A   16
 C12
A   17
 C13
A   18
 C14
A   19
 C15
A   20
 C16
A   21
 C17
M  END
>  <ref_url>  (54) 
https://github.com/stephwills/fragment_network_merges

>  <submitter_name>  (54) 
Steph Wills

>  <submitter_institution>  (54) 
University of Oxford

>  <submitter_email>  (54) 
stephanie.wills@balliol.ox.ac.uk

>  <generation_date>  (54) 
2023-08-10

>  <method>  (54) 
fragnetv3_corrected

>  <original SMILES>  (54) 
O=C(NCCOC1CCCCC1)N1CCC2CCCCC21

>  <original_name>  (54) 
x0771_0A-x1083_0A_147

>  <ref_mols>  (54) 
x0771_0A,x1083_0A

>  <ref_pdb>  (54) 
x0771_0A

>  <SuCOS_score>  (54) 
0.41567936875915895

>  <compound ID>  (54) 
ENAMINE:Z976705496

$$$$
x0771_0A-x1083_0A_106
     RDKit          3D

 21 24  0  0  0  0  0  0  0  0999 V2000
   -4.3060   -8.5680    2.7680 C   0  0  0  0  0  0  0  0  0  0  0  0
   -2.8830   -8.2840    2.2990 C   0  0  0  0  0  0  0  0  0  0  0  0
   -2.9700   -7.7640    0.8880 C   0  0  0  0  0  0  0  0  0  0  0  0
   -4.2490   -8.3460    0.2780 C   0  0  0  0  0  0  0  0  0  0  0  0
   -4.8700   -7.5890   -0.9060 C   0  0  0  0  0  0  0  0  0  0  0  0
   -4.9270   -6.2620   -0.9380 N   0  0  0  0  0  0  0  0  0  0  0  0
   -5.6530   -5.8360   -2.3870 S   0  0  0  0  0  0  0  0  0  0  0  0
   -5.8840   -7.4660   -2.9300 C   0  0  0  0  0  0  0  0  0  0  0  0
   -6.4860   -7.8930   -4.1140 N   0  0  0  0  0  0  0  0  0  0  0  0
   -5.9160   -7.8960   -5.4900 C   0  0  0  0  0  0  0  0  0  0  0  0
   -6.9920   -7.8470   -6.6210 C   0  0  2  0  0  0  0  0  0  0  0  0
   -7.0110   -6.5650   -7.4650 C   0  0  0  0  0  0  0  0  0  0  0  0
   -8.2530   -5.6910   -7.1670 C   0  0  0  0  0  0  0  0  0  0  0  0
   -7.8570   -5.5000   -5.6640 C   0  0  0  0  0  0  0  0  0  0  0  0
   -8.6870   -6.7410   -5.1940 C   0  0  0  0  0  0  0  0  0  0  0  0
   -8.3410   -7.9900   -5.9950 C   0  0  2  0  0  0  0  0  0  0  0  0
   -8.1790   -9.2870   -5.3000 N   0  0  0  0  0  0  0  0  0  0  0  0
   -7.3430  -10.1050   -6.2160 C   0  0  0  0  0  0  0  0  0  0  0  0
   -7.1160   -9.1560   -7.3730 C   0  0  0  0  0  0  0  0  0  0  0  0
   -5.4020   -8.2980   -2.0070 N   0  0  0  0  0  0  0  0  0  0  0  0
   -5.1820   -8.5610    1.4960 C   0  0  0  0  0  0  0  0  0  0  0  0
  1  2  1  0
  2  3  1  0
  3  4  1  0
  4  5  1  0
  5  6  2  0
  6  7  1  0
  7  8  1  0
  8  9  1  0
  9 10  1  0
 11 10  1  1
 11 12  1  0
 12 13  1  0
 13 14  1  0
 14 15  1  0
 16 15  1  1
 16 17  1  0
 17 18  1  0
 18 19  1  0
  8 20  2  0
  4 21  1  0
 21  1  1  0
 20  5  1  0
 16 11  1  0
 19 11  1  0
A    1
 C1 
A    2
 C2 
A    3
 C3 
A    4
 C4 
A    5
 C5 
A    6
 N1 
A    7
 S1 
A    8
 C6 
A    9
 N2 
A   10
 C7 
A   11
 C8 
A   12
 C9 
A   13
 C10
A   14
 C11
A   15
 C12
A   16
 C13
A   17
 N3 
A   18
 C14
A   19
 C15
A   20
 N4 
A   21
 C16
M  END
>  <ref_url>  (55) 
https://github.com/stephwills/fragment_network_merges

>  <submitter_name>  (55) 
Steph Wills

>  <submitter_institution>  (55) 
University of Oxford

>  <submitter_email>  (55) 
stephanie.wills@balliol.ox.ac.uk

>  <generation_date>  (55) 
2023-08-10

>  <method>  (55) 
fragnetv3_corrected

>  <original SMILES>  (55) 
C1CCC(c2nsc(NCC34CCCCC3NCC4)n2)C1

>  <original_name>  (55) 
x0771_0A-x1083_0A_106

>  <ref_mols>  (55) 
x0771_0A,x1083_0A

>  <ref_pdb>  (55) 
x0771_0A

>  <SuCOS_score>  (55) 
0.41069778260844947

>  <compound ID>  (55) 
ENAMINE:PV-002725180161

$$$$
x0771_0A-x1083_0A_158
     RDKit          3D

 23 26  0  0  0  0  0  0  0  0999 V2000
   -9.2590  -10.4590   -4.0000 O   0  0  0  0  0  0  0  0  0  0  0  0
   -8.1720   -9.5630   -4.2010 C   0  0  0  0  0  0  0  0  0  0  0  0
   -7.4120   -9.0590   -3.1710 N   0  0  0  0  0  0  0  0  0  0  0  0
   -5.9720   -8.7550   -3.3220 C   0  0  0  0  0  0  0  0  0  0  0  0
   -5.5060   -7.8260   -2.1990 C   0  0  0  0  0  0  0  0  0  0  0  0
   -4.8060   -8.4190   -1.0300 C   0  0  0  0  0  0  0  0  0  0  0  0
   -4.5160   -7.2590   -0.1770 C   0  0  0  0  0  0  0  0  0  0  0  0
   -3.8070   -7.4910    1.1200 C   0  0  0  0  0  0  0  0  0  0  0  0
   -4.7030   -8.4740    1.8460 C   0  0  0  0  0  0  0  0  0  0  0  0
   -3.8280   -8.8230    3.0260 C   0  0  0  0  0  0  0  0  0  0  0  0
   -2.4390   -8.9350    2.4470 C   0  0  0  0  0  0  0  0  0  0  0  0
   -2.4130   -8.0770    1.1750 C   0  0  0  0  0  0  0  0  0  0  0  0
   -4.9920   -6.1230   -0.7800 O   0  0  0  0  0  0  0  0  0  0  0  0
   -5.6060   -6.4710   -2.0340 N   0  0  0  0  0  0  0  0  0  0  0  0
   -7.7820   -9.1220   -5.4390 N   0  0  0  0  0  0  0  0  0  0  0  0
   -6.8870   -9.8180   -6.3370 C   0  0  0  0  0  0  0  0  0  0  0  0
   -7.1180   -9.0730   -7.6350 C   0  0  0  0  0  0  0  0  0  0  0  0
   -6.9690   -7.6420   -7.1020 C   0  0  1  0  0  0  0  0  0  0  0  0
   -7.4480   -6.4370   -7.9710 C   0  0  0  0  0  0  0  0  0  0  0  0
   -7.2110   -5.4980   -6.8110 C   0  0  0  0  0  0  0  0  0  0  0  0
   -8.6940   -5.5440   -6.4710 C   0  0  0  0  0  0  0  0  0  0  0  0
   -8.9840   -6.8870   -5.7980 C   0  0  0  0  0  0  0  0  0  0  0  0
   -7.6990   -7.7020   -5.7400 C   0  0  1  0  0  0  0  0  0  0  0  0
  1  2  2  0
  2  3  1  0
  3  4  1  0
  4  5  1  0
  5  6  1  0
  6  7  2  0
  7  8  1  0
  8  9  1  0
  9 10  1  0
 10 11  1  0
 11 12  1  0
  7 13  1  0
 13 14  1  0
  2 15  1  0
 15 16  1  0
 16 17  1  0
 18 17  1  6
 18 19  1  0
 19 20  1  0
 20 21  1  0
 21 22  1  0
 23 22  1  6
 14  5  2  0
 23 15  1  0
 12  8  1  0
 23 18  1  0
A    1
 O1 
A    2
 C1 
A    3
 N1 
A    4
 C2 
A    5
 C3 
A    6
 C4 
A    7
 C5 
A    8
 C6 
A    9
 C7 
A   10
 C8 
A   11
 C9 
A   12
 C10
A   13
 O2 
A   14
 N2 
A   15
 N3 
A   16
 C11
A   17
 C12
A   18
 C13
A   19
 C14
A   20
 C15
A   21
 C16
A   22
 C17
A   23
 C18
M  END
>  <ref_url>  (56) 
https://github.com/stephwills/fragment_network_merges

>  <submitter_name>  (56) 
Steph Wills

>  <submitter_institution>  (56) 
University of Oxford

>  <submitter_email>  (56) 
stephanie.wills@balliol.ox.ac.uk

>  <generation_date>  (56) 
2023-08-10

>  <method>  (56) 
fragnetv3_corrected

>  <original SMILES>  (56) 
O=C(NCc1cc(C2CCCC2)on1)N1CCC2CCCCC21

>  <original_name>  (56) 
x0771_0A-x1083_0A_158

>  <ref_mols>  (56) 
x0771_0A,x1083_0A

>  <ref_pdb>  (56) 
x0771_0A

>  <SuCOS_score>  (56) 
0.4095711383687887

>  <compound ID>  (56) 
ENAMINE:Z3704555951

$$$$
x0771_0A-x1083_0A_196
     RDKit          3D

 24 26  0  0  0  0  0  0  0  0999 V2000
   -5.4100   -9.0210   -3.1340 O   0  0  0  0  0  0  0  0  0  0  0  0
   -5.4330   -7.8150   -3.3690 C   0  0  0  0  0  0  0  0  0  0  0  0
   -5.9700   -7.2180   -4.5050 N   0  0  0  0  0  0  0  0  0  0  0  0
   -5.7470   -7.7230   -5.8560 C   0  0  0  0  0  0  0  0  0  0  0  0
   -6.9710   -7.7170   -6.8150 C   0  0  2  0  0  0  0  0  0  0  0  0
   -6.9540   -6.5140   -7.7880 C   0  0  0  0  0  0  0  0  0  0  0  0
   -8.0490   -5.5390   -7.4250 C   0  0  0  0  0  0  0  0  0  0  0  0
   -8.0490   -5.3840   -5.9060 C   0  0  0  0  0  0  0  0  0  0  0  0
   -8.4660   -6.6330   -5.1360 C   0  0  0  0  0  0  0  0  0  0  0  0
   -8.2300   -7.8630   -5.9830 C   0  0  2  0  0  0  0  0  0  0  0  0
   -7.9920   -9.1450   -5.2790 N   0  0  0  0  0  0  0  0  0  0  0  0
   -7.2470   -9.9850   -6.2480 C   0  0  0  0  0  0  0  0  0  0  0  0
   -7.1200   -9.0810   -7.4820 C   0  0  0  0  0  0  0  0  0  0  0  0
   -4.8250   -6.8310   -2.3250 C   0  0  0  0  0  0  0  0  0  0  0  0
   -5.1650   -5.6530   -2.3330 O   0  0  0  0  0  0  0  0  0  0  0  0
   -3.9280   -7.4200   -1.4420 N   0  0  0  0  0  0  0  0  0  0  0  0
   -4.0630   -7.2950    0.0200 C   0  0  0  0  0  0  0  0  0  0  0  0
   -5.3730   -7.9350    0.4540 C   0  0  0  0  0  0  0  0  0  0  0  0
   -5.4530   -9.4500    0.2870 C   0  0  0  0  0  0  0  0  0  0  0  0
   -5.1940  -10.1980    1.5830 C   0  0  0  0  0  0  0  0  0  0  0  0
   -5.3050   -9.0930    2.6340 C   0  0  0  0  0  0  0  0  0  0  0  0
   -4.0210   -8.3260    2.9310 C   0  0  0  0  0  0  0  0  0  0  0  0
   -2.8770   -8.6660    1.9820 C   0  0  0  0  0  0  0  0  0  0  0  0
   -2.7770   -7.7590    0.7480 C   0  0  0  0  0  0  0  0  0  0  0  0
  1  2  2  0
  2  3  1  0
  3  4  1  0
  5  4  1  1
  5  6  1  0
  6  7  1  0
  7  8  1  0
  8  9  1  0
 10  9  1  1
 10 11  1  0
 11 12  1  0
 12 13  1  0
  2 14  1  0
 14 15  2  0
 14 16  1  0
 16 17  1  0
 17 18  1  0
 18 19  1  0
 19 20  1  0
 20 21  1  0
 21 22  1  0
 22 23  1  0
 23 24  1  0
 10  5  1  0
 24 17  1  0
 13  5  1  0
A    1
 O1 
A    2
 C1 
A    3
 N1 
A    4
 C2 
A    5
 C3 
A    6
 C4 
A    7
 C5 
A    8
 C6 
A    9
 C7 
A   10
 C8 
A   11
 N2 
A   12
 C9 
A   13
 C10
A   14
 C11
A   15
 O2 
A   16
 N3 
A   17
 C12
A   18
 C13
A   19
 C14
A   20
 C15
A   21
 C16
A   22
 C17
A   23
 C18
A   24
 C19
M  END
>  <ref_url>  (57) 
https://github.com/stephwills/fragment_network_merges

>  <submitter_name>  (57) 
Steph Wills

>  <submitter_institution>  (57) 
University of Oxford

>  <submitter_email>  (57) 
stephanie.wills@balliol.ox.ac.uk

>  <generation_date>  (57) 
2023-08-10

>  <method>  (57) 
fragnetv3_corrected

>  <original SMILES>  (57) 
O=C(NCC12CCCCC1NCC2)C(=O)NC1CCCCCCC1

>  <original_name>  (57) 
x0771_0A-x1083_0A_196

>  <ref_mols>  (57) 
x0771_0A,x1083_0A

>  <ref_pdb>  (57) 
x0771_0A

>  <SuCOS_score>  (57) 
0.40861698952621717

>  <compound ID>  (57) 
ENAMINE:Z3403794964

$$$$
x0771_0A-x1083_0A_454
     RDKit          3D

 20 23  0  0  0  0  0  0  0  0999 V2000
   -7.5920   -5.1290   -7.0710 C   0  0  0  0  0  0  0  0  0  0  0  0
   -7.9810   -5.2090   -5.5930 C   0  0  0  0  0  0  0  0  0  0  0  0
   -7.7800   -6.3320   -4.8770 C   0  0  0  0  0  0  0  0  0  0  0  0
   -7.7280   -7.6700   -5.5480 C   0  0  1  0  0  0  0  0  0  0  0  0
   -7.0760   -7.6170   -6.9250 C   0  0  2  0  0  0  0  0  0  0  0  0
   -7.8070   -6.5020   -7.6640 C   0  0  0  0  0  0  0  0  0  0  0  0
   -7.2760   -9.0590   -7.3560 C   0  0  0  0  0  0  0  0  0  0  0  0
   -7.0950   -9.7990   -6.0270 C   0  0  0  0  0  0  0  0  0  0  0  0
   -6.9750   -8.7230   -5.0190 N   0  0  0  0  0  0  0  0  0  0  0  0
   -7.3050   -9.2000   -3.6410 C   0  0  0  0  0  0  0  0  0  0  0  0
   -6.8580   -8.2830   -2.4830 C   0  0  0  0  0  0  0  0  0  0  0  0
   -7.2710   -7.0680   -2.1760 N   0  0  0  0  0  0  0  0  0  0  0  0
   -6.5660   -6.6840   -1.0490 N   0  0  0  0  0  0  0  0  0  0  0  0
   -5.7660   -7.6820   -0.7320 C   0  0  0  0  0  0  0  0  0  0  0  0
   -4.8770   -7.7870    0.2860 N   0  0  0  0  0  0  0  0  0  0  0  0
   -3.4420   -7.8240    0.0290 C   0  0  0  0  0  0  0  0  0  0  0  0
   -2.7780   -7.8690    1.3990 C   0  0  0  0  0  0  0  0  0  0  0  0
   -3.9200   -8.2380    2.3360 C   0  0  0  0  0  0  0  0  0  0  0  0
   -5.2250   -8.4160    1.5570 C   0  0  0  0  0  0  0  0  0  0  0  0
   -5.8980   -8.7400   -1.6030 O   0  0  0  0  0  0  0  0  0  0  0  0
  1  2  1  0
  2  3  1  0
  4  3  1  1
  4  5  1  0
  5  6  1  6
  5  7  1  0
  7  8  1  0
  8  9  1  0
  9 10  1  0
 10 11  1  0
 11 12  2  0
 12 13  1  0
 13 14  2  0
 14 15  1  0
 15 16  1  0
 16 17  1  0
 17 18  1  0
 18 19  1  0
 14 20  1  0
  6  1  1  0
 20 11  1  0
  9  4  1  0
 19 15  1  0
A    1
 C1 
A    2
 C2 
A    3
 C3 
A    4
 C4 
A    5
 C5 
A    6
 C6 
A    7
 C7 
A    8
 C8 
A    9
 N1 
A   10
 C9 
A   11
 C10
A   12
 N2 
A   13
 N3 
A   14
 C11
A   15
 N4 
A   16
 C12
A   17
 C13
A   18
 C14
A   19
 C15
A   20
 O1 
M  END
>  <ref_url>  (58) 
https://github.com/stephwills/fragment_network_merges

>  <submitter_name>  (58) 
Steph Wills

>  <submitter_institution>  (58) 
University of Oxford

>  <submitter_email>  (58) 
stephanie.wills@balliol.ox.ac.uk

>  <generation_date>  (58) 
2023-08-10

>  <method>  (58) 
fragnetv3_corrected

>  <original SMILES>  (58) 
C1CCC2C(C1)CCN2Cc1nnc(N2CCCC2)o1

>  <original_name>  (58) 
x0771_0A-x1083_0A_454

>  <ref_mols>  (58) 
x0771_0A,x1083_0A

>  <ref_pdb>  (58) 
x0771_0A

>  <SuCOS_score>  (58) 
0.4059940986430688

>  <compound ID>  (58) 
ENAMINE:Z3652696097

$$$$
x0771_0A-x1083_0A_343
     RDKit          3D

 23 25  0  0  0  0  0  0  0  0999 V2000
   -7.4370  -12.1870   -7.0290 O   0  0  0  0  0  0  0  0  0  0  0  0
   -7.3950  -11.3130   -5.9020 C   0  0  0  0  0  0  0  0  0  0  0  0
   -7.0340  -11.5650   -4.6210 O   0  0  0  0  0  0  0  0  0  0  0  0
   -7.8690   -9.8920   -6.2360 C   0  0  2  0  0  0  0  0  0  0  0  0
   -7.1480   -9.2070   -7.3860 C   0  0  0  0  0  0  0  0  0  0  0  0
   -6.8640   -7.7730   -6.9370 C   0  0  1  0  0  0  0  0  0  0  0  0
   -6.8790   -6.7160   -8.0490 C   0  0  0  0  0  0  0  0  0  0  0  0
   -7.4190   -5.3230   -7.6290 C   0  0  0  0  0  0  0  0  0  0  0  0
   -8.3730   -5.3760   -6.4380 C   0  0  0  0  0  0  0  0  0  0  0  0
   -7.8830   -6.2880   -5.3390 C   0  0  0  0  0  0  0  0  0  0  0  0
   -7.9680   -7.6630   -5.9200 C   0  0  2  0  0  0  0  0  0  0  0  0
   -7.6810   -8.8810   -5.1470 N   0  0  0  0  0  0  0  0  0  0  0  0
   -6.3520   -8.9290   -4.4990 C   0  0  0  0  0  0  0  0  0  0  0  0
   -6.1510   -7.7360   -3.5580 C   0  0  0  0  0  0  0  0  0  0  0  0
   -4.9670   -8.1040   -2.6760 C   0  0  0  0  0  0  0  0  0  0  0  0
   -5.1850   -6.8670   -1.8000 C   0  0  0  0  0  0  0  0  0  0  0  0
   -4.0730   -6.7690   -0.9010 O   0  0  0  0  0  0  0  0  0  0  0  0
   -3.8920   -7.9050   -0.0440 C   0  0  0  0  0  0  0  0  0  0  0  0
   -2.7060   -7.6530    0.8890 C   0  0  0  0  0  0  0  0  0  0  0  0
   -2.7030   -8.5460    2.1130 C   0  0  0  0  0  0  0  0  0  0  0  0
   -3.9760   -8.3150    2.9080 C   0  0  0  0  0  0  0  0  0  0  0  0
   -5.2470   -8.6350    2.1110 C   0  0  0  0  0  0  0  0  0  0  0  0
   -5.2430   -8.1730    0.6410 C   0  0  0  0  0  0  0  0  0  0  0  0
  1  2  2  0
  2  3  1  0
  4  2  1  1
  4  5  1  0
  6  5  1  6
  6  7  1  0
  7  8  1  0
  8  9  1  0
  9 10  1  0
 11 10  1  1
 11 12  1  0
 12 13  1  0
 13 14  1  0
 14 15  1  0
 15 16  1  0
 16 17  1  0
 17 18  1  0
 18 19  1  0
 19 20  1  0
 20 21  1  0
 21 22  1  0
 22 23  1  0
 12  4  1  0
 23 18  1  0
 11  6  1  0
A    1
 O1 
A    2
 C1 
A    3
 O2 
A    4
 C2 
A    5
 C3 
A    6
 C4 
A    7
 C5 
A    8
 C6 
A    9
 C7 
A   10
 C8 
A   11
 C9 
A   12
 N1 
A   13
 C10
A   14
 C11
A   15
 C12
A   16
 C13
A   17
 O3 
A   18
 C14
A   19
 C15
A   20
 C16
A   21
 C17
A   22
 C18
A   23
 C19
M  END
>  <ref_url>  (59) 
https://github.com/stephwills/fragment_network_merges

>  <submitter_name>  (59) 
Steph Wills

>  <submitter_institution>  (59) 
University of Oxford

>  <submitter_email>  (59) 
stephanie.wills@balliol.ox.ac.uk

>  <generation_date>  (59) 
2023-08-10

>  <method>  (59) 
fragnetv3_corrected

>  <original SMILES>  (59) 
O=C(O)C1CC2CCCCC2N1CCCCOC1CCCCC1

>  <original_name>  (59) 
x0771_0A-x1083_0A_343

>  <ref_mols>  (59) 
x0771_0A,x1083_0A

>  <ref_pdb>  (59) 
x0771_0A

>  <SuCOS_score>  (59) 
0.4027447716231813

>  <compound ID>  (59) 
ENAMINE:Z4079248601

$$$$
x0771_0A-x1083_0A_18
     RDKit          3D

 23 25  0  0  0  0  0  0  0  0999 V2000
   -6.6470   -9.4380   -2.6050 O   0  0  0  0  0  0  0  0  0  0  0  0
   -6.0150   -8.7930   -3.4390 C   0  0  0  0  0  0  0  0  0  0  0  0
   -6.2130   -8.9950   -4.9480 C   0  0  0  0  0  0  0  0  0  0  0  0
   -7.6470   -8.9200   -5.3650 N   0  0  0  0  0  0  0  0  0  0  0  0
   -7.9430   -9.7180   -6.5730 C   0  0  2  0  0  0  0  0  0  0  0  0
   -7.6030  -11.2140   -6.4440 C   0  0  0  0  0  0  0  0  0  0  0  0
   -7.8050  -11.8730   -7.6960 O   0  0  0  0  0  0  0  0  0  0  0  0
   -7.0810   -8.9750   -7.6180 C   0  0  0  0  0  0  0  0  0  0  0  0
   -6.8760   -7.5980   -7.0180 C   0  0  1  0  0  0  0  0  0  0  0  0
   -6.9700   -6.3730   -7.9110 C   0  0  0  0  0  0  0  0  0  0  0  0
   -8.0740   -5.3850   -7.4780 C   0  0  0  0  0  0  0  0  0  0  0  0
   -8.1890   -5.1530   -5.9620 C   0  0  0  0  0  0  0  0  0  0  0  0
   -7.8240   -6.3730   -5.1090 C   0  0  0  0  0  0  0  0  0  0  0  0
   -7.9320   -7.6190   -5.9530 C   0  0  2  0  0  0  0  0  0  0  0  0
   -5.0770   -7.8330   -3.0780 N   0  0  0  0  0  0  0  0  0  0  0  0
   -5.0600   -7.2440   -1.7530 C   0  0  0  0  0  0  0  0  0  0  0  0
   -5.0710   -8.3340   -0.6750 C   0  0  0  0  0  0  0  0  0  0  0  0
   -5.4920   -9.4690   -0.8980 O   0  0  0  0  0  0  0  0  0  0  0  0
   -4.5870   -7.9800    0.5560 N   0  0  0  0  0  0  0  0  0  0  0  0
   -5.0410   -8.5170    1.8360 C   0  0  0  0  0  0  0  0  0  0  0  0
   -3.8400   -8.3700    2.7680 C   0  0  0  0  0  0  0  0  0  0  0  0
   -2.6550   -8.3340    1.8060 C   0  0  0  0  0  0  0  0  0  0  0  0
   -3.2250   -7.5250    0.6710 C   0  0  0  0  0  0  0  0  0  0  0  0
  1  2  2  0
  2  3  1  0
  3  4  1  0
  4  5  1  0
  5  6  1  1
  6  7  1  0
  5  8  1  0
  9  8  1  6
  9 10  1  0
 10 11  1  0
 11 12  1  0
 12 13  1  0
 14 13  1  1
  2 15  1  0
 15 16  1  0
 16 17  1  0
 17 18  2  0
 17 19  1  0
 19 20  1  0
 20 21  1  0
 21 22  1  0
 22 23  1  0
 14  4  1  0
 23 19  1  0
 14  9  1  0
A    1
 O1 
A    2
 C1 
A    3
 C2 
A    4
 N1 
A    5
 C3 
A    6
 C4 
A    7
 O2 
A    8
 C5 
A    9
 C6 
A   10
 C7 
A   11
 C8 
A   12
 C9 
A   13
 C10
A   14
 C11
A   15
 N2 
A   16
 C12
A   17
 C13
A   18
 O3 
A   19
 N3 
A   20
 C14
A   21
 C15
A   22
 C16
A   23
 C17
M  END
>  <ref_url>  (60) 
https://github.com/stephwills/fragment_network_merges

>  <submitter_name>  (60) 
Steph Wills

>  <submitter_institution>  (60) 
University of Oxford

>  <submitter_email>  (60) 
stephanie.wills@balliol.ox.ac.uk

>  <generation_date>  (60) 
2023-08-10

>  <method>  (60) 
fragnetv3_corrected

>  <original SMILES>  (60) 
O=C(CN1C(CO)CC2CCCCC21)NCC(=O)N1CCCC1

>  <original_name>  (60) 
x0771_0A-x1083_0A_18

>  <ref_mols>  (60) 
x0771_0A,x1083_0A

>  <ref_pdb>  (60) 
x0771_0A

>  <SuCOS_score>  (60) 
0.3967431750125254

>  <compound ID>  (60) 
ENAMINE:Z3320948603

$$$$
x0771_0A-x1083_0A_234
     RDKit          3D

 23 25  0  0  0  0  0  0  0  0999 V2000
   -5.4610   -7.7650   -4.4240 C   0  0  0  0  0  0  0  0  0  0  0  0
   -5.9350   -8.8920   -3.7880 N   0  0  0  0  0  0  0  0  0  0  0  0
   -5.7310   -8.9810   -2.2910 C   0  0  0  0  0  0  0  0  0  0  0  0
   -4.9520   -7.8760   -1.4700 C   0  0  1  0  0  0  0  0  0  0  0  0
   -3.7500   -7.4610   -2.2600 C   0  0  0  0  0  0  0  0  0  0  0  0
   -5.7750   -6.7070   -1.3430 O   0  0  0  0  0  0  0  0  0  0  0  0
   -4.4840   -8.3750   -0.0350 C   0  0  0  0  0  0  0  0  0  0  0  0
   -3.2090   -7.7840    0.6050 C   0  0  0  0  0  0  0  0  0  0  0  0
   -2.7640   -8.5010    1.8720 C   0  0  0  0  0  0  0  0  0  0  0  0
   -3.8950   -8.1780    2.8640 C   0  0  0  0  0  0  0  0  0  0  0  0
   -5.2870   -8.6250    2.4380 C   0  0  0  0  0  0  0  0  0  0  0  0
   -5.6270   -8.3180    0.9850 C   0  0  0  0  0  0  0  0  0  0  0  0
   -6.5460   -9.9930   -4.4830 C   0  0  0  0  0  0  0  0  0  0  0  0
   -6.3230  -11.1550   -4.1400 O   0  0  0  0  0  0  0  0  0  0  0  0
   -7.4710   -9.8120   -5.5500 C   0  0  2  0  0  0  0  0  0  0  0  0
   -7.1320   -9.2900   -6.9330 C   0  0  0  0  0  0  0  0  0  0  0  0
   -7.1110   -7.8170   -6.6730 C   0  0  1  0  0  0  0  0  0  0  0  0
   -6.9880   -6.8430   -7.8180 C   0  0  0  0  0  0  0  0  0  0  0  0
   -7.8240   -5.5700   -7.6260 C   0  0  0  0  0  0  0  0  0  0  0  0
   -8.0180   -5.1840   -6.1460 C   0  0  0  0  0  0  0  0  0  0  0  0
   -8.4470   -6.3250   -5.2320 C   0  0  0  0  0  0  0  0  0  0  0  0
   -8.4170   -7.6660   -5.9550 C   0  0  2  0  0  0  0  0  0  0  0  0
   -8.4810   -8.8370   -5.0760 N   0  0  0  0  0  0  0  0  0  0  0  0
  1  2  1  0
  2  3  1  0
  3  4  1  0
  4  5  1  6
  4  6  1  0
  4  7  1  0
  7  8  1  0
  8  9  1  0
  9 10  1  0
 10 11  1  0
 11 12  1  0
  2 13  1  0
 13 14  2  0
 15 13  1  1
 15 16  1  0
 17 16  1  6
 17 18  1  0
 18 19  1  0
 19 20  1  0
 20 21  1  0
 22 21  1  1
 22 23  1  0
 12  7  1  0
 23 15  1  0
 22 17  1  0
A    1
 C1 
A    2
 N1 
A    3
 C2 
A    4
 C3 
A    5
 C4 
A    6
 O1 
A    7
 C5 
A    8
 C6 
A    9
 C7 
A   10
 C8 
A   11
 C9 
A   12
 C10
A   13
 C11
A   14
 O2 
A   15
 C12
A   16
 C13
A   17
 C14
A   18
 C15
A   19
 C16
A   20
 C17
A   21
 C18
A   22
 C19
A   23
 N2 
M  END
>  <ref_url>  (61) 
https://github.com/stephwills/fragment_network_merges

>  <submitter_name>  (61) 
Steph Wills

>  <submitter_institution>  (61) 
University of Oxford

>  <submitter_email>  (61) 
stephanie.wills@balliol.ox.ac.uk

>  <generation_date>  (61) 
2023-08-10

>  <method>  (61) 
fragnetv3_corrected

>  <original SMILES>  (61) 
CN(CC(C)(O)C1CCCCC1)C(=O)C1CC2CCCCC2N1

>  <original_name>  (61) 
x0771_0A-x1083_0A_234

>  <ref_mols>  (61) 
x0771_0A,x1083_0A

>  <ref_pdb>  (61) 
x0771_0A

>  <SuCOS_score>  (61) 
0.3936100994250864

>  <compound ID>  (61) 
ENAMINE:PV-003287998744

$$$$
x0771_0A-x1140_0A_1073
     RDKit          3D

 23 26  0  0  0  0  0  0  0  0999 V2000
   -7.3150   -8.4520   -3.4840 O   0  0  0  0  0  0  0  0  0  0  0  0
   -6.1920   -8.0020   -3.4270 C   0  0  0  0  0  0  0  0  0  0  0  0
   -5.6060   -7.3500   -4.5170 N   0  0  0  0  0  0  0  0  0  0  0  0
   -5.5930   -7.9350   -5.7920 C   0  0  0  0  0  0  0  0  0  0  0  0
   -6.8420   -7.8300   -6.7330 C   0  0  2  0  0  0  0  0  0  0  0  0
   -6.7400   -6.6650   -7.7100 C   0  0  0  0  0  0  0  0  0  0  0  0
   -7.7680   -5.5560   -7.4320 C   0  0  0  0  0  0  0  0  0  0  0  0
   -8.0390   -5.3290   -5.9060 C   0  0  0  0  0  0  0  0  0  0  0  0
   -8.3190   -6.5960   -5.1050 C   0  0  0  0  0  0  0  0  0  0  0  0
   -8.1330   -7.8400   -5.9570 C   0  0  2  0  0  0  0  0  0  0  0  0
   -8.0310   -9.1390   -5.2540 N   0  0  0  0  0  0  0  0  0  0  0  0
   -7.4800  -10.0570   -6.2640 C   0  0  0  0  0  0  0  0  0  0  0  0
   -7.0880   -9.1700   -7.4360 C   0  0  0  0  0  0  0  0  0  0  0  0
   -5.4540   -8.1590   -2.1240 C   0  0  0  0  0  0  0  0  0  0  0  0
   -6.2080   -8.9610   -1.0840 C   0  0  0  0  0  0  0  0  0  0  0  0
   -5.5960   -9.1970    0.2770 C   0  0  0  0  0  0  0  0  0  0  0  0
   -4.2420   -8.6550    0.6380 C   0  0  0  0  0  0  0  0  0  0  0  0
   -3.5370   -7.8540   -0.4760 C   0  0  0  0  0  0  0  0  0  0  0  0
   -4.1720   -7.6100   -1.8760 C   0  0  0  0  0  0  0  0  0  0  0  0
   -2.2980   -7.3130   -0.2760 O   0  0  0  0  0  0  0  0  0  0  0  0
   -1.7120   -7.6740    0.9830 C   0  0  0  0  0  0  0  0  0  0  0  0
   -2.7700   -7.7010    2.0540 C   0  0  0  0  0  0  0  0  0  0  0  0
   -3.6270   -8.8180    1.8290 O   0  0  0  0  0  0  0  0  0  0  0  0
  1  2  2  0
  2  3  1  0
  3  4  1  0
  5  4  1  1
  5  6  1  0
  6  7  1  0
  7  8  1  0
  8  9  1  0
 10  9  1  1
 10 11  1  0
 11 12  1  0
 12 13  1  0
  2 14  1  0
 14 15  2  0
 15 16  1  0
 16 17  2  0
 17 18  1  0
 18 19  2  0
 18 20  1  0
 20 21  1  0
 21 22  1  0
 22 23  1  0
 10  5  1  0
 19 14  1  0
 13  5  1  0
 23 17  1  0
A    1
 O1 
A    2
 C1 
A    3
 N1 
A    4
 C2 
A    5
 C3 
A    6
 C4 
A    7
 C5 
A    8
 C6 
A    9
 C7 
A   10
 C8 
A   11
 N2 
A   12
 C9 
A   13
 C10
A   14
 C11
A   15
 C12
A   16
 C13
A   17
 C14
A   18
 C15
A   19
 C16
A   20
 O2 
A   21
 C17
A   22
 C18
A   23
 O3 
M  END
>  <ref_url>  (62) 
https://github.com/stephwills/fragment_network_merges

>  <submitter_name>  (62) 
Steph Wills

>  <submitter_institution>  (62) 
University of Oxford

>  <submitter_email>  (62) 
stephanie.wills@balliol.ox.ac.uk

>  <generation_date>  (62) 
2023-08-10

>  <method>  (62) 
fragnetv3_corrected

>  <original SMILES>  (62) 
O=C(NCC12CCCCC1NCC2)c1ccc2c(c1)OCCO2

>  <original_name>  (62) 
x0771_0A-x1140_0A_1073

>  <ref_mols>  (62) 
x0771_0A,x1140_0A

>  <ref_pdb>  (62) 
x0771_0A

>  <SuCOS_score>  (62) 
0.5091588187430336

>  <compound ID>  (62) 
ENAMINE:Z3385427857

$$$$
x0771_0A-x1140_0A_1082
     RDKit          3D

 22 25  0  0  0  0  0  0  0  0999 V2000
   -6.6450  -10.2120   -3.2550 O   0  0  0  0  0  0  0  0  0  0  0  0
   -6.4000   -9.1520   -3.8390 C   0  0  0  0  0  0  0  0  0  0  0  0
   -5.5260   -8.0030   -3.3760 C   0  0  0  0  0  0  0  0  0  0  0  0
   -5.0200   -8.1650   -1.9480 C   0  0  0  0  0  0  0  0  0  0  0  0
   -5.9600   -8.8810   -0.9780 C   0  0  0  0  0  0  0  0  0  0  0  0
   -5.4210   -9.0270    0.4520 C   0  0  0  0  0  0  0  0  0  0  0  0
   -4.0190   -8.4500    0.7470 C   0  0  0  0  0  0  0  0  0  0  0  0
   -3.2310   -7.8120   -0.2080 C   0  0  0  0  0  0  0  0  0  0  0  0
   -3.7830   -7.6760   -1.6080 C   0  0  0  0  0  0  0  0  0  0  0  0
   -2.1240   -7.3410   -0.0530 O   0  0  0  0  0  0  0  0  0  0  0  0
   -1.6810   -7.3280    1.3070 C   0  0  0  0  0  0  0  0  0  0  0  0
   -2.1900   -8.5120    2.0870 C   0  0  0  0  0  0  0  0  0  0  0  0
   -3.6170   -8.6170    2.0160 O   0  0  0  0  0  0  0  0  0  0  0  0
   -7.0200   -8.8950   -5.1290 N   0  0  0  0  0  0  0  0  0  0  0  0
   -7.2630   -9.8490   -6.2030 C   0  0  0  0  0  0  0  0  0  0  0  0
   -7.7590   -8.9440   -7.2820 C   0  0  0  0  0  0  0  0  0  0  0  0
   -7.4040   -7.4950   -7.0970 C   0  0  1  0  0  0  0  0  0  0  0  0
   -8.3460   -6.3520   -7.4530 C   0  0  0  0  0  0  0  0  0  0  0  0
   -7.9360   -5.0370   -6.8380 C   0  0  0  0  0  0  0  0  0  0  0  0
   -8.0610   -5.1480   -5.3280 C   0  0  0  0  0  0  0  0  0  0  0  0
   -8.2040   -6.6150   -4.9340 C   0  0  0  0  0  0  0  0  0  0  0  0
   -7.1410   -7.4950   -5.5830 C   0  0  1  0  0  0  0  0  0  0  0  0
  1  2  2  0
  2  3  1  0
  3  4  1  0
  4  5  2  0
  5  6  1  0
  6  7  2  0
  7  8  1  0
  8  9  2  0
  8 10  1  0
 10 11  1  0
 11 12  1  0
 12 13  1  0
  2 14  1  0
 14 15  1  0
 15 16  1  0
 17 16  1  1
 17 18  1  0
 18 19  1  0
 19 20  1  0
 20 21  1  0
 22 21  1  1
  9  4  1  0
 22 14  1  0
 13  7  1  0
 22 17  1  0
A    1
 O1 
A    2
 C1 
A    3
 C2 
A    4
 C3 
A    5
 C4 
A    6
 C5 
A    7
 C6 
A    8
 C7 
A    9
 C8 
A   10
 O2 
A   11
 C9 
A   12
 C10
A   13
 O3 
A   14
 N1 
A   15
 C11
A   16
 C12
A   17
 C13
A   18
 C14
A   19
 C15
A   20
 C16
A   21
 C17
A   22
 C18
M  END
>  <ref_url>  (63) 
https://github.com/stephwills/fragment_network_merges

>  <submitter_name>  (63) 
Steph Wills

>  <submitter_institution>  (63) 
University of Oxford

>  <submitter_email>  (63) 
stephanie.wills@balliol.ox.ac.uk

>  <generation_date>  (63) 
2023-08-10

>  <method>  (63) 
fragnetv3_corrected

>  <original SMILES>  (63) 
O=C(Cc1ccc2c(c1)OCCO2)N1CCC2CCCCC21

>  <original_name>  (63) 
x0771_0A-x1140_0A_1082

>  <ref_mols>  (63) 
x0771_0A,x1140_0A

>  <ref_pdb>  (63) 
x0771_0A

>  <SuCOS_score>  (63) 
0.48752876334866574

>  <compound ID>  (63) 
ENAMINE:Z977434760

$$$$
x0771_0A-x1140_0A_1051
     RDKit          3D

 22 25  0  0  0  0  0  0  0  0999 V2000
   -8.1960   -8.9600   -2.7080 O   0  0  0  0  0  0  0  0  0  0  0  0
   -7.0620   -9.3000   -3.5430 S   0  0  0  0  0  6  0  0  0  0  0  0
   -6.5310  -10.6440   -3.5800 O   0  0  0  0  0  0  0  0  0  0  0  0
   -5.7430   -8.1480   -3.2250 C   0  0  0  0  0  0  0  0  0  0  0  0
   -5.2220   -8.2940   -1.8670 C   0  0  0  0  0  0  0  0  0  0  0  0
   -5.9450   -8.9720   -0.9820 C   0  0  0  0  0  0  0  0  0  0  0  0
   -5.4780   -9.1760    0.4470 C   0  0  0  0  0  0  0  0  0  0  0  0
   -4.1350   -8.5770    0.8510 C   0  0  0  0  0  0  0  0  0  0  0  0
   -3.4140   -8.5460    1.9650 N   0  0  0  0  0  0  0  0  0  0  0  0
   -2.2920   -7.8230    1.6030 O   0  0  0  0  0  0  0  0  0  0  0  0
   -2.3370   -7.4170    0.2730 N   0  0  0  0  0  0  0  0  0  0  0  0
   -3.4840   -7.8710   -0.2420 C   0  0  0  0  0  0  0  0  0  0  0  0
   -3.9690   -7.7120   -1.5490 C   0  0  0  0  0  0  0  0  0  0  0  0
   -7.4940   -8.9050   -5.1100 N   0  0  0  0  0  0  0  0  0  0  0  0
   -6.9440   -9.8080   -6.1600 C   0  0  0  0  0  0  0  0  0  0  0  0
   -7.1570   -8.9590   -7.4170 C   0  0  0  0  0  0  0  0  0  0  0  0
   -6.8720   -7.5170   -7.0190 C   0  0  1  0  0  0  0  0  0  0  0  0
   -7.7660   -6.5070   -7.7060 C   0  0  0  0  0  0  0  0  0  0  0  0
   -7.5680   -5.1630   -7.0530 C   0  0  0  0  0  0  0  0  0  0  0  0
   -7.9810   -5.1820   -5.5850 C   0  0  0  0  0  0  0  0  0  0  0  0
   -8.2590   -6.4810   -5.2010 C   0  0  0  0  0  0  0  0  0  0  0  0
   -7.1640   -7.4950   -5.5200 C   0  0  1  0  0  0  0  0  0  0  0  0
  1  2  2  0
  2  3  2  0
  2  4  1  0
  4  5  1  0
  5  6  1  0
  6  7  2  0
  7  8  1  0
  8  9  2  0
  9 10  1  0
 10 11  1  0
 11 12  2  0
 12 13  1  0
  2 14  1  0
 14 15  1  0
 15 16  1  0
 17 16  1  6
 17 18  1  0
 18 19  1  0
 19 20  1  0
 20 21  1  0
 22 21  1  6
 13  5  2  0
 22 14  1  0
 12  8  1  0
 22 17  1  0
A    1
 O1 
A    2
 S1 
A    3
 O2 
A    4
 C1 
A    5
 C2 
A    6
 C3 
A    7
 C4 
A    8
 C5 
A    9
 N1 
A   10
 O3 
A   11
 N2 
A   12
 C6 
A   13
 C7 
A   14
 N3 
A   15
 C8 
A   16
 C9 
A   17
 C10
A   18
 C11
A   19
 C12
A   20
 C13
A   21
 C14
A   22
 C15
M  END
>  <ref_url>  (64) 
https://github.com/stephwills/fragment_network_merges

>  <submitter_name>  (64) 
Steph Wills

>  <submitter_institution>  (64) 
University of Oxford

>  <submitter_email>  (64) 
stephanie.wills@balliol.ox.ac.uk

>  <generation_date>  (64) 
2023-08-10

>  <method>  (64) 
fragnetv3_corrected

>  <original SMILES>  (64) 
O=S(=O)(Cc1ccc2nonc2c1)N1CCC2CCCCC21

>  <original_name>  (64) 
x0771_0A-x1140_0A_1051

>  <ref_mols>  (64) 
x0771_0A,x1140_0A

>  <ref_pdb>  (64) 
x0771_0A

>  <SuCOS_score>  (64) 
0.46737516686098385

>  <compound ID>  (64) 
ENAMINE:Z3643741181

$$$$
x0771_0A-x1140_0A_1033
     RDKit          3D

 21 22  0  0  0  0  0  0  0  0999 V2000
   -6.3400   -4.2720   -0.9880 C   0  0  0  0  0  0  0  0  0  0  0  0
   -7.0860   -5.4650   -1.5750 C   0  0  0  0  0  0  0  0  0  0  0  0
   -6.9550   -5.3570   -3.3360 S   0  0  0  0  0  6  0  0  0  0  0  0
   -8.2150   -5.8160   -3.8420 O   0  0  0  0  0  0  0  0  0  0  0  0
   -6.4070   -4.0560   -3.6600 O   0  0  0  0  0  0  0  0  0  0  0  0
   -5.8170   -6.5910   -3.6470 N   0  0  0  0  0  0  0  0  0  0  0  0
   -5.9810   -7.8710   -2.9360 C   0  0  0  0  0  0  0  0  0  0  0  0
   -5.4810   -9.0650   -3.7530 C   0  0  0  0  0  0  0  0  0  0  0  0
   -5.9710   -9.0850   -5.1500 C   0  0  0  0  0  0  0  0  0  0  0  0
   -7.3850   -8.7430   -5.3890 N   0  0  0  0  0  0  0  0  0  0  0  0
   -8.0140   -9.3720   -6.5750 C   0  0  2  0  0  0  0  0  0  0  0  0
   -7.9870  -10.8850   -6.6580 C   0  0  0  0  0  0  0  0  0  0  0  0
   -7.9080  -11.5870   -5.4170 O   0  0  0  0  0  0  0  0  0  0  0  0
   -8.0470  -11.4690   -7.8790 O   0  0  0  0  0  0  0  0  0  0  0  0
   -7.0780   -8.7260   -7.5850 C   0  0  0  0  0  0  0  0  0  0  0  0
   -6.9210   -7.2750   -7.0590 C   0  0  1  0  0  0  0  0  0  0  0  0
   -7.5570   -6.1350   -7.8520 C   0  0  0  0  0  0  0  0  0  0  0  0
   -7.8850   -4.9790   -6.9560 C   0  0  0  0  0  0  0  0  0  0  0  0
   -9.0210   -5.3880   -6.0360 C   0  0  0  0  0  0  0  0  0  0  0  0
   -8.9550   -6.8760   -5.6300 C   0  0  0  0  0  0  0  0  0  0  0  0
   -7.5190   -7.4000   -5.6550 C   0  0  1  0  0  0  0  0  0  0  0  0
  1  2  1  0
  2  3  1  0
  3  4  2  0
  3  5  2  0
  3  6  1  0
  6  7  1  0
  7  8  1  0
  8  9  1  0
  9 10  1  0
 10 11  1  0
 11 12  1  1
 12 13  2  0
 12 14  1  0
 11 15  1  0
 16 15  1  6
 16 17  1  0
 17 18  1  0
 18 19  1  0
 19 20  1  0
 21 20  1  6
 21 10  1  0
 21 16  1  0
A    1
 C1 
A    2
 C2 
A    3
 S1 
A    4
 O1 
A    5
 O2 
A    6
 N1 
A    7
 C3 
A    8
 C4 
A    9
 C5 
A   10
 N2 
A   11
 C6 
A   12
 C7 
A   13
 O3 
A   14
 O4 
A   15
 C8 
A   16
 C9 
A   17
 C10
A   18
 C11
A   19
 C12
A   20
 C13
A   21
 C14
M  END
>  <ref_url>  (65) 
https://github.com/stephwills/fragment_network_merges

>  <submitter_name>  (65) 
Steph Wills

>  <submitter_institution>  (65) 
University of Oxford

>  <submitter_email>  (65) 
stephanie.wills@balliol.ox.ac.uk

>  <generation_date>  (65) 
2023-08-10

>  <method>  (65) 
fragnetv3_corrected

>  <original SMILES>  (65) 
CCS(=O)(=O)NCCCN1C(C(=O)O)CC2CCCCC21

>  <original_name>  (65) 
x0771_0A-x1140_0A_1033

>  <ref_mols>  (65) 
x0771_0A,x1140_0A

>  <ref_pdb>  (65) 
x0771_0A

>  <SuCOS_score>  (65) 
0.4631763105885377

>  <compound ID>  (65) 
ENAMINE:Z3346088667

$$$$
x0771_0A-x1140_0A_1089
     RDKit          3D

 21 24  0  0  0  0  0  0  0  0999 V2000
   -6.7700  -10.4810   -3.2100 O   0  0  0  0  0  0  0  0  0  0  0  0
   -6.6670   -9.2070   -3.8380 C   0  0  0  0  0  0  0  0  0  0  0  0
   -5.9600   -8.1410   -3.2810 N   0  0  0  0  0  0  0  0  0  0  0  0
   -5.3740   -8.2520   -2.0240 C   0  0  0  0  0  0  0  0  0  0  0  0
   -6.2150   -9.0450   -0.9950 C   0  0  0  0  0  0  0  0  0  0  0  0
   -5.5000   -9.1210    0.3590 C   0  0  0  0  0  0  0  0  0  0  0  0
   -4.2680   -8.5390    0.5620 N   0  0  0  0  0  0  0  0  0  0  0  0
   -3.5230   -8.5340    1.6990 N   0  0  0  0  0  0  0  0  0  0  0  0
   -2.4460   -7.8420    1.3300 C   0  0  0  0  0  0  0  0  0  0  0  0
   -2.4480   -7.4070    0.0480 N   0  0  0  0  0  0  0  0  0  0  0  0
   -3.5900   -7.8440   -0.4310 C   0  0  0  0  0  0  0  0  0  0  0  0
   -4.1650   -7.7160   -1.6970 C   0  0  0  0  0  0  0  0  0  0  0  0
   -7.2990   -8.9830   -5.0710 N   0  0  0  0  0  0  0  0  0  0  0  0
   -7.1930  -10.0100   -6.1160 C   0  0  0  0  0  0  0  0  0  0  0  0
   -7.2200   -9.1440   -7.3570 C   0  0  0  0  0  0  0  0  0  0  0  0
   -6.7870   -7.7760   -6.9490 C   0  0  1  0  0  0  0  0  0  0  0  0
   -6.9830   -6.6350   -7.8960 C   0  0  0  0  0  0  0  0  0  0  0  0
   -7.7930   -5.4610   -7.4170 C   0  0  0  0  0  0  0  0  0  0  0  0
   -8.2490   -5.3520   -5.9310 C   0  0  0  0  0  0  0  0  0  0  0  0
   -7.6060   -6.4130   -5.0330 C   0  0  0  0  0  0  0  0  0  0  0  0
   -7.7080   -7.7300   -5.7510 C   0  0  2  0  0  0  0  0  0  0  0  0
  1  2  2  0
  2  3  1  0
  3  4  1  0
  4  5  1  0
  5  6  2  0
  6  7  1  0
  7  8  1  0
  8  9  2  0
  9 10  1  0
 10 11  2  0
 11 12  1  0
  2 13  1  0
 13 14  1  0
 14 15  1  0
 16 15  1  6
 16 17  1  0
 17 18  1  0
 18 19  1  0
 19 20  1  0
 21 20  1  1
 12  4  2  0
 21 13  1  0
 11  7  1  0
 21 16  1  0
A    1
 O1 
A    2
 C1 
A    3
 N1 
A    4
 C2 
A    5
 C3 
A    6
 C4 
A    7
 N2 
A    8
 N3 
A    9
 C5 
A   10
 N4 
A   11
 C6 
A   12
 C7 
A   13
 N5 
A   14
 C8 
A   15
 C9 
A   16
 C10
A   17
 C11
A   18
 C12
A   19
 C13
A   20
 C14
A   21
 C15
M  END
>  <ref_url>  (66) 
https://github.com/stephwills/fragment_network_merges

>  <submitter_name>  (66) 
Steph Wills

>  <submitter_institution>  (66) 
University of Oxford

>  <submitter_email>  (66) 
stephanie.wills@balliol.ox.ac.uk

>  <generation_date>  (66) 
2023-08-10

>  <method>  (66) 
fragnetv3_corrected

>  <original SMILES>  (66) 
O=C(Nc1ccn2ncnc2c1)N1CCC2CCCCC21

>  <original_name>  (66) 
x0771_0A-x1140_0A_1089

>  <ref_mols>  (66) 
x0771_0A,x1140_0A

>  <ref_pdb>  (66) 
x0771_0A

>  <SuCOS_score>  (66) 
0.4592320129899202

>  <compound ID>  (66) 
ENAMINE:Z4273515412

$$$$
x0771_0A-x1140_0A_1088
     RDKit          3D

 21 24  0  0  0  0  0  0  0  0999 V2000
   -6.4790  -10.3270   -3.3940 O   0  0  0  0  0  0  0  0  0  0  0  0
   -6.3100   -9.2400   -3.9260 C   0  0  0  0  0  0  0  0  0  0  0  0
   -5.5830   -8.2080   -3.3680 N   0  0  0  0  0  0  0  0  0  0  0  0
   -5.0960   -8.2960   -2.0110 C   0  0  0  0  0  0  0  0  0  0  0  0
   -5.9810   -9.0550   -1.0220 C   0  0  0  0  0  0  0  0  0  0  0  0
   -5.5500   -9.2170    0.4440 C   0  0  0  0  0  0  0  0  0  0  0  0
   -4.2040   -8.5770    0.8160 C   0  0  0  0  0  0  0  0  0  0  0  0
   -3.5120   -8.5190    1.9870 N   0  0  0  0  0  0  0  0  0  0  0  0
   -2.3640   -7.8050    1.6850 O   0  0  0  0  0  0  0  0  0  0  0  0
   -2.3030   -7.4020    0.3550 N   0  0  0  0  0  0  0  0  0  0  0  0
   -3.4110   -7.8470   -0.2400 C   0  0  0  0  0  0  0  0  0  0  0  0
   -3.8630   -7.6940   -1.6990 C   0  0  0  0  0  0  0  0  0  0  0  0
   -6.8750   -8.9370   -5.1480 N   0  0  0  0  0  0  0  0  0  0  0  0
   -7.0140   -9.9820   -6.1490 C   0  0  0  0  0  0  0  0  0  0  0  0
   -7.4170   -9.2240   -7.4080 C   0  0  0  0  0  0  0  0  0  0  0  0
   -7.9090   -7.8300   -6.9530 C   0  0  2  0  0  0  0  0  0  0  0  0
   -7.2490   -6.6570   -7.6880 C   0  0  0  0  0  0  0  0  0  0  0  0
   -7.9060   -5.3740   -7.1840 C   0  0  0  0  0  0  0  0  0  0  0  0
   -8.1950   -5.4580   -5.6960 C   0  0  0  0  0  0  0  0  0  0  0  0
   -7.3210   -6.4890   -4.9290 C   0  0  0  0  0  0  0  0  0  0  0  0
   -7.7610   -7.8110   -5.4460 C   0  0  2  0  0  0  0  0  0  0  0  0
  1  2  2  0
  2  3  1  0
  3  4  1  0
  4  5  1  0
  5  6  2  0
  6  7  1  0
  7  8  2  0
  8  9  1  0
  9 10  1  0
 10 11  2  0
 11 12  1  0
  2 13  1  0
 13 14  1  0
 14 15  1  0
 16 15  1  6
 16 17  1  0
 17 18  1  0
 18 19  1  0
 19 20  1  0
 21 20  1  6
 12  4  2  0
 21 13  1  0
 11  7  1  0
 21 16  1  0
A    1
 O1 
A    2
 C1 
A    3
 N1 
A    4
 C2 
A    5
 C3 
A    6
 C4 
A    7
 C5 
A    8
 N2 
A    9
 O2 
A   10
 N3 
A   11
 C6 
A   12
 C7 
A   13
 N4 
A   14
 C8 
A   15
 C9 
A   16
 C10
A   17
 C11
A   18
 C12
A   19
 C13
A   20
 C14
A   21
 C15
M  END
>  <ref_url>  (67) 
https://github.com/stephwills/fragment_network_merges

>  <submitter_name>  (67) 
Steph Wills

>  <submitter_institution>  (67) 
University of Oxford

>  <submitter_email>  (67) 
stephanie.wills@balliol.ox.ac.uk

>  <generation_date>  (67) 
2023-08-10

>  <method>  (67) 
fragnetv3_corrected

>  <original SMILES>  (67) 
O=C(Nc1ccc2nonc2c1)N1CCC2CCCCC21

>  <original_name>  (67) 
x0771_0A-x1140_0A_1088

>  <ref_mols>  (67) 
x0771_0A,x1140_0A

>  <ref_pdb>  (67) 
x0771_0A

>  <SuCOS_score>  (67) 
0.4578146614357039

>  <compound ID>  (67) 
ENAMINE:Z4273369891

$$$$
x0771_0A-x1140_0A_1074
     RDKit          3D

 22 25  0  0  0  0  0  0  0  0999 V2000
   -3.3750   -7.8350   -3.0380 O   0  0  0  0  0  0  0  0  0  0  0  0
   -4.7610   -7.8320   -2.9890 C   0  0  0  0  0  0  0  0  0  0  0  0
   -5.8170   -7.5860   -4.0540 N   0  0  0  0  0  0  0  0  0  0  0  0
   -5.5390   -8.0180   -5.5070 C   0  0  0  0  0  0  0  0  0  0  0  0
   -6.7880   -7.7750   -6.4280 C   0  0  2  0  0  0  0  0  0  0  0  0
   -6.6710   -6.6410   -7.4590 C   0  0  0  0  0  0  0  0  0  0  0  0
   -7.7300   -5.5470   -7.2570 C   0  0  0  0  0  0  0  0  0  0  0  0
   -8.0310   -5.2520   -5.7690 C   0  0  0  0  0  0  0  0  0  0  0  0
   -8.4040   -6.5680   -5.0570 C   0  0  0  0  0  0  0  0  0  0  0  0
   -8.0290   -7.7830   -5.8520 C   0  0  2  0  0  0  0  0  0  0  0  0
   -8.0620   -9.0920   -5.1640 N   0  0  0  0  0  0  0  0  0  0  0  0
   -7.4830  -10.0390   -6.1200 C   0  0  0  0  0  0  0  0  0  0  0  0
   -7.0650   -9.0550   -7.1830 C   0  0  0  0  0  0  0  0  0  0  0  0
   -5.0560   -8.1760   -1.6100 C   0  0  0  0  0  0  0  0  0  0  0  0
   -6.2420   -8.6760   -1.3100 C   0  0  0  0  0  0  0  0  0  0  0  0
   -6.6700   -9.0910    0.0210 C   0  0  0  0  0  0  0  0  0  0  0  0
   -5.8590   -9.0060    1.1390 C   0  0  0  0  0  0  0  0  0  0  0  0
   -4.4660   -8.4370    0.8980 C   0  0  0  0  0  0  0  0  0  0  0  0
   -4.0280   -8.0100   -0.4570 C   0  0  0  0  0  0  0  0  0  0  0  0
   -2.7400   -7.5510   -0.3610 O   0  0  0  0  0  0  0  0  0  0  0  0
   -2.4290   -7.7210    1.0740 C   0  0  0  0  0  0  0  0  0  0  0  0
   -3.4980   -8.2750    1.9070 O   0  0  0  0  0  0  0  0  0  0  0  0
  1  2  2  0
  2  3  1  0
  3  4  1  0
  5  4  1  1
  5  6  1  0
  6  7  1  0
  7  8  1  0
  8  9  1  0
 10  9  1  1
 10 11  1  0
 11 12  1  0
 12 13  1  0
  2 14  1  0
 14 15  2  0
 15 16  1  0
 16 17  2  0
 17 18  1  0
 18 19  2  0
 19 20  1  0
 20 21  1  0
 21 22  1  0
 10  5  1  0
 19 14  1  0
 13  5  1  0
 22 18  1  0
A    1
 O1 
A    2
 C1 
A    3
 N1 
A    4
 C2 
A    5
 C3 
A    6
 C4 
A    7
 C5 
A    8
 C6 
A    9
 C7 
A   10
 C8 
A   11
 N2 
A   12
 C9 
A   13
 C10
A   14
 C11
A   15
 C12
A   16
 C13
A   17
 C14
A   18
 C15
A   19
 C16
A   20
 O2 
A   21
 C17
A   22
 O3 
M  END
>  <ref_url>  (68) 
https://github.com/stephwills/fragment_network_merges

>  <submitter_name>  (68) 
Steph Wills

>  <submitter_institution>  (68) 
University of Oxford

>  <submitter_email>  (68) 
stephanie.wills@balliol.ox.ac.uk

>  <generation_date>  (68) 
2023-08-10

>  <method>  (68) 
fragnetv3_corrected

>  <original SMILES>  (68) 
O=C(NCC12CCCCC1NCC2)c1cccc2c1OCO2

>  <original_name>  (68) 
x0771_0A-x1140_0A_1074

>  <ref_mols>  (68) 
x0771_0A,x1140_0A

>  <ref_pdb>  (68) 
x0771_0A

>  <SuCOS_score>  (68) 
0.44845921264811034

>  <compound ID>  (68) 
ENAMINE:Z3385426729

$$$$
x0771_0A-x1140_0A_1087
     RDKit          3D

 23 26  0  0  0  0  0  0  0  0999 V2000
   -5.5340   -9.6370   -4.1710 O   0  0  0  0  0  0  0  0  0  0  0  0
   -6.3590   -8.4650   -4.2190 S   0  0  0  0  0  6  0  0  0  0  0  0
   -7.7790   -8.5440   -3.9830 O   0  0  0  0  0  0  0  0  0  0  0  0
   -5.7260   -7.2630   -3.1100 C   0  0  0  0  0  0  0  0  0  0  0  0
   -5.1780   -7.7230   -1.7820 C   0  0  0  0  0  0  0  0  0  0  0  0
   -6.0740   -8.6530   -0.9720 C   0  0  0  0  0  0  0  0  0  0  0  0
   -5.5740   -9.1280    0.3770 C   0  0  0  0  0  0  0  0  0  0  0  0
   -4.1920   -8.5680    0.7220 C   0  0  0  0  0  0  0  0  0  0  0  0
   -3.4480   -8.8280    1.9430 N   0  0  0  0  0  0  0  0  0  0  0  0
   -2.2750   -8.0990    1.7610 O   0  0  0  0  0  0  0  0  0  0  0  0
   -2.2330   -7.4190    0.5460 N   0  0  0  0  0  0  0  0  0  0  0  0
   -3.4750   -7.7250   -0.1190 C   0  0  0  0  0  0  0  0  0  0  0  0
   -3.9150   -7.2820   -1.3630 C   0  0  0  0  0  0  0  0  0  0  0  0
   -6.1870   -7.7250   -5.7030 N   0  0  0  0  0  0  0  0  0  0  0  0
   -7.1590   -7.7780   -6.7710 C   0  0  2  0  0  0  0  0  0  0  0  0
   -6.9630   -6.5380   -7.6080 C   0  0  0  0  0  0  0  0  0  0  0  0
   -8.0090   -5.4480   -7.3720 C   0  0  0  0  0  0  0  0  0  0  0  0
   -8.2490   -5.2510   -5.8830 C   0  0  0  0  0  0  0  0  0  0  0  0
   -8.6490   -6.5580   -5.1940 C   0  0  0  0  0  0  0  0  0  0  0  0
   -8.5370   -7.7690   -6.1200 C   0  0  2  0  0  0  0  0  0  0  0  0
   -8.6440   -9.0070   -5.5960 N   0  0  0  0  0  0  0  0  0  0  0  0
   -8.2190   -9.8950   -6.7010 C   0  0  0  0  0  0  0  0  0  0  0  0
   -7.1560   -9.1150   -7.4370 C   0  0  0  0  0  0  0  0  0  0  0  0
  1  2  2  0
  2  3  2  0
  2  4  1  0
  4  5  1  0
  5  6  1  0
  6  7  2  0
  7  8  1  0
  8  9  2  0
  9 10  1  0
 10 11  1  0
 11 12  2  0
 12 13  1  0
  2 14  1  0
 15 14  1  1
 15 16  1  0
 16 17  1  0
 17 18  1  0
 18 19  1  0
 20 19  1  1
 20 21  1  0
 21 22  1  0
 22 23  1  0
 13  5  2  0
 20 15  1  0
 12  8  1  0
 23 15  1  0
A    1
 O1 
A    2
 S1 
A    3
 O2 
A    4
 C1 
A    5
 C2 
A    6
 C3 
A    7
 C4 
A    8
 C5 
A    9
 N1 
A   10
 O3 
A   11
 N2 
A   12
 C6 
A   13
 C7 
A   14
 N3 
A   15
 C8 
A   16
 C9 
A   17
 C10
A   18
 C11
A   19
 C12
A   20
 C13
A   21
 N4 
A   22
 C14
A   23
 C15
M  END
>  <ref_url>  (69) 
https://github.com/stephwills/fragment_network_merges

>  <submitter_name>  (69) 
Steph Wills

>  <submitter_institution>  (69) 
University of Oxford

>  <submitter_email>  (69) 
stephanie.wills@balliol.ox.ac.uk

>  <generation_date>  (69) 
2023-08-10

>  <method>  (69) 
fragnetv3_corrected

>  <original SMILES>  (69) 
O=S(=O)(Cc1ccc2nonc2c1)NC12CCCCC1NCC2

>  <original_name>  (69) 
x0771_0A-x1140_0A_1087

>  <ref_mols>  (69) 
x0771_0A,x1140_0A

>  <ref_pdb>  (69) 
x0771_0A

>  <SuCOS_score>  (69) 
0.44376292783900156

>  <compound ID>  (69) 
ENAMINE:Z3365340372

$$$$
x0771_0A-x1140_0A_1052
     RDKit          3D

 22 25  0  0  0  0  0  0  0  0999 V2000
   -4.4520   -8.1950   -5.4800 O   0  0  0  0  0  0  0  0  0  0  0  0
   -5.4640   -8.3400   -4.8630 C   0  0  0  0  0  0  0  0  0  0  0  0
   -5.7340   -7.6450   -3.5980 N   0  0  0  0  0  0  0  0  0  0  0  0
   -4.4970   -7.4010   -2.7980 C   0  0  0  0  0  0  0  0  0  0  0  0
   -4.6680   -7.9860   -1.4270 C   0  0  0  0  0  0  0  0  0  0  0  0
   -5.9460   -8.7800   -1.3210 C   0  0  0  0  0  0  0  0  0  0  0  0
   -6.2410   -9.4260    0.0080 C   0  0  0  0  0  0  0  0  0  0  0  0
   -5.3080   -9.2970    1.2060 C   0  0  0  0  0  0  0  0  0  0  0  0
   -4.1710   -8.5420    0.9690 C   0  0  0  0  0  0  0  0  0  0  0  0
   -3.8370   -7.8820   -0.3410 C   0  0  0  0  0  0  0  0  0  0  0  0
   -2.6500   -7.2340   -0.2030 O   0  0  0  0  0  0  0  0  0  0  0  0
   -2.2590   -7.6070    1.1570 C   0  0  0  0  0  0  0  0  0  0  0  0
   -3.2580   -8.3400    1.9230 O   0  0  0  0  0  0  0  0  0  0  0  0
   -6.6120   -9.2480   -5.3400 C   0  0  2  0  0  0  0  0  0  0  0  0
   -7.0150   -9.0350   -6.7760 C   0  0  0  0  0  0  0  0  0  0  0  0
   -7.8510   -7.9760   -6.8760 C   0  0  2  0  0  0  0  0  0  0  0  0
   -7.2560   -6.8170   -7.6910 C   0  0  0  0  0  0  0  0  0  0  0  0
   -7.8780   -5.4820   -7.3120 C   0  0  0  0  0  0  0  0  0  0  0  0
   -8.2240   -5.4570   -5.8250 C   0  0  0  0  0  0  0  0  0  0  0  0
   -7.5450   -6.3840   -5.0480 C   0  0  0  0  0  0  0  0  0  0  0  0
   -8.1330   -7.6160   -5.4400 C   0  0  2  0  0  0  0  0  0  0  0  0
   -7.7250   -8.8270   -4.6940 N   0  0  0  0  0  0  0  0  0  0  0  0
  1  2  2  0
  2  3  1  0
  3  4  1  0
  4  5  1  0
  5  6  2  0
  6  7  1  0
  7  8  2  0
  8  9  1  0
  9 10  2  0
 10 11  1  0
 11 12  1  0
 12 13  1  0
 14  2  1  1
 14 15  1  0
 16 15  1  1
 16 17  1  0
 17 18  1  0
 18 19  1  0
 19 20  1  0
 21 20  1  1
 21 22  1  0
 10  5  1  0
 22 14  1  0
 13  9  1  0
 21 16  1  0
A    1
 O1 
A    2
 C1 
A    3
 N1 
A    4
 C2 
A    5
 C3 
A    6
 C4 
A    7
 C5 
A    8
 C6 
A    9
 C7 
A   10
 C8 
A   11
 O2 
A   12
 C9 
A   13
 O3 
A   14
 C10
A   15
 C11
A   16
 C12
A   17
 C13
A   18
 C14
A   19
 C15
A   20
 C16
A   21
 C17
A   22
 N2 
M  END
>  <ref_url>  (70) 
https://github.com/stephwills/fragment_network_merges

>  <submitter_name>  (70) 
Steph Wills

>  <submitter_institution>  (70) 
University of Oxford

>  <submitter_email>  (70) 
stephanie.wills@balliol.ox.ac.uk

>  <generation_date>  (70) 
2023-08-10

>  <method>  (70) 
fragnetv3_corrected

>  <original SMILES>  (70) 
O=C(NCc1cccc2c1OCO2)C1CC2CCCCC2N1

>  <original_name>  (70) 
x0771_0A-x1140_0A_1052

>  <ref_mols>  (70) 
x0771_0A,x1140_0A

>  <ref_pdb>  (70) 
x0771_0A

>  <SuCOS_score>  (70) 
0.4410777474673163

>  <compound ID>  (70) 
ENAMINE:Z3100432699

$$$$
x0771_0A-x1140_0A_933
     RDKit          3D

 20 21  0  0  0  0  0  0  0  0999 V2000
   -6.3740   -4.5030   -0.9940 C   0  0  0  0  0  0  0  0  0  0  0  0
   -7.3140   -5.3580   -1.4980 C   0  0  0  0  0  0  0  0  0  0  0  0
   -7.1190   -5.4520   -3.2570 S   0  0  0  0  0  6  0  0  0  0  0  0
   -8.3610   -5.9860   -3.7480 O   0  0  0  0  0  0  0  0  0  0  0  0
   -6.6180   -4.1580   -3.6820 O   0  0  0  0  0  0  0  0  0  0  0  0
   -5.8650   -6.7270   -3.4300 C   0  0  0  0  0  0  0  0  0  0  0  0
   -6.2290   -8.1180   -2.8850 C   0  0  0  0  0  0  0  0  0  0  0  0
   -7.2770   -8.8710   -3.7310 C   0  0  0  0  0  0  0  0  0  0  0  0
   -7.0020   -8.7910   -5.1690 N   0  0  0  0  0  0  0  0  0  0  0  0
   -7.7120   -9.6280   -6.1820 C   0  0  2  0  0  0  0  0  0  0  0  0
   -7.5780  -11.1520   -6.1570 C   0  0  0  0  0  0  0  0  0  0  0  0
   -7.2380  -11.8540   -5.2200 O   0  0  0  0  0  0  0  0  0  0  0  0
   -7.8960  -11.7130   -7.3500 O   0  0  0  0  0  0  0  0  0  0  0  0
   -7.1620   -9.0260   -7.4670 C   0  0  0  0  0  0  0  0  0  0  0  0
   -6.6980   -7.6010   -7.1210 C   0  0  1  0  0  0  0  0  0  0  0  0
   -6.9430   -6.4650   -8.0970 C   0  0  0  0  0  0  0  0  0  0  0  0
   -7.7810   -5.2540   -7.6120 C   0  0  0  0  0  0  0  0  0  0  0  0
   -8.5560   -5.4220   -6.3020 C   0  0  0  0  0  0  0  0  0  0  0  0
   -8.6770   -6.8820   -5.8710 C   0  0  0  0  0  0  0  0  0  0  0  0
   -7.2890   -7.4610   -5.7600 C   0  0  1  0  0  0  0  0  0  0  0  0
  1  2  1  0
  2  3  1  0
  3  4  2  0
  3  5  2  0
  3  6  1  0
  6  7  1  0
  7  8  1  0
  8  9  1  0
  9 10  1  0
 10 11  1  1
 11 12  2  0
 11 13  1  0
 10 14  1  0
 15 14  1  6
 15 16  1  0
 16 17  1  0
 17 18  1  0
 18 19  1  0
 20 19  1  6
 20  9  1  0
 20 15  1  0
A    1
 C1 
A    2
 C2 
A    3
 S1 
A    4
 O1 
A    5
 O2 
A    6
 C3 
A    7
 C4 
A    8
 C5 
A    9
 N1 
A   10
 C6 
A   11
 C7 
A   12
 O3 
A   13
 O4 
A   14
 C8 
A   15
 C9 
A   16
 C10
A   17
 C11
A   18
 C12
A   19
 C13
A   20
 C14
M  END
>  <ref_url>  (71) 
https://github.com/stephwills/fragment_network_merges

>  <submitter_name>  (71) 
Steph Wills

>  <submitter_institution>  (71) 
University of Oxford

>  <submitter_email>  (71) 
stephanie.wills@balliol.ox.ac.uk

>  <generation_date>  (71) 
2023-08-10

>  <method>  (71) 
fragnetv3_corrected

>  <original SMILES>  (71) 
CCS(=O)(=O)CCCN1C(C(=O)O)CC2CCCCC21

>  <original_name>  (71) 
x0771_0A-x1140_0A_933

>  <ref_mols>  (71) 
x0771_0A,x1140_0A

>  <ref_pdb>  (71) 
x0771_0A

>  <SuCOS_score>  (71) 
0.4405453281797688

>  <compound ID>  (71) 
ENAMINE:Z3346088442

$$$$
x0771_0A-x1140_0A_1045
     RDKit          3D

 23 26  0  0  0  0  0  0  0  0999 V2000
   -6.7760   -9.4170   -4.0600 O   0  0  0  0  0  0  0  0  0  0  0  0
   -6.2340   -8.3420   -4.2760 C   0  0  0  0  0  0  0  0  0  0  0  0
   -5.2950   -7.6600   -3.3960 N   0  0  0  0  0  0  0  0  0  0  0  0
   -4.9960   -7.9710   -2.0820 C   0  0  0  0  0  0  0  0  0  0  0  0
   -5.9750   -8.7100   -1.1800 C   0  0  0  0  0  0  0  0  0  0  0  0
   -5.4650   -8.9670    0.2560 C   0  0  0  0  0  0  0  0  0  0  0  0
   -4.0630   -8.4730    0.6390 C   0  0  0  0  0  0  0  0  0  0  0  0
   -3.3070   -7.8090   -0.3420 C   0  0  0  0  0  0  0  0  0  0  0  0
   -3.7500   -7.5690   -1.6310 C   0  0  0  0  0  0  0  0  0  0  0  0
   -2.1720   -7.3920   -0.1160 O   0  0  0  0  0  0  0  0  0  0  0  0
   -1.7740   -7.3150    1.2520 C   0  0  0  0  0  0  0  0  0  0  0  0
   -2.2680   -8.5130    2.0280 C   0  0  0  0  0  0  0  0  0  0  0  0
   -3.6700   -8.7240    1.9000 O   0  0  0  0  0  0  0  0  0  0  0  0
   -6.4340   -7.5720   -5.4170 N   0  0  0  0  0  0  0  0  0  0  0  0
   -7.2990   -7.8310   -6.6190 C   0  0  2  0  0  0  0  0  0  0  0  0
   -7.1980   -6.6480   -7.5760 C   0  0  0  0  0  0  0  0  0  0  0  0
   -8.2360   -5.5550   -7.3400 C   0  0  0  0  0  0  0  0  0  0  0  0
   -8.2550   -5.4430   -5.8350 C   0  0  0  0  0  0  0  0  0  0  0  0
   -8.8450   -6.6780   -5.1260 C   0  0  0  0  0  0  0  0  0  0  0  0
   -8.6650   -7.9110   -6.0090 C   0  0  2  0  0  0  0  0  0  0  0  0
   -8.4630   -9.1850   -5.2850 N   0  0  0  0  0  0  0  0  0  0  0  0
   -7.6040  -10.0410   -6.1540 C   0  0  0  0  0  0  0  0  0  0  0  0
   -7.2680   -9.2490   -7.2290 C   0  0  0  0  0  0  0  0  0  0  0  0
  1  2  2  0
  2  3  1  0
  3  4  1  0
  4  5  2  0
  5  6  1  0
  6  7  2  0
  7  8  1  0
  8  9  2  0
  8 10  1  0
 10 11  1  0
 11 12  1  0
 12 13  1  0
  2 14  1  0
 15 14  1  1
 15 16  1  0
 16 17  1  0
 17 18  1  0
 18 19  1  0
 20 19  1  1
 20 21  1  0
 21 22  1  0
 22 23  1  0
  9  4  1  0
 20 15  1  0
 13  7  1  0
 23 15  1  0
A    1
 O1 
A    2
 C1 
A    3
 N1 
A    4
 C2 
A    5
 C3 
A    6
 C4 
A    7
 C5 
A    8
 C6 
A    9
 C7 
A   10
 O2 
A   11
 C8 
A   12
 C9 
A   13
 O3 
A   14
 N2 
A   15
 C10
A   16
 C11
A   17
 C12
A   18
 C13
A   19
 C14
A   20
 C15
A   21
 N3 
A   22
 C16
A   23
 C17
M  END
>  <ref_url>  (72) 
https://github.com/stephwills/fragment_network_merges

>  <submitter_name>  (72) 
Steph Wills

>  <submitter_institution>  (72) 
University of Oxford

>  <submitter_email>  (72) 
stephanie.wills@balliol.ox.ac.uk

>  <generation_date>  (72) 
2023-08-10

>  <method>  (72) 
fragnetv3_corrected

>  <original SMILES>  (72) 
O=C(Nc1ccc2c(c1)OCCO2)NC12CCCCC1NCC2

>  <original_name>  (72) 
x0771_0A-x1140_0A_1045

>  <ref_mols>  (72) 
x0771_0A,x1140_0A

>  <ref_pdb>  (72) 
x0771_0A

>  <SuCOS_score>  (72) 
0.4357592844615812

>  <compound ID>  (72) 
ENAMINE:Z2927140744

$$$$
x0771_0A-x1140_0A_1063
     RDKit          3D

 20 23  0  0  0  0  0  0  0  0999 V2000
   -8.0380   -8.9590   -3.0640 O   0  0  0  0  0  0  0  0  0  0  0  0
   -6.8710   -8.7590   -3.3950 C   0  0  0  0  0  0  0  0  0  0  0  0
   -5.8450   -8.5940   -2.1970 C   0  0  0  0  0  0  0  0  0  0  0  0
   -6.3510   -9.2180   -0.9630 C   0  0  0  0  0  0  0  0  0  0  0  0
   -5.6700   -9.2410    0.3080 C   0  0  0  0  0  0  0  0  0  0  0  0
   -4.3000   -8.6020    0.5380 C   0  0  0  0  0  0  0  0  0  0  0  0
   -3.3800   -8.4100    1.4970 N   0  0  0  0  0  0  0  0  0  0  0  0
   -2.3980   -7.7060    0.8120 O   0  0  0  0  0  0  0  0  0  0  0  0
   -2.7100   -7.4700   -0.5450 N   0  0  0  0  0  0  0  0  0  0  0  0
   -3.9580   -8.0330   -0.8070 C   0  0  0  0  0  0  0  0  0  0  0  0
   -4.5990   -7.9770   -2.1180 C   0  0  0  0  0  0  0  0  0  0  0  0
   -6.5770   -8.7060   -4.7770 N   0  0  0  0  0  0  0  0  0  0  0  0
   -6.9600   -9.7620   -5.7390 C   0  0  0  0  0  0  0  0  0  0  0  0
   -7.2850   -9.0220   -7.0340 C   0  0  0  0  0  0  0  0  0  0  0  0
   -6.7960   -7.5900   -6.9460 C   0  0  1  0  0  0  0  0  0  0  0  0
   -7.6900   -6.5700   -7.6250 C   0  0  0  0  0  0  0  0  0  0  0  0
   -7.6540   -5.2090   -6.9940 C   0  0  0  0  0  0  0  0  0  0  0  0
   -7.9790   -5.1940   -5.5090 C   0  0  0  0  0  0  0  0  0  0  0  0
   -7.9000   -6.6060   -4.8980 C   0  0  0  0  0  0  0  0  0  0  0  0
   -6.6870   -7.3840   -5.4310 C   0  0  1  0  0  0  0  0  0  0  0  0
  1  2  2  0
  2  3  1  0
  3  4  1  0
  4  5  2  0
  5  6  1  0
  6  7  2  0
  7  8  1  0
  8  9  1  0
  9 10  2  0
 10 11  1  0
  2 12  1  0
 12 13  1  0
 13 14  1  0
 15 14  1  1
 15 16  1  0
 16 17  1  0
 17 18  1  0
 18 19  1  0
 20 19  1  1
 11  3  2  0
 20 12  1  0
 10  6  1  0
 20 15  1  0
A    1
 O1 
A    2
 C1 
A    3
 C2 
A    4
 C3 
A    5
 C4 
A    6
 C5 
A    7
 N1 
A    8
 O2 
A    9
 N2 
A   10
 C6 
A   11
 C7 
A   12
 N3 
A   13
 C8 
A   14
 C9 
A   15
 C10
A   16
 C11
A   17
 C12
A   18
 C13
A   19
 C14
A   20
 C15
M  END
>  <ref_url>  (73) 
https://github.com/stephwills/fragment_network_merges

>  <submitter_name>  (73) 
Steph Wills

>  <submitter_institution>  (73) 
University of Oxford

>  <submitter_email>  (73) 
stephanie.wills@balliol.ox.ac.uk

>  <generation_date>  (73) 
2023-08-10

>  <method>  (73) 
fragnetv3_corrected

>  <original SMILES>  (73) 
O=C(c1ccc2nonc2c1)N1CCC2CCCCC21

>  <original_name>  (73) 
x0771_0A-x1140_0A_1063

>  <ref_mols>  (73) 
x0771_0A,x1140_0A

>  <ref_pdb>  (73) 
x0771_0A

>  <SuCOS_score>  (73) 
0.42119828143353844

>  <compound ID>  (73) 
ENAMINE:Z2409024401

$$$$
x0789_0A-x0771_0A_20
     RDKit          3D

 24 26  0  0  0  0  0  0  0  0999 V2000
  -10.4770   -3.9560   -5.3340 C   0  0  0  0  0  0  0  0  0  0  0  0
  -11.1390   -4.7530   -4.2140 C   0  0  0  0  0  0  0  0  0  0  0  0
  -10.1540   -4.9300   -3.0520 C   0  0  0  0  0  0  0  0  0  0  0  0
  -11.6890   -6.0920   -4.7060 C   0  0  0  0  0  0  0  0  0  0  0  0
  -12.8370   -6.3350   -3.7430 C   0  0  2  0  0  0  0  0  0  0  0  0
  -13.8000   -7.4040   -4.2450 C   0  0  0  0  0  0  0  0  0  0  0  0
  -13.2420   -8.8220   -4.0790 C   0  0  0  0  0  0  0  0  0  0  0  0
  -12.0440   -9.0320   -4.8710 N   0  0  0  0  0  0  0  0  0  0  0  0
  -10.8880   -9.5960   -4.3480 C   0  0  0  0  0  0  0  0  0  0  0  0
  -10.6430   -9.6880   -3.1580 O   0  0  0  0  0  0  0  0  0  0  0  0
   -9.9210  -10.1130   -5.4580 C   0  0  0  0  0  0  0  0  0  0  0  0
  -10.3830  -10.9610   -6.2220 O   0  0  0  0  0  0  0  0  0  0  0  0
   -8.6090   -9.6300   -5.5420 N   0  0  0  0  0  0  0  0  0  0  0  0
   -8.0360   -8.6540   -4.6290 C   0  0  0  0  0  0  0  0  0  0  0  0
   -8.1190   -7.2860   -5.2170 C   0  0  0  0  0  0  0  0  0  0  0  0
   -7.3940   -7.2880   -6.5430 C   0  0  0  0  0  0  0  0  0  0  0  0
   -7.7820   -6.0600   -7.3750 C   0  0  0  0  0  0  0  0  0  0  0  0
   -6.6050   -5.8780   -8.2990 C   0  0  0  0  0  0  0  0  0  0  0  0
   -5.5980   -6.8510   -7.7490 C   0  0  0  0  0  0  0  0  0  0  0  0
   -5.9960   -7.0110   -6.3540 N   0  0  0  0  0  0  0  0  0  0  0  0
   -7.1430   -8.6650   -7.2570 C   0  0  0  0  0  0  0  0  0  0  0  0
   -7.8680   -9.9020   -6.7530 C   0  0  0  0  0  0  0  0  0  0  0  0
  -13.4040   -4.9270   -3.6140 C   0  0  0  0  0  0  0  0  0  0  0  0
  -12.2840   -4.0260   -3.7160 O   0  0  0  0  0  0  0  0  0  0  0  0
  1  2  1  0
  2  3  1  0
  2  4  1  0
  4  5  1  0
  5  6  1  6
  6  7  1  0
  7  8  1  0
  8  9  1  0
  9 10  2  0
  9 11  1  0
 11 12  2  0
 11 13  1  0
 13 14  1  0
 14 15  1  0
 15 16  1  0
 16 17  1  0
 17 18  1  0
 18 19  1  0
 19 20  1  0
 16 21  1  0
 21 22  1  0
  5 23  1  0
 23 24  1  0
 24  2  1  0
 22 13  1  0
 20 16  1  0
A    1
 C1 
A    2
 C2 
A    3
 C3 
A    4
 C4 
A    5
 C5 
A    6
 C6 
A    7
 C7 
A    8
 N1 
A    9
 C8 
A   10
 O1 
A   11
 C9 
A   12
 O2 
A   13
 N2 
A   14
 C10
A   15
 C11
A   16
 C12
A   17
 C13
A   18
 C14
A   19
 C15
A   20
 N3 
A   21
 C16
A   22
 C17
A   23
 C18
A   24
 O3 
M  END
>  <ref_url>  (74) 
https://github.com/stephwills/fragment_network_merges

>  <submitter_name>  (74) 
Steph Wills

>  <submitter_institution>  (74) 
University of Oxford

>  <submitter_email>  (74) 
stephanie.wills@balliol.ox.ac.uk

>  <generation_date>  (74) 
2023-08-10

>  <method>  (74) 
fragnetv3_corrected

>  <original SMILES>  (74) 
CC1(C)CC(CCNC(=O)C(=O)N2CCC3(CCCN3)CC2)CO1

>  <original_name>  (74) 
x0789_0A-x0771_0A_20

>  <ref_mols>  (74) 
x0789_0A,x0771_0A

>  <ref_pdb>  (74) 
x0789_0A

>  <SuCOS_score>  (74) 
0.34006285169630723

>  <compound ID>  (74) 
ENAMINE:Z3647955804

$$$$
x0789_0A-x0771_0A_19
     RDKit          3D

 18 20  0  0  0  0  0  0  0  0999 V2000
  -12.2920   -3.3930   -5.7060 C   0  0  0  0  0  0  0  0  0  0  0  0
  -11.5930   -4.4750   -4.8790 C   0  0  0  0  0  0  0  0  0  0  0  0
  -10.0880   -4.2280   -4.9330 C   0  0  0  0  0  0  0  0  0  0  0  0
  -11.9720   -5.8850   -5.3550 C   0  0  0  0  0  0  0  0  0  0  0  0
  -12.3110   -6.6440   -4.0870 C   0  0  1  0  0  0  0  0  0  0  0  0
  -11.1100   -7.4720   -3.5650 C   0  0  0  0  0  0  0  0  0  0  0  0
  -10.5080   -8.4530   -4.6240 C   0  0  0  0  0  0  0  0  0  0  0  0
   -9.0310   -8.4720   -4.7970 N   0  0  0  0  0  0  0  0  0  0  0  0
   -8.4820   -7.1150   -4.6440 C   0  0  0  0  0  0  0  0  0  0  0  0
   -7.0490   -6.9710   -5.0670 C   0  0  0  0  0  0  0  0  0  0  0  0
   -7.0780   -7.2620   -6.5310 C   0  0  0  0  0  0  0  0  0  0  0  0
   -7.8550   -6.2080   -7.3550 C   0  0  0  0  0  0  0  0  0  0  0  0
   -6.8170   -6.5530   -8.4190 C   0  0  0  0  0  0  0  0  0  0  0  0
   -5.8970   -6.8650   -7.3170 N   0  0  0  0  0  0  0  0  0  0  0  0
   -7.3110   -8.7580   -6.7290 C   0  0  0  0  0  0  0  0  0  0  0  0
   -8.5220   -9.3090   -5.9430 C   0  0  0  0  0  0  0  0  0  0  0  0
  -12.8300   -5.5110   -3.2000 C   0  0  0  0  0  0  0  0  0  0  0  0
  -12.0670   -4.3440   -3.5270 O   0  0  0  0  0  0  0  0  0  0  0  0
  1  2  1  0
  2  3  1  0
  2  4  1  0
  4  5  1  0
  5  6  1  1
  6  7  1  0
  7  8  1  0
  8  9  1  0
  9 10  1  0
 10 11  1  0
 11 12  1  0
 12 13  1  0
 13 14  1  0
 11 15  1  0
 15 16  1  0
  5 17  1  0
 17 18  1  0
 18  2  1  0
 16  8  1  0
 14 11  1  0
A    1
 C1 
A    2
 C2 
A    3
 C3 
A    4
 C4 
A    5
 C5 
A    6
 C6 
A    7
 C7 
A    8
 N1 
A    9
 C8 
A   10
 C9 
A   11
 C10
A   12
 C11
A   13
 C12
A   14
 N2 
A   15
 C13
A   16
 C14
A   17
 C15
A   18
 O1 
M  END
>  <ref_url>  (75) 
https://github.com/stephwills/fragment_network_merges

>  <submitter_name>  (75) 
Steph Wills

>  <submitter_institution>  (75) 
University of Oxford

>  <submitter_email>  (75) 
stephanie.wills@balliol.ox.ac.uk

>  <generation_date>  (75) 
2023-08-10

>  <method>  (75) 
fragnetv3_corrected

>  <original SMILES>  (75) 
CC1(C)CC(CCN2CCC3(CCN3)CC2)CO1

>  <original_name>  (75) 
x0789_0A-x0771_0A_19

>  <ref_mols>  (75) 
x0789_0A,x0771_0A

>  <ref_pdb>  (75) 
x0789_0A

>  <SuCOS_score>  (75) 
0.3112537651791612

>  <compound ID>  (75) 
ENAMINE:Z3639184832

$$$$
x0789_0A-x0771_0A_15
     RDKit          3D

 21 23  0  0  0  0  0  0  0  0999 V2000
  -10.2170   -4.2980   -5.0420 C   0  0  0  0  0  0  0  0  0  0  0  0
  -11.7100   -4.5530   -4.8970 C   0  0  1  0  0  0  0  0  0  0  0  0
  -12.1310   -5.9780   -5.2390 C   0  0  0  0  0  0  0  0  0  0  0  0
  -12.1540   -6.6520   -3.8910 C   0  0  1  0  0  0  0  0  0  0  0  0
  -10.8310   -7.1780   -3.5470 N   0  0  0  0  0  0  0  0  0  0  0  0
  -10.5430   -8.5440   -3.4090 C   0  0  0  0  0  0  0  0  0  0  0  0
  -10.9460   -9.2030   -2.4610 O   0  0  0  0  0  0  0  0  0  0  0  0
   -9.6660   -9.1840   -4.5620 C   0  0  0  0  0  0  0  0  0  0  0  0
  -10.2910   -9.7530   -5.4610 O   0  0  0  0  0  0  0  0  0  0  0  0
   -8.2490   -9.1250   -4.5550 N   0  0  0  0  0  0  0  0  0  0  0  0
   -7.5370   -8.0350   -3.9090 C   0  0  0  0  0  0  0  0  0  0  0  0
   -7.5950   -6.7520   -4.7110 C   0  0  0  0  0  0  0  0  0  0  0  0
   -7.2600   -7.0380   -6.1730 C   0  0  0  0  0  0  0  0  0  0  0  0
   -7.5990   -5.8680   -7.0940 C   0  0  0  0  0  0  0  0  0  0  0  0
   -6.8590   -6.2710   -8.3310 C   0  0  0  0  0  0  0  0  0  0  0  0
   -5.7390   -7.1500   -7.8540 C   0  0  0  0  0  0  0  0  0  0  0  0
   -5.8360   -7.1740   -6.4030 N   0  0  0  0  0  0  0  0  0  0  0  0
   -7.8000   -8.3820   -6.6880 C   0  0  0  0  0  0  0  0  0  0  0  0
   -7.5790   -9.5420   -5.7650 C   0  0  0  0  0  0  0  0  0  0  0  0
  -12.6980   -5.5080   -3.0230 C   0  0  0  0  0  0  0  0  0  0  0  0
  -12.1460   -4.2900   -3.5520 O   0  0  0  0  0  0  0  0  0  0  0  0
  2  1  1  1
  2  3  1  0
  3  4  1  0
  4  5  1  1
  5  6  1  0
  6  7  2  0
  6  8  1  0
  8  9  2  0
  8 10  1  0
 10 11  1  0
 11 12  1  0
 12 13  1  0
 13 14  1  0
 14 15  1  0
 15 16  1  0
 16 17  1  0
 13 18  1  0
 18 19  1  0
  4 20  1  0
 20 21  1  0
 21  2  1  0
 19 10  1  0
 17 13  1  0
A    1
 C1 
A    2
 C2 
A    3
 C3 
A    4
 C4 
A    5
 N1 
A    6
 C5 
A    7
 O1 
A    8
 C6 
A    9
 O2 
A   10
 N2 
A   11
 C7 
A   12
 C8 
A   13
 C9 
A   14
 C10
A   15
 C11
A   16
 C12
A   17
 N3 
A   18
 C13
A   19
 C14
A   20
 C15
A   21
 O3 
M  END
>  <ref_url>  (76) 
https://github.com/stephwills/fragment_network_merges

>  <submitter_name>  (76) 
Steph Wills

>  <submitter_institution>  (76) 
University of Oxford

>  <submitter_email>  (76) 
stephanie.wills@balliol.ox.ac.uk

>  <generation_date>  (76) 
2023-08-10

>  <method>  (76) 
fragnetv3_corrected

>  <original SMILES>  (76) 
CC1CC(NC(=O)C(=O)N2CCC3(CCCN3)CC2)CO1

>  <original_name>  (76) 
x0789_0A-x0771_0A_15

>  <ref_mols>  (76) 
x0789_0A,x0771_0A

>  <ref_pdb>  (76) 
x0789_0A

>  <SuCOS_score>  (76) 
0.30717713221703286

>  <compound ID>  (76) 
ENAMINE:Z3404101981

$$$$
x0789_0A-x0771_0A_24
     RDKit          3D

 19 21  0  0  0  0  0  0  0  0999 V2000
  -10.5170   -3.8300   -4.8510 C   0  0  0  0  0  0  0  0  0  0  0  0
  -11.7700   -4.4720   -4.2520 C   0  0  1  0  0  0  0  0  0  0  0  0
  -12.6700   -5.1200   -5.3010 C   0  0  0  0  0  0  0  0  0  0  0  0
  -13.0230   -6.4600   -4.6910 C   0  0  0  0  0  0  0  0  0  0  0  0
  -11.7490   -6.7750   -3.9330 C   0  0  1  0  0  0  0  0  0  0  0  0
  -10.6150   -7.3750   -4.7820 C   0  0  0  0  0  0  0  0  0  0  0  0
  -10.4150   -8.8940   -4.6360 C   0  0  0  0  0  0  0  0  0  0  0  0
   -9.3110   -9.4650   -5.5390 C   0  0  0  0  0  0  0  0  0  0  0  0
   -9.5590  -10.3560   -6.3570 O   0  0  0  0  0  0  0  0  0  0  0  0
   -8.0180   -8.9530   -5.3890 N   0  0  0  0  0  0  0  0  0  0  0  0
   -7.5470   -8.2070   -4.2180 C   0  0  0  0  0  0  0  0  0  0  0  0
   -7.1910   -6.7810   -4.6140 C   0  0  0  0  0  0  0  0  0  0  0  0
   -7.4080   -6.6170   -6.1170 C   0  0  0  0  0  0  0  0  0  0  0  0
   -7.4810   -5.1440   -6.6110 C   0  0  0  0  0  0  0  0  0  0  0  0
   -8.5710   -5.6530   -7.5010 C   0  0  0  0  0  0  0  0  0  0  0  0
   -8.8460   -6.6870   -6.4900 N   0  0  0  0  0  0  0  0  0  0  0  0
   -6.6320   -7.6440   -6.9550 C   0  0  0  0  0  0  0  0  0  0  0  0
   -7.0680   -9.0400   -6.5070 C   0  0  0  0  0  0  0  0  0  0  0  0
  -11.3580   -5.5180   -3.3530 O   0  0  0  0  0  0  0  0  0  0  0  0
  2  1  1  6
  2  3  1  0
  3  4  1  0
  4  5  1  0
  5  6  1  6
  6  7  1  0
  7  8  1  0
  8  9  2  0
  8 10  1  0
 10 11  1  0
 11 12  1  0
 12 13  1  0
 13 14  1  0
 14 15  1  0
 15 16  1  0
 13 17  1  0
 17 18  1  0
  5 19  1  0
 19  2  1  0
 18 10  1  0
 16 13  1  0
A    1
 C1 
A    2
 C2 
A    3
 C3 
A    4
 C4 
A    5
 C5 
A    6
 C6 
A    7
 C7 
A    8
 C8 
A    9
 O1 
A   10
 N1 
A   11
 C9 
A   12
 C10
A   13
 C11
A   14
 C12
A   15
 C13
A   16
 N2 
A   17
 C14
A   18
 C15
A   19
 O2 
M  END
>  <ref_url>  (77) 
https://github.com/stephwills/fragment_network_merges

>  <submitter_name>  (77) 
Steph Wills

>  <submitter_institution>  (77) 
University of Oxford

>  <submitter_email>  (77) 
stephanie.wills@balliol.ox.ac.uk

>  <generation_date>  (77) 
2023-08-10

>  <method>  (77) 
fragnetv3_corrected

>  <original SMILES>  (77) 
CC1CCC(CCC(=O)N2CCC3(CCN3)CC2)O1

>  <original_name>  (77) 
x0789_0A-x0771_0A_24

>  <ref_mols>  (77) 
x0789_0A,x0771_0A

>  <ref_pdb>  (77) 
x0789_0A

>  <SuCOS_score>  (77) 
0.2938779853411265

>  <compound ID>  (77) 
ENAMINE:Z2441842997

$$$$
x0789_0A-x0771_0A_23
     RDKit          3D

 20 22  0  0  0  0  0  0  0  0999 V2000
  -10.2070   -4.3070   -5.0850 C   0  0  0  0  0  0  0  0  0  0  0  0
  -11.3650   -4.3760   -4.0970 C   0  0  2  0  0  0  0  0  0  0  0  0
  -11.2540   -5.4970   -3.0690 C   0  0  0  0  0  0  0  0  0  0  0  0
  -12.6420   -6.0870   -3.0470 C   0  0  0  0  0  0  0  0  0  0  0  0
  -12.9700   -5.9920   -4.5050 C   0  0  2  0  0  0  0  0  0  0  0  0
  -12.1950   -6.9970   -5.4040 C   0  0  0  0  0  0  0  0  0  0  0  0
  -10.9230   -7.6100   -4.7550 C   0  0  0  0  0  0  0  0  0  0  0  0
  -10.3630   -8.9270   -5.3320 C   0  0  0  0  0  0  0  0  0  0  0  0
  -11.1040   -9.8000   -5.7880 O   0  0  0  0  0  0  0  0  0  0  0  0
   -8.9630   -9.0990   -5.2990 N   0  0  0  0  0  0  0  0  0  0  0  0
   -8.0840   -8.4590   -4.3390 C   0  0  0  0  0  0  0  0  0  0  0  0
   -7.5750   -7.1710   -4.9060 C   0  0  0  0  0  0  0  0  0  0  0  0
   -7.1770   -7.3720   -6.3670 C   0  0  0  0  0  0  0  0  0  0  0  0
   -7.7420   -6.2470   -7.2370 C   0  0  0  0  0  0  0  0  0  0  0  0
   -6.9080   -6.4320   -8.4560 C   0  0  0  0  0  0  0  0  0  0  0  0
   -5.5720   -6.7900   -7.9000 C   0  0  0  0  0  0  0  0  0  0  0  0
   -5.7570   -7.1400   -6.4960 N   0  0  0  0  0  0  0  0  0  0  0  0
   -7.1900   -8.8320   -6.9350 C   0  0  0  0  0  0  0  0  0  0  0  0
   -8.2690   -9.7560   -6.3910 C   0  0  0  0  0  0  0  0  0  0  0  0
  -12.5660   -4.6460   -4.8290 O   0  0  0  0  0  0  0  0  0  0  0  0
  2  1  1  6
  2  3  1  0
  3  4  1  0
  4  5  1  0
  5  6  1  6
  6  7  1  0
  7  8  1  0
  8  9  2  0
  8 10  1  0
 10 11  1  0
 11 12  1  0
 12 13  1  0
 13 14  1  0
 14 15  1  0
 15 16  1  0
 16 17  1  0
 13 18  1  0
 18 19  1  0
  5 20  1  0
 20  2  1  0
 19 10  1  0
 17 13  1  0
A    1
 C1 
A    2
 C2 
A    3
 C3 
A    4
 C4 
A    5
 C5 
A    6
 C6 
A    7
 C7 
A    8
 C8 
A    9
 O1 
A   10
 N1 
A   11
 C9 
A   12
 C10
A   13
 C11
A   14
 C12
A   15
 C13
A   16
 C14
A   17
 N2 
A   18
 C15
A   19
 C16
A   20
 O2 
M  END
>  <ref_url>  (78) 
https://github.com/stephwills/fragment_network_merges

>  <submitter_name>  (78) 
Steph Wills

>  <submitter_institution>  (78) 
University of Oxford

>  <submitter_email>  (78) 
stephanie.wills@balliol.ox.ac.uk

>  <generation_date>  (78) 
2023-08-10

>  <method>  (78) 
fragnetv3_corrected

>  <original SMILES>  (78) 
CC1CCC(CCC(=O)N2CCC3(CCCN3)CC2)O1

>  <original_name>  (78) 
x0789_0A-x0771_0A_23

>  <ref_mols>  (78) 
x0789_0A,x0771_0A

>  <ref_pdb>  (78) 
x0789_0A

>  <SuCOS_score>  (78) 
0.28794967440390185

>  <compound ID>  (78) 
ENAMINE:Z3385512922

$$$$
x0789_0A-x0771_0A_10
     RDKit          3D

 19 22  0  0  0  0  0  0  0  0999 V2000
   -6.8370   -5.8990   -8.2220 C   0  0  0  0  0  0  0  0  0  0  0  0
   -6.0910   -7.1990   -8.2570 C   0  0  0  0  0  0  0  0  0  0  0  0
   -5.7700   -7.3270   -6.8560 N   0  0  0  0  0  0  0  0  0  0  0  0
   -7.1150   -7.2770   -6.2830 C   0  0  0  0  0  0  0  0  0  0  0  0
   -7.8250   -6.1840   -7.1200 C   0  0  0  0  0  0  0  0  0  0  0  0
   -7.0720   -6.8780   -4.8120 C   0  0  0  0  0  0  0  0  0  0  0  0
   -7.9150   -7.8360   -3.9970 C   0  0  0  0  0  0  0  0  0  0  0  0
   -9.1620   -8.2200   -4.6650 N   0  0  0  0  0  0  0  0  0  0  0  0
  -10.0830   -7.0370   -4.9080 C   0  0  0  0  0  0  0  0  0  0  0  0
  -11.0970   -6.5710   -3.7760 C   0  0  2  0  0  0  0  0  0  0  0  0
  -12.5670   -6.8010   -4.0350 C   0  0  0  0  0  0  0  0  0  0  0  0
  -12.7770   -5.7530   -5.0970 C   0  0  0  0  0  0  0  0  0  0  0  0
  -11.9070   -4.5950   -4.6090 C   0  0  2  0  0  0  0  0  0  0  0  0
  -11.0350   -4.0400   -5.6990 C   0  0  0  0  0  0  0  0  0  0  0  0
  -10.8360   -2.5490   -5.8280 C   0  0  0  0  0  0  0  0  0  0  0  0
   -9.7060   -3.4250   -5.3680 C   0  0  0  0  0  0  0  0  0  0  0  0
  -11.0580   -5.1340   -3.5990 O   0  0  0  0  0  0  0  0  0  0  0  0
   -8.8730   -9.0880   -5.8250 C   0  0  0  0  0  0  0  0  0  0  0  0
   -7.5520   -8.7500   -6.4870 C   0  0  0  0  0  0  0  0  0  0  0  0
  1  2  1  0
  2  3  1  0
  3  4  1  0
  4  5  1  0
  4  6  1  0
  6  7  1  0
  7  8  1  0
  8  9  1  0
 10  9  1  6
 10 11  1  0
 11 12  1  0
 12 13  1  0
 13 14  1  6
 14 15  1  0
 15 16  1  0
 13 17  1  0
  8 18  1  0
 18 19  1  0
  5  1  1  0
 17 10  1  0
 19  4  1  0
 16 14  1  0
A    1
 C1 
A    2
 C2 
A    3
 N1 
A    4
 C3 
A    5
 C4 
A    6
 C5 
A    7
 C6 
A    8
 N2 
A    9
 C7 
A   10
 C8 
A   11
 C9 
A   12
 C10
A   13
 C11
A   14
 C12
A   15
 C13
A   16
 C14
A   17
 O1 
A   18
 C15
A   19
 C16
M  END
>  <ref_url>  (79) 
https://github.com/stephwills/fragment_network_merges

>  <submitter_name>  (79) 
Steph Wills

>  <submitter_institution>  (79) 
University of Oxford

>  <submitter_email>  (79) 
stephanie.wills@balliol.ox.ac.uk

>  <generation_date>  (79) 
2023-08-10

>  <method>  (79) 
fragnetv3_corrected

>  <original SMILES>  (79) 
C1CNC2(C1)CCN(CC1CCC(C3CC3)O1)CC2

>  <original_name>  (79) 
x0789_0A-x0771_0A_10

>  <ref_mols>  (79) 
x0789_0A,x0771_0A

>  <ref_pdb>  (79) 
x0789_0A

>  <SuCOS_score>  (79) 
0.2773338383526673

>  <compound ID>  (79) 
ENAMINE:Z3364807265

$$$$
x0789_0A-x0771_0A_22
     RDKit          3D

 17 19  0  0  0  0  0  0  0  0999 V2000
  -14.7230   -6.2370   -4.1970 F   0  0  0  0  0  0  0  0  0  0  0  0
  -13.3970   -6.1350   -3.9870 C   0  0  0  0  0  0  0  0  0  0  0  0
  -13.0130   -7.1910   -3.2310 F   0  0  0  0  0  0  0  0  0  0  0  0
  -13.0030   -4.8330   -3.3440 C   0  0  0  0  0  0  0  0  0  0  0  0
  -11.6340   -4.6010   -3.7440 O   0  0  0  0  0  0  0  0  0  0  0  0
  -11.2960   -5.5430   -4.8060 C   0  0  1  0  0  0  0  0  0  0  0  0
  -10.4240   -6.7380   -4.3480 C   0  0  0  0  0  0  0  0  0  0  0  0
   -9.1720   -7.0650   -5.1030 N   0  0  0  0  0  0  0  0  0  0  0  0
   -8.0190   -6.9490   -4.2290 C   0  0  0  0  0  0  0  0  0  0  0  0
   -6.8730   -6.5080   -5.0690 C   0  0  0  0  0  0  0  0  0  0  0  0
   -7.0930   -7.0590   -6.4610 C   0  0  0  0  0  0  0  0  0  0  0  0
   -7.7550   -6.0570   -7.4340 C   0  0  0  0  0  0  0  0  0  0  0  0
   -6.7760   -6.6460   -8.4510 C   0  0  0  0  0  0  0  0  0  0  0  0
   -5.9060   -7.0320   -7.3340 N   0  0  0  0  0  0  0  0  0  0  0  0
   -7.6480   -8.4890   -6.3910 C   0  0  0  0  0  0  0  0  0  0  0  0
   -9.0170   -8.4290   -5.7060 C   0  0  0  0  0  0  0  0  0  0  0  0
  -12.6290   -6.0910   -5.2760 C   0  0  0  0  0  0  0  0  0  0  0  0
  1  2  1  0
  2  3  1  0
  2  4  1  0
  4  5  1  0
  5  6  1  0
  6  7  1  1
  7  8  1  0
  8  9  1  0
  9 10  1  0
 10 11  1  0
 11 12  1  0
 12 13  1  0
 13 14  1  0
 11 15  1  0
 15 16  1  0
  6 17  1  0
 17  2  1  0
 16  8  1  0
 14 11  1  0
A    1
 F1 
A    2
 C1 
A    3
 F2 
A    4
 C2 
A    5
 O1 
A    6
 C3 
A    7
 C4 
A    8
 N1 
A    9
 C5 
A   10
 C6 
A   11
 C7 
A   12
 C8 
A   13
 C9 
A   14
 N2 
A   15
 C10
A   16
 C11
A   17
 C12
M  END
>  <ref_url>  (80) 
https://github.com/stephwills/fragment_network_merges

>  <submitter_name>  (80) 
Steph Wills

>  <submitter_institution>  (80) 
University of Oxford

>  <submitter_email>  (80) 
stephanie.wills@balliol.ox.ac.uk

>  <generation_date>  (80) 
2023-08-10

>  <method>  (80) 
fragnetv3_corrected

>  <original SMILES>  (80) 
FC1(F)COC(CN2CCC3(CCN3)CC2)C1

>  <original_name>  (80) 
x0789_0A-x0771_0A_22

>  <ref_mols>  (80) 
x0789_0A,x0771_0A

>  <ref_pdb>  (80) 
x0789_0A

>  <SuCOS_score>  (80) 
0.266528383022115

>  <compound ID>  (80) 
ENAMINE:Z2996425015

$$$$
x0789_0A-x0771_0A_21
     RDKit          3D

 18 20  0  0  0  0  0  0  0  0999 V2000
  -12.7730   -6.0900   -6.2420 F   0  0  0  0  0  0  0  0  0  0  0  0
  -12.9080   -5.6060   -4.9860 C   0  0  0  0  0  0  0  0  0  0  0  0
  -14.1240   -5.0320   -4.9070 F   0  0  0  0  0  0  0  0  0  0  0  0
  -11.7920   -4.6320   -4.6520 C   0  0  0  0  0  0  0  0  0  0  0  0
  -10.9900   -5.2720   -3.6580 O   0  0  0  0  0  0  0  0  0  0  0  0
  -11.2600   -6.6930   -3.8030 C   0  0  2  0  0  0  0  0  0  0  0  0
  -10.4200   -7.3440   -4.9820 C   0  0  0  0  0  0  0  0  0  0  0  0
   -9.3870   -8.4070   -4.6540 N   0  0  0  0  0  0  0  0  0  0  0  0
   -8.2330   -7.9030   -3.9460 C   0  0  0  0  0  0  0  0  0  0  0  0
   -7.6830   -6.7200   -4.7000 C   0  0  0  0  0  0  0  0  0  0  0  0
   -7.3240   -7.1370   -6.1200 C   0  0  0  0  0  0  0  0  0  0  0  0
   -7.7650   -6.0950   -7.1580 C   0  0  0  0  0  0  0  0  0  0  0  0
   -6.8100   -6.3450   -8.2880 C   0  0  0  0  0  0  0  0  0  0  0  0
   -5.7700   -7.2510   -7.7140 C   0  0  0  0  0  0  0  0  0  0  0  0
   -5.9020   -7.1270   -6.2910 N   0  0  0  0  0  0  0  0  0  0  0  0
   -7.5940   -8.6250   -6.4290 C   0  0  0  0  0  0  0  0  0  0  0  0
   -8.8960   -9.1720   -5.8320 C   0  0  0  0  0  0  0  0  0  0  0  0
  -12.7610   -6.7060   -3.9740 C   0  0  0  0  0  0  0  0  0  0  0  0
  1  2  1  0
  2  3  1  0
  2  4  1  0
  4  5  1  0
  5  6  1  0
  6  7  1  6
  7  8  1  0
  8  9  1  0
  9 10  1  0
 10 11  1  0
 11 12  1  0
 12 13  1  0
 13 14  1  0
 14 15  1  0
 11 16  1  0
 16 17  1  0
  6 18  1  0
 18  2  1  0
 17  8  1  0
 15 11  1  0
A    1
 F1 
A    2
 C1 
A    3
 F2 
A    4
 C2 
A    5
 O1 
A    6
 C3 
A    7
 C4 
A    8
 N1 
A    9
 C5 
A   10
 C6 
A   11
 C7 
A   12
 C8 
A   13
 C9 
A   14
 C10
A   15
 N2 
A   16
 C11
A   17
 C12
A   18
 C13
M  END
>  <ref_url>  (81) 
https://github.com/stephwills/fragment_network_merges

>  <submitter_name>  (81) 
Steph Wills

>  <submitter_institution>  (81) 
University of Oxford

>  <submitter_email>  (81) 
stephanie.wills@balliol.ox.ac.uk

>  <generation_date>  (81) 
2023-08-10

>  <method>  (81) 
fragnetv3_corrected

>  <original SMILES>  (81) 
FC1(F)COC(CN2CCC3(CCCN3)CC2)C1

>  <original_name>  (81) 
x0789_0A-x0771_0A_21

>  <ref_mols>  (81) 
x0789_0A,x0771_0A

>  <ref_pdb>  (81) 
x0789_0A

>  <SuCOS_score>  (81) 
0.24642377065630272

>  <compound ID>  (81) 
ENAMINE:Z3364807329

$$$$
x0980_0B-x0771_0A_3
     RDKit          3D

 22 24  0  0  0  0  0  0  0  0999 V2000
  -12.6180   -6.4010   -4.1570 C   0  0  0  0  0  0  0  0  0  0  0  0
  -12.7110   -4.9080   -4.1850 C   0  0  0  0  0  0  0  0  0  0  0  0
  -13.4920   -4.1730   -3.3100 C   0  0  0  0  0  0  0  0  0  0  0  0
  -13.5530   -2.7830   -3.3780 C   0  0  0  0  0  0  0  0  0  0  0  0
  -12.8290   -2.1150   -4.3190 C   0  0  0  0  0  0  0  0  0  0  0  0
  -12.9230   -0.7750   -4.3460 F   0  0  0  0  0  0  0  0  0  0  0  0
  -12.0260   -2.8430   -5.2050 C   0  0  0  0  0  0  0  0  0  0  0  0
  -11.1600   -2.2090   -6.2800 C   0  0  0  0  0  0  0  0  0  0  0  0
  -10.6590   -3.2380   -7.3090 C   0  0  0  0  0  0  0  0  0  0  0  0
  -11.4500   -3.9230   -7.9080 O   0  0  0  0  0  0  0  0  0  0  0  0
   -9.2860   -3.3520   -7.5480 N   0  0  0  0  0  0  0  0  0  0  0  0
   -8.3460   -4.1700   -6.7560 C   0  0  1  0  0  0  0  0  0  0  0  0
   -8.9160   -4.7180   -5.4660 C   0  0  0  0  0  0  0  0  0  0  0  0
   -7.9120   -5.6340   -4.7850 C   0  0  0  0  0  0  0  0  0  0  0  0
   -7.9090   -6.9450   -5.5230 C   0  0  2  0  0  0  0  0  0  0  0  0
   -9.2790   -7.5730   -5.2630 C   0  0  0  0  0  0  0  0  0  0  0  0
   -8.9740   -9.0220   -5.1150 C   0  0  0  0  0  0  0  0  0  0  0  0
   -7.6520   -8.9760   -4.3800 C   0  0  0  0  0  0  0  0  0  0  0  0
   -6.9200   -7.9360   -5.0550 N   0  0  0  0  0  0  0  0  0  0  0  0
   -7.7770   -6.6630   -6.9950 C   0  0  0  0  0  0  0  0  0  0  0  0
   -7.5580   -5.2480   -7.5100 C   0  0  0  0  0  0  0  0  0  0  0  0
  -11.9930   -4.2270   -5.1150 C   0  0  0  0  0  0  0  0  0  0  0  0
  1  2  1  0
  2  3  2  0
  3  4  1  0
  4  5  2  0
  5  6  1  0
  5  7  1  0
  7  8  1  0
  8  9  1  0
  9 10  2  0
  9 11  1  0
 12 11  1  6
 12 13  1  0
 13 14  1  0
 15 14  1  1
 15 16  1  0
 16 17  1  0
 17 18  1  0
 18 19  1  0
 15 20  1  0
 20 21  1  0
  7 22  2  0
 22  2  1  0
 21 12  1  0
 19 15  1  0
A    1
 C1 
A    2
 C2 
A    3
 C3 
A    4
 C4 
A    5
 C5 
A    6
 F1 
A    7
 C6 
A    8
 C7 
A    9
 C8 
A   10
 O1 
A   11
 N1 
A   12
 C9 
A   13
 C10
A   14
 C11
A   15
 C12
A   16
 C13
A   17
 C14
A   18
 C15
A   19
 N2 
A   20
 C16
A   21
 C17
A   22
 C18
M  END
>  <ref_url>  (82) 
https://github.com/stephwills/fragment_network_merges

>  <submitter_name>  (82) 
Steph Wills

>  <submitter_institution>  (82) 
University of Oxford

>  <submitter_email>  (82) 
stephanie.wills@balliol.ox.ac.uk

>  <generation_date>  (82) 
2023-08-10

>  <method>  (82) 
fragnetv3_corrected

>  <original SMILES>  (82) 
Cc1ccc(F)c(CC(=O)NC2CCC3(CCCN3)CC2)c1

>  <original_name>  (82) 
x0980_0B-x0771_0A_3

>  <ref_mols>  (82) 
x0980_0B,x0771_0A

>  <ref_pdb>  (82) 
x0980_0B

>  <SuCOS_score>  (82) 
0.4460752433024826

>  <compound ID>  (82) 
ENAMINE:Z4056126651

$$$$
x0980_0B-x0771_0A_45
     RDKit          3D

 21 23  0  0  0  0  0  0  0  0999 V2000
  -14.3590   -5.7120   -3.7090 C   0  0  0  0  0  0  0  0  0  0  0  0
  -13.5620   -4.4840   -4.0210 C   0  0  0  0  0  0  0  0  0  0  0  0
  -14.0770   -3.2160   -3.7350 C   0  0  0  0  0  0  0  0  0  0  0  0
  -13.3260   -2.0860   -4.0370 C   0  0  0  0  0  0  0  0  0  0  0  0
  -13.8350   -0.8760   -3.7600 F   0  0  0  0  0  0  0  0  0  0  0  0
  -12.0660   -2.1870   -4.6170 C   0  0  0  0  0  0  0  0  0  0  0  0
  -11.5230   -3.4410   -4.9100 C   0  0  0  0  0  0  0  0  0  0  0  0
  -10.2330   -3.6140   -5.4900 N   0  0  0  0  0  0  0  0  0  0  0  0
   -9.8370   -4.0330   -6.7650 C   0  0  0  0  0  0  0  0  0  0  0  0
  -10.5420   -3.9540   -7.7880 O   0  0  0  0  0  0  0  0  0  0  0  0
   -8.3510   -4.5430   -6.6980 C   0  0  2  0  0  0  0  0  0  0  0  0
   -7.8980   -5.6790   -7.6360 C   0  0  0  0  0  0  0  0  0  0  0  0
   -7.1090   -6.7250   -6.8740 C   0  0  0  0  0  0  0  0  0  0  0  0
   -7.8960   -7.2610   -5.6760 C   0  0  1  0  0  0  0  0  0  0  0  0
   -9.3210   -7.6990   -5.9900 C   0  0  0  0  0  0  0  0  0  0  0  0
   -9.4500   -9.0750   -5.3990 C   0  0  0  0  0  0  0  0  0  0  0  0
   -8.3130   -9.1200   -4.4020 C   0  0  0  0  0  0  0  0  0  0  0  0
   -7.2280   -8.4250   -5.0600 N   0  0  0  0  0  0  0  0  0  0  0  0
   -8.0420   -6.1710   -4.6340 C   0  0  0  0  0  0  0  0  0  0  0  0
   -7.9430   -4.7740   -5.2110 C   0  0  0  0  0  0  0  0  0  0  0  0
  -12.2850   -4.5880   -4.6060 C   0  0  0  0  0  0  0  0  0  0  0  0
  1  2  1  0
  2  3  2  0
  3  4  1  0
  4  5  1  0
  4  6  2  0
  6  7  1  0
  7  8  1  0
  8  9  1  0
  9 10  2  0
 11  9  1  1
 11 12  1  0
 12 13  1  0
 14 13  1  6
 14 15  1  0
 15 16  1  0
 16 17  1  0
 17 18  1  0
 14 19  1  0
 19 20  1  0
  7 21  2  0
 21  2  1  0
 20 11  1  0
 18 14  1  0
A    1
 C1 
A    2
 C2 
A    3
 C3 
A    4
 C4 
A    5
 F1 
A    6
 C5 
A    7
 C6 
A    8
 N1 
A    9
 C7 
A   10
 O1 
A   11
 C8 
A   12
 C9 
A   13
 C10
A   14
 C11
A   15
 C12
A   16
 C13
A   17
 C14
A   18
 N2 
A   19
 C15
A   20
 C16
A   21
 C17
M  END
>  <ref_url>  (83) 
https://github.com/stephwills/fragment_network_merges

>  <submitter_name>  (83) 
Steph Wills

>  <submitter_institution>  (83) 
University of Oxford

>  <submitter_email>  (83) 
stephanie.wills@balliol.ox.ac.uk

>  <generation_date>  (83) 
2023-08-10

>  <method>  (83) 
fragnetv3_corrected

>  <original SMILES>  (83) 
Cc1cc(F)cc(NC(=O)C2CCC3(CCCN3)CC2)c1

>  <original_name>  (83) 
x0980_0B-x0771_0A_45

>  <ref_mols>  (83) 
x0980_0B,x0771_0A

>  <ref_pdb>  (83) 
x0980_0B

>  <SuCOS_score>  (83) 
0.4370879107901077

>  <compound ID>  (83) 
ENAMINE:Z3792826215

$$$$
x0980_0B-x0771_0A_44
     RDKit          3D

 22 24  0  0  0  0  0  0  0  0999 V2000
  -15.3470   -3.1760   -2.9590 C   0  0  0  0  0  0  0  0  0  0  0  0
  -14.0300   -3.2640   -3.6570 C   0  0  0  0  0  0  0  0  0  0  0  0
  -13.4510   -4.4980   -3.9510 C   0  0  0  0  0  0  0  0  0  0  0  0
  -14.0850   -5.6270   -3.6000 F   0  0  0  0  0  0  0  0  0  0  0  0
  -12.2150   -4.5990   -4.6070 C   0  0  0  0  0  0  0  0  0  0  0  0
  -11.5230   -3.4420   -4.9890 C   0  0  0  0  0  0  0  0  0  0  0  0
  -10.2560   -3.4030   -5.6480 N   0  0  0  0  0  0  0  0  0  0  0  0
   -9.8030   -3.9400   -6.8620 C   0  0  0  0  0  0  0  0  0  0  0  0
  -10.4380   -3.9000   -7.9290 O   0  0  0  0  0  0  0  0  0  0  0  0
   -8.3640   -4.5450   -6.6840 C   0  0  1  0  0  0  0  0  0  0  0  0
   -8.1840   -4.8150   -5.1700 C   0  0  0  0  0  0  0  0  0  0  0  0
   -7.5560   -6.1160   -4.7010 C   0  0  0  0  0  0  0  0  0  0  0  0
   -7.6540   -7.2280   -5.7100 C   0  0  2  0  0  0  0  0  0  0  0  0
   -9.1320   -7.5690   -5.9120 C   0  0  0  0  0  0  0  0  0  0  0  0
   -9.2910   -8.9500   -5.3430 C   0  0  0  0  0  0  0  0  0  0  0  0
   -8.1210   -9.0540   -4.3950 C   0  0  0  0  0  0  0  0  0  0  0  0
   -7.0320   -8.4200   -5.1060 N   0  0  0  0  0  0  0  0  0  0  0  0
   -6.9900   -6.7160   -6.9730 C   0  0  0  0  0  0  0  0  0  0  0  0
   -7.8720   -5.6610   -7.6430 C   0  0  0  0  0  0  0  0  0  0  0  0
  -12.1030   -2.1990   -4.6960 C   0  0  0  0  0  0  0  0  0  0  0  0
  -13.3350   -2.1210   -4.0420 C   0  0  0  0  0  0  0  0  0  0  0  0
  -13.8510   -0.9090   -3.7830 F   0  0  0  0  0  0  0  0  0  0  0  0
  1  2  1  0
  2  3  2  0
  3  4  1  0
  3  5  1  0
  5  6  2  0
  6  7  1  0
  7  8  1  0
  8  9  2  0
 10  8  1  1
 10 11  1  0
 11 12  1  0
 13 12  1  1
 13 14  1  0
 14 15  1  0
 15 16  1  0
 16 17  1  0
 13 18  1  0
 18 19  1  0
  6 20  1  0
 20 21  2  0
 21 22  1  0
 21  2  1  0
 19 10  1  0
 17 13  1  0
A    1
 C1 
A    2
 C2 
A    3
 C3 
A    4
 F1 
A    5
 C4 
A    6
 C5 
A    7
 N1 
A    8
 C6 
A    9
 O1 
A   10
 C7 
A   11
 C8 
A   12
 C9 
A   13
 C10
A   14
 C11
A   15
 C12
A   16
 C13
A   17
 N2 
A   18
 C14
A   19
 C15
A   20
 C16
A   21
 C17
A   22
 F2 
M  END
>  <ref_url>  (84) 
https://github.com/stephwills/fragment_network_merges

>  <submitter_name>  (84) 
Steph Wills

>  <submitter_institution>  (84) 
University of Oxford

>  <submitter_email>  (84) 
stephanie.wills@balliol.ox.ac.uk

>  <generation_date>  (84) 
2023-08-10

>  <method>  (84) 
fragnetv3_corrected

>  <original SMILES>  (84) 
Cc1c(F)cc(NC(=O)C2CCC3(CCCN3)CC2)cc1F

>  <original_name>  (84) 
x0980_0B-x0771_0A_44

>  <ref_mols>  (84) 
x0980_0B,x0771_0A

>  <ref_pdb>  (84) 
x0980_0B

>  <SuCOS_score>  (84) 
0.4344280871796561

>  <compound ID>  (84) 
ENAMINE:Z4215705038

$$$$
x0980_0B-x0771_0A_47
     RDKit          3D

 22 24  0  0  0  0  0  0  0  0999 V2000
  -15.7360   -1.7610   -2.5610 C   0  0  0  0  0  0  0  0  0  0  0  0
  -15.3310   -3.1880   -2.8980 C   0  0  0  0  0  0  0  0  0  0  0  0
  -14.0120   -3.2620   -3.6260 C   0  0  0  0  0  0  0  0  0  0  0  0
  -13.4390   -4.5030   -3.9290 C   0  0  0  0  0  0  0  0  0  0  0  0
  -12.2080   -4.5850   -4.6050 C   0  0  0  0  0  0  0  0  0  0  0  0
  -11.5200   -3.4250   -4.9910 C   0  0  0  0  0  0  0  0  0  0  0  0
  -10.2590   -3.3820   -5.6650 N   0  0  0  0  0  0  0  0  0  0  0  0
   -9.8130   -3.9190   -6.8840 C   0  0  0  0  0  0  0  0  0  0  0  0
  -10.4420   -3.8570   -7.9510 O   0  0  0  0  0  0  0  0  0  0  0  0
   -8.3910   -4.5460   -6.6620 C   0  0  2  0  0  0  0  0  0  0  0  0
   -7.8880   -5.6460   -7.6400 C   0  0  0  0  0  0  0  0  0  0  0  0
   -7.0030   -6.6980   -6.9730 C   0  0  0  0  0  0  0  0  0  0  0  0
   -7.6600   -7.2270   -5.7080 C   0  0  1  0  0  0  0  0  0  0  0  0
   -9.1410   -7.5650   -5.8940 C   0  0  0  0  0  0  0  0  0  0  0  0
   -9.2730   -8.9490   -5.3290 C   0  0  0  0  0  0  0  0  0  0  0  0
   -8.0960   -9.0380   -4.3810 C   0  0  0  0  0  0  0  0  0  0  0  0
   -7.0160   -8.4060   -5.1100 N   0  0  0  0  0  0  0  0  0  0  0  0
   -7.5540   -6.1110   -4.7170 C   0  0  0  0  0  0  0  0  0  0  0  0
   -8.3880   -4.9290   -5.1600 C   0  0  0  0  0  0  0  0  0  0  0  0
  -12.0990   -2.1850   -4.6880 C   0  0  0  0  0  0  0  0  0  0  0  0
  -13.3220   -2.1110   -4.0190 C   0  0  0  0  0  0  0  0  0  0  0  0
  -13.8300   -0.8970   -3.7540 F   0  0  0  0  0  0  0  0  0  0  0  0
  1  2  1  0
  2  3  1  0
  3  4  2  0
  4  5  1  0
  5  6  2  0
  6  7  1  0
  7  8  1  0
  8  9  2  0
 10  8  1  6
 10 11  1  0
 11 12  1  0
 13 12  1  6
 13 14  1  0
 14 15  1  0
 15 16  1  0
 16 17  1  0
 13 18  1  0
 18 19  1  0
  6 20  1  0
 20 21  2  0
 21 22  1  0
 21  3  1  0
 19 10  1  0
 17 13  1  0
A    1
 C1 
A    2
 C2 
A    3
 C3 
A    4
 C4 
A    5
 C5 
A    6
 C6 
A    7
 N1 
A    8
 C7 
A    9
 O1 
A   10
 C8 
A   11
 C9 
A   12
 C10
A   13
 C11
A   14
 C12
A   15
 C13
A   16
 C14
A   17
 N2 
A   18
 C15
A   19
 C16
A   20
 C17
A   21
 C18
A   22
 F1 
M  END
>  <ref_url>  (85) 
https://github.com/stephwills/fragment_network_merges

>  <submitter_name>  (85) 
Steph Wills

>  <submitter_institution>  (85) 
University of Oxford

>  <submitter_email>  (85) 
stephanie.wills@balliol.ox.ac.uk

>  <generation_date>  (85) 
2023-08-10

>  <method>  (85) 
fragnetv3_corrected

>  <original SMILES>  (85) 
CCc1ccc(NC(=O)C2CCC3(CCCN3)CC2)cc1F

>  <original_name>  (85) 
x0980_0B-x0771_0A_47

>  <ref_mols>  (85) 
x0980_0B,x0771_0A

>  <ref_pdb>  (85) 
x0980_0B

>  <SuCOS_score>  (85) 
0.43262802216760177

>  <compound ID>  (85) 
ENAMINE:PV-003544787522

$$$$
x0980_0B-x0771_0A_48
     RDKit          3D

 21 23  0  0  0  0  0  0  0  0999 V2000
  -10.9800   -3.5410   -7.9070 O   0  0  0  0  0  0  0  0  0  0  0  0
  -10.1440   -3.6320   -7.0080 C   0  0  0  0  0  0  0  0  0  0  0  0
  -10.4140   -3.5270   -5.6500 N   0  0  0  0  0  0  0  0  0  0  0  0
  -11.6600   -3.4580   -4.9740 C   0  0  0  0  0  0  0  0  0  0  0  0
  -12.3970   -4.5850   -4.5710 C   0  0  0  0  0  0  0  0  0  0  0  0
  -13.6180   -4.4420   -3.8970 C   0  0  0  0  0  0  0  0  0  0  0  0
  -14.1070   -3.1710   -3.6250 C   0  0  0  0  0  0  0  0  0  0  0  0
  -15.2760   -3.0380   -2.9800 F   0  0  0  0  0  0  0  0  0  0  0  0
  -13.3880   -2.0500   -4.0210 C   0  0  0  0  0  0  0  0  0  0  0  0
  -13.8620   -0.8240   -3.7590 F   0  0  0  0  0  0  0  0  0  0  0  0
  -12.1710   -2.1830   -4.6920 C   0  0  0  0  0  0  0  0  0  0  0  0
   -8.7790   -3.8710   -7.2580 N   0  0  0  0  0  0  0  0  0  0  0  0
   -8.1310   -3.3720   -8.4810 C   0  0  0  0  0  0  0  0  0  0  0  0
   -6.7550   -4.0200   -8.8700 C   0  0  0  0  0  0  0  0  0  0  0  0
   -6.5410   -5.5290   -8.5260 C   0  0  0  0  0  0  0  0  0  0  0  0
   -5.1280   -6.0120   -8.1520 C   0  0  0  0  0  0  0  0  0  0  0  0
   -4.6200   -7.0540   -9.0750 C   0  0  0  0  0  0  0  0  0  0  0  0
   -5.5190   -6.9110  -10.2270 C   0  0  0  0  0  0  0  0  0  0  0  0
   -6.7130   -6.3070   -9.7320 N   0  0  0  0  0  0  0  0  0  0  0  0
   -7.5500   -5.9570   -7.4290 C   0  0  0  0  0  0  0  0  0  0  0  0
   -8.0160   -4.8380   -6.5150 C   0  0  0  0  0  0  0  0  0  0  0  0
  1  2  2  0
  2  3  1  0
  3  4  1  0
  4  5  2  0
  5  6  1  0
  6  7  2  0
  7  8  1  0
  7  9  1  0
  9 10  1  0
  9 11  2  0
  2 12  1  0
 12 13  1  0
 13 14  1  0
 14 15  1  0
 15 16  1  0
 16 17  1  0
 17 18  1  0
 18 19  1  0
 15 20  1  0
 20 21  1  0
 11  4  1  0
 21 12  1  0
 19 15  1  0
A    1
 O1 
A    2
 C1 
A    3
 N1 
A    4
 C2 
A    5
 C3 
A    6
 C4 
A    7
 C5 
A    8
 F1 
A    9
 C6 
A   10
 F2 
A   11
 C7 
A   12
 N2 
A   13
 C8 
A   14
 C9 
A   15
 C10
A   16
 C11
A   17
 C12
A   18
 C13
A   19
 N3 
A   20
 C14
A   21
 C15
M  END
>  <ref_url>  (86) 
https://github.com/stephwills/fragment_network_merges

>  <submitter_name>  (86) 
Steph Wills

>  <submitter_institution>  (86) 
University of Oxford

>  <submitter_email>  (86) 
stephanie.wills@balliol.ox.ac.uk

>  <generation_date>  (86) 
2023-08-10

>  <method>  (86) 
fragnetv3_corrected

>  <original SMILES>  (86) 
O=C(Nc1ccc(F)c(F)c1)N1CCC2(CCCN2)CC1

>  <original_name>  (86) 
x0980_0B-x0771_0A_48

>  <ref_mols>  (86) 
x0980_0B,x0771_0A

>  <ref_pdb>  (86) 
x0980_0B

>  <SuCOS_score>  (86) 
0.4187903381509927

>  <compound ID>  (86) 
ENAMINE:Z3294198681

$$$$
x0980_0B-x0771_0A_49
     RDKit          3D

 24 26  0  0  0  0  0  0  0  0999 V2000
  -12.5410   -8.0280   -6.3240 C   0  0  0  0  0  0  0  0  0  0  0  0
  -13.3100   -6.8380   -5.7510 C   0  0  0  0  0  0  0  0  0  0  0  0
  -13.5930   -5.8270   -6.8720 C   0  0  0  0  0  0  0  0  0  0  0  0
  -12.5100   -6.1670   -4.7060 N   0  0  0  0  0  0  0  0  0  0  0  0
  -12.7560   -4.7880   -4.4880 C   0  0  0  0  0  0  0  0  0  0  0  0
  -13.9200   -4.3450   -3.8600 C   0  0  0  0  0  0  0  0  0  0  0  0
  -14.1400   -2.9880   -3.6650 C   0  0  0  0  0  0  0  0  0  0  0  0
  -13.1960   -2.0670   -4.0970 C   0  0  0  0  0  0  0  0  0  0  0  0
  -13.4480   -0.7680   -3.8920 F   0  0  0  0  0  0  0  0  0  0  0  0
  -12.0120   -2.4720   -4.7290 C   0  0  0  0  0  0  0  0  0  0  0  0
  -11.7840   -3.8440   -4.9280 C   0  0  0  0  0  0  0  0  0  0  0  0
  -10.6430   -4.4440   -5.5390 N   0  0  0  0  0  0  0  0  0  0  0  0
   -9.9470   -4.2010   -6.7190 C   0  0  0  0  0  0  0  0  0  0  0  0
  -10.4480   -3.8130   -7.7960 O   0  0  0  0  0  0  0  0  0  0  0  0
   -8.4190   -4.4580   -6.4920 C   0  0  1  0  0  0  0  0  0  0  0  0
   -8.0860   -4.7600   -5.0120 C   0  0  0  0  0  0  0  0  0  0  0  0
   -8.2470   -6.2070   -4.5720 C   0  0  0  0  0  0  0  0  0  0  0  0
   -7.4910   -7.1950   -5.4620 C   0  0  1  0  0  0  0  0  0  0  0  0
   -5.9840   -7.3400   -5.2090 C   0  0  0  0  0  0  0  0  0  0  0  0
   -5.7590   -8.7480   -4.7520 C   0  0  0  0  0  0  0  0  0  0  0  0
   -7.1070   -9.1440   -4.2310 C   0  0  0  0  0  0  0  0  0  0  0  0
   -8.0280   -8.5510   -5.1770 N   0  0  0  0  0  0  0  0  0  0  0  0
   -7.6970   -6.8610   -6.9120 C   0  0  0  0  0  0  0  0  0  0  0  0
   -7.7110   -5.4380   -7.4250 C   0  0  0  0  0  0  0  0  0  0  0  0
  1  2  1  0
  2  3  1  0
  2  4  1  0
  4  5  1  0
  5  6  2  0
  6  7  1  0
  7  8  2  0
  8  9  1  0
  8 10  1  0
 10 11  2  0
 11 12  1  0
 12 13  1  0
 13 14  2  0
 15 13  1  1
 15 16  1  0
 16 17  1  0
 18 17  1  1
 18 19  1  0
 19 20  1  0
 20 21  1  0
 21 22  1  0
 18 23  1  0
 23 24  1  0
 11  5  1  0
 24 15  1  0
 22 18  1  0
A    1
 C1 
A    2
 C2 
A    3
 C3 
A    4
 N1 
A    5
 C4 
A    6
 C5 
A    7
 C6 
A    8
 C7 
A    9
 F1 
A   10
 C8 
A   11
 C9 
A   12
 N2 
A   13
 C10
A   14
 O1 
A   15
 C11
A   16
 C12
A   17
 C13
A   18
 C14
A   19
 C15
A   20
 C16
A   21
 C17
A   22
 N3 
A   23
 C18
A   24
 C19
M  END
>  <ref_url>  (87) 
https://github.com/stephwills/fragment_network_merges

>  <submitter_name>  (87) 
Steph Wills

>  <submitter_institution>  (87) 
University of Oxford

>  <submitter_email>  (87) 
stephanie.wills@balliol.ox.ac.uk

>  <generation_date>  (87) 
2023-08-10

>  <method>  (87) 
fragnetv3_corrected

>  <original SMILES>  (87) 
CC(C)Nc1ccc(F)cc1NC(=O)C1CCC2(CCCN2)CC1

>  <original_name>  (87) 
x0980_0B-x0771_0A_49

>  <ref_mols>  (87) 
x0980_0B,x0771_0A

>  <ref_pdb>  (87) 
x0980_0B

>  <SuCOS_score>  (87) 
0.4172726953448194

>  <compound ID>  (87) 
ENAMINE:Z3791940209

$$$$
x0980_0B-x0771_0A_42
     RDKit          3D

 20 22  0  0  0  0  0  0  0  0999 V2000
  -11.3120   -3.5250   -7.6470 O   0  0  0  0  0  0  0  0  0  0  0  0
  -10.5440   -3.6090   -6.6800 C   0  0  0  0  0  0  0  0  0  0  0  0
  -10.8170   -3.4690   -5.3600 N   0  0  0  0  0  0  0  0  0  0  0  0
  -12.0310   -3.3120   -4.7300 C   0  0  0  0  0  0  0  0  0  0  0  0
  -12.7180   -4.4720   -4.3510 C   0  0  0  0  0  0  0  0  0  0  0  0
  -13.9480   -4.3750   -3.7040 C   0  0  0  0  0  0  0  0  0  0  0  0
  -14.4820   -3.1160   -3.4390 C   0  0  0  0  0  0  0  0  0  0  0  0
  -13.7820   -1.9760   -3.8250 C   0  0  0  0  0  0  0  0  0  0  0  0
  -14.2940   -0.7680   -3.5710 F   0  0  0  0  0  0  0  0  0  0  0  0
  -12.5630   -2.0640   -4.4670 C   0  0  0  0  0  0  0  0  0  0  0  0
   -9.2210   -3.8860   -6.7980 N   0  0  0  0  0  0  0  0  0  0  0  0
   -8.7860   -4.8440   -5.7860 C   0  0  0  0  0  0  0  0  0  0  0  0
   -7.3310   -5.2910   -5.9330 C   0  0  0  0  0  0  0  0  0  0  0  0
   -6.9320   -5.7250   -7.3650 C   0  0  0  0  0  0  0  0  0  0  0  0
   -6.1300   -4.9170   -8.4110 C   0  0  0  0  0  0  0  0  0  0  0  0
   -5.7640   -5.9690   -9.4140 C   0  0  0  0  0  0  0  0  0  0  0  0
   -5.2390   -7.0090   -8.4640 C   0  0  0  0  0  0  0  0  0  0  0  0
   -6.3120   -7.0610   -7.4710 N   0  0  0  0  0  0  0  0  0  0  0  0
   -8.2830   -5.6690   -7.9030 C   0  0  0  0  0  0  0  0  0  0  0  0
   -8.6830   -4.2220   -8.0460 C   0  0  0  0  0  0  0  0  0  0  0  0
  1  2  2  0
  2  3  1  0
  3  4  1  0
  4  5  2  0
  5  6  1  0
  6  7  2  0
  7  8  1  0
  8  9  1  0
  8 10  2  0
  2 11  1  0
 11 12  1  0
 12 13  1  0
 13 14  1  0
 14 15  1  0
 15 16  1  0
 16 17  1  0
 17 18  1  0
 14 19  1  0
 19 20  1  0
 10  4  1  0
 20 11  1  0
 18 14  1  0
A    1
 O1 
A    2
 C1 
A    3
 N1 
A    4
 C2 
A    5
 C3 
A    6
 C4 
A    7
 C5 
A    8
 C6 
A    9
 F1 
A   10
 C7 
A   11
 N2 
A   12
 C8 
A   13
 C9 
A   14
 C10
A   15
 C11
A   16
 C12
A   17
 C13
A   18
 N3 
A   19
 C14
A   20
 C15
M  END
>  <ref_url>  (88) 
https://github.com/stephwills/fragment_network_merges

>  <submitter_name>  (88) 
Steph Wills

>  <submitter_institution>  (88) 
University of Oxford

>  <submitter_email>  (88) 
stephanie.wills@balliol.ox.ac.uk

>  <generation_date>  (88) 
2023-08-10

>  <method>  (88) 
fragnetv3_corrected

>  <original SMILES>  (88) 
O=C(Nc1cccc(F)c1)N1CCC2(CCCN2)CC1

>  <original_name>  (88) 
x0980_0B-x0771_0A_42

>  <ref_mols>  (88) 
x0980_0B,x0771_0A

>  <ref_pdb>  (88) 
x0980_0B

>  <SuCOS_score>  (88) 
0.4027652609285839

>  <compound ID>  (88) 
ENAMINE:Z3294198518

$$$$
x0980_0B-x0771_0A_46
     RDKit          3D

 21 23  0  0  0  0  0  0  0  0999 V2000
  -10.5080   -3.8480   -7.9280 O   0  0  0  0  0  0  0  0  0  0  0  0
   -9.9380   -3.8000   -6.8300 C   0  0  0  0  0  0  0  0  0  0  0  0
  -10.4270   -3.1650   -5.6940 N   0  0  0  0  0  0  0  0  0  0  0  0
  -11.6450   -3.2980   -4.9800 C   0  0  0  0  0  0  0  0  0  0  0  0
  -12.2650   -4.4980   -4.5950 C   0  0  0  0  0  0  0  0  0  0  0  0
  -13.4740   -4.4800   -3.8740 C   0  0  0  0  0  0  0  0  0  0  0  0
  -14.0650   -3.2640   -3.5350 C   0  0  0  0  0  0  0  0  0  0  0  0
  -15.6850   -3.2500   -2.5610 Br  0  0  0  0  0  0  0  0  0  0  0  0
  -13.4530   -2.0760   -3.9200 C   0  0  0  0  0  0  0  0  0  0  0  0
  -13.9940   -0.8880   -3.6140 F   0  0  0  0  0  0  0  0  0  0  0  0
  -12.2570   -2.0890   -4.6330 C   0  0  0  0  0  0  0  0  0  0  0  0
   -8.5470   -4.3900   -6.4910 C   0  0  2  0  0  0  0  0  0  0  0  0
   -7.9180   -5.4340   -7.4200 C   0  0  0  0  0  0  0  0  0  0  0  0
   -7.7640   -6.8390   -6.8460 C   0  0  0  0  0  0  0  0  0  0  0  0
   -7.7940   -7.0830   -5.3690 C   0  0  1  0  0  0  0  0  0  0  0  0
   -9.1900   -7.6060   -5.0180 C   0  0  0  0  0  0  0  0  0  0  0  0
   -8.9660   -9.0730   -5.0410 C   0  0  0  0  0  0  0  0  0  0  0  0
   -7.6590   -9.1150   -4.2810 C   0  0  0  0  0  0  0  0  0  0  0  0
   -6.8430   -8.1500   -4.9810 N   0  0  0  0  0  0  0  0  0  0  0  0
   -7.5740   -5.8100   -4.6040 C   0  0  0  0  0  0  0  0  0  0  0  0
   -8.6200   -4.8180   -5.0280 C   0  0  0  0  0  0  0  0  0  0  0  0
  1  2  2  0
  2  3  1  0
  3  4  1  0
  4  5  2  0
  5  6  1  0
  6  7  2  0
  7  8  1  0
  7  9  1  0
  9 10  1  0
  9 11  2  0
 12  2  1  6
 12 13  1  0
 13 14  1  0
 15 14  1  6
 15 16  1  0
 16 17  1  0
 17 18  1  0
 18 19  1  0
 15 20  1  0
 20 21  1  0
 11  4  1  0
 21 12  1  0
 19 15  1  0
A    1
 O1 
A    2
 C1 
A    3
 N1 
A    4
 C2 
A    5
 C3 
A    6
 C4 
A    7
 C5 
A    8
BR1 
A    9
 C6 
A   10
 F1 
A   11
 C7 
A   12
 C8 
A   13
 C9 
A   14
 C10
A   15
 C11
A   16
 C12
A   17
 C13
A   18
 C14
A   19
 N2 
A   20
 C15
A   21
 C16
M  END
>  <ref_url>  (89) 
https://github.com/stephwills/fragment_network_merges

>  <submitter_name>  (89) 
Steph Wills

>  <submitter_institution>  (89) 
University of Oxford

>  <submitter_email>  (89) 
stephanie.wills@balliol.ox.ac.uk

>  <generation_date>  (89) 
2023-08-10

>  <method>  (89) 
fragnetv3_corrected

>  <original SMILES>  (89) 
O=C(Nc1ccc(Br)c(F)c1)C1CCC2(CCCN2)CC1

>  <original_name>  (89) 
x0980_0B-x0771_0A_46

>  <ref_mols>  (89) 
x0980_0B,x0771_0A

>  <ref_pdb>  (89) 
x0980_0B

>  <SuCOS_score>  (89) 
0.3973580519082339

>  <compound ID>  (89) 
ENAMINE:PV-003813299765

$$$$
x0980_0B-x0771_0A_24
     RDKit          3D

 22 24  0  0  0  0  0  0  0  0999 V2000
  -13.0930   -6.4360   -4.1150 C   0  0  0  0  0  0  0  0  0  0  0  0
  -12.9130   -4.9620   -4.2480 C   0  0  0  0  0  0  0  0  0  0  0  0
  -11.8550   -4.5010   -4.9600 C   0  0  0  0  0  0  0  0  0  0  0  0
  -11.6170   -3.1530   -5.1320 C   0  0  0  0  0  0  0  0  0  0  0  0
  -10.4630   -2.7470   -5.8990 N   0  0  0  0  0  0  0  0  0  0  0  0
   -9.8090   -3.5190   -6.9050 C   0  0  0  0  0  0  0  0  0  0  0  0
  -10.0910   -3.4950   -8.1140 O   0  0  0  0  0  0  0  0  0  0  0  0
   -8.6390   -4.4270   -6.3780 C   0  0  1  0  0  0  0  0  0  0  0  0
   -9.0780   -5.3360   -5.2410 C   0  0  0  0  0  0  0  0  0  0  0  0
   -7.9090   -6.0590   -4.5900 C   0  0  0  0  0  0  0  0  0  0  0  0
   -7.3500   -7.1210   -5.5250 C   0  0  1  0  0  0  0  0  0  0  0  0
   -5.8580   -7.3770   -5.3110 C   0  0  0  0  0  0  0  0  0  0  0  0
   -5.7310   -8.7560   -4.7630 C   0  0  0  0  0  0  0  0  0  0  0  0
   -7.1160   -9.0540   -4.2590 C   0  0  0  0  0  0  0  0  0  0  0  0
   -7.9870   -8.4280   -5.2300 N   0  0  0  0  0  0  0  0  0  0  0  0
   -7.6330   -6.7060   -6.9650 C   0  0  0  0  0  0  0  0  0  0  0  0
   -7.8320   -5.2420   -7.3860 C   0  0  0  0  0  0  0  0  0  0  0  0
  -12.5210   -2.2270   -4.5420 C   0  0  0  0  0  0  0  0  0  0  0  0
  -12.4020   -0.8960   -4.6410 F   0  0  0  0  0  0  0  0  0  0  0  0
  -13.5860   -2.6800   -3.8250 C   0  0  0  0  0  0  0  0  0  0  0  0
  -13.7710   -4.0410   -3.6850 C   0  0  0  0  0  0  0  0  0  0  0  0
  -14.8250   -4.4720   -2.9760 F   0  0  0  0  0  0  0  0  0  0  0  0
  1  2  1  0
  2  3  2  0
  3  4  1  0
  4  5  1  0
  5  6  1  0
  6  7  2  0
  8  6  1  6
  8  9  1  0
  9 10  1  0
 11 10  1  1
 11 12  1  0
 12 13  1  0
 13 14  1  0
 14 15  1  0
 11 16  1  0
 16 17  1  0
  4 18  2  0
 18 19  1  0
 18 20  1  0
 20 21  2  0
 21 22  1  0
 21  2  1  0
 17  8  1  0
 15 11  1  0
A    1
 C1 
A    2
 C2 
A    3
 C3 
A    4
 C4 
A    5
 N1 
A    6
 C5 
A    7
 O1 
A    8
 C6 
A    9
 C7 
A   10
 C8 
A   11
 C9 
A   12
 C10
A   13
 C11
A   14
 C12
A   15
 N2 
A   16
 C13
A   17
 C14
A   18
 C15
A   19
 F1 
A   20
 C16
A   21
 C17
A   22
 F2 
M  END
>  <ref_url>  (90) 
https://github.com/stephwills/fragment_network_merges

>  <submitter_name>  (90) 
Steph Wills

>  <submitter_institution>  (90) 
University of Oxford

>  <submitter_email>  (90) 
stephanie.wills@balliol.ox.ac.uk

>  <generation_date>  (90) 
2023-08-10

>  <method>  (90) 
fragnetv3_corrected

>  <original SMILES>  (90) 
Cc1cc(NC(=O)C2CCC3(CCCN3)CC2)c(F)cc1F

>  <original_name>  (90) 
x0980_0B-x0771_0A_24

>  <ref_mols>  (90) 
x0980_0B,x0771_0A

>  <ref_pdb>  (90) 
x0980_0B

>  <SuCOS_score>  (90) 
0.39243493794104695

>  <compound ID>  (90) 
ENAMINE:Z4194900812

$$$$
x0980_0B-x0771_0A_43
     RDKit          3D

 20 22  0  0  0  0  0  0  0  0999 V2000
  -11.2990   -3.2680   -7.8270 O   0  0  0  0  0  0  0  0  0  0  0  0
  -10.6760   -3.6090   -6.8420 C   0  0  0  0  0  0  0  0  0  0  0  0
  -10.7890   -3.0810   -5.5860 N   0  0  0  0  0  0  0  0  0  0  0  0
  -11.9280   -3.1420   -4.7770 C   0  0  0  0  0  0  0  0  0  0  0  0
  -12.4830   -4.3300   -4.2930 C   0  0  0  0  0  0  0  0  0  0  0  0
  -13.6260   -4.2840   -3.4990 C   0  0  0  0  0  0  0  0  0  0  0  0
  -14.1570   -5.4230   -3.0360 F   0  0  0  0  0  0  0  0  0  0  0  0
  -14.2260   -3.0750   -3.1780 C   0  0  0  0  0  0  0  0  0  0  0  0
  -13.6640   -1.9040   -3.6640 C   0  0  0  0  0  0  0  0  0  0  0  0
  -14.2250   -0.7270   -3.3690 F   0  0  0  0  0  0  0  0  0  0  0  0
  -12.5250   -1.9250   -4.4580 C   0  0  0  0  0  0  0  0  0  0  0  0
   -9.7460   -4.5940   -6.9230 N   0  0  0  0  0  0  0  0  0  0  0  0
   -8.5030   -4.0990   -7.4050 C   0  0  0  0  0  0  0  0  0  0  0  0
   -7.4200   -4.7290   -6.6010 C   0  0  0  0  0  0  0  0  0  0  0  0
   -7.3480   -6.1650   -6.9100 C   0  0  0  0  0  0  0  0  0  0  0  0
   -6.5640   -6.0790   -8.2500 C   0  0  0  0  0  0  0  0  0  0  0  0
   -5.5390   -7.0440   -7.6520 C   0  0  0  0  0  0  0  0  0  0  0  0
   -6.2400   -6.9940   -6.3420 N   0  0  0  0  0  0  0  0  0  0  0  0
   -8.6850   -6.8120   -6.5510 C   0  0  0  0  0  0  0  0  0  0  0  0
   -9.6470   -5.7490   -6.0170 C   0  0  0  0  0  0  0  0  0  0  0  0
  1  2  2  0
  2  3  1  0
  3  4  1  0
  4  5  2  0
  5  6  1  0
  6  7  1  0
  6  8  2  0
  8  9  1  0
  9 10  1  0
  9 11  2  0
  2 12  1  0
 12 13  1  0
 13 14  1  0
 14 15  1  0
 15 16  1  0
 16 17  1  0
 17 18  1  0
 15 19  1  0
 19 20  1  0
 11  4  1  0
 20 12  1  0
 18 15  1  0
A    1
 O1 
A    2
 C1 
A    3
 N1 
A    4
 C2 
A    5
 C3 
A    6
 C4 
A    7
 F1 
A    8
 C5 
A    9
 C6 
A   10
 F2 
A   11
 C7 
A   12
 N2 
A   13
 C8 
A   14
 C9 
A   15
 C10
A   16
 C11
A   17
 C12
A   18
 N3 
A   19
 C13
A   20
 C14
M  END
>  <ref_url>  (91) 
https://github.com/stephwills/fragment_network_merges

>  <submitter_name>  (91) 
Steph Wills

>  <submitter_institution>  (91) 
University of Oxford

>  <submitter_email>  (91) 
stephanie.wills@balliol.ox.ac.uk

>  <generation_date>  (91) 
2023-08-10

>  <method>  (91) 
fragnetv3_corrected

>  <original SMILES>  (91) 
O=C(Nc1cc(F)cc(F)c1)N1CCC2(CCN2)CC1

>  <original_name>  (91) 
x0980_0B-x0771_0A_43

>  <ref_mols>  (91) 
x0980_0B,x0771_0A

>  <ref_pdb>  (91) 
x0980_0B

>  <SuCOS_score>  (91) 
0.3642746346355224

>  <compound ID>  (91) 
ENAMINE:Z2376821625

$$$$
x0980_0B-x0771_0A_28
     RDKit          3D

 19 21  0  0  0  0  0  0  0  0999 V2000
  -13.8240   -1.1390   -4.1380 F   0  0  0  0  0  0  0  0  0  0  0  0
  -13.2870   -2.3670   -4.1110 C   0  0  0  0  0  0  0  0  0  0  0  0
  -12.1290   -2.6280   -4.8370 C   0  0  0  0  0  0  0  0  0  0  0  0
  -11.5660   -3.9130   -4.8080 C   0  0  0  0  0  0  0  0  0  0  0  0
  -12.1600   -4.9440   -4.0490 C   0  0  0  0  0  0  0  0  0  0  0  0
  -11.5710   -6.3560   -3.9900 C   0  0  0  0  0  0  0  0  0  0  0  0
  -10.3060   -6.5520   -4.7330 N   0  0  0  0  0  0  0  0  0  0  0  0
   -9.8400   -7.9550   -4.7970 C   0  0  0  0  0  0  0  0  0  0  0  0
   -8.4400   -8.0810   -5.3860 C   0  0  0  0  0  0  0  0  0  0  0  0
   -8.1640   -6.8580   -6.2670 C   0  0  2  0  0  0  0  0  0  0  0  0
   -6.9480   -6.9540   -7.0740 N   0  0  0  0  0  0  0  0  0  0  0  0
   -6.8410   -5.7570   -7.9160 C   0  0  0  0  0  0  0  0  0  0  0  0
   -8.0210   -4.7870   -7.8180 C   0  0  0  0  0  0  0  0  0  0  0  0
   -8.3990   -4.4130   -6.4000 C   0  0  0  0  0  0  0  0  0  0  0  0
   -8.1740   -5.5790   -5.4510 C   0  0  1  0  0  0  0  0  0  0  0  0
   -9.2220   -5.6390   -4.3450 C   0  0  0  0  0  0  0  0  0  0  0  0
  -13.3320   -4.6520   -3.3260 C   0  0  0  0  0  0  0  0  0  0  0  0
  -13.8840   -3.3730   -3.3620 C   0  0  0  0  0  0  0  0  0  0  0  0
  -15.0000   -3.1200   -2.6630 F   0  0  0  0  0  0  0  0  0  0  0  0
  1  2  1  0
  2  3  2  0
  3  4  1  0
  4  5  2  0
  5  6  1  0
  6  7  1  0
  7  8  1  0
  8  9  1  0
 10  9  1  1
 10 11  1  0
 11 12  1  0
 12 13  1  0
 13 14  1  0
 15 14  1  6
 15 16  1  0
  5 17  1  0
 17 18  2  0
 18 19  1  0
 18  2  1  0
 16  7  1  0
 15 10  1  0
A    1
 F1 
A    2
 C1 
A    3
 C2 
A    4
 C3 
A    5
 C4 
A    6
 C5 
A    7
 N1 
A    8
 C6 
A    9
 C7 
A   10
 C8 
A   11
 N2 
A   12
 C9 
A   13
 C10
A   14
 C11
A   15
 C12
A   16
 C13
A   17
 C14
A   18
 C15
A   19
 F2 
M  END
>  <ref_url>  (92) 
https://github.com/stephwills/fragment_network_merges

>  <submitter_name>  (92) 
Steph Wills

>  <submitter_institution>  (92) 
University of Oxford

>  <submitter_email>  (92) 
stephanie.wills@balliol.ox.ac.uk

>  <generation_date>  (92) 
2023-08-10

>  <method>  (92) 
fragnetv3_corrected

>  <original SMILES>  (92) 
Fc1ccc(CN2CCC3NCCCC3C2)cc1F

>  <original_name>  (92) 
x0980_0B-x0771_0A_28

>  <ref_mols>  (92) 
x0980_0B,x0771_0A

>  <ref_pdb>  (92) 
x0980_0B

>  <SuCOS_score>  (92) 
0.35224169434236474

>  <compound ID>  (92) 
ENAMINE:Z3240203223

$$$$
x0980_0B-x0771_0A_40
     RDKit          3D

 20 22  0  0  0  0  0  0  0  0999 V2000
  -13.0650   -6.7460   -4.6240 C   0  0  0  0  0  0  0  0  0  0  0  0
  -13.0870   -5.2670   -4.3900 C   0  0  0  0  0  0  0  0  0  0  0  0
  -14.1490   -4.6750   -3.6890 C   0  0  0  0  0  0  0  0  0  0  0  0
  -14.1740   -3.2960   -3.4720 C   0  0  0  0  0  0  0  0  0  0  0  0
  -13.1420   -2.5010   -3.9550 C   0  0  0  0  0  0  0  0  0  0  0  0
  -13.1830   -1.1780   -3.7410 F   0  0  0  0  0  0  0  0  0  0  0  0
  -12.0760   -3.0600   -4.6520 C   0  0  0  0  0  0  0  0  0  0  0  0
  -12.0550   -4.4510   -4.8670 C   0  0  0  0  0  0  0  0  0  0  0  0
  -10.9160   -5.0350   -5.6150 C   0  0  0  0  0  0  0  0  0  0  0  0
  -10.7410   -4.5890   -6.7420 O   0  0  0  0  0  0  0  0  0  0  0  0
  -10.0880   -6.0060   -5.0020 N   0  0  0  0  0  0  0  0  0  0  0  0
  -10.0130   -7.4620   -5.3090 C   0  0  0  0  0  0  0  0  0  0  0  0
   -8.5650   -7.9620   -5.3340 C   0  0  0  0  0  0  0  0  0  0  0  0
   -7.7540   -6.9510   -6.1270 C   0  0  2  0  0  0  0  0  0  0  0  0
   -6.3840   -7.2540   -6.4890 N   0  0  0  0  0  0  0  0  0  0  0  0
   -6.1020   -6.4640   -7.6930 C   0  0  0  0  0  0  0  0  0  0  0  0
   -7.1390   -5.3370   -7.9570 C   0  0  0  0  0  0  0  0  0  0  0  0
   -7.9080   -4.7080   -6.7750 C   0  0  0  0  0  0  0  0  0  0  0  0
   -7.7720   -5.5730   -5.5390 C   0  0  1  0  0  0  0  0  0  0  0  0
   -8.8630   -5.4330   -4.5040 C   0  0  0  0  0  0  0  0  0  0  0  0
  1  2  1  0
  2  3  2  0
  3  4  1  0
  4  5  2  0
  5  6  1  0
  5  7  1  0
  7  8  2  0
  8  9  1  0
  9 10  2  0
  9 11  1  0
 11 12  1  0
 12 13  1  0
 14 13  1  1
 14 15  1  0
 15 16  1  0
 16 17  1  0
 17 18  1  0
 19 18  1  6
 19 20  1  0
  8  2  1  0
 20 11  1  0
 19 14  1  0
A    1
 C1 
A    2
 C2 
A    3
 C3 
A    4
 C4 
A    5
 C5 
A    6
 F1 
A    7
 C6 
A    8
 C7 
A    9
 C8 
A   10
 O1 
A   11
 N1 
A   12
 C9 
A   13
 C10
A   14
 C11
A   15
 N2 
A   16
 C12
A   17
 C13
A   18
 C14
A   19
 C15
A   20
 C16
M  END
>  <ref_url>  (93) 
https://github.com/stephwills/fragment_network_merges

>  <submitter_name>  (93) 
Steph Wills

>  <submitter_institution>  (93) 
University of Oxford

>  <submitter_email>  (93) 
stephanie.wills@balliol.ox.ac.uk

>  <generation_date>  (93) 
2023-08-10

>  <method>  (93) 
fragnetv3_corrected

>  <original SMILES>  (93) 
Cc1ccc(F)cc1C(=O)N1CCC2NCCCC2C1

>  <original_name>  (93) 
x0980_0B-x0771_0A_40

>  <ref_mols>  (93) 
x0980_0B,x0771_0A

>  <ref_pdb>  (93) 
x0980_0B

>  <SuCOS_score>  (93) 
0.34904447852367504

>  <compound ID>  (93) 
ENAMINE:Z3385134878

$$$$
x0980_0B-x0771_0A_36
     RDKit          3D

 23 26  0  0  0  0  0  0  0  0999 V2000
  -13.6460   -0.6010   -3.9700 F   0  0  0  0  0  0  0  0  0  0  0  0
  -13.3570   -1.9060   -4.0020 C   0  0  0  0  0  0  0  0  0  0  0  0
  -12.1780   -2.3410   -4.6020 C   0  0  0  0  0  0  0  0  0  0  0  0
  -11.8880   -3.7100   -4.6270 C   0  0  0  0  0  0  0  0  0  0  0  0
  -12.7830   -4.6340   -4.0510 C   0  0  0  0  0  0  0  0  0  0  0  0
  -12.5060   -6.1190   -4.0610 C   0  0  0  0  0  0  0  0  0  0  0  0
  -11.3370   -6.5370   -3.2030 C   0  0  0  0  0  0  0  0  0  0  0  0
  -11.3610   -6.3190   -1.8720 N   0  0  0  0  0  0  0  0  0  0  0  0
  -10.2640   -6.7310   -1.2080 C   0  0  0  0  0  0  0  0  0  0  0  0
   -9.1770   -7.3330   -1.8140 C   0  0  0  0  0  0  0  0  0  0  0  0
   -9.2470   -7.5150   -3.1840 C   0  0  0  0  0  0  0  0  0  0  0  0
   -8.2140   -8.1140   -3.9330 N   0  0  0  0  0  0  0  0  0  0  0  0
   -7.0330   -7.2680   -4.0770 C   0  0  0  0  0  0  0  0  0  0  0  0
   -7.4740   -5.9820   -4.7700 C   0  0  0  0  0  0  0  0  0  0  0  0
   -7.9530   -6.2970   -6.1870 C   0  0  0  0  0  0  0  0  0  0  0  0
   -8.1610   -5.0800   -7.1310 C   0  0  0  0  0  0  0  0  0  0  0  0
   -6.9170   -5.5420   -7.8860 C   0  0  0  0  0  0  0  0  0  0  0  0
   -6.8650   -6.7870   -7.0980 N   0  0  0  0  0  0  0  0  0  0  0  0
   -9.1060   -7.2800   -6.1100 C   0  0  0  0  0  0  0  0  0  0  0  0
   -8.7400   -8.4940   -5.2400 C   0  0  0  0  0  0  0  0  0  0  0  0
  -10.3260   -7.1150   -3.8560 N   0  0  0  0  0  0  0  0  0  0  0  0
  -13.9590   -4.1670   -3.4550 C   0  0  0  0  0  0  0  0  0  0  0  0
  -14.2460   -2.8060   -3.4300 C   0  0  0  0  0  0  0  0  0  0  0  0
  1  2  1  0
  2  3  2  0
  3  4  1  0
  4  5  2  0
  5  6  1  0
  6  7  1  0
  7  8  2  0
  8  9  1  0
  9 10  2  0
 10 11  1  0
 11 12  1  0
 12 13  1  0
 13 14  1  0
 14 15  1  0
 15 16  1  0
 16 17  1  0
 17 18  1  0
 15 19  1  0
 19 20  1  0
 11 21  2  0
  5 22  1  0
 22 23  2  0
 23  2  1  0
 21  7  1  0
 20 12  1  0
 18 15  1  0
A    1
 F1 
A    2
 C1 
A    3
 C2 
A    4
 C3 
A    5
 C4 
A    6
 C5 
A    7
 C6 
A    8
 N1 
A    9
 C7 
A   10
 C8 
A   11
 C9 
A   12
 N2 
A   13
 C10
A   14
 C11
A   15
 C12
A   16
 C13
A   17
 C14
A   18
 N3 
A   19
 C15
A   20
 C16
A   21
 N4 
A   22
 C17
A   23
 C18
M  END
>  <ref_url>  (94) 
https://github.com/stephwills/fragment_network_merges

>  <submitter_name>  (94) 
Steph Wills

>  <submitter_institution>  (94) 
University of Oxford

>  <submitter_email>  (94) 
stephanie.wills@balliol.ox.ac.uk

>  <generation_date>  (94) 
2023-08-10

>  <method>  (94) 
fragnetv3_corrected

>  <original SMILES>  (94) 
Fc1ccc(Cc2nccc(N3CCC4(CCN4)CC3)n2)cc1

>  <original_name>  (94) 
x0980_0B-x0771_0A_36

>  <ref_mols>  (94) 
x0980_0B,x0771_0A

>  <ref_pdb>  (94) 
x0980_0B

>  <SuCOS_score>  (94) 
0.3432481954683176

>  <compound ID>  (94) 
ENAMINE:Z3891568403

$$$$
x0980_0B-x0771_0A_27
     RDKit          3D

 24 26  0  0  0  0  0  0  0  0999 V2000
  -11.6900   -5.8590   -5.6790 C   0  0  0  0  0  0  0  0  0  0  0  0
  -12.2460   -4.6890   -4.9340 C   0  0  0  0  0  0  0  0  0  0  0  0
  -12.3200   -3.4590   -5.6050 C   0  0  0  0  0  0  0  0  0  0  0  0
  -12.8340   -2.3300   -4.9870 C   0  0  0  0  0  0  0  0  0  0  0  0
  -13.2860   -2.4250   -3.6880 C   0  0  0  0  0  0  0  0  0  0  0  0
  -13.7910   -1.3240   -3.1100 F   0  0  0  0  0  0  0  0  0  0  0  0
  -13.2200   -3.6420   -2.9860 C   0  0  0  0  0  0  0  0  0  0  0  0
  -12.6810   -4.8090   -3.6100 C   0  0  0  0  0  0  0  0  0  0  0  0
  -12.5610   -6.1590   -2.8880 C   0  0  0  0  0  0  0  0  0  0  0  0
  -11.1990   -6.7900   -2.8980 N   0  0  0  0  0  0  0  0  0  0  0  0
  -10.0910   -5.9400   -2.4940 C   0  0  0  0  0  0  0  0  0  0  0  0
  -10.8700   -8.0980   -3.3910 C   0  0  0  0  0  0  0  0  0  0  0  0
  -11.7270   -8.9420   -3.6490 O   0  0  0  0  0  0  0  0  0  0  0  0
   -9.3770   -8.5400   -3.6230 C   0  0  0  0  0  0  0  0  0  0  0  0
   -8.8530   -9.2690   -2.7900 O   0  0  0  0  0  0  0  0  0  0  0  0
   -8.7320   -8.0640   -4.7900 N   0  0  0  0  0  0  0  0  0  0  0  0
   -9.3250   -6.8280   -5.2180 C   0  0  0  0  0  0  0  0  0  0  0  0
   -8.3490   -5.6890   -5.0600 C   0  0  0  0  0  0  0  0  0  0  0  0
   -7.5160   -5.9380   -6.2570 C   0  0  0  0  0  0  0  0  0  0  0  0
   -8.3950   -5.8700   -7.4900 C   0  0  0  0  0  0  0  0  0  0  0  0
   -7.0660   -5.6760   -8.1940 C   0  0  0  0  0  0  0  0  0  0  0  0
   -6.8610   -4.8680   -7.0090 N   0  0  0  0  0  0  0  0  0  0  0  0
   -6.7540   -7.2310   -6.1810 C   0  0  0  0  0  0  0  0  0  0  0  0
   -7.2730   -8.1280   -5.0120 C   0  0  0  0  0  0  0  0  0  0  0  0
  1  2  1  0
  2  3  2  0
  3  4  1  0
  4  5  2  0
  5  6  1  0
  5  7  1  0
  7  8  2  0
  8  9  1  0
  9 10  1  0
 10 11  1  0
 10 12  1  0
 12 13  2  0
 12 14  1  0
 14 15  2  0
 14 16  1  0
 16 17  1  0
 17 18  1  0
 18 19  1  0
 19 20  1  0
 20 21  1  0
 21 22  1  0
 19 23  1  0
 23 24  1  0
  8  2  1  0
 24 16  1  0
 22 19  1  0
A    1
 C1 
A    2
 C2 
A    3
 C3 
A    4
 C4 
A    5
 C5 
A    6
 F1 
A    7
 C6 
A    8
 C7 
A    9
 C8 
A   10
 N1 
A   11
 C9 
A   12
 C10
A   13
 O1 
A   14
 C11
A   15
 O2 
A   16
 N2 
A   17
 C12
A   18
 C13
A   19
 C14
A   20
 C15
A   21
 C16
A   22
 N3 
A   23
 C17
A   24
 C18
M  END
>  <ref_url>  (95) 
https://github.com/stephwills/fragment_network_merges

>  <submitter_name>  (95) 
Steph Wills

>  <submitter_institution>  (95) 
University of Oxford

>  <submitter_email>  (95) 
stephanie.wills@balliol.ox.ac.uk

>  <generation_date>  (95) 
2023-08-10

>  <method>  (95) 
fragnetv3_corrected

>  <original SMILES>  (95) 
Cc1ccc(F)cc1CN(C)C(=O)C(=O)N1CCC2(CCN2)CC1

>  <original_name>  (95) 
x0980_0B-x0771_0A_27

>  <ref_mols>  (95) 
x0980_0B,x0771_0A

>  <ref_pdb>  (95) 
x0980_0B

>  <SuCOS_score>  (95) 
0.3392681073428843

>  <compound ID>  (95) 
ENAMINE:Z2378383480

$$$$
x0980_0B-x0771_0A_32
     RDKit          3D

 22 24  0  0  0  0  0  0  0  0999 V2000
  -12.2070   -0.2870   -3.6730 C   0  0  0  0  0  0  0  0  0  0  0  0
  -12.5050   -0.3680   -5.0720 O   0  0  0  0  0  0  0  0  0  0  0  0
  -12.0920   -1.5220   -5.6440 C   0  0  0  0  0  0  0  0  0  0  0  0
  -11.4900   -1.6360   -6.7000 O   0  0  0  0  0  0  0  0  0  0  0  0
  -12.4900   -2.6550   -4.7940 C   0  0  0  0  0  0  0  0  0  0  0  0
  -11.6880   -3.8180   -4.7390 C   0  0  0  0  0  0  0  0  0  0  0  0
  -12.0670   -4.9100   -3.9210 C   0  0  0  0  0  0  0  0  0  0  0  0
  -11.2490   -6.2060   -3.8030 C   0  0  0  0  0  0  0  0  0  0  0  0
  -10.0660   -6.3590   -4.6810 N   0  0  0  0  0  0  0  0  0  0  0  0
   -9.7580   -7.7500   -4.9880 C   0  0  0  0  0  0  0  0  0  0  0  0
   -8.6860   -7.8150   -6.0580 C   0  0  0  0  0  0  0  0  0  0  0  0
   -7.4070   -6.9840   -5.8410 C   0  0  1  0  0  0  0  0  0  0  0  0
   -6.6080   -6.9780   -7.0980 N   0  0  0  0  0  0  0  0  0  0  0  0
   -6.6990   -5.7720   -7.9170 C   0  0  0  0  0  0  0  0  0  0  0  0
   -8.0240   -5.0740   -7.7760 C   0  0  0  0  0  0  0  0  0  0  0  0
   -8.3520   -4.6680   -6.3580 C   0  0  0  0  0  0  0  0  0  0  0  0
   -7.7820   -5.6050   -5.2980 C   0  0  1  0  0  0  0  0  0  0  0  0
   -8.8260   -5.7530   -4.1860 C   0  0  0  0  0  0  0  0  0  0  0  0
  -13.2570   -4.7960   -3.1770 C   0  0  0  0  0  0  0  0  0  0  0  0
  -14.0420   -3.6440   -3.2360 C   0  0  0  0  0  0  0  0  0  0  0  0
  -13.6560   -2.5830   -4.0400 C   0  0  0  0  0  0  0  0  0  0  0  0
  -14.4440   -1.4950   -4.0640 F   0  0  0  0  0  0  0  0  0  0  0  0
  1  2  1  0
  2  3  1  0
  3  4  2  0
  3  5  1  0
  5  6  2  0
  6  7  1  0
  7  8  1  0
  8  9  1  0
  9 10  1  0
 10 11  1  0
 12 11  1  6
 12 13  1  0
 13 14  1  0
 14 15  1  0
 15 16  1  0
 17 16  1  6
 17 18  1  0
  7 19  2  0
 19 20  1  0
 20 21  2  0
 21 22  1  0
 21  5  1  0
 18  9  1  0
 17 12  1  0
A    1
 C1 
A    2
 O1 
A    3
 C2 
A    4
 O2 
A    5
 C3 
A    6
 C4 
A    7
 C5 
A    8
 C6 
A    9
 N1 
A   10
 C7 
A   11
 C8 
A   12
 C9 
A   13
 N2 
A   14
 C10
A   15
 C11
A   16
 C12
A   17
 C13
A   18
 C14
A   19
 C15
A   20
 C16
A   21
 C17
A   22
 F1 
M  END
>  <ref_url>  (96) 
https://github.com/stephwills/fragment_network_merges

>  <submitter_name>  (96) 
Steph Wills

>  <submitter_institution>  (96) 
University of Oxford

>  <submitter_email>  (96) 
stephanie.wills@balliol.ox.ac.uk

>  <generation_date>  (96) 
2023-08-10

>  <method>  (96) 
fragnetv3_corrected

>  <original SMILES>  (96) 
COC(=O)c1cc(CN2CCC3NCCCC3C2)ccc1F

>  <original_name>  (96) 
x0980_0B-x0771_0A_32

>  <ref_mols>  (96) 
x0980_0B,x0771_0A

>  <ref_pdb>  (96) 
x0980_0B

>  <SuCOS_score>  (96) 
0.33692332951831094

>  <compound ID>  (96) 
ENAMINE:Z3346774595

$$$$
x0980_0B-x0771_0A_20
     RDKit          3D

 23 25  0  0  0  0  0  0  0  0999 V2000
  -12.4520   -6.5160   -4.4880 C   0  0  0  0  0  0  0  0  0  0  0  0
  -12.5990   -5.0350   -4.2960 C   0  0  0  0  0  0  0  0  0  0  0  0
  -13.8930   -4.4900   -4.3610 C   0  0  0  0  0  0  0  0  0  0  0  0
  -14.0990   -3.1290   -4.1980 C   0  0  0  0  0  0  0  0  0  0  0  0
  -15.8580   -2.4420   -4.2970 Br  0  0  0  0  0  0  0  0  0  0  0  0
  -13.0170   -2.2940   -3.9720 C   0  0  0  0  0  0  0  0  0  0  0  0
  -13.2220   -0.9750   -3.8190 F   0  0  0  0  0  0  0  0  0  0  0  0
  -11.7080   -2.8170   -3.9000 C   0  0  0  0  0  0  0  0  0  0  0  0
  -11.4820   -4.2120   -4.0560 C   0  0  0  0  0  0  0  0  0  0  0  0
  -10.2110   -4.8900   -3.9840 N   0  0  0  0  0  0  0  0  0  0  0  0
   -9.9630   -6.1260   -3.3250 C   0  0  0  0  0  0  0  0  0  0  0  0
  -10.7600   -6.7180   -2.6150 O   0  0  0  0  0  0  0  0  0  0  0  0
   -8.5250   -6.7600   -3.5310 C   0  0  0  0  0  0  0  0  0  0  0  0
   -7.5890   -6.1280   -3.0360 O   0  0  0  0  0  0  0  0  0  0  0  0
   -8.3430   -7.9950   -4.2240 N   0  0  0  0  0  0  0  0  0  0  0  0
   -9.1520   -8.2630   -5.3580 C   0  0  0  0  0  0  0  0  0  0  0  0
   -8.9270   -7.1230   -6.2880 C   0  0  0  0  0  0  0  0  0  0  0  0
   -7.4920   -6.6380   -6.3280 C   0  0  0  0  0  0  0  0  0  0  0  0
   -7.6070   -5.1080   -6.3130 C   0  0  0  0  0  0  0  0  0  0  0  0
   -7.4360   -5.1840   -7.8260 C   0  0  0  0  0  0  0  0  0  0  0  0
   -6.8890   -6.5320   -7.6790 N   0  0  0  0  0  0  0  0  0  0  0  0
   -6.4180   -7.3910   -5.4990 C   0  0  0  0  0  0  0  0  0  0  0  0
   -6.9920   -8.3940   -4.5260 C   0  0  0  0  0  0  0  0  0  0  0  0
  1  2  1  0
  2  3  2  0
  3  4  1  0
  4  5  1  0
  4  6  2  0
  6  7  1  0
  6  8  1  0
  8  9  2  0
  9 10  1  0
 10 11  1  0
 11 12  2  0
 11 13  1  0
 13 14  2  0
 13 15  1  0
 15 16  1  0
 16 17  1  0
 17 18  1  0
 18 19  1  0
 19 20  1  0
 20 21  1  0
 18 22  1  0
 22 23  1  0
  9  2  1  0
 23 15  1  0
 21 18  1  0
A    1
 C1 
A    2
 C2 
A    3
 C3 
A    4
 C4 
A    5
BR1 
A    6
 C5 
A    7
 F1 
A    8
 C6 
A    9
 C7 
A   10
 N1 
A   11
 C8 
A   12
 O1 
A   13
 C9 
A   14
 O2 
A   15
 N2 
A   16
 C10
A   17
 C11
A   18
 C12
A   19
 C13
A   20
 C14
A   21
 N3 
A   22
 C15
A   23
 C16
M  END
>  <ref_url>  (97) 
https://github.com/stephwills/fragment_network_merges

>  <submitter_name>  (97) 
Steph Wills

>  <submitter_institution>  (97) 
University of Oxford

>  <submitter_email>  (97) 
stephanie.wills@balliol.ox.ac.uk

>  <generation_date>  (97) 
2023-08-10

>  <method>  (97) 
fragnetv3_corrected

>  <original SMILES>  (97) 
Cc1cc(Br)c(F)cc1NC(=O)C(=O)N1CCC2(CCN2)CC1

>  <original_name>  (97) 
x0980_0B-x0771_0A_20

>  <ref_mols>  (97) 
x0980_0B,x0771_0A

>  <ref_pdb>  (97) 
x0980_0B

>  <SuCOS_score>  (97) 
0.3332958481683239

>  <compound ID>  (97) 
ENAMINE:Z2378106192

$$$$
x0980_0B-x0771_0A_39
     RDKit          3D

 20 22  0  0  0  0  0  0  0  0999 V2000
  -12.5270   -6.6590   -4.5800 C   0  0  0  0  0  0  0  0  0  0  0  0
  -12.6360   -5.1760   -4.4190 C   0  0  0  0  0  0  0  0  0  0  0  0
  -13.7890   -4.6200   -3.8400 C   0  0  0  0  0  0  0  0  0  0  0  0
  -13.9140   -3.2410   -3.6850 C   0  0  0  0  0  0  0  0  0  0  0  0
  -12.8890   -2.4050   -4.1060 C   0  0  0  0  0  0  0  0  0  0  0  0
  -13.0390   -1.0810   -3.9480 F   0  0  0  0  0  0  0  0  0  0  0  0
  -11.7260   -2.9260   -4.6850 C   0  0  0  0  0  0  0  0  0  0  0  0
  -11.6010   -4.3290   -4.8410 C   0  0  0  0  0  0  0  0  0  0  0  0
  -10.3700   -4.9190   -5.4620 C   0  0  0  0  0  0  0  0  0  0  0  0
   -9.9530   -4.3460   -6.4670 O   0  0  0  0  0  0  0  0  0  0  0  0
   -9.7510   -6.0750   -4.8990 N   0  0  0  0  0  0  0  0  0  0  0  0
   -8.6600   -5.8490   -3.9590 C   0  0  0  0  0  0  0  0  0  0  0  0
   -7.3300   -5.8530   -4.6730 C   0  0  0  0  0  0  0  0  0  0  0  0
   -7.4020   -6.7520   -5.9010 C   0  0  0  0  0  0  0  0  0  0  0  0
   -7.8370   -5.9140   -7.1110 C   0  0  0  0  0  0  0  0  0  0  0  0
   -6.6470   -5.8220   -8.0320 C   0  0  0  0  0  0  0  0  0  0  0  0
   -5.7140   -6.9350   -7.6120 C   0  0  0  0  0  0  0  0  0  0  0  0
   -6.0710   -7.2870   -6.2420 N   0  0  0  0  0  0  0  0  0  0  0  0
   -8.3610   -7.9230   -5.6010 C   0  0  0  0  0  0  0  0  0  0  0  0
   -9.7750   -7.4300   -5.4590 C   0  0  0  0  0  0  0  0  0  0  0  0
  1  2  1  0
  2  3  2  0
  3  4  1  0
  4  5  2  0
  5  6  1  0
  5  7  1  0
  7  8  2  0
  8  9  1  0
  9 10  2  0
  9 11  1  0
 11 12  1  0
 12 13  1  0
 13 14  1  0
 14 15  1  0
 15 16  1  0
 16 17  1  0
 17 18  1  0
 14 19  1  0
 19 20  1  0
  8  2  1  0
 20 11  1  0
 18 14  1  0
A    1
 C1 
A    2
 C2 
A    3
 C3 
A    4
 C4 
A    5
 C5 
A    6
 F1 
A    7
 C6 
A    8
 C7 
A    9
 C8 
A   10
 O1 
A   11
 N1 
A   12
 C9 
A   13
 C10
A   14
 C11
A   15
 C12
A   16
 C13
A   17
 C14
A   18
 N2 
A   19
 C15
A   20
 C16
M  END
>  <ref_url>  (98) 
https://github.com/stephwills/fragment_network_merges

>  <submitter_name>  (98) 
Steph Wills

>  <submitter_institution>  (98) 
University of Oxford

>  <submitter_email>  (98) 
stephanie.wills@balliol.ox.ac.uk

>  <generation_date>  (98) 
2023-08-10

>  <method>  (98) 
fragnetv3_corrected

>  <original SMILES>  (98) 
Cc1ccc(F)cc1C(=O)N1CCC2(CCCN2)CC1

>  <original_name>  (98) 
x0980_0B-x0771_0A_39

>  <ref_mols>  (98) 
x0980_0B,x0771_0A

>  <ref_pdb>  (98) 
x0980_0B

>  <SuCOS_score>  (98) 
0.3310737415036549

>  <compound ID>  (98) 
ENAMINE:Z3385515335

$$$$
x0980_0B-x0771_0A_7
     RDKit          3D

 21 23  0  0  0  0  0  0  0  0999 V2000
  -12.9320   -6.1200   -5.6110 C   0  0  0  0  0  0  0  0  0  0  0  0
  -13.0740   -4.6830   -5.2030 C   0  0  0  0  0  0  0  0  0  0  0  0
  -14.3550   -4.1140   -5.1340 C   0  0  0  0  0  0  0  0  0  0  0  0
  -14.5230   -2.7810   -4.7580 C   0  0  0  0  0  0  0  0  0  0  0  0
  -13.4130   -2.0040   -4.4500 C   0  0  0  0  0  0  0  0  0  0  0  0
  -13.5890   -0.7250   -4.0920 F   0  0  0  0  0  0  0  0  0  0  0  0
  -12.1320   -2.5370   -4.5080 C   0  0  0  0  0  0  0  0  0  0  0  0
  -11.9680   -3.8800   -4.8830 C   0  0  0  0  0  0  0  0  0  0  0  0
  -10.5850   -4.3940   -4.9040 C   0  0  0  0  0  0  0  0  0  0  0  0
  -10.0530   -4.5580   -3.8160 O   0  0  0  0  0  0  0  0  0  0  0  0
   -9.9720   -4.6530   -6.1270 N   0  0  0  0  0  0  0  0  0  0  0  0
   -8.5120   -4.6040   -6.1650 C   0  0  1  0  0  0  0  0  0  0  0  0
   -7.9300   -4.8310   -4.7480 C   0  0  0  0  0  0  0  0  0  0  0  0
   -8.2380   -6.2180   -4.1990 C   0  0  0  0  0  0  0  0  0  0  0  0
   -8.1410   -7.2880   -5.2920 C   0  0  2  0  0  0  0  0  0  0  0  0
   -9.5490   -7.7360   -5.7070 C   0  0  0  0  0  0  0  0  0  0  0  0
   -9.7040   -9.1430   -5.1480 C   0  0  0  0  0  0  0  0  0  0  0  0
   -8.5840   -9.2340   -4.1320 C   0  0  0  0  0  0  0  0  0  0  0  0
   -7.5050   -8.5070   -4.7780 N   0  0  0  0  0  0  0  0  0  0  0  0
   -7.2920   -6.7670   -6.4690 C   0  0  0  0  0  0  0  0  0  0  0  0
   -7.9270   -5.5860   -7.1830 C   0  0  0  0  0  0  0  0  0  0  0  0
  1  2  1  0
  2  3  2  0
  3  4  1  0
  4  5  2  0
  5  6  1  0
  5  7  1  0
  7  8  2  0
  8  9  1  0
  9 10  2  0
  9 11  1  0
 12 11  1  1
 12 13  1  0
 13 14  1  0
 15 14  1  1
 15 16  1  0
 16 17  1  0
 17 18  1  0
 18 19  1  0
 15 20  1  0
 20 21  1  0
  8  2  1  0
 21 12  1  0
 19 15  1  0
A    1
 C1 
A    2
 C2 
A    3
 C3 
A    4
 C4 
A    5
 C5 
A    6
 F1 
A    7
 C6 
A    8
 C7 
A    9
 C8 
A   10
 O1 
A   11
 N1 
A   12
 C9 
A   13
 C10
A   14
 C11
A   15
 C12
A   16
 C13
A   17
 C14
A   18
 C15
A   19
 N2 
A   20
 C16
A   21
 C17
M  END
>  <ref_url>  (99) 
https://github.com/stephwills/fragment_network_merges

>  <submitter_name>  (99) 
Steph Wills

>  <submitter_institution>  (99) 
University of Oxford

>  <submitter_email>  (99) 
stephanie.wills@balliol.ox.ac.uk

>  <generation_date>  (99) 
2023-08-10

>  <method>  (99) 
fragnetv3_corrected

>  <original SMILES>  (99) 
Cc1ccc(F)cc1C(=O)NC1CCC2(CCCN2)CC1

>  <original_name>  (99) 
x0980_0B-x0771_0A_7

>  <ref_mols>  (99) 
x0980_0B,x0771_0A

>  <ref_pdb>  (99) 
x0980_0B

>  <SuCOS_score>  (99) 
0.3247878001723878

>  <compound ID>  (99) 
ENAMINE:Z3798177422

$$$$
x1052_1A-x0771_0A_27
     RDKit          3D

 22 24  0  0  0  0  0  0  0  0999 V2000
   -4.0230   -7.6370   -1.3500 C   0  0  0  0  0  0  0  0  0  0  0  0
   -5.1880   -6.7440   -1.2400 C   0  0  0  0  0  0  0  0  0  0  0  0
   -5.6110   -5.6450   -1.9410 C   0  0  0  0  0  0  0  0  0  0  0  0
   -6.8100   -5.2540   -1.3050 C   0  0  0  0  0  0  0  0  0  0  0  0
   -7.7300   -4.1210   -1.6090 C   0  0  0  0  0  0  0  0  0  0  0  0
   -8.9890   -4.5630   -2.1520 O   0  0  0  0  0  0  0  0  0  0  0  0
   -8.9970   -4.6870   -3.5820 C   0  0  0  0  0  0  0  0  0  0  0  0
   -7.6160   -4.5290   -4.2250 C   0  0  0  0  0  0  0  0  0  0  0  0
   -6.8110   -3.7080   -3.8330 O   0  0  0  0  0  0  0  0  0  0  0  0
   -7.3380   -5.3840   -5.2780 N   0  0  0  0  0  0  0  0  0  0  0  0
   -8.0290   -5.3820   -6.5530 C   0  0  2  0  0  0  0  0  0  0  0  0
   -9.2920   -6.1050   -6.2510 C   0  0  0  0  0  0  0  0  0  0  0  0
   -8.8790   -7.2930   -5.3930 C   0  0  0  0  0  0  0  0  0  0  0  0
   -7.9400   -8.2730   -6.1300 C   0  0  2  0  0  0  0  0  0  0  0  0
   -8.6870   -9.5630   -6.4500 C   0  0  0  0  0  0  0  0  0  0  0  0
   -7.5430  -10.2970   -7.0660 C   0  0  0  0  0  0  0  0  0  0  0  0
   -6.6540  -10.1990   -5.8430 C   0  0  0  0  0  0  0  0  0  0  0  0
   -7.0150   -8.9190   -5.2000 N   0  0  0  0  0  0  0  0  0  0  0  0
   -7.1090   -7.6570   -7.3050 C   0  0  0  0  0  0  0  0  0  0  0  0
   -7.2730   -6.1590   -7.6330 C   0  0  0  0  0  0  0  0  0  0  0  0
   -7.1020   -6.0670   -0.2890 N   0  0  0  0  0  0  0  0  0  0  0  0
   -6.0860   -7.0020   -0.2450 O   0  0  0  0  0  0  0  0  0  0  0  0
  1  2  1  0
  2  3  2  0
  3  4  1  0
  4  5  1  0
  5  6  1  0
  6  7  1  0
  7  8  1  0
  8  9  2  0
  8 10  1  0
 11 10  1  1
 11 12  1  0
 12 13  1  0
 14 13  1  1
 14 15  1  0
 15 16  1  0
 16 17  1  0
 17 18  1  0
 14 19  1  0
 19 20  1  0
  4 21  2  0
 21 22  1  0
 22  2  1  0
 20 11  1  0
 18 14  1  0
A    1
 C1 
A    2
 C2 
A    3
 C3 
A    4
 C4 
A    5
 C5 
A    6
 O1 
A    7
 C6 
A    8
 C7 
A    9
 O2 
A   10
 N1 
A   11
 C8 
A   12
 C9 
A   13
 C10
A   14
 C11
A   15
 C12
A   16
 C13
A   17
 C14
A   18
 N2 
A   19
 C15
A   20
 C16
A   21
 N3 
A   22
 O3 
M  END
>  <ref_url>  (100) 
https://github.com/stephwills/fragment_network_merges

>  <submitter_name>  (100) 
Steph Wills

>  <submitter_institution>  (100) 
University of Oxford

>  <submitter_email>  (100) 
stephanie.wills@balliol.ox.ac.uk

>  <generation_date>  (100) 
2023-08-10

>  <method>  (100) 
fragnetv3_corrected

>  <original SMILES>  (100) 
Cc1cc(COCC(=O)NC2CCC3(CCCN3)CC2)no1

>  <original_name>  (100) 
x1052_1A-x0771_0A_27

>  <ref_mols>  (100) 
x1052_1A,x0771_0A

>  <ref_pdb>  (100) 
x1052_1A

>  <SuCOS_score>  (100) 
0.41230353239974354

>  <compound ID>  (100) 
ENAMINE:Z3798153455

$$$$
x1052_1A-x0771_0A_36
     RDKit          3D

 22 24  0  0  0  0  0  0  0  0999 V2000
   -5.6010   -3.1160   -2.2950 C   0  0  0  0  0  0  0  0  0  0  0  0
   -6.9200   -3.7650   -1.8620 C   0  0  0  0  0  0  0  0  0  0  0  0
   -7.5870   -2.8880   -0.8020 C   0  0  0  0  0  0  0  0  0  0  0  0
   -6.7330   -5.1730   -1.3620 C   0  0  0  0  0  0  0  0  0  0  0  0
   -7.1870   -5.5250   -0.1670 N   0  0  0  0  0  0  0  0  0  0  0  0
   -6.8530   -6.8510    0.0160 O   0  0  0  0  0  0  0  0  0  0  0  0
   -6.2120   -7.2980   -1.0760 C   0  0  0  0  0  0  0  0  0  0  0  0
   -6.1150   -6.2870   -1.9830 C   0  0  0  0  0  0  0  0  0  0  0  0
   -5.5180   -6.3510   -3.2930 C   0  0  0  0  0  0  0  0  0  0  0  0
   -6.6340   -6.2400   -4.2000 N   0  0  0  0  0  0  0  0  0  0  0  0
   -6.5420   -6.6660   -5.4860 C   0  0  0  0  0  0  0  0  0  0  0  0
   -5.7980   -7.5870   -5.8010 O   0  0  0  0  0  0  0  0  0  0  0  0
   -7.3670   -5.9150   -6.5430 C   0  0  2  0  0  0  0  0  0  0  0  0
   -8.7830   -5.9380   -6.1150 C   0  0  0  0  0  0  0  0  0  0  0  0
   -9.1390   -7.3700   -5.7600 C   0  0  0  0  0  0  0  0  0  0  0  0
   -8.1570   -8.4810   -6.2810 C   0  0  2  0  0  0  0  0  0  0  0  0
   -8.8500   -9.8210   -6.4730 C   0  0  0  0  0  0  0  0  0  0  0  0
   -7.6510  -10.5870   -6.9110 C   0  0  0  0  0  0  0  0  0  0  0  0
   -6.7410  -10.2240   -5.7490 C   0  0  0  0  0  0  0  0  0  0  0  0
   -7.2940   -8.9730   -5.1910 N   0  0  0  0  0  0  0  0  0  0  0  0
   -7.1920   -8.1120   -7.4610 C   0  0  0  0  0  0  0  0  0  0  0  0
   -7.1880   -6.6430   -7.8390 C   0  0  0  0  0  0  0  0  0  0  0  0
  1  2  1  0
  2  3  1  0
  2  4  1  0
  4  5  2  0
  5  6  1  0
  6  7  1  0
  7  8  2  0
  8  9  1  0
  9 10  1  0
 10 11  1  0
 11 12  2  0
 13 11  1  1
 13 14  1  0
 14 15  1  0
 16 15  1  1
 16 17  1  0
 17 18  1  0
 18 19  1  0
 19 20  1  0
 16 21  1  0
 21 22  1  0
  8  4  1  0
 22 13  1  0
 20 16  1  0
A    1
 C1 
A    2
 C2 
A    3
 C3 
A    4
 C4 
A    5
 N1 
A    6
 O1 
A    7
 C5 
A    8
 C6 
A    9
 C7 
A   10
 N2 
A   11
 C8 
A   12
 O2 
A   13
 C9 
A   14
 C10
A   15
 C11
A   16
 C12
A   17
 C13
A   18
 C14
A   19
 C15
A   20
 N3 
A   21
 C16
A   22
 C17
M  END
>  <ref_url>  (101) 
https://github.com/stephwills/fragment_network_merges

>  <submitter_name>  (101) 
Steph Wills

>  <submitter_institution>  (101) 
University of Oxford

>  <submitter_email>  (101) 
stephanie.wills@balliol.ox.ac.uk

>  <generation_date>  (101) 
2023-08-10

>  <method>  (101) 
fragnetv3_corrected

>  <original SMILES>  (101) 
CC(C)c1nocc1CNC(=O)C1CCC2(CCCN2)CC1

>  <original_name>  (101) 
x1052_1A-x0771_0A_36

>  <ref_mols>  (101) 
x1052_1A,x0771_0A

>  <ref_pdb>  (101) 
x1052_1A

>  <SuCOS_score>  (101) 
0.40901919907667883

>  <compound ID>  (101) 
ENAMINE:Z3794304786

$$$$
x1052_1A-x0771_0A_52
     RDKit          3D

 22 24  0  0  0  0  0  0  0  0999 V2000
   -1.0840   -6.8920    1.4320 C   0  0  0  0  0  0  0  0  0  0  0  0
   -2.4090   -7.6090    1.3590 C   0  0  0  0  0  0  0  0  0  0  0  0
   -2.9870   -7.7640   -0.3560 S   0  0  0  0  0  0  0  0  0  0  0  0
   -4.7700   -7.8510   -0.0310 C   0  0  0  0  0  0  0  0  0  0  0  0
   -5.5300   -6.9420   -0.9090 C   0  0  0  0  0  0  0  0  0  0  0  0
   -5.4140   -6.5010   -2.2020 C   0  0  0  0  0  0  0  0  0  0  0  0
   -6.5190   -5.6320   -2.4070 C   0  0  0  0  0  0  0  0  0  0  0  0
   -6.8720   -4.9010   -3.6500 C   0  0  0  0  0  0  0  0  0  0  0  0
   -6.9060   -3.6850   -3.7060 O   0  0  0  0  0  0  0  0  0  0  0  0
   -7.1470   -5.7210   -4.7690 N   0  0  0  0  0  0  0  0  0  0  0  0
   -7.8020   -5.3170   -6.0420 C   0  0  2  0  0  0  0  0  0  0  0  0
   -9.0760   -6.1040   -6.1460 C   0  0  0  0  0  0  0  0  0  0  0  0
   -8.8070   -7.6220   -6.0800 C   0  0  0  0  0  0  0  0  0  0  0  0
   -7.3940   -8.1500   -6.4830 C   0  0  2  0  0  0  0  0  0  0  0  0
   -7.2720   -9.1310   -7.6030 C   0  0  0  0  0  0  0  0  0  0  0  0
   -8.1120  -10.2720   -7.1790 C   0  0  0  0  0  0  0  0  0  0  0  0
   -7.5330  -10.4250   -5.7880 C   0  0  0  0  0  0  0  0  0  0  0  0
   -6.9490   -9.1060   -5.4560 N   0  0  0  0  0  0  0  0  0  0  0  0
   -6.3830   -7.0870   -6.9160 C   0  0  0  0  0  0  0  0  0  0  0  0
   -7.0380   -5.7680   -7.2690 C   0  0  0  0  0  0  0  0  0  0  0  0
   -7.2510   -5.5530   -1.2730 N   0  0  0  0  0  0  0  0  0  0  0  0
   -6.6310   -6.3730   -0.3510 O   0  0  0  0  0  0  0  0  0  0  0  0
  1  2  1  0
  2  3  1  0
  3  4  1  0
  4  5  1  0
  5  6  2  0
  6  7  1  0
  7  8  1  0
  8  9  2  0
  8 10  1  0
 11 10  1  1
 11 12  1  0
 12 13  1  0
 14 13  1  1
 14 15  1  0
 15 16  1  0
 16 17  1  0
 17 18  1  0
 14 19  1  0
 19 20  1  0
  7 21  2  0
 21 22  1  0
 22  5  1  0
 20 11  1  0
 18 14  1  0
A    1
 C1 
A    2
 C2 
A    3
 S1 
A    4
 C3 
A    5
 C4 
A    6
 C5 
A    7
 C6 
A    8
 C7 
A    9
 O1 
A   10
 N1 
A   11
 C8 
A   12
 C9 
A   13
 C10
A   14
 C11
A   15
 C12
A   16
 C13
A   17
 C14
A   18
 N2 
A   19
 C15
A   20
 C16
A   21
 N3 
A   22
 O2 
M  END
>  <ref_url>  (102) 
https://github.com/stephwills/fragment_network_merges

>  <submitter_name>  (102) 
Steph Wills

>  <submitter_institution>  (102) 
University of Oxford

>  <submitter_email>  (102) 
stephanie.wills@balliol.ox.ac.uk

>  <generation_date>  (102) 
2023-08-10

>  <method>  (102) 
fragnetv3_corrected

>  <original SMILES>  (102) 
CCSCc1cc(C(=O)NC2CCC3(CCCN3)CC2)no1

>  <original_name>  (102) 
x1052_1A-x0771_0A_52

>  <ref_mols>  (102) 
x1052_1A,x0771_0A

>  <ref_pdb>  (102) 
x1052_1A

>  <SuCOS_score>  (102) 
0.3854764880926083

>  <compound ID>  (102) 
ENAMINE:Z4056127107

$$$$
x1052_1A-x0771_0A_43
     RDKit          3D

 23 26  0  0  0  0  0  0  0  0999 V2000
   -5.7640   -9.5960   -2.8080 O   0  0  0  0  0  0  0  0  0  0  0  0
   -6.3320   -8.6070   -3.2660 C   0  0  0  0  0  0  0  0  0  0  0  0
   -6.4090   -7.3510   -2.5030 C   0  0  0  0  0  0  0  0  0  0  0  0
   -6.1060   -6.0330   -2.7930 C   0  0  0  0  0  0  0  0  0  0  0  0
   -6.4540   -5.3050   -1.6390 C   0  0  0  0  0  0  0  0  0  0  0  0
   -6.3810   -3.8420   -1.3540 C   0  0  0  0  0  0  0  0  0  0  0  0
   -7.7300   -3.2370   -0.9550 C   0  0  0  0  0  0  0  0  0  0  0  0
   -7.5030   -1.7950   -0.5310 C   0  0  0  0  0  0  0  0  0  0  0  0
   -6.0960   -1.5650   -0.4500 O   0  0  0  0  0  0  0  0  0  0  0  0
   -5.5210   -1.5790   -1.7710 C   0  0  0  0  0  0  0  0  0  0  0  0
   -5.7130   -2.9590   -2.3970 C   0  0  0  0  0  0  0  0  0  0  0  0
   -6.9220   -6.1120   -0.6830 N   0  0  0  0  0  0  0  0  0  0  0  0
   -6.8920   -7.3890   -1.2150 O   0  0  0  0  0  0  0  0  0  0  0  0
   -6.9770   -8.6610   -4.5560 N   0  0  0  0  0  0  0  0  0  0  0  0
   -6.8610   -9.7490   -5.5650 C   0  0  0  0  0  0  0  0  0  0  0  0
   -7.2820   -9.2470   -6.9400 C   0  0  0  0  0  0  0  0  0  0  0  0
   -7.0320   -7.7530   -6.9520 C   0  0  1  0  0  0  0  0  0  0  0  0
   -6.9700   -7.2650   -8.3040 N   0  0  0  0  0  0  0  0  0  0  0  0
   -6.8740   -5.8170   -8.3470 C   0  0  0  0  0  0  0  0  0  0  0  0
   -7.9480   -5.0660   -7.5520 C   0  0  0  0  0  0  0  0  0  0  0  0
   -8.0550   -5.5560   -6.1130 C   0  0  0  0  0  0  0  0  0  0  0  0
   -8.1140   -7.0860   -6.1110 C   0  0  2  0  0  0  0  0  0  0  0  0
   -8.0980   -7.7160   -4.7320 C   0  0  0  0  0  0  0  0  0  0  0  0
  1  2  2  0
  2  3  1  0
  3  4  2  0
  4  5  1  0
  5  6  1  0
  6  7  1  0
  7  8  1  0
  8  9  1  0
  9 10  1  0
 10 11  1  0
  5 12  2  0
 12 13  1  0
  2 14  1  0
 14 15  1  0
 15 16  1  0
 17 16  1  6
 17 18  1  0
 18 19  1  0
 19 20  1  0
 20 21  1  0
 22 21  1  1
 22 23  1  0
 13  3  1  0
 23 14  1  0
 11  6  1  0
 22 17  1  0
A    1
 O1 
A    2
 C1 
A    3
 C2 
A    4
 C3 
A    5
 C4 
A    6
 C5 
A    7
 C6 
A    8
 C7 
A    9
 O2 
A   10
 C8 
A   11
 C9 
A   12
 N1 
A   13
 O3 
A   14
 N2 
A   15
 C10
A   16
 C11
A   17
 C12
A   18
 N3 
A   19
 C13
A   20
 C14
A   21
 C15
A   22
 C16
A   23
 C17
M  END
>  <ref_url>  (103) 
https://github.com/stephwills/fragment_network_merges

>  <submitter_name>  (103) 
Steph Wills

>  <submitter_institution>  (103) 
University of Oxford

>  <submitter_email>  (103) 
stephanie.wills@balliol.ox.ac.uk

>  <generation_date>  (103) 
2023-08-10

>  <method>  (103) 
fragnetv3_corrected

>  <original SMILES>  (103) 
O=C(c1cc(C2CCOCC2)no1)N1CCC2NCCCC2C1

>  <original_name>  (103) 
x1052_1A-x0771_0A_43

>  <ref_mols>  (103) 
x1052_1A,x0771_0A

>  <ref_pdb>  (103) 
x1052_1A

>  <SuCOS_score>  (103) 
0.3836939719460271

>  <compound ID>  (103) 
ENAMINE:Z3519181941

$$$$
x1052_1A-x0771_0A_87
     RDKit          3D

 22 25  0  0  0  0  0  0  0  0999 V2000
   -6.5920   -6.1320   -4.5350 O   0  0  0  0  0  0  0  0  0  0  0  0
   -7.4040   -5.2640   -4.8470 C   0  0  0  0  0  0  0  0  0  0  0  0
   -8.1410   -5.3150   -6.2160 C   0  0  2  0  0  0  0  0  0  0  0  0
   -9.4080   -6.0510   -5.9200 C   0  0  0  0  0  0  0  0  0  0  0  0
   -9.0000   -7.2550   -5.0960 C   0  0  0  0  0  0  0  0  0  0  0  0
   -8.0870   -8.2300   -5.8750 C   0  0  2  0  0  0  0  0  0  0  0  0
   -8.8390   -9.3730   -6.2560 C   0  0  0  0  0  0  0  0  0  0  0  0
   -7.7970  -10.1240   -6.6590 C   0  0  0  0  0  0  0  0  0  0  0  0
   -6.6550  -10.0920   -5.7580 C   0  0  0  0  0  0  0  0  0  0  0  0
   -7.0630   -8.8950   -5.0260 N   0  0  0  0  0  0  0  0  0  0  0  0
   -7.2440   -7.6060   -7.0440 C   0  0  0  0  0  0  0  0  0  0  0  0
   -7.3840   -6.0970   -7.2960 C   0  0  0  0  0  0  0  0  0  0  0  0
   -7.6850   -4.2410   -3.9550 N   0  0  0  0  0  0  0  0  0  0  0  0
   -8.9520   -4.0250   -3.2760 C   0  0  0  0  0  0  0  0  0  0  0  0
   -8.6170   -3.9940   -1.7820 C   0  0  0  0  0  0  0  0  0  0  0  0
   -7.0790   -4.0150   -1.6770 C   0  0  1  0  0  0  0  0  0  0  0  0
   -6.5280   -5.3260   -1.2470 C   0  0  0  0  0  0  0  0  0  0  0  0
   -5.3720   -6.0080   -1.7030 C   0  0  0  0  0  0  0  0  0  0  0  0
   -5.3560   -7.1570   -0.9650 C   0  0  0  0  0  0  0  0  0  0  0  0
   -6.4230   -7.1670   -0.1280 O   0  0  0  0  0  0  0  0  0  0  0  0
   -7.1630   -6.0160   -0.3030 N   0  0  0  0  0  0  0  0  0  0  0  0
   -6.6230   -3.7330   -3.0850 C   0  0  0  0  0  0  0  0  0  0  0  0
  1  2  2  0
  3  2  1  1
  3  4  1  0
  4  5  1  0
  6  5  1  1
  6  7  1  0
  7  8  1  0
  8  9  1  0
  9 10  1  0
  6 11  1  0
 11 12  1  0
  2 13  1  0
 13 14  1  0
 14 15  1  0
 15 16  1  0
 16 17  1  6
 17 18  1  0
 18 19  2  0
 19 20  1  0
 20 21  1  0
 16 22  1  0
 12  3  1  0
 22 13  1  0
 10  6  1  0
 21 17  2  0
A    1
 O1 
A    2
 C1 
A    3
 C2 
A    4
 C3 
A    5
 C4 
A    6
 C5 
A    7
 C6 
A    8
 C7 
A    9
 C8 
A   10
 N1 
A   11
 C9 
A   12
 C10
A   13
 N2 
A   14
 C11
A   15
 C12
A   16
 C13
A   17
 C14
A   18
 C15
A   19
 C16
A   20
 O2 
A   21
 N3 
A   22
 C17
M  END
>  <ref_url>  (104) 
https://github.com/stephwills/fragment_network_merges

>  <submitter_name>  (104) 
Steph Wills

>  <submitter_institution>  (104) 
University of Oxford

>  <submitter_email>  (104) 
stephanie.wills@balliol.ox.ac.uk

>  <generation_date>  (104) 
2023-08-10

>  <method>  (104) 
fragnetv3_corrected

>  <original SMILES>  (104) 
O=C(C1CCC2(CCCN2)CC1)N1CCC(c2ccon2)C1

>  <original_name>  (104) 
x1052_1A-x0771_0A_87

>  <ref_mols>  (104) 
x1052_1A,x0771_0A

>  <ref_pdb>  (104) 
x1052_1A

>  <SuCOS_score>  (104) 
0.37931700951230685

>  <compound ID>  (104) 
ENAMINE:Z3795079293

$$$$
x1052_1A-x0771_0A_67
     RDKit          3D

 23 26  0  0  0  0  0  0  0  0999 V2000
   -5.7580   -9.3980   -2.6690 O   0  0  0  0  0  0  0  0  0  0  0  0
   -6.3740   -8.4580   -3.1710 C   0  0  0  0  0  0  0  0  0  0  0  0
   -6.5090   -7.1690   -2.4060 C   0  0  0  0  0  0  0  0  0  0  0  0
   -6.3130   -5.8520   -2.7750 C   0  0  0  0  0  0  0  0  0  0  0  0
   -6.6430   -5.0530   -1.6470 C   0  0  0  0  0  0  0  0  0  0  0  0
   -6.6290   -3.5450   -1.5370 C   0  0  0  0  0  0  0  0  0  0  0  0
   -7.2130   -2.8750   -0.4510 C   0  0  0  0  0  0  0  0  0  0  0  0
   -7.1950   -1.3420   -0.3090 C   0  0  0  0  0  0  0  0  0  0  0  0
   -6.5020   -0.5780   -1.4290 C   0  0  0  0  0  0  0  0  0  0  0  0
   -5.9460   -1.2670   -2.4890 C   0  0  0  0  0  0  0  0  0  0  0  0
   -6.0210   -2.7810   -2.5360 C   0  0  0  0  0  0  0  0  0  0  0  0
   -7.0020   -5.8530   -0.6300 N   0  0  0  0  0  0  0  0  0  0  0  0
   -6.9130   -7.1510   -1.0960 O   0  0  0  0  0  0  0  0  0  0  0  0
   -7.0000   -8.5930   -4.4720 N   0  0  0  0  0  0  0  0  0  0  0  0
   -6.8730   -9.7090   -5.4500 C   0  0  0  0  0  0  0  0  0  0  0  0
   -7.2780   -9.2550   -6.8460 C   0  0  0  0  0  0  0  0  0  0  0  0
   -7.0630   -7.7600   -6.9380 C   0  0  1  0  0  0  0  0  0  0  0  0
   -6.9640   -7.2820   -8.2940 N   0  0  0  0  0  0  0  0  0  0  0  0
   -6.8440   -5.8350   -8.3700 C   0  0  0  0  0  0  0  0  0  0  0  0
   -7.9180   -5.0640   -7.6090 C   0  0  0  0  0  0  0  0  0  0  0  0
   -8.0790   -5.5650   -6.1770 C   0  0  0  0  0  0  0  0  0  0  0  0
   -8.1560   -7.0980   -6.1180 C   0  0  2  0  0  0  0  0  0  0  0  0
   -8.1180   -7.6690   -4.7130 C   0  0  0  0  0  0  0  0  0  0  0  0
  1  2  2  0
  2  3  1  0
  3  4  2  0
  4  5  1  0
  5  6  1  0
  6  7  2  0
  7  8  1  0
  8  9  2  0
  9 10  1  0
 10 11  2  0
  5 12  2  0
 12 13  1  0
  2 14  1  0
 14 15  1  0
 15 16  1  0
 17 16  1  6
 17 18  1  0
 18 19  1  0
 19 20  1  0
 20 21  1  0
 22 21  1  1
 22 23  1  0
 13  3  1  0
 23 14  1  0
 11  6  1  0
 22 17  1  0
A    1
 O1 
A    2
 C1 
A    3
 C2 
A    4
 C3 
A    5
 C4 
A    6
 C5 
A    7
 C6 
A    8
 C7 
A    9
 C8 
A   10
 C9 
A   11
 C10
A   12
 N1 
A   13
 O2 
A   14
 N2 
A   15
 C11
A   16
 C12
A   17
 C13
A   18
 N3 
A   19
 C14
A   20
 C15
A   21
 C16
A   22
 C17
A   23
 C18
M  END
>  <ref_url>  (105) 
https://github.com/stephwills/fragment_network_merges

>  <submitter_name>  (105) 
Steph Wills

>  <submitter_institution>  (105) 
University of Oxford

>  <submitter_email>  (105) 
stephanie.wills@balliol.ox.ac.uk

>  <generation_date>  (105) 
2023-08-10

>  <method>  (105) 
fragnetv3_corrected

>  <original SMILES>  (105) 
O=C(c1cc(-c2ccccc2)no1)N1CCC2NCCCC2C1

>  <original_name>  (105) 
x1052_1A-x0771_0A_67

>  <ref_mols>  (105) 
x1052_1A,x0771_0A

>  <ref_pdb>  (105) 
x1052_1A

>  <SuCOS_score>  (105) 
0.37696413508261717

>  <compound ID>  (105) 
ENAMINE:Z3385134185

$$$$
x1052_1A-x0771_0A_79
     RDKit          3D

 20 22  0  0  0  0  0  0  0  0999 V2000
   -6.2800   -3.6050   -2.0410 C   0  0  0  0  0  0  0  0  0  0  0  0
   -6.3210   -5.0420   -1.5100 C   0  0  0  0  0  0  0  0  0  0  0  0
   -5.4010   -6.0760   -2.1200 C   0  0  0  0  0  0  0  0  0  0  0  0
   -5.7420   -7.2000   -1.3980 C   0  0  0  0  0  0  0  0  0  0  0  0
   -5.3100   -8.6200   -1.3940 C   0  0  0  0  0  0  0  0  0  0  0  0
   -5.5600   -9.1890   -2.6860 O   0  0  0  0  0  0  0  0  0  0  0  0
   -6.6430  -10.1180   -2.7560 C   0  0  0  0  0  0  0  0  0  0  0  0
   -7.0270  -10.4370   -4.1630 C   0  0  0  0  0  0  0  0  0  0  0  0
   -7.0910  -11.6110   -4.5310 O   0  0  0  0  0  0  0  0  0  0  0  0
   -7.3060   -9.3690   -5.0170 N   0  0  0  0  0  0  0  0  0  0  0  0
   -6.7220   -8.0740   -4.6590 C   0  0  0  0  0  0  0  0  0  0  0  0
   -7.5040   -6.9240   -5.2450 C   0  0  0  0  0  0  0  0  0  0  0  0
   -7.4570   -7.0170   -6.7410 C   0  0  0  0  0  0  0  0  0  0  0  0
   -8.2200   -5.9590   -7.4620 C   0  0  0  0  0  0  0  0  0  0  0  0
   -7.0960   -5.4940   -8.3350 C   0  0  0  0  0  0  0  0  0  0  0  0
   -6.2840   -6.3010   -7.3660 N   0  0  0  0  0  0  0  0  0  0  0  0
   -7.1800   -8.4430   -7.2620 C   0  0  0  0  0  0  0  0  0  0  0  0
   -7.8270   -9.5010   -6.3850 C   0  0  0  0  0  0  0  0  0  0  0  0
   -6.7230   -6.8780   -0.4790 O   0  0  0  0  0  0  0  0  0  0  0  0
   -7.0880   -5.5340   -0.5470 N   0  0  0  0  0  0  0  0  0  0  0  0
  1  2  1  0
  2  3  1  0
  3  4  2  0
  4  5  1  0
  5  6  1  0
  6  7  1  0
  7  8  1  0
  8  9  2  0
  8 10  1  0
 10 11  1  0
 11 12  1  0
 12 13  1  0
 13 14  1  0
 14 15  1  0
 15 16  1  0
 13 17  1  0
 17 18  1  0
  4 19  1  0
 19 20  1  0
 20  2  2  0
 18 10  1  0
 16 13  1  0
A    1
 C1 
A    2
 C2 
A    3
 C3 
A    4
 C4 
A    5
 C5 
A    6
 O1 
A    7
 C6 
A    8
 C7 
A    9
 O2 
A   10
 N1 
A   11
 C8 
A   12
 C9 
A   13
 C10
A   14
 C11
A   15
 C12
A   16
 N2 
A   17
 C13
A   18
 C14
A   19
 O3 
A   20
 N3 
M  END
>  <ref_url>  (106) 
https://github.com/stephwills/fragment_network_merges

>  <submitter_name>  (106) 
Steph Wills

>  <submitter_institution>  (106) 
University of Oxford

>  <submitter_email>  (106) 
stephanie.wills@balliol.ox.ac.uk

>  <generation_date>  (106) 
2023-08-10

>  <method>  (106) 
fragnetv3_corrected

>  <original SMILES>  (106) 
Cc1cc(COCC(=O)N2CCC3(CCN3)CC2)on1

>  <original_name>  (106) 
x1052_1A-x0771_0A_79

>  <ref_mols>  (106) 
x1052_1A,x0771_0A

>  <ref_pdb>  (106) 
x1052_1A

>  <SuCOS_score>  (106) 
0.37497902263114263

>  <compound ID>  (106) 
ENAMINE:Z2441847784

$$$$
x1052_1A-x0771_0A_97
     RDKit          3D

 19 21  0  0  0  0  0  0  0  0999 V2000
   -9.1750   -5.2280   -3.6210 O   0  0  0  0  0  0  0  0  0  0  0  0
   -8.0740   -4.7960   -3.9600 C   0  0  0  0  0  0  0  0  0  0  0  0
   -6.9990   -4.5870   -2.9590 C   0  0  0  0  0  0  0  0  0  0  0  0
   -6.5970   -5.4220   -1.9400 C   0  0  0  0  0  0  0  0  0  0  0  0
   -5.3990   -6.1150   -2.1880 C   0  0  0  0  0  0  0  0  0  0  0  0
   -5.2580   -6.8570   -1.0430 C   0  0  0  0  0  0  0  0  0  0  0  0
   -6.3060   -6.6030   -0.1960 O   0  0  0  0  0  0  0  0  0  0  0  0
   -7.1730   -5.6760   -0.7640 N   0  0  0  0  0  0  0  0  0  0  0  0
   -7.7450   -4.4520   -5.2730 N   0  0  0  0  0  0  0  0  0  0  0  0
   -8.3360   -5.1660   -6.4390 C   0  0  2  0  0  0  0  0  0  0  0  0
   -9.2460   -6.2070   -5.8760 C   0  0  0  0  0  0  0  0  0  0  0  0
   -8.3720   -7.1720   -5.0890 C   0  0  0  0  0  0  0  0  0  0  0  0
   -7.4820   -7.9860   -6.0340 C   0  0  2  0  0  0  0  0  0  0  0  0
   -8.6990   -8.8240   -6.3300 C   0  0  0  0  0  0  0  0  0  0  0  0
   -7.9850   -9.9450   -7.0390 C   0  0  0  0  0  0  0  0  0  0  0  0
   -7.1210  -10.3130   -5.8580 C   0  0  0  0  0  0  0  0  0  0  0  0
   -6.6560   -9.0060   -5.3680 N   0  0  0  0  0  0  0  0  0  0  0  0
   -6.8970   -7.2480   -7.2720 C   0  0  0  0  0  0  0  0  0  0  0  0
   -7.3360   -5.7760   -7.4780 C   0  0  0  0  0  0  0  0  0  0  0  0
  1  2  2  0
  2  3  1  0
  3  4  1  0
  4  5  1  0
  5  6  2  0
  6  7  1  0
  7  8  1  0
  2  9  1  0
 10  9  1  1
 10 11  1  0
 11 12  1  0
 13 12  1  1
 13 14  1  0
 14 15  1  0
 15 16  1  0
 16 17  1  0
 13 18  1  0
 18 19  1  0
  8  4  2  0
 19 10  1  0
 17 13  1  0
A    1
 O1 
A    2
 C1 
A    3
 C2 
A    4
 C3 
A    5
 C4 
A    6
 C5 
A    7
 O2 
A    8
 N1 
A    9
 N2 
A   10
 C6 
A   11
 C7 
A   12
 C8 
A   13
 C9 
A   14
 C10
A   15
 C11
A   16
 C12
A   17
 N3 
A   18
 C13
A   19
 C14
M  END
>  <ref_url>  (107) 
https://github.com/stephwills/fragment_network_merges

>  <submitter_name>  (107) 
Steph Wills

>  <submitter_institution>  (107) 
University of Oxford

>  <submitter_email>  (107) 
stephanie.wills@balliol.ox.ac.uk

>  <generation_date>  (107) 
2023-08-10

>  <method>  (107) 
fragnetv3_corrected

>  <original SMILES>  (107) 
O=C(Cc1ccon1)NC1CCC2(CCCN2)CC1

>  <original_name>  (107) 
x1052_1A-x0771_0A_97

>  <ref_mols>  (107) 
x1052_1A,x0771_0A

>  <ref_pdb>  (107) 
x1052_1A

>  <SuCOS_score>  (107) 
0.3679257387164859

>  <compound ID>  (107) 
ENAMINE:Z3798166665

$$$$
x1052_1A-x0771_0A_18
     RDKit          3D

 21 23  0  0  0  0  0  0  0  0999 V2000
   -3.8600   -7.5000   -1.0530 C   0  0  0  0  0  0  0  0  0  0  0  0
   -5.1130   -6.7340   -1.1840 C   0  0  0  0  0  0  0  0  0  0  0  0
   -5.5950   -5.8720   -2.1290 C   0  0  0  0  0  0  0  0  0  0  0  0
   -6.8530   -5.4970   -1.6310 C   0  0  0  0  0  0  0  0  0  0  0  0
   -7.7260   -4.6530   -2.2220 O   0  0  0  0  0  0  0  0  0  0  0  0
   -7.3490   -4.2720   -3.5420 C   0  0  0  0  0  0  0  0  0  0  0  0
   -8.5550   -4.2030   -4.4970 C   0  0  0  0  0  0  0  0  0  0  0  0
   -9.7100   -4.1190   -4.0770 O   0  0  0  0  0  0  0  0  0  0  0  0
   -8.2440   -4.2360   -5.8600 N   0  0  0  0  0  0  0  0  0  0  0  0
   -8.6320   -5.3590   -6.6990 C   0  0  2  0  0  0  0  0  0  0  0  0
   -9.2100   -6.3580   -5.7400 C   0  0  0  0  0  0  0  0  0  0  0  0
   -8.0750   -7.0770   -5.0540 C   0  0  0  0  0  0  0  0  0  0  0  0
   -7.5740   -8.1100   -6.0360 C   0  0  2  0  0  0  0  0  0  0  0  0
   -8.6820   -9.1090   -6.3120 C   0  0  0  0  0  0  0  0  0  0  0  0
   -7.8600  -10.1270   -7.0460 C   0  0  0  0  0  0  0  0  0  0  0  0
   -6.9300  -10.3780   -5.8870 C   0  0  0  0  0  0  0  0  0  0  0  0
   -6.5560   -9.0140   -5.4580 N   0  0  0  0  0  0  0  0  0  0  0  0
   -7.0450   -7.4030   -7.3120 C   0  0  0  0  0  0  0  0  0  0  0  0
   -7.4680   -5.9260   -7.5400 C   0  0  0  0  0  0  0  0  0  0  0  0
   -7.1370   -6.0720   -0.4670 N   0  0  0  0  0  0  0  0  0  0  0  0
   -6.0340   -6.8620   -0.1830 O   0  0  0  0  0  0  0  0  0  0  0  0
  1  2  1  0
  2  3  2  0
  3  4  1  0
  4  5  1  0
  5  6  1  0
  6  7  1  0
  7  8  2  0
  7  9  1  0
 10  9  1  1
 10 11  1  0
 11 12  1  0
 13 12  1  1
 13 14  1  0
 14 15  1  0
 15 16  1  0
 16 17  1  0
 13 18  1  0
 18 19  1  0
  4 20  2  0
 20 21  1  0
 21  2  1  0
 19 10  1  0
 17 13  1  0
A    1
 C1 
A    2
 C2 
A    3
 C3 
A    4
 C4 
A    5
 O1 
A    6
 C5 
A    7
 C6 
A    8
 O2 
A    9
 N1 
A   10
 C7 
A   11
 C8 
A   12
 C9 
A   13
 C10
A   14
 C11
A   15
 C12
A   16
 C13
A   17
 N2 
A   18
 C14
A   19
 C15
A   20
 N3 
A   21
 O3 
M  END
>  <ref_url>  (108) 
https://github.com/stephwills/fragment_network_merges

>  <submitter_name>  (108) 
Steph Wills

>  <submitter_institution>  (108) 
University of Oxford

>  <submitter_email>  (108) 
stephanie.wills@balliol.ox.ac.uk

>  <generation_date>  (108) 
2023-08-10

>  <method>  (108) 
fragnetv3_corrected

>  <original SMILES>  (108) 
Cc1cc(OCC(=O)NC2CCC3(CCCN3)CC2)no1

>  <original_name>  (108) 
x1052_1A-x0771_0A_18

>  <ref_mols>  (108) 
x1052_1A,x0771_0A

>  <ref_pdb>  (108) 
x1052_1A

>  <SuCOS_score>  (108) 
0.3663684480900137

>  <compound ID>  (108) 
ENAMINE:Z3798178821

$$$$
x1052_1A-x0771_0A_56
     RDKit          3D

 23 26  0  0  0  0  0  0  0  0999 V2000
   -5.9100   -9.6460   -2.3650 O   0  0  0  0  0  0  0  0  0  0  0  0
   -6.1350   -8.6080   -2.9920 C   0  0  0  0  0  0  0  0  0  0  0  0
   -6.2800   -7.3100   -2.2870 C   0  0  0  0  0  0  0  0  0  0  0  0
   -5.9540   -6.0030   -2.6080 C   0  0  0  0  0  0  0  0  0  0  0  0
   -6.3900   -5.1900   -1.5200 C   0  0  0  0  0  0  0  0  0  0  0  0
   -6.2940   -3.7220   -1.4000 C   0  0  0  0  0  0  0  0  0  0  0  0
   -5.3680   -3.0200   -2.1550 C   0  0  0  0  0  0  0  0  0  0  0  0
   -5.2790   -1.6360   -2.0500 C   0  0  0  0  0  0  0  0  0  0  0  0
   -6.1290   -0.9770   -1.1810 C   0  0  0  0  0  0  0  0  0  0  0  0
   -7.0340   -1.7370   -0.4540 C   0  0  0  0  0  0  0  0  0  0  0  0
   -7.1330   -3.0860   -0.5420 N   0  0  0  0  0  0  0  0  0  0  0  0
   -6.9350   -5.9730   -0.5750 N   0  0  0  0  0  0  0  0  0  0  0  0
   -6.8630   -7.2770   -1.0450 O   0  0  0  0  0  0  0  0  0  0  0  0
   -6.2780   -8.6460   -4.4360 N   0  0  0  0  0  0  0  0  0  0  0  0
   -6.8960   -9.7350   -5.2330 C   0  0  0  0  0  0  0  0  0  0  0  0
   -7.4650   -9.2990   -6.6030 C   0  0  0  0  0  0  0  0  0  0  0  0
   -7.9860   -7.8450   -6.6860 C   0  0  2  0  0  0  0  0  0  0  0  0
   -7.3600   -7.2070   -7.8270 N   0  0  0  0  0  0  0  0  0  0  0  0
   -7.9470   -5.9110   -8.0780 C   0  0  0  0  0  0  0  0  0  0  0  0
   -7.6930   -4.9410   -6.9900 C   0  0  0  0  0  0  0  0  0  0  0  0
   -8.0290   -5.5050   -5.6100 C   0  0  0  0  0  0  0  0  0  0  0  0
   -7.7550   -7.0200   -5.4450 C   0  0  2  0  0  0  0  0  0  0  0  0
   -6.3400   -7.3490   -5.0620 C   0  0  0  0  0  0  0  0  0  0  0  0
  1  2  2  0
  2  3  1  0
  3  4  2  0
  4  5  1  0
  5  6  1  0
  6  7  2  0
  7  8  1  0
  8  9  2  0
  9 10  1  0
 10 11  2  0
  5 12  2  0
 12 13  1  0
  2 14  1  0
 14 15  1  0
 15 16  1  0
 17 16  1  1
 17 18  1  0
 18 19  1  0
 19 20  1  0
 20 21  1  0
 22 21  1  6
 22 23  1  0
 13  3  1  0
 23 14  1  0
 11  6  1  0
 22 17  1  0
A    1
 O1 
A    2
 C1 
A    3
 C2 
A    4
 C3 
A    5
 C4 
A    6
 C5 
A    7
 C6 
A    8
 C7 
A    9
 C8 
A   10
 C9 
A   11
 N1 
A   12
 N2 
A   13
 O2 
A   14
 N3 
A   15
 C10
A   16
 C11
A   17
 C12
A   18
 N4 
A   19
 C13
A   20
 C14
A   21
 C15
A   22
 C16
A   23
 C17
M  END
>  <ref_url>  (109) 
https://github.com/stephwills/fragment_network_merges

>  <submitter_name>  (109) 
Steph Wills

>  <submitter_institution>  (109) 
University of Oxford

>  <submitter_email>  (109) 
stephanie.wills@balliol.ox.ac.uk

>  <generation_date>  (109) 
2023-08-10

>  <method>  (109) 
fragnetv3_corrected

>  <original SMILES>  (109) 
O=C(c1cc(-c2ccccn2)no1)N1CCC2NCCCC2C1

>  <original_name>  (109) 
x1052_1A-x0771_0A_56

>  <ref_mols>  (109) 
x1052_1A,x0771_0A

>  <ref_pdb>  (109) 
x1052_1A

>  <SuCOS_score>  (109) 
0.3632860848696773

>  <compound ID>  (109) 
ENAMINE:Z3385132156

$$$$
x1052_1A-x0771_0A_63
     RDKit          3D

 23 25  0  0  0  0  0  0  0  0999 V2000
   -6.2880   -3.4580   -2.1730 C   0  0  0  0  0  0  0  0  0  0  0  0
   -7.1270   -4.5580   -2.6560 C   0  0  0  0  0  0  0  0  0  0  0  0
   -7.5880   -4.8000   -3.8940 C   0  0  0  0  0  0  0  0  0  0  0  0
   -6.5750   -5.8470   -2.1070 C   0  0  0  0  0  0  0  0  0  0  0  0
   -6.5100   -5.9130   -0.7720 N   0  0  0  0  0  0  0  0  0  0  0  0
   -5.9870   -7.1420   -0.4790 O   0  0  0  0  0  0  0  0  0  0  0  0
   -5.7350   -7.8220   -1.6240 C   0  0  0  0  0  0  0  0  0  0  0  0
   -6.0830   -7.0860   -2.7430 C   0  0  0  0  0  0  0  0  0  0  0  0
   -5.9470   -7.5470   -4.2600 C   0  0  0  0  0  0  0  0  0  0  0  0
   -6.9300   -8.5900   -4.7230 N   0  0  0  0  0  0  0  0  0  0  0  0
   -7.9610   -8.8940   -3.7340 C   0  0  0  0  0  0  0  0  0  0  0  0
   -6.6850   -9.5520   -5.7590 C   0  0  0  0  0  0  0  0  0  0  0  0
   -6.1360  -10.6370   -5.6280 O   0  0  0  0  0  0  0  0  0  0  0  0
   -7.2180   -9.2210   -7.1300 C   0  0  0  0  0  0  0  0  0  0  0  0
   -7.2900  -10.0610   -8.0410 O   0  0  0  0  0  0  0  0  0  0  0  0
   -7.5960   -7.9200   -7.1790 N   0  0  0  0  0  0  0  0  0  0  0  0
   -8.7450   -7.5150   -6.3730 C   0  0  0  0  0  0  0  0  0  0  0  0
   -8.4500   -6.4640   -5.3330 C   0  0  0  0  0  0  0  0  0  0  0  0
   -7.8310   -5.2610   -6.0190 C   0  0  2  0  0  0  0  0  0  0  0  0
   -8.8230   -4.4530   -6.7430 N   0  0  0  0  0  0  0  0  0  0  0  0
   -8.5350   -5.2760   -7.9210 C   0  0  0  0  0  0  0  0  0  0  0  0
   -7.1540   -5.5490   -7.3740 C   0  0  2  0  0  0  0  0  0  0  0  0
   -6.5650   -6.9400   -7.5250 C   0  0  0  0  0  0  0  0  0  0  0  0
  1  2  1  0
  2  3  1  0
  2  4  1  0
  4  5  2  0
  5  6  1  0
  6  7  1  0
  7  8  2  0
  8  9  1  0
  9 10  1  0
 10 11  1  0
 10 12  1  0
 12 13  2  0
 12 14  1  0
 14 15  2  0
 14 16  1  0
 16 17  1  0
 17 18  1  0
 19 18  1  6
 19 20  1  0
 20 21  1  0
 22 21  1  6
 22 23  1  0
  8  4  1  0
 23 16  1  0
 22 19  1  0
A    1
 C1 
A    2
 C2 
A    3
 C3 
A    4
 C4 
A    5
 N1 
A    6
 O1 
A    7
 C5 
A    8
 C6 
A    9
 C7 
A   10
 N2 
A   11
 C8 
A   12
 C9 
A   13
 O2 
A   14
 C10
A   15
 O3 
A   16
 N3 
A   17
 C11
A   18
 C12
A   19
 C13
A   20
 N4 
A   21
 C14
A   22
 C15
A   23
 C16
M  END
>  <ref_url>  (110) 
https://github.com/stephwills/fragment_network_merges

>  <submitter_name>  (110) 
Steph Wills

>  <submitter_institution>  (110) 
University of Oxford

>  <submitter_email>  (110) 
stephanie.wills@balliol.ox.ac.uk

>  <generation_date>  (110) 
2023-08-10

>  <method>  (110) 
fragnetv3_corrected

>  <original SMILES>  (110) 
CC(C)c1nocc1CN(C)C(=O)C(=O)N1CCC2NCC2C1

>  <original_name>  (110) 
x1052_1A-x0771_0A_63

>  <ref_mols>  (110) 
x1052_1A,x0771_0A

>  <ref_pdb>  (110) 
x1052_1A

>  <SuCOS_score>  (110) 
0.3629462094747002

>  <compound ID>  (110) 
ENAMINE:Z4862478732

$$$$
x1052_1A-x0771_0A_44
     RDKit          3D

 21 23  0  0  0  0  0  0  0  0999 V2000
   -6.0720   -3.0310   -2.4290 C   0  0  0  0  0  0  0  0  0  0  0  0
   -7.1760   -3.7590   -1.7000 C   0  0  0  0  0  0  0  0  0  0  0  0
   -8.4910   -3.4590   -2.4390 C   0  0  0  0  0  0  0  0  0  0  0  0
   -7.2730   -3.2230   -0.3350 N   0  0  0  0  0  0  0  0  0  0  0  0
   -6.9360   -5.2540   -1.6970 C   0  0  0  0  0  0  0  0  0  0  0  0
   -6.6720   -6.0490   -2.8280 C   0  0  0  0  0  0  0  0  0  0  0  0
   -6.5730   -7.3410   -2.3860 C   0  0  0  0  0  0  0  0  0  0  0  0
   -6.3630   -8.5500   -3.2090 C   0  0  0  0  0  0  0  0  0  0  0  0
   -5.6900   -9.4810   -2.7670 O   0  0  0  0  0  0  0  0  0  0  0  0
   -6.9940   -8.6490   -4.5030 N   0  0  0  0  0  0  0  0  0  0  0  0
   -6.8380   -9.7220   -5.5210 C   0  0  0  0  0  0  0  0  0  0  0  0
   -7.2680   -9.2440   -6.9050 C   0  0  0  0  0  0  0  0  0  0  0  0
   -7.0400   -7.7490   -6.9210 C   0  0  1  0  0  0  0  0  0  0  0  0
   -6.9800   -7.2570   -8.2710 N   0  0  0  0  0  0  0  0  0  0  0  0
   -6.8880   -5.8060   -8.3010 C   0  0  0  0  0  0  0  0  0  0  0  0
   -7.9580   -5.0680   -7.4890 C   0  0  0  0  0  0  0  0  0  0  0  0
   -8.0650   -5.5670   -6.0530 C   0  0  0  0  0  0  0  0  0  0  0  0
   -8.1290   -7.0960   -6.0800 C   0  0  2  0  0  0  0  0  0  0  0  0
   -8.1560   -7.7590   -4.7140 C   0  0  0  0  0  0  0  0  0  0  0  0
   -6.7380   -7.3120   -1.0160 O   0  0  0  0  0  0  0  0  0  0  0  0
   -6.9690   -6.0080   -0.5880 N   0  0  0  0  0  0  0  0  0  0  0  0
  1  2  1  0
  2  3  1  0
  2  4  1  0
  2  5  1  0
  5  6  1  0
  6  7  2  0
  7  8  1  0
  8  9  2  0
  8 10  1  0
 10 11  1  0
 11 12  1  0
 13 12  1  6
 13 14  1  0
 14 15  1  0
 15 16  1  0
 16 17  1  0
 18 17  1  1
 18 19  1  0
  7 20  1  0
 20 21  1  0
 21  5  2  0
 19 10  1  0
 18 13  1  0
A    1
 C1 
A    2
 C2 
A    3
 C3 
A    4
 N1 
A    5
 C4 
A    6
 C5 
A    7
 C6 
A    8
 C7 
A    9
 O1 
A   10
 N2 
A   11
 C8 
A   12
 C9 
A   13
 C10
A   14
 N3 
A   15
 C11
A   16
 C12
A   17
 C13
A   18
 C14
A   19
 C15
A   20
 O2 
A   21
 N4 
M  END
>  <ref_url>  (111) 
https://github.com/stephwills/fragment_network_merges

>  <submitter_name>  (111) 
Steph Wills

>  <submitter_institution>  (111) 
University of Oxford

>  <submitter_email>  (111) 
stephanie.wills@balliol.ox.ac.uk

>  <generation_date>  (111) 
2023-08-10

>  <method>  (111) 
fragnetv3_corrected

>  <original SMILES>  (111) 
CC(C)(N)c1cc(C(=O)N2CCC3NCCCC3C2)on1

>  <original_name>  (111) 
x1052_1A-x0771_0A_44

>  <ref_mols>  (111) 
x1052_1A,x0771_0A

>  <ref_pdb>  (111) 
x1052_1A

>  <SuCOS_score>  (111) 
0.35580580339144535

>  <compound ID>  (111) 
ENAMINE:Z3385130965

$$$$
x1052_1A-x0771_0A_45
     RDKit          3D

 24 27  0  0  0  0  0  0  0  0999 V2000
   -6.5970   -6.2590   -4.5640 O   0  0  0  0  0  0  0  0  0  0  0  0
   -7.3010   -5.3230   -4.9150 C   0  0  0  0  0  0  0  0  0  0  0  0
   -7.6070   -4.2800   -4.0490 N   0  0  0  0  0  0  0  0  0  0  0  0
   -6.7630   -3.9550   -2.9020 C   0  0  0  0  0  0  0  0  0  0  0  0
   -6.5010   -5.0460   -1.9070 C   0  0  0  0  0  0  0  0  0  0  0  0
   -5.3030   -5.7790   -1.7140 C   0  0  0  0  0  0  0  0  0  0  0  0
   -5.5600   -6.6170   -0.6550 C   0  0  0  0  0  0  0  0  0  0  0  0
   -4.7210   -7.5470    0.0220 C   0  0  0  0  0  0  0  0  0  0  0  0
   -5.0200   -8.7720    0.5900 C   0  0  0  0  0  0  0  0  0  0  0  0
   -3.8230   -9.2680    1.1590 C   0  0  0  0  0  0  0  0  0  0  0  0
   -2.8580   -8.3230    0.9010 C   0  0  0  0  0  0  0  0  0  0  0  0
   -3.3920   -7.2880    0.2180 O   0  0  0  0  0  0  0  0  0  0  0  0
   -6.8490   -6.4150   -0.2600 O   0  0  0  0  0  0  0  0  0  0  0  0
   -7.4410   -5.4360   -1.0340 N   0  0  0  0  0  0  0  0  0  0  0  0
   -7.9240   -5.2130   -6.3330 C   0  0  2  0  0  0  0  0  0  0  0  0
   -9.2490   -5.8910   -6.2150 C   0  0  0  0  0  0  0  0  0  0  0  0
   -8.9600   -7.1700   -5.4580 C   0  0  0  0  0  0  0  0  0  0  0  0
   -7.8710   -8.0460   -6.1230 C   0  0  1  0  0  0  0  0  0  0  0  0
   -6.9450   -8.6880   -5.0910 C   0  0  0  0  0  0  0  0  0  0  0  0
   -6.5290   -9.9950   -5.7560 C   0  0  0  0  0  0  0  0  0  0  0  0
   -7.4560  -10.1570   -6.9310 C   0  0  0  0  0  0  0  0  0  0  0  0
   -8.5280   -9.2700   -6.5750 N   0  0  0  0  0  0  0  0  0  0  0  0
   -7.0340   -7.4160   -7.2910 C   0  0  0  0  0  0  0  0  0  0  0  0
   -7.1650   -5.9030   -7.4860 C   0  0  0  0  0  0  0  0  0  0  0  0
  1  2  2  0
  2  3  1  0
  3  4  1  0
  4  5  1  0
  5  6  1  0
  6  7  2  0
  7  8  1  0
  8  9  2  0
  9 10  1  0
 10 11  2  0
 11 12  1  0
  7 13  1  0
 13 14  1  0
 15  2  1  1
 15 16  1  0
 16 17  1  0
 18 17  1  1
 18 19  1  0
 19 20  1  0
 20 21  1  0
 21 22  1  0
 18 23  1  0
 23 24  1  0
 14  5  2  0
 24 15  1  0
 12  8  1  0
 22 18  1  0
A    1
 O1 
A    2
 C1 
A    3
 N1 
A    4
 C2 
A    5
 C3 
A    6
 C4 
A    7
 C5 
A    8
 C6 
A    9
 C7 
A   10
 C8 
A   11
 C9 
A   12
 O2 
A   13
 O3 
A   14
 N2 
A   15
 C10
A   16
 C11
A   17
 C12
A   18
 C13
A   19
 C14
A   20
 C15
A   21
 C16
A   22
 N3 
A   23
 C17
A   24
 C18
M  END
>  <ref_url>  (112) 
https://github.com/stephwills/fragment_network_merges

>  <submitter_name>  (112) 
Steph Wills

>  <submitter_institution>  (112) 
University of Oxford

>  <submitter_email>  (112) 
stephanie.wills@balliol.ox.ac.uk

>  <generation_date>  (112) 
2023-08-10

>  <method>  (112) 
fragnetv3_corrected

>  <original SMILES>  (112) 
O=C(NCc1cc(-c2ccco2)on1)C1CCC2(CCCN2)CC1

>  <original_name>  (112) 
x1052_1A-x0771_0A_45

>  <ref_mols>  (112) 
x1052_1A,x0771_0A

>  <ref_pdb>  (112) 
x1052_1A

>  <SuCOS_score>  (112) 
0.34501640134018113

>  <compound ID>  (112) 
ENAMINE:Z3830843007

$$$$
x1052_1A-x0771_0A_62
     RDKit          3D

 24 26  0  0  0  0  0  0  0  0999 V2000
   -4.4600   -8.7910   -4.4310 C   0  0  0  0  0  0  0  0  0  0  0  0
   -5.8270   -8.6080   -4.8870 N   0  0  0  0  0  0  0  0  0  0  0  0
   -6.5920   -7.5070   -4.1850 C   0  0  0  0  0  0  0  0  0  0  0  0
   -6.3360   -7.2510   -2.7930 C   0  0  0  0  0  0  0  0  0  0  0  0
   -5.6450   -8.0270   -1.7270 C   0  0  0  0  0  0  0  0  0  0  0  0
   -5.6800   -7.3660   -0.5510 O   0  0  0  0  0  0  0  0  0  0  0  0
   -6.3340   -6.1830   -0.7060 N   0  0  0  0  0  0  0  0  0  0  0  0
   -6.7200   -6.0840   -1.9810 C   0  0  0  0  0  0  0  0  0  0  0  0
   -7.4690   -4.7930   -2.2980 C   0  0  0  0  0  0  0  0  0  0  0  0
   -8.8420   -5.0380   -2.9030 C   0  0  0  0  0  0  0  0  0  0  0  0
   -7.5780   -3.9360   -1.0210 C   0  0  0  0  0  0  0  0  0  0  0  0
   -6.6570   -3.9590   -3.2810 C   0  0  0  0  0  0  0  0  0  0  0  0
   -6.4300   -9.6850   -5.6280 C   0  0  0  0  0  0  0  0  0  0  0  0
   -6.3020  -10.8710   -5.3310 O   0  0  0  0  0  0  0  0  0  0  0  0
   -7.2600   -9.3650   -6.8580 C   0  0  0  0  0  0  0  0  0  0  0  0
   -7.4690  -10.1780   -7.7730 O   0  0  0  0  0  0  0  0  0  0  0  0
   -7.7040   -8.1020   -6.7850 N   0  0  0  0  0  0  0  0  0  0  0  0
   -8.6900   -7.7310   -5.7830 C   0  0  0  0  0  0  0  0  0  0  0  0
   -8.6820   -6.2300   -5.5110 C   0  0  0  0  0  0  0  0  0  0  0  0
   -8.7730   -5.5650   -6.8680 C   0  0  1  0  0  0  0  0  0  0  0  0
   -8.1420   -4.2420   -6.9470 N   0  0  0  0  0  0  0  0  0  0  0  0
   -7.3210   -4.6750   -8.1010 C   0  0  0  0  0  0  0  0  0  0  0  0
   -7.7120   -6.1010   -7.8330 C   0  0  1  0  0  0  0  0  0  0  0  0
   -6.7780   -7.0650   -7.1860 C   0  0  0  0  0  0  0  0  0  0  0  0
  1  2  1  0
  2  3  1  0
  3  4  1  0
  4  5  2  0
  5  6  1  0
  6  7  1  0
  7  8  2  0
  8  9  1  0
  9 10  1  0
  9 11  1  0
  9 12  1  0
  2 13  1  0
 13 14  2  0
 13 15  1  0
 15 16  2  0
 15 17  1  0
 17 18  1  0
 18 19  1  0
 20 19  1  1
 20 21  1  0
 21 22  1  0
 23 22  1  1
 23 24  1  0
  8  4  1  0
 24 17  1  0
 23 20  1  0
A    1
 C1 
A    2
 N1 
A    3
 C2 
A    4
 C3 
A    5
 C4 
A    6
 O1 
A    7
 N2 
A    8
 C5 
A    9
 C6 
A   10
 C7 
A   11
 C8 
A   12
 C9 
A   13
 C10
A   14
 O2 
A   15
 C11
A   16
 O3 
A   17
 N3 
A   18
 C12
A   19
 C13
A   20
 C14
A   21
 N4 
A   22
 C15
A   23
 C16
A   24
 C17
M  END
>  <ref_url>  (113) 
https://github.com/stephwills/fragment_network_merges

>  <submitter_name>  (113) 
Steph Wills

>  <submitter_institution>  (113) 
University of Oxford

>  <submitter_email>  (113) 
stephanie.wills@balliol.ox.ac.uk

>  <generation_date>  (113) 
2023-08-10

>  <method>  (113) 
fragnetv3_corrected

>  <original SMILES>  (113) 
CN(Cc1conc1C(C)(C)C)C(=O)C(=O)N1CCC2NCC2C1

>  <original_name>  (113) 
x1052_1A-x0771_0A_62

>  <ref_mols>  (113) 
x1052_1A,x0771_0A

>  <ref_pdb>  (113) 
x1052_1A

>  <SuCOS_score>  (113) 
0.3442907698260662

>  <compound ID>  (113) 
ENAMINE:Z4862478725

$$$$
x1052_1A-x0771_0A_38
     RDKit          3D

 21 24  0  0  0  0  0  0  0  0999 V2000
   -5.7660   -9.6960   -2.4740 O   0  0  0  0  0  0  0  0  0  0  0  0
   -6.3390   -8.7510   -3.0150 C   0  0  0  0  0  0  0  0  0  0  0  0
   -6.4010   -7.4610   -2.2970 C   0  0  0  0  0  0  0  0  0  0  0  0
   -5.9620   -6.1870   -2.6300 C   0  0  0  0  0  0  0  0  0  0  0  0
   -6.3480   -5.3790   -1.5370 C   0  0  0  0  0  0  0  0  0  0  0  0
   -6.1380   -3.8500   -1.3690 C   0  0  0  0  0  0  0  0  0  0  0  0
   -6.3840   -2.9780   -2.6020 C   0  0  0  0  0  0  0  0  0  0  0  0
   -7.1260   -2.0250   -1.7600 N   0  0  0  0  0  0  0  0  0  0  0  0
   -7.3360   -3.0880   -0.7710 C   0  0  0  0  0  0  0  0  0  0  0  0
   -6.9610   -6.0820   -0.5890 N   0  0  0  0  0  0  0  0  0  0  0  0
   -6.9910   -7.3830   -1.0590 O   0  0  0  0  0  0  0  0  0  0  0  0
   -6.9660   -8.9510   -4.2990 N   0  0  0  0  0  0  0  0  0  0  0  0
   -8.3290   -8.4650   -4.4380 C   0  0  0  0  0  0  0  0  0  0  0  0
   -8.3600   -6.9940   -4.8100 C   0  0  0  0  0  0  0  0  0  0  0  0
   -7.5610   -6.8090   -6.0810 C   0  0  0  0  0  0  0  0  0  0  0  0
   -7.7150   -5.3980   -6.6850 C   0  0  0  0  0  0  0  0  0  0  0  0
   -7.6960   -5.6540   -8.1600 C   0  0  0  0  0  0  0  0  0  0  0  0
   -7.2220   -7.0920   -8.1980 C   0  0  0  0  0  0  0  0  0  0  0  0
   -8.0500   -7.6220   -7.1380 N   0  0  0  0  0  0  0  0  0  0  0  0
   -6.1610   -7.4810   -6.0110 C   0  0  0  0  0  0  0  0  0  0  0  0
   -6.2960   -8.9420   -5.5910 C   0  0  0  0  0  0  0  0  0  0  0  0
  1  2  2  0
  2  3  1  0
  3  4  2  0
  4  5  1  0
  5  6  1  0
  6  7  1  0
  7  8  1  0
  8  9  1  0
  5 10  2  0
 10 11  1  0
  2 12  1  0
 12 13  1  0
 13 14  1  0
 14 15  1  0
 15 16  1  0
 16 17  1  0
 17 18  1  0
 18 19  1  0
 15 20  1  0
 20 21  1  0
 11  3  1  0
 21 12  1  0
  9  6  1  0
 19 15  1  0
A    1
 O1 
A    2
 C1 
A    3
 C2 
A    4
 C3 
A    5
 C4 
A    6
 C5 
A    7
 C6 
A    8
 N1 
A    9
 C7 
A   10
 N2 
A   11
 O2 
A   12
 N3 
A   13
 C8 
A   14
 C9 
A   15
 C10
A   16
 C11
A   17
 C12
A   18
 C13
A   19
 N4 
A   20
 C14
A   21
 C15
M  END
>  <ref_url>  (114) 
https://github.com/stephwills/fragment_network_merges

>  <submitter_name>  (114) 
Steph Wills

>  <submitter_institution>  (114) 
University of Oxford

>  <submitter_email>  (114) 
stephanie.wills@balliol.ox.ac.uk

>  <generation_date>  (114) 
2023-08-10

>  <method>  (114) 
fragnetv3_corrected

>  <original SMILES>  (114) 
O=C(c1cc(C2CNC2)no1)N1CCC2(CCCN2)CC1

>  <original_name>  (114) 
x1052_1A-x0771_0A_38

>  <ref_mols>  (114) 
x1052_1A,x0771_0A

>  <ref_pdb>  (114) 
x1052_1A

>  <SuCOS_score>  (114) 
0.34356822705152934

>  <compound ID>  (114) 
ENAMINE:Z4209187065

$$$$
x1052_1A-x0771_0A_78
     RDKit          3D

 20 22  0  0  0  0  0  0  0  0999 V2000
   -6.7390   -3.3320   -3.0320 O   0  0  0  0  0  0  0  0  0  0  0  0
   -7.8090   -4.1430   -3.5750 S   0  0  0  0  0  6  0  0  0  0  0  0
   -9.0650   -3.5630   -4.0090 O   0  0  0  0  0  0  0  0  0  0  0  0
   -8.2330   -5.3880   -2.3750 C   0  0  0  0  0  0  0  0  0  0  0  0
   -7.0560   -5.9620   -1.5960 C   0  0  0  0  0  0  0  0  0  0  0  0
   -5.7260   -6.2160   -2.2750 C   0  0  0  0  0  0  0  0  0  0  0  0
   -5.0090   -6.7360   -1.2370 C   0  0  0  0  0  0  0  0  0  0  0  0
   -5.7870   -6.7840   -0.1050 O   0  0  0  0  0  0  0  0  0  0  0  0
   -7.0660   -6.2970   -0.3220 N   0  0  0  0  0  0  0  0  0  0  0  0
   -7.1950   -4.9550   -4.9030 N   0  0  0  0  0  0  0  0  0  0  0  0
   -7.9090   -4.9910   -6.1910 C   0  0  2  0  0  0  0  0  0  0  0  0
   -9.1660   -5.6890   -5.7410 C   0  0  0  0  0  0  0  0  0  0  0  0
   -8.6660   -7.0120   -5.2110 C   0  0  0  0  0  0  0  0  0  0  0  0
   -8.0100   -7.9150   -6.0910 C   0  0  1  0  0  0  0  0  0  0  0  0
   -6.6820   -8.4950   -5.6510 C   0  0  0  0  0  0  0  0  0  0  0  0
   -6.7000   -9.6870   -6.5780 C   0  0  0  0  0  0  0  0  0  0  0  0
   -8.0820  -10.2660   -6.5900 C   0  0  0  0  0  0  0  0  0  0  0  0
   -8.8720   -9.1230   -6.1660 N   0  0  0  0  0  0  0  0  0  0  0  0
   -7.8460   -7.1520   -7.4230 C   0  0  0  0  0  0  0  0  0  0  0  0
   -7.1840   -5.8130   -7.2950 C   0  0  0  0  0  0  0  0  0  0  0  0
  1  2  2  0
  2  3  2  0
  2  4  1  0
  4  5  1  0
  5  6  1  0
  6  7  2  0
  7  8  1  0
  8  9  1  0
  2 10  1  0
 11 10  1  1
 11 12  1  0
 12 13  1  0
 14 13  1  1
 14 15  1  0
 15 16  1  0
 16 17  1  0
 17 18  1  0
 14 19  1  0
 19 20  1  0
  9  5  2  0
 20 11  1  0
 18 14  1  0
A    1
 O1 
A    2
 S1 
A    3
 O2 
A    4
 C1 
A    5
 C2 
A    6
 C3 
A    7
 C4 
A    8
 O3 
A    9
 N1 
A   10
 N2 
A   11
 C5 
A   12
 C6 
A   13
 C7 
A   14
 C8 
A   15
 C9 
A   16
 C10
A   17
 C11
A   18
 N3 
A   19
 C12
A   20
 C13
M  END
>  <ref_url>  (115) 
https://github.com/stephwills/fragment_network_merges

>  <submitter_name>  (115) 
Steph Wills

>  <submitter_institution>  (115) 
University of Oxford

>  <submitter_email>  (115) 
stephanie.wills@balliol.ox.ac.uk

>  <generation_date>  (115) 
2023-08-10

>  <method>  (115) 
fragnetv3_corrected

>  <original SMILES>  (115) 
O=S(=O)(Cc1ccon1)NC1CCC2(CCCN2)CC1

>  <original_name>  (115) 
x1052_1A-x0771_0A_78

>  <ref_mols>  (115) 
x1052_1A,x0771_0A

>  <ref_pdb>  (115) 
x1052_1A

>  <SuCOS_score>  (115) 
0.3434549641243086

>  <compound ID>  (115) 
ENAMINE:Z3808314567

$$$$
x1052_1A-x0771_0A_47
     RDKit          3D

 21 23  0  0  0  0  0  0  0  0999 V2000
   -6.4790   -3.0730   -2.1980 C   0  0  0  0  0  0  0  0  0  0  0  0
   -6.0900   -3.8350   -1.0570 O   0  0  0  0  0  0  0  0  0  0  0  0
   -6.1700   -5.1770   -1.2320 C   0  0  0  0  0  0  0  0  0  0  0  0
   -5.3840   -5.9470   -2.1070 C   0  0  0  0  0  0  0  0  0  0  0  0
   -5.8360   -7.2390   -1.9280 C   0  0  0  0  0  0  0  0  0  0  0  0
   -5.4610   -8.5540   -2.5310 C   0  0  0  0  0  0  0  0  0  0  0  0
   -6.9000   -9.5670   -2.9800 S   0  0  0  0  0  6  0  0  0  0  0  0
   -7.9760   -9.2320   -2.0690 O   0  0  0  0  0  0  0  0  0  0  0  0
   -6.4970  -10.9440   -3.1420 O   0  0  0  0  0  0  0  0  0  0  0  0
   -7.3850   -9.0160   -4.5210 N   0  0  0  0  0  0  0  0  0  0  0  0
   -7.9330   -7.6580   -4.5670 C   0  0  0  0  0  0  0  0  0  0  0  0
   -7.0510   -6.8350   -5.4550 C   0  0  0  0  0  0  0  0  0  0  0  0
   -7.4190   -7.2550   -6.8580 C   0  0  0  0  0  0  0  0  0  0  0  0
   -6.5750   -6.5930   -7.9500 C   0  0  0  0  0  0  0  0  0  0  0  0
   -7.2520   -5.2900   -8.2500 C   0  0  0  0  0  0  0  0  0  0  0  0
   -8.5210   -5.3330   -7.4380 C   0  0  0  0  0  0  0  0  0  0  0  0
   -8.7570   -6.7120   -7.0800 N   0  0  0  0  0  0  0  0  0  0  0  0
   -7.3960   -8.8150   -6.9950 C   0  0  0  0  0  0  0  0  0  0  0  0
   -6.7800   -9.5270   -5.7880 C   0  0  0  0  0  0  0  0  0  0  0  0
   -6.8320   -7.2230   -0.9870 O   0  0  0  0  0  0  0  0  0  0  0  0
   -7.0470   -5.9200   -0.5550 N   0  0  0  0  0  0  0  0  0  0  0  0
  1  2  1  0
  2  3  1  0
  3  4  1  0
  4  5  2  0
  5  6  1  0
  6  7  1  0
  7  8  2  0
  7  9  2  0
  7 10  1  0
 10 11  1  0
 11 12  1  0
 12 13  1  0
 13 14  1  0
 14 15  1  0
 15 16  1  0
 16 17  1  0
 13 18  1  0
 18 19  1  0
  5 20  1  0
 20 21  1  0
 21  3  2  0
 19 10  1  0
 17 13  1  0
A    1
 C1 
A    2
 O1 
A    3
 C2 
A    4
 C3 
A    5
 C4 
A    6
 C5 
A    7
 S1 
A    8
 O2 
A    9
 O3 
A   10
 N1 
A   11
 C6 
A   12
 C7 
A   13
 C8 
A   14
 C9 
A   15
 C10
A   16
 C11
A   17
 N2 
A   18
 C12
A   19
 C13
A   20
 O4 
A   21
 N3 
M  END
>  <ref_url>  (116) 
https://github.com/stephwills/fragment_network_merges

>  <submitter_name>  (116) 
Steph Wills

>  <submitter_institution>  (116) 
University of Oxford

>  <submitter_email>  (116) 
stephanie.wills@balliol.ox.ac.uk

>  <generation_date>  (116) 
2023-08-10

>  <method>  (116) 
fragnetv3_corrected

>  <original SMILES>  (116) 
COc1cc(CS(=O)(=O)N2CCC3(CCCN3)CC2)on1

>  <original_name>  (116) 
x1052_1A-x0771_0A_47

>  <ref_mols>  (116) 
x1052_1A,x0771_0A

>  <ref_pdb>  (116) 
x1052_1A

>  <SuCOS_score>  (116) 
0.34306598048792936

>  <compound ID>  (116) 
ENAMINE:Z4205068959

$$$$
x1083_0A-x0771_0A_4
     RDKit          3D

 23 25  0  0  0  0  0  0  0  0999 V2000
   -6.8510   -4.0220   -4.0290 O   0  0  0  0  0  0  0  0  0  0  0  0
   -7.0940   -5.1100   -4.5190 C   0  0  0  0  0  0  0  0  0  0  0  0
   -6.8750   -6.2810   -3.8100 N   0  0  0  0  0  0  0  0  0  0  0  0
   -5.6800   -6.4560   -2.9800 C   0  0  0  0  0  0  0  0  0  0  0  0
   -5.9570   -6.3200   -1.4770 C   0  0  0  0  0  0  0  0  0  0  0  0
   -5.7140   -7.6250   -0.7010 C   0  0  0  0  0  0  0  0  0  0  0  0
   -4.8490   -7.5190    0.4920 N   0  0  0  0  0  0  0  0  0  0  0  0
   -3.4560   -7.8260    0.1350 C   0  0  0  0  0  0  0  0  0  0  0  0
   -2.4270   -7.6820    1.2590 C   0  0  0  0  0  0  0  0  0  0  0  0
   -3.0020   -8.0580    2.6160 C   0  0  0  0  0  0  0  0  0  0  0  0
   -1.9940   -8.7070    3.3920 O   0  0  0  0  0  0  0  0  0  0  0  0
   -4.2170   -8.9620    2.4930 C   0  0  0  0  0  0  0  0  0  0  0  0
   -5.3130   -8.3490    1.6230 C   0  0  0  0  0  0  0  0  0  0  0  0
   -7.6730   -5.2450   -5.9540 C   0  0  2  0  0  0  0  0  0  0  0  0
   -9.0940   -5.7130   -5.8140 C   0  0  0  0  0  0  0  0  0  0  0  0
   -9.1200   -7.1140   -5.2090 C   0  0  0  0  0  0  0  0  0  0  0  0
   -8.2040   -8.0630   -6.0010 C   0  0  1  0  0  0  0  0  0  0  0  0
   -6.9930   -8.5670   -5.2550 C   0  0  0  0  0  0  0  0  0  0  0  0
   -6.5280   -9.5110   -6.3240 C   0  0  0  0  0  0  0  0  0  0  0  0
   -7.7700  -10.2760   -6.6880 C   0  0  0  0  0  0  0  0  0  0  0  0
   -8.8320   -9.3610   -6.2900 N   0  0  0  0  0  0  0  0  0  0  0  0
   -7.7730   -7.3390   -7.2650 C   0  0  0  0  0  0  0  0  0  0  0  0
   -6.9010   -6.1970   -6.9000 C   0  0  0  0  0  0  0  0  0  0  0  0
  1  2  2  0
  2  3  1  0
  3  4  1  0
  4  5  1  0
  5  6  1  0
  6  7  1  0
  7  8  1  0
  8  9  1  0
  9 10  1  0
 10 11  1  0
 10 12  1  0
 12 13  1  0
 14  2  1  1
 14 15  1  0
 15 16  1  0
 17 16  1  1
 17 18  1  0
 18 19  1  0
 19 20  1  0
 20 21  1  0
 17 22  1  0
 22 23  1  0
 13  7  1  0
 23 14  1  0
 21 17  1  0
A    1
 O1 
A    2
 C1 
A    3
 N1 
A    4
 C2 
A    5
 C3 
A    6
 C4 
A    7
 N2 
A    8
 C5 
A    9
 C6 
A   10
 C7 
A   11
 O2 
A   12
 C8 
A   13
 C9 
A   14
 C10
A   15
 C11
A   16
 C12
A   17
 C13
A   18
 C14
A   19
 C15
A   20
 C16
A   21
 N3 
A   22
 C17
A   23
 C18
M  END
>  <ref_url>  (117) 
https://github.com/stephwills/fragment_network_merges

>  <submitter_name>  (117) 
Steph Wills

>  <submitter_institution>  (117) 
University of Oxford

>  <submitter_email>  (117) 
stephanie.wills@balliol.ox.ac.uk

>  <generation_date>  (117) 
2023-08-10

>  <method>  (117) 
fragnetv3_corrected

>  <original SMILES>  (117) 
O=C(NCCCN1CCC(O)CC1)C1CCC2(CCCN2)CC1

>  <original_name>  (117) 
x1083_0A-x0771_0A_4

>  <ref_mols>  (117) 
x1083_0A,x0771_0A

>  <ref_pdb>  (117) 
x1083_0A

>  <SuCOS_score>  (117) 
0.434760829626641

>  <compound ID>  (117) 
ENAMINE:Z3791888329

$$$$
x1083_0A-x0771_0A_3
     RDKit          3D

 24 26  0  0  0  0  0  0  0  0999 V2000
   -1.5550  -12.1000    2.9140 C   0  0  0  0  0  0  0  0  0  0  0  0
   -1.8160  -10.9790    2.2300 C   0  0  0  0  0  0  0  0  0  0  0  0
   -3.1710  -10.3180    2.1580 C   0  0  0  0  0  0  0  0  0  0  0  0
   -3.1290   -8.7660    2.1130 C   0  0  0  0  0  0  0  0  0  0  0  0
   -2.2600   -8.3990    3.2140 O   0  0  0  0  0  0  0  0  0  0  0  0
   -4.5330   -8.2140    2.3190 C   0  0  0  0  0  0  0  0  0  0  0  0
   -5.5050   -8.4720    1.1270 C   0  0  0  0  0  0  0  0  0  0  0  0
   -4.9320   -8.4220   -0.2640 N   0  0  0  0  0  0  0  0  0  0  0  0
   -5.7610   -8.1410   -1.4580 C   0  0  0  0  0  0  0  0  0  0  0  0
   -6.1800   -7.0080   -1.6730 O   0  0  0  0  0  0  0  0  0  0  0  0
   -6.1910   -9.2430   -2.5530 C   0  0  0  0  0  0  0  0  0  0  0  0
   -6.1210  -10.4120   -2.1900 O   0  0  0  0  0  0  0  0  0  0  0  0
   -6.6800   -8.8650   -3.9010 N   0  0  0  0  0  0  0  0  0  0  0  0
   -6.7160   -9.8280   -5.0240 C   0  0  0  0  0  0  0  0  0  0  0  0
   -7.1920   -9.1810   -6.3320 C   0  0  0  0  0  0  0  0  0  0  0  0
   -6.6930   -7.7390   -6.4770 C   0  0  1  0  0  0  0  0  0  0  0  0
   -6.9480   -7.2750   -7.8410 N   0  0  0  0  0  0  0  0  0  0  0  0
   -7.8000   -6.1110   -8.0620 C   0  0  0  0  0  0  0  0  0  0  0  0
   -7.7850   -5.0760   -6.9900 C   0  0  0  0  0  0  0  0  0  0  0  0
   -8.1110   -5.7120   -5.6550 C   0  0  0  0  0  0  0  0  0  0  0  0
   -7.1250   -6.8380   -5.3070 C   0  0  1  0  0  0  0  0  0  0  0  0
   -7.5600   -7.7150   -4.1390 C   0  0  0  0  0  0  0  0  0  0  0  0
   -3.5590   -7.8940   -0.3540 C   0  0  0  0  0  0  0  0  0  0  0  0
   -2.5790   -8.0970    0.8330 C   0  0  0  0  0  0  0  0  0  0  0  0
  1  2  2  3
  2  3  1  0
  3  4  1  0
  4  5  1  0
  4  6  1  0
  6  7  1  0
  7  8  1  0
  8  9  1  0
  9 10  2  0
  9 11  1  0
 11 12  2  0
 11 13  1  0
 13 14  1  0
 14 15  1  0
 16 15  1  1
 16 17  1  0
 17 18  1  0
 18 19  1  0
 19 20  1  0
 21 20  1  6
 21 22  1  0
  8 23  1  0
 23 24  1  0
 24  4  1  0
 22 13  1  0
 21 16  1  0
A    1
 C1 
A    2
 C2 
A    3
 C3 
A    4
 C4 
A    5
 O1 
A    6
 C5 
A    7
 C6 
A    8
 N1 
A    9
 C7 
A   10
 O2 
A   11
 C8 
A   12
 O3 
A   13
 N2 
A   14
 C9 
A   15
 C10
A   16
 C11
A   17
 N3 
A   18
 C12
A   19
 C13
A   20
 C14
A   21
 C15
A   22
 C16
A   23
 C17
A   24
 C18
M  END
>  <ref_url>  (118) 
https://github.com/stephwills/fragment_network_merges

>  <submitter_name>  (118) 
Steph Wills

>  <submitter_institution>  (118) 
University of Oxford

>  <submitter_email>  (118) 
stephanie.wills@balliol.ox.ac.uk

>  <generation_date>  (118) 
2023-08-10

>  <method>  (118) 
fragnetv3_corrected

>  <original SMILES>  (118) 
C=CCC1(O)CCN(C(=O)C(=O)N2CCC3NCCCC3C2)CC1

>  <original_name>  (118) 
x1083_0A-x0771_0A_3

>  <ref_mols>  (118) 
x1083_0A,x0771_0A

>  <ref_pdb>  (118) 
x1083_0A

>  <SuCOS_score>  (118) 
0.414900419404629

>  <compound ID>  (118) 
ENAMINE:Z3369938782

$$$$
x1083_0A-x0771_0A_10
     RDKit          3D

 22 24  0  0  0  0  0  0  0  0999 V2000
   -2.8200  -10.0780    1.9500 C   0  0  0  0  0  0  0  0  0  0  0  0
   -3.2280   -8.6110    2.0450 C   0  0  0  0  0  0  0  0  0  0  0  0
   -2.6230   -8.1340    3.2560 O   0  0  0  0  0  0  0  0  0  0  0  0
   -4.7450   -8.4560    2.1630 C   0  0  0  0  0  0  0  0  0  0  0  0
   -5.5540   -8.3860    0.8300 C   0  0  0  0  0  0  0  0  0  0  0  0
   -4.8370   -8.2680   -0.4820 N   0  0  0  0  0  0  0  0  0  0  0  0
   -5.5220   -7.9180   -1.7400 C   0  0  0  0  0  0  0  0  0  0  0  0
   -5.6550   -6.7480   -2.0820 O   0  0  0  0  0  0  0  0  0  0  0  0
   -6.1380   -9.0020   -2.7460 C   0  0  0  0  0  0  0  0  0  0  0  0
   -6.2560  -10.1360   -2.2910 O   0  0  0  0  0  0  0  0  0  0  0  0
   -6.5670   -8.6590   -4.1190 N   0  0  0  0  0  0  0  0  0  0  0  0
   -7.1110   -9.7250   -5.0150 C   0  0  0  0  0  0  0  0  0  0  0  0
   -7.8440   -9.3260   -6.3270 C   0  0  0  0  0  0  0  0  0  0  0  0
   -8.1250   -7.8310   -6.5550 C   0  0  2  0  0  0  0  0  0  0  0  0
   -7.2570   -7.4110   -7.6570 N   0  0  0  0  0  0  0  0  0  0  0  0
   -7.1740   -5.9940   -7.9460 C   0  0  0  0  0  0  0  0  0  0  0  0
   -8.1680   -5.1760   -7.1540 C   0  0  0  0  0  0  0  0  0  0  0  0
   -8.0810   -5.4700   -5.6530 C   0  0  0  0  0  0  0  0  0  0  0  0
   -7.9670   -6.9700   -5.3100 C   0  0  2  0  0  0  0  0  0  0  0  0
   -6.6530   -7.2810   -4.6110 C   0  0  0  0  0  0  0  0  0  0  0  0
   -3.4140   -7.8720   -0.4550 C   0  0  0  0  0  0  0  0  0  0  0  0
   -2.6920   -7.7410    0.9050 C   0  0  0  0  0  0  0  0  0  0  0  0
  1  2  1  0
  2  3  1  0
  2  4  1  0
  4  5  1  0
  5  6  1  0
  6  7  1  0
  7  8  2  0
  7  9  1  0
  9 10  2  0
  9 11  1  0
 11 12  1  0
 12 13  1  0
 14 13  1  1
 14 15  1  0
 15 16  1  0
 16 17  1  0
 17 18  1  0
 19 18  1  6
 19 20  1  0
  6 21  1  0
 21 22  1  0
 22  2  1  0
 20 11  1  0
 19 14  1  0
A    1
 C1 
A    2
 C2 
A    3
 O1 
A    4
 C3 
A    5
 C4 
A    6
 N1 
A    7
 C5 
A    8
 O2 
A    9
 C6 
A   10
 O3 
A   11
 N2 
A   12
 C7 
A   13
 C8 
A   14
 C9 
A   15
 N3 
A   16
 C10
A   17
 C11
A   18
 C12
A   19
 C13
A   20
 C14
A   21
 C15
A   22
 C16
M  END
>  <ref_url>  (119) 
https://github.com/stephwills/fragment_network_merges

>  <submitter_name>  (119) 
Steph Wills

>  <submitter_institution>  (119) 
University of Oxford

>  <submitter_email>  (119) 
stephanie.wills@balliol.ox.ac.uk

>  <generation_date>  (119) 
2023-08-10

>  <method>  (119) 
fragnetv3_corrected

>  <original SMILES>  (119) 
CC1(O)CCN(C(=O)C(=O)N2CCC3NCCCC3C2)CC1

>  <original_name>  (119) 
x1083_0A-x0771_0A_10

>  <ref_mols>  (119) 
x1083_0A,x0771_0A

>  <ref_pdb>  (119) 
x1083_0A

>  <SuCOS_score>  (119) 
0.392530636378936

>  <compound ID>  (119) 
ENAMINE:Z3369767554

$$$$
x1083_0A-x0771_0A_8
     RDKit          3D

 23 26  0  0  0  0  0  0  0  0999 V2000
   -6.4790   -8.7560   -2.3370 O   0  0  0  0  0  0  0  0  0  0  0  0
   -5.7750   -7.7440   -2.3670 C   0  0  0  0  0  0  0  0  0  0  0  0
   -5.8870   -6.8400   -3.7680 C   0  0  2  0  0  0  0  0  0  0  0  0
   -7.2490   -6.1050   -3.9650 C   0  0  0  0  0  0  0  0  0  0  0  0
   -8.3840   -7.0040   -4.4920 C   0  0  0  0  0  0  0  0  0  0  0  0
   -7.8850   -8.0660   -5.4780 C   0  0  2  0  0  0  0  0  0  0  0  0
   -8.8800   -8.5690   -6.4500 C   0  0  0  0  0  0  0  0  0  0  0  0
   -7.9990   -9.6160   -7.1470 C   0  0  0  0  0  0  0  0  0  0  0  0
   -7.2420  -10.2320   -5.9860 C   0  0  0  0  0  0  0  0  0  0  0  0
   -7.5030   -9.3350   -4.8480 N   0  0  0  0  0  0  0  0  0  0  0  0
   -6.6920   -7.5040   -6.1800 C   0  0  0  0  0  0  0  0  0  0  0  0
   -5.5960   -7.5810   -5.1500 C   0  0  0  0  0  0  0  0  0  0  0  0
   -4.9520   -7.5320   -1.1000 N   0  0  0  0  0  0  0  0  0  0  0  0
   -5.6270   -7.9270    0.1990 C   0  0  0  0  0  0  0  0  0  0  0  0
   -4.7950   -8.5380    1.3720 C   0  0  0  0  0  0  0  0  0  0  0  0
   -3.5200   -7.7610    1.6320 C   0  0  0  0  0  0  0  0  0  0  0  0
   -2.7740   -8.2840    2.7760 O   0  0  0  0  0  0  0  0  0  0  0  0
   -1.9040   -9.4390    2.6120 C   0  0  0  0  0  0  0  0  0  0  0  0
   -0.4010   -9.1980    2.8850 C   0  0  0  0  0  0  0  0  0  0  0  0
   -0.6630   -9.5170    4.3110 N   0  0  0  0  0  0  0  0  0  0  0  0
   -1.7730  -10.3790    3.8360 C   0  0  0  0  0  0  0  0  0  0  0  0
   -2.6950   -7.7150    0.3500 C   0  0  0  0  0  0  0  0  0  0  0  0
   -3.4600   -7.6420   -1.0230 C   0  0  0  0  0  0  0  0  0  0  0  0
  1  2  2  0
  3  2  1  1
  3  4  1  0
  4  5  1  0
  6  5  1  1
  6  7  1  0
  7  8  1  0
  8  9  1  0
  9 10  1  0
  6 11  1  0
 11 12  1  0
  2 13  1  0
 13 14  1  0
 14 15  1  0
 15 16  1  0
 16 17  1  0
 17 18  1  0
 18 19  1  0
 19 20  1  0
 20 21  1  0
 16 22  1  0
 22 23  1  0
 12  3  1  0
 23 13  1  0
 10  6  1  0
 21 18  1  0
A    1
 O1 
A    2
 C1 
A    3
 C2 
A    4
 C3 
A    5
 C4 
A    6
 C5 
A    7
 C6 
A    8
 C7 
A    9
 C8 
A   10
 N1 
A   11
 C9 
A   12
 C10
A   13
 N2 
A   14
 C11
A   15
 C12
A   16
 C13
A   17
 O2 
A   18
 C14
A   19
 C15
A   20
 N3 
A   21
 C16
A   22
 C17
A   23
 C18
M  END
>  <ref_url>  (120) 
https://github.com/stephwills/fragment_network_merges

>  <submitter_name>  (120) 
Steph Wills

>  <submitter_institution>  (120) 
University of Oxford

>  <submitter_email>  (120) 
stephanie.wills@balliol.ox.ac.uk

>  <generation_date>  (120) 
2023-08-10

>  <method>  (120) 
fragnetv3_corrected

>  <original SMILES>  (120) 
O=C(C1CCC2(CCCN2)CC1)N1CCC(OC2CNC2)CC1

>  <original_name>  (120) 
x1083_0A-x0771_0A_8

>  <ref_mols>  (120) 
x1083_0A,x0771_0A

>  <ref_pdb>  (120) 
x1083_0A

>  <SuCOS_score>  (120) 
0.3127911187869471

>  <compound ID>  (120) 
ENAMINE:Z3794324394

$$$$
x1083_0A-x0771_0A_0
     RDKit          3D

 22 24  0  0  0  0  0  0  0  0999 V2000
   -7.1360   -9.5950   -8.6240 O   0  0  0  0  0  0  0  0  0  0  0  0
   -7.3300  -10.3220   -7.6720 C   0  0  0  0  0  0  0  0  0  0  0  0
   -7.3020   -9.7220   -6.2830 C   0  0  0  0  0  0  0  0  0  0  0  0
   -7.0490  -10.4450   -5.3250 O   0  0  0  0  0  0  0  0  0  0  0  0
   -7.5700   -8.3590   -6.2000 N   0  0  0  0  0  0  0  0  0  0  0  0
   -7.8750   -7.8270   -4.8900 C   0  0  0  0  0  0  0  0  0  0  0  0
   -7.6970   -6.3110   -4.7990 C   0  0  0  0  0  0  0  0  0  0  0  0
   -8.5000   -5.6470   -5.9060 C   0  0  1  0  0  0  0  0  0  0  0  0
   -7.8320   -4.4960   -6.5220 N   0  0  0  0  0  0  0  0  0  0  0  0
   -8.0690   -5.0250   -7.8760 C   0  0  0  0  0  0  0  0  0  0  0  0
   -8.3530   -6.3730   -7.2390 C   0  0  1  0  0  0  0  0  0  0  0  0
   -7.2180   -7.3610   -7.2200 C   0  0  0  0  0  0  0  0  0  0  0  0
   -7.6230  -11.6890   -7.7750 N   0  0  0  0  0  0  0  0  0  0  0  0
   -6.6980  -12.7560   -8.1840 C   0  0  0  0  0  0  0  0  0  0  0  0
   -7.2880  -14.1460   -7.8720 C   0  0  0  0  0  0  0  0  0  0  0  0
   -8.7010  -14.3550   -8.4830 C   0  0  0  0  0  0  0  0  0  0  0  0
   -8.5490  -14.9710   -9.7910 O   0  0  0  0  0  0  0  0  0  0  0  0
   -9.5970  -15.2260   -7.5700 C   0  0  0  0  0  0  0  0  0  0  0  0
  -10.0230  -16.3340   -8.2340 F   0  0  0  0  0  0  0  0  0  0  0  0
  -10.7270  -14.5340   -7.2630 F   0  0  0  0  0  0  0  0  0  0  0  0
   -9.4250  -13.0200   -8.6510 C   0  0  0  0  0  0  0  0  0  0  0  0
   -8.9790  -12.1080   -7.5300 C   0  0  0  0  0  0  0  0  0  0  0  0
  1  2  2  0
  2  3  1  0
  3  4  2  0
  3  5  1  0
  5  6  1  0
  6  7  1  0
  8  7  1  1
  8  9  1  0
  9 10  1  0
 11 10  1  6
 11 12  1  0
  2 13  1  0
 13 14  1  0
 14 15  1  0
 15 16  1  0
 16 17  1  0
 16 18  1  0
 18 19  1  0
 18 20  1  0
 16 21  1  0
 21 22  1  0
 12  5  1  0
 22 13  1  0
 11  8  1  0
A    1
 O1 
A    2
 C1 
A    3
 C2 
A    4
 O2 
A    5
 N1 
A    6
 C3 
A    7
 C4 
A    8
 C5 
A    9
 N2 
A   10
 C6 
A   11
 C7 
A   12
 C8 
A   13
 N3 
A   14
 C9 
A   15
 C10
A   16
 C11
A   17
 O3 
A   18
 C12
A   19
 F1 
A   20
 F2 
A   21
 C13
A   22
 C14
M  END
>  <ref_url>  (121) 
https://github.com/stephwills/fragment_network_merges

>  <submitter_name>  (121) 
Steph Wills

>  <submitter_institution>  (121) 
University of Oxford

>  <submitter_email>  (121) 
stephanie.wills@balliol.ox.ac.uk

>  <generation_date>  (121) 
2023-08-10

>  <method>  (121) 
fragnetv3_corrected

>  <original SMILES>  (121) 
O=C(C(=O)N1CCC2NCC2C1)N1CCC(O)(C(F)F)CC1

>  <original_name>  (121) 
x1083_0A-x0771_0A_0

>  <ref_mols>  (121) 
x1083_0A,x0771_0A

>  <ref_pdb>  (121) 
x1083_0A

>  <SuCOS_score>  (121) 
0.0

>  <compound ID>  (121) 
ENAMINE:Z4862482294

$$$$
x1083_0A-x0771_0A_5
     RDKit          3D

 23 26  0  0  0  0  0  0  0  0999 V2000
   -1.7580   -8.3330    3.3280 O   0  0  0  0  0  0  0  0  0  0  0  0
   -2.7880   -8.9060    2.4970 C   0  0  2  0  0  0  0  0  0  0  0  0
   -2.4600  -10.4210    2.5880 C   0  0  0  0  0  0  0  0  0  0  0  0
   -1.1490  -10.8820    2.8380 C   0  0  0  0  0  0  0  0  0  0  0  0
   -0.9040  -12.2540    2.9410 C   0  0  0  0  0  0  0  0  0  0  0  0
   -1.9610  -13.1510    2.7930 C   0  0  0  0  0  0  0  0  0  0  0  0
   -3.2230  -12.6380    2.5430 C   0  0  0  0  0  0  0  0  0  0  0  0
   -3.4890  -11.3140    2.4380 N   0  0  0  0  0  0  0  0  0  0  0  0
   -2.4710   -8.1550    1.1450 C   0  0  0  0  0  0  0  0  0  0  0  0
   -3.5930   -7.9960    0.1210 C   0  0  0  0  0  0  0  0  0  0  0  0
   -4.8380   -7.5830    0.7100 N   0  0  0  0  0  0  0  0  0  0  0  0
   -5.2250   -8.4700    1.8090 C   0  0  0  0  0  0  0  0  0  0  0  0
   -4.2460   -8.5220    3.0320 C   0  0  1  0  0  0  0  0  0  0  0  0
   -4.8000   -9.3280    4.2010 N   0  0  0  0  0  0  0  0  0  0  0  0
   -5.3670   -8.5430    5.3000 C   0  0  0  0  0  0  0  0  0  0  0  0
   -5.8240   -9.4290    6.4730 C   0  0  0  0  0  0  0  0  0  0  0  0
   -6.9300  -10.4290    6.0730 C   0  0  0  0  0  0  0  0  0  0  0  0
   -6.6790  -11.8400    6.6270 C   0  0  0  0  0  0  0  0  0  0  0  0
   -7.2460  -11.8120    8.0460 C   0  0  0  0  0  0  0  0  0  0  0  0
   -8.1790  -10.6110    8.0860 C   0  0  0  0  0  0  0  0  0  0  0  0
   -8.2180  -10.1060    6.7180 N   0  0  0  0  0  0  0  0  0  0  0  0
   -7.0840  -10.4230    4.5490 C   0  0  0  0  0  0  0  0  0  0  0  0
   -5.7300  -10.4140    3.8080 C   0  0  0  0  0  0  0  0  0  0  0  0
  2  1  1  1
  2  3  1  0
  3  4  2  0
  4  5  1  0
  5  6  2  0
  6  7  1  0
  7  8  2  0
  2  9  1  0
  9 10  1  0
 10 11  1  0
 11 12  1  0
 12 13  1  0
 13 14  1  1
 14 15  1  0
 15 16  1  0
 16 17  1  0
 17 18  1  0
 18 19  1  0
 19 20  1  0
 20 21  1  0
 17 22  1  0
 22 23  1  0
 13  2  1  0
 23 14  1  0
  8  3  1  0
 21 17  1  0
A    1
 O1 
A    2
 C1 
A    3
 C2 
A    4
 C3 
A    5
 C4 
A    6
 C5 
A    7
 C6 
A    8
 N1 
A    9
 C7 
A   10
 C8 
A   11
 N2 
A   12
 C9 
A   13
 C10
A   14
 N3 
A   15
 C11
A   16
 C12
A   17
 C13
A   18
 C14
A   19
 C15
A   20
 C16
A   21
 N4 
A   22
 C17
A   23
 C18
M  END
>  <ref_url>  (122) 
https://github.com/stephwills/fragment_network_merges

>  <submitter_name>  (122) 
Steph Wills

>  <submitter_institution>  (122) 
University of Oxford

>  <submitter_email>  (122) 
stephanie.wills@balliol.ox.ac.uk

>  <generation_date>  (122) 
2023-08-10

>  <method>  (122) 
fragnetv3_corrected

>  <original SMILES>  (122) 
OC1(c2ccccn2)CCNCC1N1CCC2(CCCN2)CC1

>  <original_name>  (122) 
x1083_0A-x0771_0A_5

>  <ref_mols>  (122) 
x1083_0A,x0771_0A

>  <ref_pdb>  (122) 
x1083_0A

>  <SuCOS_score>  (122) 
0.0

>  <compound ID>  (122) 
ENAMINE:Z3562385825

$$$$
x1140_0A-x0771_0A_34
     RDKit          3D

 21 24  0  0  0  0  0  0  0  0999 V2000
   -6.6090  -10.0490   -3.2150 C   0  0  0  0  0  0  0  0  0  0  0  0
   -6.0120   -8.8730   -2.9320 C   0  0  0  0  0  0  0  0  0  0  0  0
   -5.3230   -8.6620   -1.6720 C   0  0  0  0  0  0  0  0  0  0  0  0
   -5.9440   -9.1890   -0.5330 C   0  0  0  0  0  0  0  0  0  0  0  0
   -5.3580   -9.0680    0.7190 C   0  0  0  0  0  0  0  0  0  0  0  0
   -4.1540   -8.4170    0.7940 C   0  0  0  0  0  0  0  0  0  0  0  0
   -3.5410   -7.8900   -0.3170 C   0  0  0  0  0  0  0  0  0  0  0  0
   -4.0960   -7.9860   -1.5750 C   0  0  0  0  0  0  0  0  0  0  0  0
   -2.3650   -7.3010   -0.0040 O   0  0  0  0  0  0  0  0  0  0  0  0
   -2.2260   -7.6780    1.3760 C   0  0  0  0  0  0  0  0  0  0  0  0
   -3.4410   -8.2210    1.9290 O   0  0  0  0  0  0  0  0  0  0  0  0
   -7.3450  -10.4390   -4.4570 C   0  0  0  0  0  0  0  0  0  0  0  0
   -7.3820   -9.2870   -5.3440 N   0  0  0  0  0  0  0  0  0  0  0  0
   -7.5650   -9.5840   -6.7560 C   0  0  0  0  0  0  0  0  0  0  0  0
   -7.0530   -8.3950   -7.5570 C   0  0  0  0  0  0  0  0  0  0  0  0
   -7.7790   -7.1390   -7.0490 C   0  0  0  0  0  0  0  0  0  0  0  0
   -8.0720   -5.9870   -8.0370 C   0  0  0  0  0  0  0  0  0  0  0  0
   -7.3940   -5.0950   -7.0640 C   0  0  0  0  0  0  0  0  0  0  0  0
   -6.7940   -6.2860   -6.4540 N   0  0  0  0  0  0  0  0  0  0  0  0
   -8.8410   -7.4110   -6.0060 C   0  0  0  0  0  0  0  0  0  0  0  0
   -8.2440   -8.2140   -4.8610 C   0  0  0  0  0  0  0  0  0  0  0  0
  1  2  2  3
  2  3  1  0
  3  4  2  0
  4  5  1  0
  5  6  2  0
  6  7  1  0
  7  8  2  0
  7  9  1  0
  9 10  1  0
 10 11  1  0
  1 12  1  0
 12 13  1  0
 13 14  1  0
 14 15  1  0
 15 16  1  0
 16 17  1  0
 17 18  1  0
 18 19  1  0
 16 20  1  0
 20 21  1  0
  8  3  1  0
 21 13  1  0
 11  6  1  0
 19 16  1  0
A    1
 C1 
A    2
 C2 
A    3
 C3 
A    4
 C4 
A    5
 C5 
A    6
 C6 
A    7
 C7 
A    8
 C8 
A    9
 O1 
A   10
 C9 
A   11
 O2 
A   12
 C10
A   13
 N1 
A   14
 C11
A   15
 C12
A   16
 C13
A   17
 C14
A   18
 C15
A   19
 N2 
A   20
 C16
A   21
 C17
M  END
>  <ref_url>  (123) 
https://github.com/stephwills/fragment_network_merges

>  <submitter_name>  (123) 
Steph Wills

>  <submitter_institution>  (123) 
University of Oxford

>  <submitter_email>  (123) 
stephanie.wills@balliol.ox.ac.uk

>  <generation_date>  (123) 
2023-08-10

>  <method>  (123) 
fragnetv3_corrected

>  <original SMILES>  (123) 
C(=Cc1ccc2c(c1)OCO2)CN1CCC2(CCN2)CC1

>  <original_name>  (123) 
x1140_0A-x0771_0A_34

>  <ref_mols>  (123) 
x1140_0A,x0771_0A

>  <ref_pdb>  (123) 
x1140_0A

>  <SuCOS_score>  (123) 
0.4690134037024286

>  <compound ID>  (123) 
ENAMINE:Z3346463227

$$$$
x1140_0A-x0771_0A_4
     RDKit          3D

 23 26  0  0  0  0  0  0  0  0999 V2000
   -6.2180   -4.9530   -3.3500 O   0  0  0  0  0  0  0  0  0  0  0  0
   -6.4630   -5.9890   -3.9670 C   0  0  0  0  0  0  0  0  0  0  0  0
   -6.1190   -7.2770   -3.4670 N   0  0  0  0  0  0  0  0  0  0  0  0
   -5.4710   -7.6470   -2.1960 C   0  0  0  0  0  0  0  0  0  0  0  0
   -4.1550   -7.2710   -1.8490 C   0  0  0  0  0  0  0  0  0  0  0  0
   -3.6280   -7.6680   -0.6180 C   0  0  0  0  0  0  0  0  0  0  0  0
   -4.3360   -8.4140    0.2830 C   0  0  0  0  0  0  0  0  0  0  0  0
   -5.6200   -8.8190    0.0120 C   0  0  0  0  0  0  0  0  0  0  0  0
   -6.1870   -8.4390   -1.2230 C   0  0  0  0  0  0  0  0  0  0  0  0
   -7.8070   -8.9730   -1.5160 Cl  0  0  0  0  0  0  0  0  0  0  0  0
   -3.6290   -8.6780    1.4210 O   0  0  0  0  0  0  0  0  0  0  0  0
   -2.4750   -7.8410    1.2090 C   0  0  0  0  0  0  0  0  0  0  0  0
   -2.3830   -7.3820   -0.1500 O   0  0  0  0  0  0  0  0  0  0  0  0
   -7.1970   -5.8290   -5.3700 C   0  0  1  0  0  0  0  0  0  0  0  0
   -6.6280   -6.6240   -6.5820 C   0  0  0  0  0  0  0  0  0  0  0  0
   -7.6150   -7.6120   -7.1010 C   0  0  0  0  0  0  0  0  0  0  0  0
   -8.1850   -8.4120   -5.9400 C   0  0  1  0  0  0  0  0  0  0  0  0
   -8.8570   -9.7080   -6.3530 C   0  0  0  0  0  0  0  0  0  0  0  0
   -7.6830  -10.3310   -7.0400 C   0  0  0  0  0  0  0  0  0  0  0  0
   -6.7100  -10.2240   -5.8840 C   0  0  0  0  0  0  0  0  0  0  0  0
   -7.0760   -8.9840   -5.1830 N   0  0  0  0  0  0  0  0  0  0  0  0
   -9.0530   -7.4770   -5.0790 C   0  0  0  0  0  0  0  0  0  0  0  0
   -8.6910   -6.0090   -5.2570 C   0  0  0  0  0  0  0  0  0  0  0  0
  1  2  2  0
  2  3  1  0
  3  4  1  0
  4  5  2  0
  5  6  1  0
  6  7  2  0
  7  8  1  0
  8  9  2  0
  9 10  1  0
  7 11  1  0
 11 12  1  0
 12 13  1  0
 14  2  1  1
 14 15  1  0
 15 16  1  0
 17 16  1  6
 17 18  1  0
 18 19  1  0
 19 20  1  0
 20 21  1  0
 17 22  1  0
 22 23  1  0
  9  4  1  0
 23 14  1  0
 13  6  1  0
 21 17  1  0
A    1
 O1 
A    2
 C1 
A    3
 N1 
A    4
 C2 
A    5
 C3 
A    6
 C4 
A    7
 C5 
A    8
 C6 
A    9
 C7 
A   10
CL1 
A   11
 O2 
A   12
 C8 
A   13
 O3 
A   14
 C9 
A   15
 C10
A   16
 C11
A   17
 C12
A   18
 C13
A   19
 C14
A   20
 C15
A   21
 N2 
A   22
 C16
A   23
 C17
M  END
>  <ref_url>  (124) 
https://github.com/stephwills/fragment_network_merges

>  <submitter_name>  (124) 
Steph Wills

>  <submitter_institution>  (124) 
University of Oxford

>  <submitter_email>  (124) 
stephanie.wills@balliol.ox.ac.uk

>  <generation_date>  (124) 
2023-08-10

>  <method>  (124) 
fragnetv3_corrected

>  <original SMILES>  (124) 
O=C(Nc1cc2c(cc1Cl)OCO2)C1CCC2(CCCN2)CC1

>  <original_name>  (124) 
x1140_0A-x0771_0A_4

>  <ref_mols>  (124) 
x1140_0A,x0771_0A

>  <ref_pdb>  (124) 
x1140_0A

>  <SuCOS_score>  (124) 
0.46650390860541424

>  <compound ID>  (124) 
ENAMINE:Z3789487398

$$$$
x1140_0A-x0771_0A_26
     RDKit          3D

 23 26  0  0  0  0  0  0  0  0999 V2000
   -6.8870  -11.5810   -5.4000 O   0  0  0  0  0  0  0  0  0  0  0  0
   -7.0920  -10.4920   -4.8620 C   0  0  0  0  0  0  0  0  0  0  0  0
   -7.3010  -10.4020   -3.3530 C   0  0  0  0  0  0  0  0  0  0  0  0
   -7.3680   -8.9720   -2.8210 C   0  0  0  0  0  0  0  0  0  0  0  0
   -6.0270   -8.2380   -2.9680 C   0  0  0  0  0  0  0  0  0  0  0  0
   -5.2910   -8.2980   -1.6680 C   0  0  0  0  0  0  0  0  0  0  0  0
   -5.8890   -8.9800   -0.5920 C   0  0  0  0  0  0  0  0  0  0  0  0
   -5.2570   -9.0720    0.6400 C   0  0  0  0  0  0  0  0  0  0  0  0
   -4.0310   -8.4750    0.7640 C   0  0  0  0  0  0  0  0  0  0  0  0
   -3.4330   -7.8080   -0.2780 C   0  0  0  0  0  0  0  0  0  0  0  0
   -4.0340   -7.6960   -1.5120 C   0  0  0  0  0  0  0  0  0  0  0  0
   -2.2280   -7.3040    0.0660 O   0  0  0  0  0  0  0  0  0  0  0  0
   -2.1370   -7.7070    1.4440 C   0  0  0  0  0  0  0  0  0  0  0  0
   -3.2760   -8.4680    1.8920 O   0  0  0  0  0  0  0  0  0  0  0  0
   -7.1530   -9.3040   -5.6010 N   0  0  0  0  0  0  0  0  0  0  0  0
   -7.7040   -8.1110   -4.9560 C   0  0  0  0  0  0  0  0  0  0  0  0
   -7.1120   -6.8250   -5.4990 C   0  0  0  0  0  0  0  0  0  0  0  0
   -7.4690   -6.8010   -6.9580 C   0  0  0  0  0  0  0  0  0  0  0  0
   -7.4240   -5.4600   -7.7300 C   0  0  0  0  0  0  0  0  0  0  0  0
   -8.8720   -5.3240   -7.3320 C   0  0  0  0  0  0  0  0  0  0  0  0
   -8.9250   -6.7720   -7.0820 N   0  0  0  0  0  0  0  0  0  0  0  0
   -6.8620   -8.0190   -7.6670 C   0  0  0  0  0  0  0  0  0  0  0  0
   -7.4020   -9.3060   -7.0300 C   0  0  0  0  0  0  0  0  0  0  0  0
  1  2  2  0
  2  3  1  0
  3  4  1  0
  4  5  1  0
  5  6  1  0
  6  7  2  0
  7  8  1  0
  8  9  2  0
  9 10  1  0
 10 11  2  0
 10 12  1  0
 12 13  1  0
 13 14  1  0
  2 15  1  0
 15 16  1  0
 16 17  1  0
 17 18  1  0
 18 19  1  0
 19 20  1  0
 20 21  1  0
 18 22  1  0
 22 23  1  0
 11  6  1  0
 23 15  1  0
 14  9  1  0
 21 18  1  0
A    1
 O1 
A    2
 C1 
A    3
 C2 
A    4
 C3 
A    5
 C4 
A    6
 C5 
A    7
 C6 
A    8
 C7 
A    9
 C8 
A   10
 C9 
A   11
 C10
A   12
 O2 
A   13
 C11
A   14
 O3 
A   15
 N1 
A   16
 C12
A   17
 C13
A   18
 C14
A   19
 C15
A   20
 C16
A   21
 N2 
A   22
 C17
A   23
 C18
M  END
>  <ref_url>  (125) 
https://github.com/stephwills/fragment_network_merges

>  <submitter_name>  (125) 
Steph Wills

>  <submitter_institution>  (125) 
University of Oxford

>  <submitter_email>  (125) 
stephanie.wills@balliol.ox.ac.uk

>  <generation_date>  (125) 
2023-08-10

>  <method>  (125) 
fragnetv3_corrected

>  <original SMILES>  (125) 
O=C(CCCc1ccc2c(c1)OCO2)N1CCC2(CCN2)CC1

>  <original_name>  (125) 
x1140_0A-x0771_0A_26

>  <ref_mols>  (125) 
x1140_0A,x0771_0A

>  <ref_pdb>  (125) 
x1140_0A

>  <SuCOS_score>  (125) 
0.4656903540368345

>  <compound ID>  (125) 
ENAMINE:PV-002923727831

$$$$
x1140_0A-x0771_0A_13
     RDKit          3D

 22 25  0  0  0  0  0  0  0  0999 V2000
   -7.7330  -11.1810   -4.0140 O   0  0  0  0  0  0  0  0  0  0  0  0
   -7.2300  -10.0810   -4.2380 C   0  0  0  0  0  0  0  0  0  0  0  0
   -6.0660   -9.6710   -3.6550 N   0  0  0  0  0  0  0  0  0  0  0  0
   -5.8900   -8.3220   -3.1570 C   0  0  0  0  0  0  0  0  0  0  0  0
   -5.2410   -8.3480   -1.8060 C   0  0  0  0  0  0  0  0  0  0  0  0
   -5.9030   -9.0050   -0.7470 C   0  0  0  0  0  0  0  0  0  0  0  0
   -5.3410   -9.0650    0.5250 C   0  0  0  0  0  0  0  0  0  0  0  0
   -4.1180   -8.4630    0.7080 C   0  0  0  0  0  0  0  0  0  0  0  0
   -3.4670   -7.8200   -0.3150 C   0  0  0  0  0  0  0  0  0  0  0  0
   -3.9960   -7.7390   -1.5820 C   0  0  0  0  0  0  0  0  0  0  0  0
   -2.2810   -7.3030    0.0820 O   0  0  0  0  0  0  0  0  0  0  0  0
   -2.2230   -7.7510    1.4450 C   0  0  0  0  0  0  0  0  0  0  0  0
   -3.4230   -8.4280    1.8750 O   0  0  0  0  0  0  0  0  0  0  0  0
   -7.8050   -9.1670   -5.1000 N   0  0  0  0  0  0  0  0  0  0  0  0
   -7.9810   -9.6000   -6.4890 C   0  0  0  0  0  0  0  0  0  0  0  0
   -7.0300   -8.8640   -7.4100 C   0  0  0  0  0  0  0  0  0  0  0  0
   -7.0410   -7.3790   -7.0920 C   0  0  1  0  0  0  0  0  0  0  0  0
   -7.2600   -6.4740   -8.2120 N   0  0  0  0  0  0  0  0  0  0  0  0
   -7.7860   -5.2150   -7.6440 C   0  0  0  0  0  0  0  0  0  0  0  0
   -8.0870   -5.5070   -6.1700 C   0  0  0  0  0  0  0  0  0  0  0  0
   -8.1610   -7.0180   -6.1490 C   0  0  2  0  0  0  0  0  0  0  0  0
   -7.9800   -7.7300   -4.8300 C   0  0  0  0  0  0  0  0  0  0  0  0
  1  2  2  0
  2  3  1  0
  3  4  1  0
  4  5  1  0
  5  6  2  0
  6  7  1  0
  7  8  2  0
  8  9  1  0
  9 10  2  0
  9 11  1  0
 11 12  1  0
 12 13  1  0
  2 14  1  0
 14 15  1  0
 15 16  1  0
 17 16  1  6
 17 18  1  0
 18 19  1  0
 19 20  1  0
 21 20  1  1
 21 22  1  0
 10  5  1  0
 22 14  1  0
 13  8  1  0
 21 17  1  0
A    1
 O1 
A    2
 C1 
A    3
 N1 
A    4
 C2 
A    5
 C3 
A    6
 C4 
A    7
 C5 
A    8
 C6 
A    9
 C7 
A   10
 C8 
A   11
 O2 
A   12
 C9 
A   13
 O3 
A   14
 N2 
A   15
 C10
A   16
 C11
A   17
 C12
A   18
 N3 
A   19
 C13
A   20
 C14
A   21
 C15
A   22
 C16
M  END
>  <ref_url>  (126) 
https://github.com/stephwills/fragment_network_merges

>  <submitter_name>  (126) 
Steph Wills

>  <submitter_institution>  (126) 
University of Oxford

>  <submitter_email>  (126) 
stephanie.wills@balliol.ox.ac.uk

>  <generation_date>  (126) 
2023-08-10

>  <method>  (126) 
fragnetv3_corrected

>  <original SMILES>  (126) 
O=C(NCc1ccc2c(c1)OCO2)N1CCC2NCCC2C1

>  <original_name>  (126) 
x1140_0A-x0771_0A_13

>  <ref_mols>  (126) 
x1140_0A,x0771_0A

>  <ref_pdb>  (126) 
x1140_0A

>  <SuCOS_score>  (126) 
0.46247690698881766

>  <compound ID>  (126) 
ENAMINE:Z2358762307

$$$$
x1140_0A-x0771_0A_10
     RDKit          3D

 23 26  0  0  0  0  0  0  0  0999 V2000
   -5.3010   -8.2380   -1.7740 C   0  0  0  0  0  0  0  0  0  0  0  0
   -4.0360   -7.6640   -1.5820 C   0  0  0  0  0  0  0  0  0  0  0  0
   -3.4580   -7.7960   -0.3400 C   0  0  0  0  0  0  0  0  0  0  0  0
   -4.0830   -8.4600    0.6830 C   0  0  0  0  0  0  0  0  0  0  0  0
   -5.3200   -9.0300    0.5240 C   0  0  0  0  0  0  0  0  0  0  0  0
   -5.9440   -8.9240   -0.7180 C   0  0  0  0  0  0  0  0  0  0  0  0
   -7.1670   -9.5350   -0.7500 O   0  0  0  0  0  0  0  0  0  0  0  0
   -8.1710   -8.9970   -1.6070 C   0  0  0  0  0  0  0  0  0  0  0  0
   -8.4790  -10.0700   -2.6400 C   0  0  0  0  0  0  0  0  0  0  0  0
   -7.3740  -10.2040   -3.6900 C   0  0  0  0  0  0  0  0  0  0  0  0
   -7.6810   -9.5260   -4.9580 N   0  0  0  0  0  0  0  0  0  0  0  0
   -6.8550  -10.0000   -6.0740 C   0  0  0  0  0  0  0  0  0  0  0  0
   -7.1960   -9.2820   -7.3540 C   0  0  0  0  0  0  0  0  0  0  0  0
   -6.9590   -7.8010   -7.1350 C   0  0  1  0  0  0  0  0  0  0  0  0
   -7.0040   -7.1200   -8.4090 N   0  0  0  0  0  0  0  0  0  0  0  0
   -7.0150   -5.6680   -8.3270 C   0  0  0  0  0  0  0  0  0  0  0  0
   -8.0390   -5.0990   -7.3570 C   0  0  0  0  0  0  0  0  0  0  0  0
   -7.9710   -5.7720   -5.9900 C   0  0  0  0  0  0  0  0  0  0  0  0
   -7.9760   -7.3040   -6.1190 C   0  0  2  0  0  0  0  0  0  0  0  0
   -7.6650   -8.0480   -4.8290 C   0  0  0  0  0  0  0  0  0  0  0  0
   -3.3480   -8.4770    1.8260 O   0  0  0  0  0  0  0  0  0  0  0  0
   -2.1920   -7.7240    1.4090 C   0  0  0  0  0  0  0  0  0  0  0  0
   -2.2490   -7.3170    0.0300 O   0  0  0  0  0  0  0  0  0  0  0  0
  1  2  2  0
  2  3  1  0
  3  4  2  0
  4  5  1  0
  5  6  2  0
  6  7  1  0
  7  8  1  0
  8  9  1  0
  9 10  1  0
 10 11  1  0
 11 12  1  0
 12 13  1  0
 14 13  1  6
 14 15  1  0
 15 16  1  0
 16 17  1  0
 17 18  1  0
 19 18  1  1
 19 20  1  0
  4 21  1  0
 21 22  1  0
 22 23  1  0
  6  1  1  0
 20 11  1  0
 23  3  1  0
 19 14  1  0
A    1
 C1 
A    2
 C2 
A    3
 C3 
A    4
 C4 
A    5
 C5 
A    6
 C6 
A    7
 O1 
A    8
 C7 
A    9
 C8 
A   10
 C9 
A   11
 N1 
A   12
 C10
A   13
 C11
A   14
 C12
A   15
 N2 
A   16
 C13
A   17
 C14
A   18
 C15
A   19
 C16
A   20
 C17
A   21
 O2 
A   22
 C18
A   23
 O3 
M  END
>  <ref_url>  (127) 
https://github.com/stephwills/fragment_network_merges

>  <submitter_name>  (127) 
Steph Wills

>  <submitter_institution>  (127) 
University of Oxford

>  <submitter_email>  (127) 
stephanie.wills@balliol.ox.ac.uk

>  <generation_date>  (127) 
2023-08-10

>  <method>  (127) 
fragnetv3_corrected

>  <original SMILES>  (127) 
c1cc2c(cc1OCCCN1CCC3NCCCC3C1)OCO2

>  <original_name>  (127) 
x1140_0A-x0771_0A_10

>  <ref_mols>  (127) 
x1140_0A,x0771_0A

>  <ref_pdb>  (127) 
x1140_0A

>  <SuCOS_score>  (127) 
0.45568594983767274

>  <compound ID>  (127) 
ENAMINE:Z2938016925

$$$$
x1140_0A-x0771_0A_14
     RDKit          3D

 23 26  0  0  0  0  0  0  0  0999 V2000
   -7.0210  -11.0120   -2.6620 O   0  0  0  0  0  0  0  0  0  0  0  0
   -7.1550   -9.8070   -2.8480 C   0  0  0  0  0  0  0  0  0  0  0  0
   -8.4730   -9.2130   -3.3040 C   0  0  0  0  0  0  0  0  0  0  0  0
   -8.6160   -9.3690   -4.8120 C   0  0  0  0  0  0  0  0  0  0  0  0
   -7.3090   -9.2550   -5.4850 N   0  0  0  0  0  0  0  0  0  0  0  0
   -6.5570   -8.0410   -5.1280 C   0  0  0  0  0  0  0  0  0  0  0  0
   -7.2740   -6.7350   -5.4350 C   0  0  0  0  0  0  0  0  0  0  0  0
   -7.5380   -6.7440   -6.9230 C   0  0  0  0  0  0  0  0  0  0  0  0
   -7.4330   -5.4270   -7.7400 C   0  0  0  0  0  0  0  0  0  0  0  0
   -8.8680   -5.2100   -7.3410 C   0  0  0  0  0  0  0  0  0  0  0  0
   -8.9930   -6.6480   -7.0700 N   0  0  0  0  0  0  0  0  0  0  0  0
   -6.9260   -7.9980   -7.5910 C   0  0  0  0  0  0  0  0  0  0  0  0
   -7.4800   -9.2740   -6.9300 C   0  0  0  0  0  0  0  0  0  0  0  0
   -6.1850   -8.8270   -2.6800 N   0  0  0  0  0  0  0  0  0  0  0  0
   -5.4490   -8.6660   -1.5100 C   0  0  0  0  0  0  0  0  0  0  0  0
   -5.9580   -9.1730   -0.3170 C   0  0  0  0  0  0  0  0  0  0  0  0
   -5.2590   -9.0520    0.8750 C   0  0  0  0  0  0  0  0  0  0  0  0
   -4.0500   -8.4180    0.8390 C   0  0  0  0  0  0  0  0  0  0  0  0
   -3.5290   -7.9080   -0.3240 C   0  0  0  0  0  0  0  0  0  0  0  0
   -4.2030   -8.0080   -1.5290 C   0  0  0  0  0  0  0  0  0  0  0  0
   -2.3220   -7.3300   -0.1230 O   0  0  0  0  0  0  0  0  0  0  0  0
   -2.1140   -7.5950    1.2790 C   0  0  0  0  0  0  0  0  0  0  0  0
   -3.2450   -8.2270    1.9110 O   0  0  0  0  0  0  0  0  0  0  0  0
  1  2  2  0
  2  3  1  0
  3  4  1  0
  4  5  1  0
  5  6  1  0
  6  7  1  0
  7  8  1  0
  8  9  1  0
  9 10  1  0
 10 11  1  0
  8 12  1  0
 12 13  1  0
  2 14  1  0
 14 15  1  0
 15 16  2  0
 16 17  1  0
 17 18  2  0
 18 19  1  0
 19 20  2  0
 19 21  1  0
 21 22  1  0
 22 23  1  0
 13  5  1  0
 20 15  1  0
 11  8  1  0
 23 18  1  0
A    1
 O1 
A    2
 C1 
A    3
 C2 
A    4
 C3 
A    5
 N1 
A    6
 C4 
A    7
 C5 
A    8
 C6 
A    9
 C7 
A   10
 C8 
A   11
 N2 
A   12
 C9 
A   13
 C10
A   14
 N3 
A   15
 C11
A   16
 C12
A   17
 C13
A   18
 C14
A   19
 C15
A   20
 C16
A   21
 O2 
A   22
 C17
A   23
 O3 
M  END
>  <ref_url>  (128) 
https://github.com/stephwills/fragment_network_merges

>  <submitter_name>  (128) 
Steph Wills

>  <submitter_institution>  (128) 
University of Oxford

>  <submitter_email>  (128) 
stephanie.wills@balliol.ox.ac.uk

>  <generation_date>  (128) 
2023-08-10

>  <method>  (128) 
fragnetv3_corrected

>  <original SMILES>  (128) 
O=C(CCN1CCC2(CCN2)CC1)Nc1ccc2c(c1)OCO2

>  <original_name>  (128) 
x1140_0A-x0771_0A_14

>  <ref_mols>  (128) 
x1140_0A,x0771_0A

>  <ref_pdb>  (128) 
x1140_0A

>  <SuCOS_score>  (128) 
0.4543480774166956

>  <compound ID>  (128) 
ENAMINE:Z2377072716

$$$$
x1140_0A-x0771_0A_12
     RDKit          3D

 24 27  0  0  0  0  0  0  0  0999 V2000
   -7.8650  -10.2150   -1.7370 O   0  0  0  0  0  0  0  0  0  0  0  0
   -7.1640   -9.7980   -2.6460 C   0  0  0  0  0  0  0  0  0  0  0  0
   -6.2040   -8.8040   -2.6080 N   0  0  0  0  0  0  0  0  0  0  0  0
   -5.3710   -8.5940   -1.5200 C   0  0  0  0  0  0  0  0  0  0  0  0
   -5.8980   -9.1240   -0.3350 C   0  0  0  0  0  0  0  0  0  0  0  0
   -5.2170   -9.0340    0.8630 C   0  0  0  0  0  0  0  0  0  0  0  0
   -4.0040   -8.4060    0.8480 C   0  0  0  0  0  0  0  0  0  0  0  0
   -3.4710   -7.8760   -0.3020 C   0  0  0  0  0  0  0  0  0  0  0  0
   -4.1280   -7.9460   -1.5180 C   0  0  0  0  0  0  0  0  0  0  0  0
   -2.2640   -7.3100   -0.0750 O   0  0  0  0  0  0  0  0  0  0  0  0
   -2.0770   -7.5880    1.3240 C   0  0  0  0  0  0  0  0  0  0  0  0
   -3.2090   -8.2400    1.9300 O   0  0  0  0  0  0  0  0  0  0  0  0
   -7.2840  -10.3870   -4.0590 C   0  0  0  0  0  0  0  0  0  0  0  0
   -7.1230  -11.5990   -4.1870 O   0  0  0  0  0  0  0  0  0  0  0  0
   -7.5780   -9.5140   -5.0890 N   0  0  0  0  0  0  0  0  0  0  0  0
   -7.7520   -9.9810   -6.4550 C   0  0  0  0  0  0  0  0  0  0  0  0
   -7.0570   -8.9980   -7.3320 C   0  0  0  0  0  0  0  0  0  0  0  0
   -7.6590   -7.6380   -7.0830 C   0  0  2  0  0  0  0  0  0  0  0  0
   -7.2380   -6.7770   -8.1300 N   0  0  0  0  0  0  0  0  0  0  0  0
   -8.0370   -5.5850   -8.0600 C   0  0  0  0  0  0  0  0  0  0  0  0
   -7.8490   -4.8370   -6.7760 C   0  0  0  0  0  0  0  0  0  0  0  0
   -8.0010   -5.6920   -5.5190 C   0  0  0  0  0  0  0  0  0  0  0  0
   -7.3900   -7.0960   -5.7040 C   0  0  1  0  0  0  0  0  0  0  0  0
   -7.9480   -8.1250   -4.7370 C   0  0  0  0  0  0  0  0  0  0  0  0
  1  2  2  0
  2  3  1  0
  3  4  1  0
  4  5  2  0
  5  6  1  0
  6  7  2  0
  7  8  1  0
  8  9  2  0
  8 10  1  0
 10 11  1  0
 11 12  1  0
  2 13  1  0
 13 14  2  0
 13 15  1  0
 15 16  1  0
 16 17  1  0
 18 17  1  6
 18 19  1  0
 19 20  1  0
 20 21  1  0
 21 22  1  0
 23 22  1  6
 23 24  1  0
  9  4  1  0
 24 15  1  0
 12  7  1  0
 23 18  1  0
A    1
 O1 
A    2
 C1 
A    3
 N1 
A    4
 C2 
A    5
 C3 
A    6
 C4 
A    7
 C5 
A    8
 C6 
A    9
 C7 
A   10
 O2 
A   11
 C8 
A   12
 O3 
A   13
 C9 
A   14
 O4 
A   15
 N2 
A   16
 C10
A   17
 C11
A   18
 C12
A   19
 N3 
A   20
 C13
A   21
 C14
A   22
 C15
A   23
 C16
A   24
 C17
M  END
>  <ref_url>  (129) 
https://github.com/stephwills/fragment_network_merges

>  <submitter_name>  (129) 
Steph Wills

>  <submitter_institution>  (129) 
University of Oxford

>  <submitter_email>  (129) 
stephanie.wills@balliol.ox.ac.uk

>  <generation_date>  (129) 
2023-08-10

>  <method>  (129) 
fragnetv3_corrected

>  <original SMILES>  (129) 
O=C(Nc1ccc2c(c1)OCO2)C(=O)N1CCC2NCCCC2C1

>  <original_name>  (129) 
x1140_0A-x0771_0A_12

>  <ref_mols>  (129) 
x1140_0A,x0771_0A

>  <ref_pdb>  (129) 
x1140_0A

>  <SuCOS_score>  (129) 
0.4375785621631253

>  <compound ID>  (129) 
ENAMINE:Z3390007352

$$$$
x1140_0A-x0771_0A_33
     RDKit          3D

 22 25  0  0  0  0  0  0  0  0999 V2000
   -4.7270   -8.2790   -4.6700 O   0  0  0  0  0  0  0  0  0  0  0  0
   -5.8040   -7.8710   -3.8200 S   0  0  0  0  0  6  0  0  0  0  0  0
   -6.1920   -6.4790   -3.7880 O   0  0  0  0  0  0  0  0  0  0  0  0
   -5.2750   -8.2000   -2.1320 C   0  0  0  0  0  0  0  0  0  0  0  0
   -6.0280   -8.9610   -1.2060 C   0  0  0  0  0  0  0  0  0  0  0  0
   -5.5370   -9.1560    0.1020 C   0  0  0  0  0  0  0  0  0  0  0  0
   -4.3170   -8.5880    0.4380 C   0  0  0  0  0  0  0  0  0  0  0  0
   -3.5960   -7.8550   -0.4680 C   0  0  0  0  0  0  0  0  0  0  0  0
   -4.0390   -7.6400   -1.7510 C   0  0  0  0  0  0  0  0  0  0  0  0
   -2.4300   -7.3910    0.0530 O   0  0  0  0  0  0  0  0  0  0  0  0
   -2.4970   -7.8930    1.3970 C   0  0  0  0  0  0  0  0  0  0  0  0
   -3.6910   -8.6720    1.6470 O   0  0  0  0  0  0  0  0  0  0  0  0
   -7.1910   -8.7510   -4.3710 N   0  0  0  0  0  0  0  0  0  0  0  0
   -6.9920   -9.7060   -5.5130 C   0  0  0  0  0  0  0  0  0  0  0  0
   -7.1130   -8.9480   -6.8270 C   0  0  0  0  0  0  0  0  0  0  0  0
   -6.5480   -7.5450   -6.5910 C   0  0  1  0  0  0  0  0  0  0  0  0
   -6.1100   -6.9350   -7.8350 N   0  0  0  0  0  0  0  0  0  0  0  0
   -7.0870   -6.1340   -8.5290 C   0  0  0  0  0  0  0  0  0  0  0  0
   -7.8470   -5.1580   -7.6540 C   0  0  0  0  0  0  0  0  0  0  0  0
   -8.5170   -5.8810   -6.4980 C   0  0  0  0  0  0  0  0  0  0  0  0
   -7.5270   -6.7450   -5.7110 C   0  0  1  0  0  0  0  0  0  0  0  0
   -8.2150   -7.7730   -4.8220 C   0  0  0  0  0  0  0  0  0  0  0  0
  1  2  2  0
  2  3  2  0
  2  4  1  0
  4  5  2  0
  5  6  1  0
  6  7  2  0
  7  8  1  0
  8  9  2  0
  8 10  1  0
 10 11  1  0
 11 12  1  0
  2 13  1  0
 13 14  1  0
 14 15  1  0
 16 15  1  6
 16 17  1  0
 17 18  1  0
 18 19  1  0
 19 20  1  0
 21 20  1  6
 21 22  1  0
  9  4  1  0
 22 13  1  0
 12  7  1  0
 21 16  1  0
A    1
 O1 
A    2
 S1 
A    3
 O2 
A    4
 C1 
A    5
 C2 
A    6
 C3 
A    7
 C4 
A    8
 C5 
A    9
 C6 
A   10
 O3 
A   11
 C7 
A   12
 O4 
A   13
 N1 
A   14
 C8 
A   15
 C9 
A   16
 C10
A   17
 N2 
A   18
 C11
A   19
 C12
A   20
 C13
A   21
 C14
A   22
 C15
M  END
>  <ref_url>  (130) 
https://github.com/stephwills/fragment_network_merges

>  <submitter_name>  (130) 
Steph Wills

>  <submitter_institution>  (130) 
University of Oxford

>  <submitter_email>  (130) 
stephanie.wills@balliol.ox.ac.uk

>  <generation_date>  (130) 
2023-08-10

>  <method>  (130) 
fragnetv3_corrected

>  <original SMILES>  (130) 
O=S(=O)(c1ccc2c(c1)OCO2)N1CCC2NCCCC2C1

>  <original_name>  (130) 
x1140_0A-x0771_0A_33

>  <ref_mols>  (130) 
x1140_0A,x0771_0A

>  <ref_pdb>  (130) 
x1140_0A

>  <SuCOS_score>  (130) 
0.42821943789951405

>  <compound ID>  (130) 
ENAMINE:Z3365847516

$$$$
x1140_0A-x0771_0A_35
     RDKit          3D

 22 25  0  0  0  0  0  0  0  0999 V2000
   -5.9070   -8.7060   -3.6830 O   0  0  0  0  0  0  0  0  0  0  0  0
   -6.0370   -7.8150   -2.8590 C   0  0  0  0  0  0  0  0  0  0  0  0
   -6.8230   -6.6770   -3.0540 N   0  0  0  0  0  0  0  0  0  0  0  0
   -6.9260   -6.1080   -4.4010 C   0  0  1  0  0  0  0  0  0  0  0  0
   -6.1350   -7.0490   -5.3000 C   0  0  0  0  0  0  0  0  0  0  0  0
   -6.8690   -8.3230   -5.4120 C   0  0  0  0  0  0  0  0  0  0  0  0
   -8.0270   -7.9950   -6.2760 C   0  0  1  0  0  0  0  0  0  0  0  0
   -7.4860   -7.2040   -7.4680 C   0  0  0  0  0  0  0  0  0  0  0  0
   -6.7880   -8.2840   -8.2610 C   0  0  0  0  0  0  0  0  0  0  0  0
   -7.2130   -9.6010   -7.5690 C   0  0  0  0  0  0  0  0  0  0  0  0
   -8.4230   -9.2880   -6.8080 N   0  0  0  0  0  0  0  0  0  0  0  0
   -9.0410   -7.2040   -5.4530 C   0  0  0  0  0  0  0  0  0  0  0  0
   -8.3890   -5.9330   -4.8740 C   0  0  0  0  0  0  0  0  0  0  0  0
   -5.3030   -7.9910   -1.5910 C   0  0  0  0  0  0  0  0  0  0  0  0
   -5.9650   -8.6810   -0.5570 C   0  0  0  0  0  0  0  0  0  0  0  0
   -5.3380   -8.8980    0.6710 C   0  0  0  0  0  0  0  0  0  0  0  0
   -4.0600   -8.4140    0.8200 C   0  0  0  0  0  0  0  0  0  0  0  0
   -3.4150   -7.7420   -0.1900 C   0  0  0  0  0  0  0  0  0  0  0  0
   -4.0040   -7.5090   -1.4130 C   0  0  0  0  0  0  0  0  0  0  0  0
   -2.1690   -7.3550    0.1650 O   0  0  0  0  0  0  0  0  0  0  0  0
   -2.1320   -7.7680    1.5410 C   0  0  0  0  0  0  0  0  0  0  0  0
   -3.2950   -8.5290    1.9360 O   0  0  0  0  0  0  0  0  0  0  0  0
  1  2  2  0
  2  3  1  0
  4  3  1  1
  4  5  1  0
  5  6  1  0
  7  6  1  1
  7  8  1  0
  8  9  1  0
  9 10  1  0
 10 11  1  0
  7 12  1  0
 12 13  1  0
  2 14  1  0
 14 15  2  0
 15 16  1  0
 16 17  2  0
 17 18  1  0
 18 19  2  0
 18 20  1  0
 20 21  1  0
 21 22  1  0
 13  4  1  0
 19 14  1  0
 11  7  1  0
 22 17  1  0
A    1
 O1 
A    2
 C1 
A    3
 N1 
A    4
 C2 
A    5
 C3 
A    6
 C4 
A    7
 C5 
A    8
 C6 
A    9
 C7 
A   10
 C8 
A   11
 N2 
A   12
 C9 
A   13
 C10
A   14
 C11
A   15
 C12
A   16
 C13
A   17
 C14
A   18
 C15
A   19
 C16
A   20
 O2 
A   21
 C17
A   22
 O3 
M  END
>  <ref_url>  (131) 
https://github.com/stephwills/fragment_network_merges

>  <submitter_name>  (131) 
Steph Wills

>  <submitter_institution>  (131) 
University of Oxford

>  <submitter_email>  (131) 
stephanie.wills@balliol.ox.ac.uk

>  <generation_date>  (131) 
2023-08-10

>  <method>  (131) 
fragnetv3_corrected

>  <original SMILES>  (131) 
O=C(NC1CCC2(CCCN2)CC1)c1ccc2c(c1)OCO2

>  <original_name>  (131) 
x1140_0A-x0771_0A_35

>  <ref_mols>  (131) 
x1140_0A,x0771_0A

>  <ref_pdb>  (131) 
x1140_0A

>  <SuCOS_score>  (131) 
0.42293266254379597

>  <compound ID>  (131) 
ENAMINE:Z3798182159

$$$$
x1140_0A-x0771_0A_3
     RDKit          3D

 22 25  0  0  0  0  0  0  0  0999 V2000
   -5.2760   -7.5610   -3.6270 C   0  0  0  0  0  0  0  0  0  0  0  0
   -4.9780   -7.9360   -2.2090 C   0  0  0  0  0  0  0  0  0  0  0  0
   -3.7760   -7.4650   -1.6760 C   0  0  0  0  0  0  0  0  0  0  0  0
   -3.4630   -7.7780   -0.3850 C   0  0  0  0  0  0  0  0  0  0  0  0
   -4.2930   -8.5350    0.3950 C   0  0  0  0  0  0  0  0  0  0  0  0
   -5.5020   -9.0300   -0.0930 C   0  0  0  0  0  0  0  0  0  0  0  0
   -5.8610   -8.7270   -1.4310 C   0  0  0  0  0  0  0  0  0  0  0  0
   -7.0660   -9.1610   -2.0700 N   0  0  0  0  0  0  0  0  0  0  0  0
   -7.2220   -9.9350   -3.2260 C   0  0  0  0  0  0  0  0  0  0  0  0
   -7.2880  -11.1640   -3.2130 O   0  0  0  0  0  0  0  0  0  0  0  0
   -7.3090   -9.2270   -4.4680 N   0  0  0  0  0  0  0  0  0  0  0  0
   -7.2130   -9.9430   -5.7610 C   0  0  0  0  0  0  0  0  0  0  0  0
   -7.7280   -9.2070   -7.0120 C   0  0  0  0  0  0  0  0  0  0  0  0
   -7.9670   -7.6850   -6.8600 C   0  0  2  0  0  0  0  0  0  0  0  0
   -7.3630   -6.7510   -7.8170 N   0  0  0  0  0  0  0  0  0  0  0  0
   -7.7650   -5.4440   -7.2660 C   0  0  0  0  0  0  0  0  0  0  0  0
   -7.9650   -5.6610   -5.7540 C   0  0  0  0  0  0  0  0  0  0  0  0
   -7.4980   -7.0990   -5.5630 C   0  0  1  0  0  0  0  0  0  0  0  0
   -8.0750   -7.9680   -4.4770 C   0  0  0  0  0  0  0  0  0  0  0  0
   -3.7780   -8.7190    1.6460 O   0  0  0  0  0  0  0  0  0  0  0  0
   -2.5660   -7.9320    1.5640 C   0  0  0  0  0  0  0  0  0  0  0  0
   -2.3330   -7.3920    0.2550 O   0  0  0  0  0  0  0  0  0  0  0  0
  1  2  1  0
  2  3  2  0
  3  4  1  0
  4  5  2  0
  5  6  1  0
  6  7  2  0
  7  8  1  0
  8  9  1  0
  9 10  2  0
  9 11  1  0
 11 12  1  0
 12 13  1  0
 14 13  1  6
 14 15  1  0
 15 16  1  0
 16 17  1  0
 18 17  1  1
 18 19  1  0
  5 20  1  0
 20 21  1  0
 21 22  1  0
  7  2  1  0
 19 11  1  0
 22  4  1  0
 18 14  1  0
A    1
 C1 
A    2
 C2 
A    3
 C3 
A    4
 C4 
A    5
 C5 
A    6
 C6 
A    7
 C7 
A    8
 N1 
A    9
 C8 
A   10
 O1 
A   11
 N2 
A   12
 C9 
A   13
 C10
A   14
 C11
A   15
 N3 
A   16
 C12
A   17
 C13
A   18
 C14
A   19
 C15
A   20
 O2 
A   21
 C16
A   22
 O3 
M  END
>  <ref_url>  (132) 
https://github.com/stephwills/fragment_network_merges

>  <submitter_name>  (132) 
Steph Wills

>  <submitter_institution>  (132) 
University of Oxford

>  <submitter_email>  (132) 
stephanie.wills@balliol.ox.ac.uk

>  <generation_date>  (132) 
2023-08-10

>  <method>  (132) 
fragnetv3_corrected

>  <original SMILES>  (132) 
Cc1cc2c(cc1NC(=O)N1CCC3NCCC3C1)OCO2

>  <original_name>  (132) 
x1140_0A-x0771_0A_3

>  <ref_mols>  (132) 
x1140_0A,x0771_0A

>  <ref_pdb>  (132) 
x1140_0A

>  <SuCOS_score>  (132) 
0.4206597113348314

>  <compound ID>  (132) 
ENAMINE:Z2355588147

$$$$
x1140_0A-x0771_0A_28
     RDKit          3D

 21 24  0  0  0  0  0  0  0  0999 V2000
   -6.7960  -10.0460   -6.4320 O   0  0  0  0  0  0  0  0  0  0  0  0
   -6.7250   -8.8560   -6.1220 C   0  0  0  0  0  0  0  0  0  0  0  0
   -5.8100   -8.3800   -4.9390 C   0  0  0  0  0  0  0  0  0  0  0  0
   -6.4040   -8.7280   -3.5340 C   0  0  0  0  0  0  0  0  0  0  0  0
   -5.5720   -8.5680   -2.2200 C   0  0  0  0  0  0  0  0  0  0  0  0
   -6.1550   -9.1350   -1.0550 C   0  0  0  0  0  0  0  0  0  0  0  0
   -5.5430   -9.0860    0.2040 C   0  0  0  0  0  0  0  0  0  0  0  0
   -4.3270   -8.4650    0.3090 C   0  0  0  0  0  0  0  0  0  0  0  0
   -3.7210   -7.9010   -0.7870 C   0  0  0  0  0  0  0  0  0  0  0  0
   -4.3070   -7.9260   -2.0660 C   0  0  0  0  0  0  0  0  0  0  0  0
   -2.5220   -7.3480   -0.4520 O   0  0  0  0  0  0  0  0  0  0  0  0
   -2.4220   -7.6840    0.9510 C   0  0  0  0  0  0  0  0  0  0  0  0
   -3.6000   -8.3380    1.4590 O   0  0  0  0  0  0  0  0  0  0  0  0
   -7.5150   -7.9160   -6.7960 N   0  0  0  0  0  0  0  0  0  0  0  0
   -6.9950   -6.8030   -7.6260 C   0  0  0  0  0  0  0  0  0  0  0  0
   -7.7380   -5.4540   -7.4990 C   0  0  0  0  0  0  0  0  0  0  0  0
   -8.4440   -5.2690   -6.1480 C   0  0  2  0  0  0  0  0  0  0  0  0
   -7.5440   -4.8430   -5.0670 N   0  0  0  0  0  0  0  0  0  0  0  0
   -7.2370   -6.2650   -4.8380 C   0  0  0  0  0  0  0  0  0  0  0  0
   -8.6470   -6.5520   -5.3290 C   0  0  2  0  0  0  0  0  0  0  0  0
   -8.8420   -7.7310   -6.2100 C   0  0  0  0  0  0  0  0  0  0  0  0
  1  2  2  0
  2  3  1  0
  3  4  1  0
  4  5  1  0
  5  6  2  0
  6  7  1  0
  7  8  2  0
  8  9  1  0
  9 10  2  0
  9 11  1  0
 11 12  1  0
 12 13  1  0
  2 14  1  0
 14 15  1  0
 15 16  1  0
 17 16  1  6
 17 18  1  0
 18 19  1  0
 20 19  1  6
 20 21  1  0
 10  5  1  0
 21 14  1  0
 13  8  1  0
 20 17  1  0
A    1
 O1 
A    2
 C1 
A    3
 C2 
A    4
 C3 
A    5
 C4 
A    6
 C5 
A    7
 C6 
A    8
 C7 
A    9
 C8 
A   10
 C9 
A   11
 O2 
A   12
 C10
A   13
 O3 
A   14
 N1 
A   15
 C11
A   16
 C12
A   17
 C13
A   18
 N2 
A   19
 C14
A   20
 C15
A   21
 C16
M  END
>  <ref_url>  (133) 
https://github.com/stephwills/fragment_network_merges

>  <submitter_name>  (133) 
Steph Wills

>  <submitter_institution>  (133) 
University of Oxford

>  <submitter_email>  (133) 
stephanie.wills@balliol.ox.ac.uk

>  <generation_date>  (133) 
2023-08-10

>  <method>  (133) 
fragnetv3_corrected

>  <original SMILES>  (133) 
O=C(CCc1ccc2c(c1)OCO2)N1CCC2NCC2C1

>  <original_name>  (133) 
x1140_0A-x0771_0A_28

>  <ref_mols>  (133) 
x1140_0A,x0771_0A

>  <ref_pdb>  (133) 
x1140_0A

>  <SuCOS_score>  (133) 
0.40447191497070467

>  <compound ID>  (133) 
ENAMINE:Z4860176921

$$$$
x1140_0A-x0771_0A_5
     RDKit          3D

 23 26  0  0  0  0  0  0  0  0999 V2000
   -6.0160   -5.9680   -3.5190 C   0  0  0  0  0  0  0  0  0  0  0  0
   -5.4420   -7.2580   -3.6260 O   0  0  0  0  0  0  0  0  0  0  0  0
   -5.0670   -7.7370   -2.4210 C   0  0  0  0  0  0  0  0  0  0  0  0
   -4.0210   -7.1890   -1.6950 C   0  0  0  0  0  0  0  0  0  0  0  0
   -3.7140   -7.7110   -0.4680 C   0  0  0  0  0  0  0  0  0  0  0  0
   -4.4200   -8.7590    0.0640 C   0  0  0  0  0  0  0  0  0  0  0  0
   -5.4820   -9.3560   -0.6400 C   0  0  0  0  0  0  0  0  0  0  0  0
   -5.8040   -8.8220   -1.9330 C   0  0  0  0  0  0  0  0  0  0  0  0
   -6.9150   -9.3860   -2.8090 C   0  0  0  0  0  0  0  0  0  0  0  0
   -7.5850  -10.2880   -2.3030 O   0  0  0  0  0  0  0  0  0  0  0  0
   -7.1750   -8.8970   -4.1570 N   0  0  0  0  0  0  0  0  0  0  0  0
   -7.0360   -9.8730   -5.2870 C   0  0  0  0  0  0  0  0  0  0  0  0
   -7.2330   -9.2410   -6.6610 C   0  0  0  0  0  0  0  0  0  0  0  0
   -6.8470   -7.7800   -6.5570 C   0  0  1  0  0  0  0  0  0  0  0  0
   -6.6190   -7.2360   -7.8770 N   0  0  0  0  0  0  0  0  0  0  0  0
   -7.5260   -6.1470   -8.1970 C   0  0  0  0  0  0  0  0  0  0  0  0
   -7.6650   -5.0330   -7.1930 C   0  0  0  0  0  0  0  0  0  0  0  0
   -7.9140   -5.5540   -5.7840 C   0  0  0  0  0  0  0  0  0  0  0  0
   -7.9720   -7.0960   -5.7890 C   0  0  2  0  0  0  0  0  0  0  0  0
   -8.0960   -7.7440   -4.4070 C   0  0  0  0  0  0  0  0  0  0  0  0
   -3.9340   -9.0950    1.3020 O   0  0  0  0  0  0  0  0  0  0  0  0
   -2.7900   -8.2060    1.4160 C   0  0  0  0  0  0  0  0  0  0  0  0
   -2.7140   -7.2670    0.3370 O   0  0  0  0  0  0  0  0  0  0  0  0
  1  2  1  0
  2  3  1  0
  3  4  2  0
  4  5  1  0
  5  6  2  0
  6  7  1  0
  7  8  2  0
  8  9  1  0
  9 10  2  0
  9 11  1  0
 11 12  1  0
 12 13  1  0
 14 13  1  6
 14 15  1  0
 15 16  1  0
 16 17  1  0
 17 18  1  0
 19 18  1  1
 19 20  1  0
  6 21  1  0
 21 22  1  0
 22 23  1  0
  8  3  1  0
 20 11  1  0
 23  5  1  0
 19 14  1  0
A    1
 C1 
A    2
 O1 
A    3
 C2 
A    4
 C3 
A    5
 C4 
A    6
 C5 
A    7
 C6 
A    8
 C7 
A    9
 C8 
A   10
 O2 
A   11
 N1 
A   12
 C9 
A   13
 C10
A   14
 C11
A   15
 N2 
A   16
 C12
A   17
 C13
A   18
 C14
A   19
 C15
A   20
 C16
A   21
 O3 
A   22
 C17
A   23
 O4 
M  END
>  <ref_url>  (134) 
https://github.com/stephwills/fragment_network_merges

>  <submitter_name>  (134) 
Steph Wills

>  <submitter_institution>  (134) 
University of Oxford

>  <submitter_email>  (134) 
stephanie.wills@balliol.ox.ac.uk

>  <generation_date>  (134) 
2023-08-10

>  <method>  (134) 
fragnetv3_corrected

>  <original SMILES>  (134) 
COc1cc2c(cc1C(=O)N1CCC3NCCCC3C1)OCO2

>  <original_name>  (134) 
x1140_0A-x0771_0A_5

>  <ref_mols>  (134) 
x1140_0A,x0771_0A

>  <ref_pdb>  (134) 
x1140_0A

>  <SuCOS_score>  (134) 
0.4035180480033345

>  <compound ID>  (134) 
ENAMINE:Z4055457257

$$$$
x1140_0A-x0771_0A_11
     RDKit          3D

 24 27  0  0  0  0  0  0  0  0999 V2000
   -5.8690   -9.9030   -3.1690 O   0  0  0  0  0  0  0  0  0  0  0  0
   -5.4140   -8.8470   -3.5940 C   0  0  0  0  0  0  0  0  0  0  0  0
   -4.6710   -7.9440   -2.8470 N   0  0  0  0  0  0  0  0  0  0  0  0
   -4.7850   -8.1190   -1.4790 C   0  0  0  0  0  0  0  0  0  0  0  0
   -6.0420   -8.5520   -1.1090 C   0  0  0  0  0  0  0  0  0  0  0  0
   -6.3620   -8.8130    0.2080 C   0  0  0  0  0  0  0  0  0  0  0  0
   -8.1070   -9.4050    0.6510 Br  0  0  0  0  0  0  0  0  0  0  0  0
   -5.4300   -8.6510    1.2070 C   0  0  0  0  0  0  0  0  0  0  0  0
   -4.1820   -8.2190    0.8490 C   0  0  0  0  0  0  0  0  0  0  0  0
   -3.8300   -7.9440   -0.4610 C   0  0  0  0  0  0  0  0  0  0  0  0
   -2.5330   -7.5330   -0.5390 O   0  0  0  0  0  0  0  0  0  0  0  0
   -2.1390   -7.5780    0.8580 C   0  0  0  0  0  0  0  0  0  0  0  0
   -3.1800   -8.0250    1.7330 O   0  0  0  0  0  0  0  0  0  0  0  0
   -5.7470   -8.4760   -5.0350 C   0  0  0  0  0  0  0  0  0  0  0  0
   -4.8950   -7.9550   -5.7420 O   0  0  0  0  0  0  0  0  0  0  0  0
   -7.0510   -8.7570   -5.4190 N   0  0  0  0  0  0  0  0  0  0  0  0
   -8.0160   -7.7750   -5.0220 C   0  0  0  0  0  0  0  0  0  0  0  0
   -7.4620   -6.4640   -5.5190 C   0  0  0  0  0  0  0  0  0  0  0  0
   -7.4290   -6.6160   -7.0340 C   0  0  0  0  0  0  0  0  0  0  0  0
   -7.2030   -5.3670   -7.9240 C   0  0  0  0  0  0  0  0  0  0  0  0
   -8.6470   -5.0720   -7.6060 C   0  0  0  0  0  0  0  0  0  0  0  0
   -8.8420   -6.5140   -7.3970 N   0  0  0  0  0  0  0  0  0  0  0  0
   -6.8100   -7.9240   -7.6120 C   0  0  0  0  0  0  0  0  0  0  0  0
   -7.2310   -9.1380   -6.7940 C   0  0  0  0  0  0  0  0  0  0  0  0
  1  2  2  0
  2  3  1  0
  3  4  1  0
  4  5  2  0
  5  6  1  0
  6  7  1  0
  6  8  2  0
  8  9  1  0
  9 10  2  0
 10 11  1  0
 11 12  1  0
 12 13  1  0
  2 14  1  0
 14 15  2  0
 14 16  1  0
 16 17  1  0
 17 18  1  0
 18 19  1  0
 19 20  1  0
 20 21  1  0
 21 22  1  0
 19 23  1  0
 23 24  1  0
 10  4  1  0
 24 16  1  0
 13  9  1  0
 22 19  1  0
A    1
 O1 
A    2
 C1 
A    3
 N1 
A    4
 C2 
A    5
 C3 
A    6
 C4 
A    7
BR1 
A    8
 C5 
A    9
 C6 
A   10
 C7 
A   11
 O2 
A   12
 C8 
A   13
 O3 
A   14
 C9 
A   15
 O4 
A   16
 N2 
A   17
 C10
A   18
 C11
A   19
 C12
A   20
 C13
A   21
 C14
A   22
 N3 
A   23
 C15
A   24
 C16
M  END
>  <ref_url>  (135) 
https://github.com/stephwills/fragment_network_merges

>  <submitter_name>  (135) 
Steph Wills

>  <submitter_institution>  (135) 
University of Oxford

>  <submitter_email>  (135) 
stephanie.wills@balliol.ox.ac.uk

>  <generation_date>  (135) 
2023-08-10

>  <method>  (135) 
fragnetv3_corrected

>  <original SMILES>  (135) 
O=C(Nc1cc(Br)cc2c1OCO2)C(=O)N1CCC2(CCN2)CC1

>  <original_name>  (135) 
x1140_0A-x0771_0A_11

>  <ref_mols>  (135) 
x1140_0A,x0771_0A

>  <ref_pdb>  (135) 
x1140_0A

>  <SuCOS_score>  (135) 
0.397004572701191

>  <compound ID>  (135) 
ENAMINE:Z3388779066

$$$$
x1140_0A-x0771_0A_15
     RDKit          3D

 21 24  0  0  0  0  0  0  0  0999 V2000
   -6.5600  -10.3910   -2.9440 O   0  0  0  0  0  0  0  0  0  0  0  0
   -6.4620   -9.2920   -3.4920 C   0  0  0  0  0  0  0  0  0  0  0  0
   -5.3960   -8.2600   -3.1930 C   0  0  0  0  0  0  0  0  0  0  0  0
   -4.9250   -8.3160   -1.7940 C   0  0  0  0  0  0  0  0  0  0  0  0
   -5.7030   -8.9630   -0.8110 C   0  0  0  0  0  0  0  0  0  0  0  0
   -5.2600   -9.0310    0.5060 C   0  0  0  0  0  0  0  0  0  0  0  0
   -4.0490   -8.4450    0.7890 C   0  0  0  0  0  0  0  0  0  0  0  0
   -3.3000   -7.8130   -0.1730 C   0  0  0  0  0  0  0  0  0  0  0  0
   -3.7090   -7.7290   -1.4700 C   0  0  0  0  0  0  0  0  0  0  0  0
   -2.1490   -7.3080    0.3100 O   0  0  0  0  0  0  0  0  0  0  0  0
   -2.2030   -7.7740    1.6650 C   0  0  0  0  0  0  0  0  0  0  0  0
   -3.4490   -8.4140    2.0050 O   0  0  0  0  0  0  0  0  0  0  0  0
   -7.3370   -8.8630   -4.4320 N   0  0  0  0  0  0  0  0  0  0  0  0
   -7.5580   -9.5550   -5.6950 C   0  0  0  0  0  0  0  0  0  0  0  0
   -8.0150   -8.6430   -6.8120 C   0  0  0  0  0  0  0  0  0  0  0  0
   -8.1690   -7.1280   -6.4610 C   0  0  0  0  0  0  0  0  0  0  0  0
   -7.0280   -6.1730   -6.8380 C   0  0  0  0  0  0  0  0  0  0  0  0
   -7.6850   -6.1130   -8.1850 C   0  0  0  0  0  0  0  0  0  0  0  0
   -8.9330   -6.3390   -7.4330 N   0  0  0  0  0  0  0  0  0  0  0  0
   -8.6680   -6.9220   -5.0860 C   0  0  0  0  0  0  0  0  0  0  0  0
   -7.5020   -7.4190   -4.3290 C   0  0  0  0  0  0  0  0  0  0  0  0
  1  2  2  0
  2  3  1  0
  3  4  1  0
  4  5  2  0
  5  6  1  0
  6  7  2  0
  7  8  1  0
  8  9  2  0
  8 10  1  0
 10 11  1  0
 11 12  1  0
  2 13  1  0
 13 14  1  0
 14 15  1  0
 15 16  1  0
 16 17  1  0
 17 18  1  0
 18 19  1  0
 16 20  1  0
 20 21  1  0
  9  4  1  0
 21 13  1  0
 12  7  1  0
 19 16  1  0
A    1
 O1 
A    2
 C1 
A    3
 C2 
A    4
 C3 
A    5
 C4 
A    6
 C5 
A    7
 C6 
A    8
 C7 
A    9
 C8 
A   10
 O2 
A   11
 C9 
A   12
 O3 
A   13
 N1 
A   14
 C10
A   15
 C11
A   16
 C12
A   17
 C13
A   18
 C14
A   19
 N2 
A   20
 C15
A   21
 C16
M  END
>  <ref_url>  (136) 
https://github.com/stephwills/fragment_network_merges

>  <submitter_name>  (136) 
Steph Wills

>  <submitter_institution>  (136) 
University of Oxford

>  <submitter_email>  (136) 
stephanie.wills@balliol.ox.ac.uk

>  <generation_date>  (136) 
2023-08-10

>  <method>  (136) 
fragnetv3_corrected

>  <original SMILES>  (136) 
O=C(Cc1ccc2c(c1)OCO2)N1CCC2(CCN2)CC1

>  <original_name>  (136) 
x1140_0A-x0771_0A_15

>  <ref_mols>  (136) 
x1140_0A,x0771_0A

>  <ref_pdb>  (136) 
x1140_0A

>  <SuCOS_score>  (136) 
0.3923981806415302

>  <compound ID>  (136) 
ENAMINE:Z2378812890

$$$$
x1140_0A-x0771_0A_31
     RDKit          3D

 21 24  0  0  0  0  0  0  0  0999 V2000
   -4.8110   -7.9830   -4.5280 O   0  0  0  0  0  0  0  0  0  0  0  0
   -5.6740   -8.4360   -3.8120 C   0  0  0  0  0  0  0  0  0  0  0  0
   -5.3000   -8.4950   -2.3370 C   0  0  0  0  0  0  0  0  0  0  0  0
   -4.0790   -7.8610   -1.9770 C   0  0  0  0  0  0  0  0  0  0  0  0
   -3.6660   -7.8940   -0.6550 C   0  0  0  0  0  0  0  0  0  0  0  0
   -4.4030   -8.5120    0.3180 C   0  0  0  0  0  0  0  0  0  0  0  0
   -5.6030   -9.1370    0.0220 C   0  0  0  0  0  0  0  0  0  0  0  0
   -6.0600   -9.1320   -1.3190 C   0  0  0  0  0  0  0  0  0  0  0  0
   -7.7020  -10.0110   -1.6730 Br  0  0  0  0  0  0  0  0  0  0  0  0
   -3.8140   -8.4310    1.5480 O   0  0  0  0  0  0  0  0  0  0  0  0
   -2.5510   -7.8150    1.2050 C   0  0  0  0  0  0  0  0  0  0  0  0
   -2.5210   -7.3500   -0.1570 O   0  0  0  0  0  0  0  0  0  0  0  0
   -6.9100   -8.8380   -4.3850 N   0  0  0  0  0  0  0  0  0  0  0  0
   -7.9450   -7.8350   -4.2650 C   0  0  0  0  0  0  0  0  0  0  0  0
   -7.5530   -6.6400   -5.0980 C   0  0  0  0  0  0  0  0  0  0  0  0
   -7.4620   -7.0940   -6.5470 C   0  0  0  0  0  0  0  0  0  0  0  0
   -8.0770   -6.0390   -7.5120 C   0  0  0  0  0  0  0  0  0  0  0  0
   -6.9490   -6.4660   -8.4510 C   0  0  0  0  0  0  0  0  0  0  0  0
   -6.1890   -6.8200   -7.2460 N   0  0  0  0  0  0  0  0  0  0  0  0
   -7.7090   -8.6110   -6.7680 C   0  0  0  0  0  0  0  0  0  0  0  0
   -6.9620   -9.4690   -5.7270 C   0  0  0  0  0  0  0  0  0  0  0  0
  1  2  2  0
  2  3  1  0
  3  4  2  0
  4  5  1  0
  5  6  2  0
  6  7  1  0
  7  8  2  0
  8  9  1  0
  6 10  1  0
 10 11  1  0
 11 12  1  0
  2 13  1  0
 13 14  1  0
 14 15  1  0
 15 16  1  0
 16 17  1  0
 17 18  1  0
 18 19  1  0
 16 20  1  0
 20 21  1  0
  8  3  1  0
 21 13  1  0
 12  5  1  0
 19 16  1  0
A    1
 O1 
A    2
 C1 
A    3
 C2 
A    4
 C3 
A    5
 C4 
A    6
 C5 
A    7
 C6 
A    8
 C7 
A    9
BR1 
A   10
 O2 
A   11
 C8 
A   12
 O3 
A   13
 N1 
A   14
 C9 
A   15
 C10
A   16
 C11
A   17
 C12
A   18
 C13
A   19
 N2 
A   20
 C14
A   21
 C15
M  END
>  <ref_url>  (137) 
https://github.com/stephwills/fragment_network_merges

>  <submitter_name>  (137) 
Steph Wills

>  <submitter_institution>  (137) 
University of Oxford

>  <submitter_email>  (137) 
stephanie.wills@balliol.ox.ac.uk

>  <generation_date>  (137) 
2023-08-10

>  <method>  (137) 
fragnetv3_corrected

>  <original SMILES>  (137) 
O=C(c1cc2c(cc1Br)OCO2)N1CCC2(CCN2)CC1

>  <original_name>  (137) 
x1140_0A-x0771_0A_31

>  <ref_mols>  (137) 
x1140_0A,x0771_0A

>  <ref_pdb>  (137) 
x1140_0A

>  <SuCOS_score>  (137) 
0.3883064233719575

>  <compound ID>  (137) 
ENAMINE:Z2656659174

$$$$
x1140_0A-x0771_0A_9
     RDKit          3D

 22 25  0  0  0  0  0  0  0  0999 V2000
   -6.9420  -10.6840   -2.9620 O   0  0  0  0  0  0  0  0  0  0  0  0
   -6.4670   -9.5650   -3.1460 C   0  0  0  0  0  0  0  0  0  0  0  0
   -5.6740   -9.0760   -1.9420 C   0  0  0  0  0  0  0  0  0  0  0  0
   -4.4790   -8.2880   -1.9910 C   0  0  0  0  0  0  0  0  0  0  0  0
   -3.8610   -7.9870   -0.7640 C   0  0  0  0  0  0  0  0  0  0  0  0
   -4.3800   -8.4080    0.4400 C   0  0  0  0  0  0  0  0  0  0  0  0
   -5.5310   -9.1410    0.5080 C   0  0  0  0  0  0  0  0  0  0  0  0
   -6.1730   -9.4750   -0.6830 C   0  0  0  0  0  0  0  0  0  0  0  0
   -7.6120  -10.4220   -0.5410 Cl  0  0  0  0  0  0  0  0  0  0  0  0
   -3.6340   -8.0230    1.5110 O   0  0  0  0  0  0  0  0  0  0  0  0
   -2.4440   -7.5820    0.8320 C   0  0  0  0  0  0  0  0  0  0  0  0
   -2.7110   -7.2850   -0.5620 O   0  0  0  0  0  0  0  0  0  0  0  0
   -6.6910   -8.9110   -4.3820 N   0  0  0  0  0  0  0  0  0  0  0  0
   -6.7180   -9.7740   -5.5690 C   0  0  0  0  0  0  0  0  0  0  0  0
   -7.1720   -9.0030   -6.7980 C   0  0  0  0  0  0  0  0  0  0  0  0
   -6.6820   -7.5540   -6.7770 C   0  0  1  0  0  0  0  0  0  0  0  0
   -7.0230   -7.0190   -8.0820 N   0  0  0  0  0  0  0  0  0  0  0  0
   -7.9100   -5.8720   -8.1510 C   0  0  0  0  0  0  0  0  0  0  0  0
   -7.7750   -4.9080   -7.0350 C   0  0  0  0  0  0  0  0  0  0  0  0
   -8.0660   -5.5970   -5.7240 C   0  0  0  0  0  0  0  0  0  0  0  0
   -7.1270   -6.7880   -5.5140 C   0  0  1  0  0  0  0  0  0  0  0  0
   -7.6200   -7.7960   -4.5070 C   0  0  0  0  0  0  0  0  0  0  0  0
  1  2  2  0
  2  3  1  0
  3  4  2  0
  4  5  1  0
  5  6  2  0
  6  7  1  0
  7  8  2  0
  8  9  1  0
  6 10  1  0
 10 11  1  0
 11 12  1  0
  2 13  1  0
 13 14  1  0
 14 15  1  0
 16 15  1  1
 16 17  1  0
 17 18  1  0
 18 19  1  0
 19 20  1  0
 21 20  1  6
 21 22  1  0
  8  3  1  0
 22 13  1  0
 12  5  1  0
 21 16  1  0
A    1
 O1 
A    2
 C1 
A    3
 C2 
A    4
 C3 
A    5
 C4 
A    6
 C5 
A    7
 C6 
A    8
 C7 
A    9
CL1 
A   10
 O2 
A   11
 C8 
A   12
 O3 
A   13
 N1 
A   14
 C9 
A   15
 C10
A   16
 C11
A   17
 N2 
A   18
 C12
A   19
 C13
A   20
 C14
A   21
 C15
A   22
 C16
M  END
>  <ref_url>  (138) 
https://github.com/stephwills/fragment_network_merges

>  <submitter_name>  (138) 
Steph Wills

>  <submitter_institution>  (138) 
University of Oxford

>  <submitter_email>  (138) 
stephanie.wills@balliol.ox.ac.uk

>  <generation_date>  (138) 
2023-08-10

>  <method>  (138) 
fragnetv3_corrected

>  <original SMILES>  (138) 
O=C(c1cc2c(cc1Cl)OCO2)N1CCC2NCCCC2C1

>  <original_name>  (138) 
x1140_0A-x0771_0A_9

>  <ref_mols>  (138) 
x1140_0A,x0771_0A

>  <ref_pdb>  (138) 
x1140_0A

>  <SuCOS_score>  (138) 
0.3860607958868142

>  <compound ID>  (138) 
ENAMINE:Z3385129446

$$$$
x1140_0A-x0771_0A_30
     RDKit          3D

 20 23  0  0  0  0  0  0  0  0999 V2000
   -6.9740  -10.4700   -3.1440 O   0  0  0  0  0  0  0  0  0  0  0  0
   -6.4630   -9.3610   -3.2910 C   0  0  0  0  0  0  0  0  0  0  0  0
   -5.6400   -8.9270   -2.0720 C   0  0  0  0  0  0  0  0  0  0  0  0
   -6.1820   -9.3780   -0.8480 C   0  0  0  0  0  0  0  0  0  0  0  0
   -5.5640   -9.1240    0.3790 C   0  0  0  0  0  0  0  0  0  0  0  0
   -4.3920   -8.4180    0.3800 C   0  0  0  0  0  0  0  0  0  0  0  0
   -3.8330   -7.9520   -0.7890 C   0  0  0  0  0  0  0  0  0  0  0  0
   -4.4270   -8.1740   -2.0470 C   0  0  0  0  0  0  0  0  0  0  0  0
   -2.6700   -7.2900   -0.5300 O   0  0  0  0  0  0  0  0  0  0  0  0
   -2.4590   -7.6210    0.8640 C   0  0  0  0  0  0  0  0  0  0  0  0
   -3.6630   -8.1060    1.4880 O   0  0  0  0  0  0  0  0  0  0  0  0
   -6.6900   -8.6620   -4.5150 N   0  0  0  0  0  0  0  0  0  0  0  0
   -6.6370   -9.5170   -5.7250 C   0  0  0  0  0  0  0  0  0  0  0  0
   -7.2400   -8.8250   -6.9570 C   0  0  0  0  0  0  0  0  0  0  0  0
   -6.8310   -7.3590   -6.9160 C   0  0  1  0  0  0  0  0  0  0  0  0
   -7.1940   -6.5180   -8.0690 N   0  0  0  0  0  0  0  0  0  0  0  0
   -7.8890   -5.3340   -7.5400 C   0  0  0  0  0  0  0  0  0  0  0  0
   -8.5160   -5.7830   -6.2320 C   0  0  0  0  0  0  0  0  0  0  0  0
   -7.4330   -6.6700   -5.6730 C   0  0  1  0  0  0  0  0  0  0  0  0
   -7.8000   -7.6990   -4.6280 C   0  0  0  0  0  0  0  0  0  0  0  0
  1  2  2  0
  2  3  1  0
  3  4  2  0
  4  5  1  0
  5  6  2  0
  6  7  1  0
  7  8  2  0
  7  9  1  0
  9 10  1  0
 10 11  1  0
  2 12  1  0
 12 13  1  0
 13 14  1  0
 15 14  1  6
 15 16  1  0
 16 17  1  0
 17 18  1  0
 19 18  1  6
 19 20  1  0
  8  3  1  0
 20 12  1  0
 11  6  1  0
 19 15  1  0
A    1
 O1 
A    2
 C1 
A    3
 C2 
A    4
 C3 
A    5
 C4 
A    6
 C5 
A    7
 C6 
A    8
 C7 
A    9
 O2 
A   10
 C8 
A   11
 O3 
A   12
 N1 
A   13
 C9 
A   14
 C10
A   15
 C11
A   16
 N2 
A   17
 C12
A   18
 C13
A   19
 C14
A   20
 C15
M  END
>  <ref_url>  (139) 
https://github.com/stephwills/fragment_network_merges

>  <submitter_name>  (139) 
Steph Wills

>  <submitter_institution>  (139) 
University of Oxford

>  <submitter_email>  (139) 
stephanie.wills@balliol.ox.ac.uk

>  <generation_date>  (139) 
2023-08-10

>  <method>  (139) 
fragnetv3_corrected

>  <original SMILES>  (139) 
O=C(c1ccc2c(c1)OCO2)N1CCC2NCCC2C1

>  <original_name>  (139) 
x1140_0A-x0771_0A_30

>  <ref_mols>  (139) 
x1140_0A,x0771_0A

>  <ref_pdb>  (139) 
x1140_0A

>  <SuCOS_score>  (139) 
0.3793287712906229

>  <compound ID>  (139) 
ENAMINE:Z2439315489

$$$$
x1140_0A-x0771_0A_2
     RDKit          3D

 24 27  0  0  0  0  0  0  0  0999 V2000
   -5.1950   -6.5310   -3.3970 C   0  0  0  0  0  0  0  0  0  0  0  0
   -4.9770   -7.1900   -2.0990 C   0  0  0  0  0  0  0  0  0  0  0  0
   -3.6970   -7.2380   -1.5750 C   0  0  0  0  0  0  0  0  0  0  0  0
   -3.5180   -7.8150   -0.3630 C   0  0  0  0  0  0  0  0  0  0  0  0
   -4.5640   -8.3610    0.3400 C   0  0  0  0  0  0  0  0  0  0  0  0
   -5.8750   -8.3510   -0.1630 C   0  0  0  0  0  0  0  0  0  0  0  0
   -6.0560   -7.7250   -1.4390 C   0  0  0  0  0  0  0  0  0  0  0  0
   -7.5970   -7.5020   -2.3700 S   0  0  0  0  0  6  0  0  0  0  0  0
   -8.3740   -8.7140   -2.2440 O   0  0  0  0  0  0  0  0  0  0  0  0
   -8.1490   -6.2120   -2.0050 O   0  0  0  0  0  0  0  0  0  0  0  0
   -7.0090   -7.2930   -4.0140 N   0  0  0  0  0  0  0  0  0  0  0  0
   -7.3260   -6.1550   -5.0240 C   0  0  2  0  0  0  0  0  0  0  0  0
   -8.8260   -6.0350   -5.0820 C   0  0  0  0  0  0  0  0  0  0  0  0
   -9.3520   -7.4450   -5.2700 C   0  0  0  0  0  0  0  0  0  0  0  0
   -8.3450   -8.2850   -6.0760 C   0  0  1  0  0  0  0  0  0  0  0  0
   -7.2110   -8.8690   -5.2660 C   0  0  0  0  0  0  0  0  0  0  0  0
   -6.6510   -9.7130   -6.3600 C   0  0  0  0  0  0  0  0  0  0  0  0
   -7.8700  -10.4600   -6.8180 C   0  0  0  0  0  0  0  0  0  0  0  0
   -8.9610   -9.5190   -6.5620 N   0  0  0  0  0  0  0  0  0  0  0  0
   -7.7480   -7.3970   -7.1530 C   0  0  0  0  0  0  0  0  0  0  0  0
   -6.8370   -6.4460   -6.4680 C   0  0  0  0  0  0  0  0  0  0  0  0
   -4.1150   -8.8690    1.5290 O   0  0  0  0  0  0  0  0  0  0  0  0
   -2.8290   -8.2010    1.5950 C   0  0  0  0  0  0  0  0  0  0  0  0
   -2.3330   -7.9130    0.2810 O   0  0  0  0  0  0  0  0  0  0  0  0
  1  2  1  0
  2  3  2  0
  3  4  1  0
  4  5  2  0
  5  6  1  0
  6  7  2  0
  7  8  1  0
  8  9  2  0
  8 10  2  0
  8 11  1  0
 12 11  1  1
 12 13  1  0
 13 14  1  0
 15 14  1  1
 15 16  1  0
 16 17  1  0
 17 18  1  0
 18 19  1  0
 15 20  1  0
 20 21  1  0
  5 22  1  0
 22 23  1  0
 23 24  1  0
  7  2  1  0
 21 12  1  0
 24  4  1  0
 19 15  1  0
A    1
 C1 
A    2
 C2 
A    3
 C3 
A    4
 C4 
A    5
 C5 
A    6
 C6 
A    7
 C7 
A    8
 S1 
A    9
 O1 
A   10
 O2 
A   11
 N1 
A   12
 C8 
A   13
 C9 
A   14
 C10
A   15
 C11
A   16
 C12
A   17
 C13
A   18
 C14
A   19
 N2 
A   20
 C15
A   21
 C16
A   22
 O3 
A   23
 C17
A   24
 O4 
M  END
>  <ref_url>  (140) 
https://github.com/stephwills/fragment_network_merges

>  <submitter_name>  (140) 
Steph Wills

>  <submitter_institution>  (140) 
University of Oxford

>  <submitter_email>  (140) 
stephanie.wills@balliol.ox.ac.uk

>  <generation_date>  (140) 
2023-08-10

>  <method>  (140) 
fragnetv3_corrected

>  <original SMILES>  (140) 
Cc1cc2c(cc1S(=O)(=O)NC1CCC3(CCCN3)CC1)OCO2

>  <original_name>  (140) 
x1140_0A-x0771_0A_2

>  <ref_mols>  (140) 
x1140_0A,x0771_0A

>  <ref_pdb>  (140) 
x1140_0A

>  <SuCOS_score>  (140) 
0.3749971484238036

>  <compound ID>  (140) 
ENAMINE:Z3808314982

$$$$
