ver_1.2
     RDKit          2D

  0  0  0  0  0  0  0  0  0  0999 V2000
M  END
>  <ref_url>  (1) 
https://github.com/stephwills/fragment_network_merges

>  <submitter_name>  (1) 
Steph Wills

>  <submitter_institution>  (1) 
University of Oxford

>  <submitter_email>  (1) 
stephanie.wills@balliol.ox.ac.uk

>  <generation_date>  (1) 
2023-07-28

>  <original SMILES>  (1) 
smiles

>  <ref_mols>  (1) 
inspirational fragments

>  <SuCOS_score>  (1) 
Score SuCOS_score

>  <method>  (1) 
fragnetv2_named

>  <ref_pdb>  (1) 
ref pdb

$$$$
x0789-0A-x0771-0A-1708_p
     RDKit          3D

 18 19  0  0  0  0  0  0  0  0999 V2000
  -13.6300   -5.9390   -3.6150 C   0  0  0  0  0  0  0  0  0  0  0  0
  -13.1230   -4.5940   -4.1400 C   0  0  0  0  0  0  0  0  0  0  0  0
  -12.5810   -3.8660   -3.0170 O   0  0  0  0  0  0  0  0  0  0  0  0
  -11.3820   -3.1980   -3.4280 C   0  0  0  0  0  0  0  0  0  0  0  0
  -11.2780   -3.3480   -4.9660 C   0  0  0  0  0  0  0  0  0  0  0  0
  -12.0060   -4.6590   -5.1910 C   0  0  0  0  0  0  0  0  0  0  0  0
  -11.1140   -5.8980   -5.1300 C   0  0  0  0  0  0  0  0  0  0  0  0
  -10.2210   -6.0410   -6.3590 C   0  0  0  0  0  0  0  0  0  0  0  0
   -9.0120   -5.2560   -6.2380 N   0  0  0  0  0  0  0  0  0  0  0  0
   -8.1220   -5.1810   -7.2940 C   0  0  0  0  0  0  0  0  0  0  0  0
   -8.0250   -4.2020   -8.0290 O   0  0  0  0  0  0  0  0  0  0  0  0
   -7.2500   -6.4160   -7.4990 C   0  0  0  0  0  0  0  0  0  0  0  0
   -7.3120   -7.3960   -6.3070 C   0  0  0  0  0  0  0  0  0  0  0  0
   -7.6310   -8.8710   -6.4330 C   0  0  0  0  0  0  0  0  0  0  0  0
   -7.5760   -9.4630   -5.1970 N   0  0  0  0  0  0  0  0  0  0  0  0
   -6.9100   -8.5190   -4.3720 N   0  0  0  0  0  0  0  0  0  0  0  0
   -7.0600   -7.2250   -4.8710 C   0  0  0  0  0  0  0  0  0  0  0  0
   -7.0050   -6.1670   -4.2750 O   0  0  0  0  0  0  0  0  0  0  0  0
  1  2  1  0
  2  3  1  0
  3  4  1  0
  4  5  1  0
  5  6  1  0
  6  7  1  0
  7  8  1  0
  8  9  1  0
  9 10  1  0
 10 11  2  0
 10 12  1  0
 12 13  1  0
 13 14  2  0
 14 15  1  0
 15 16  1  0
 16 17  1  0
 17 18  2  0
  6  2  1  0
 17 13  1  0
A    1
 C1 
A    2
 C2 
A    3
 O1 
A    4
 C3 
A    5
 C4 
A    6
 C5 
A    7
 C6 
A    8
 C7 
A    9
 N1 
A   10
 C8 
A   11
 O2 
A   12
 C9 
A   13
 C10
A   14
 C11
A   15
 N2 
A   16
 N3 
A   17
 C12
A   18
 O3 
M  END
>  <ref_url>  (2) 
https://github.com/stephwills/fragment_network_merges

>  <submitter_name>  (2) 
Steph Wills

>  <submitter_institution>  (2) 
University of Oxford

>  <submitter_email>  (2) 
stephanie.wills@balliol.ox.ac.uk

>  <generation_date>  (2) 
2023-07-04

>  <original SMILES>  (2) 
CC(=O)NC12CCCCC1N(C(=O)Cc1ccc(=O)[nH]c1)CC2

>  <ref_mols>  (2) 
x0789_0A,x0771_0A

>  <SuCOS_score>  (2) 
0.4008997894227672

>  <cmpd_id>  (2) 
ENAMINE:Z4285726554

>  <method>  (2) 
fragnetv2_named

>  <ref_pdb>  (2) 
x0789_0A

$$$$
x0789-0A-x0771-0A-1664_p
     RDKit          3D

 19 21  0  0  0  0  0  0  0  0999 V2000
  -12.4210   -6.0040   -4.9040 C   0  0  0  0  0  0  0  0  0  0  0  0
  -12.4490   -4.4740   -4.8700 C   0  0  0  0  0  0  0  0  0  0  0  0
  -12.3800   -4.1270   -3.4990 O   0  0  0  0  0  0  0  0  0  0  0  0
  -11.0210   -4.3860   -3.1640 C   0  0  0  0  0  0  0  0  0  0  0  0
  -10.1930   -3.9670   -4.3620 C   0  0  0  0  0  0  0  0  0  0  0  0
  -11.2000   -3.7530   -5.4740 C   0  0  0  0  0  0  0  0  0  0  0  0
  -10.6550   -4.1880   -6.7720 N   0  0  0  0  0  0  0  0  0  0  0  0
   -9.2140   -3.8470   -6.9570 C   0  0  0  0  0  0  0  0  0  0  0  0
   -8.4580   -5.1440   -7.1380 C   0  0  0  0  0  0  0  0  0  0  0  0
   -7.6200   -5.4070   -8.3540 C   0  0  0  0  0  0  0  0  0  0  0  0
   -6.9980   -6.6610   -8.4310 C   0  0  0  0  0  0  0  0  0  0  0  0
   -7.1920   -7.5360   -7.3880 C   0  0  0  0  0  0  0  0  0  0  0  0
   -7.9390   -7.2190   -6.3090 C   0  0  0  0  0  0  0  0  0  0  0  0
   -8.5530   -6.0860   -6.1780 C   0  0  0  0  0  0  0  0  0  0  0  0
   -8.0790   -8.1700   -5.2150 C   0  0  0  0  0  0  0  0  0  0  0  0
   -8.1890   -7.7540   -4.0830 O   0  0  0  0  0  0  0  0  0  0  0  0
   -8.0620   -9.5040   -5.5100 N   0  0  0  0  0  0  0  0  0  0  0  0
   -7.5740   -9.9460   -6.7830 C   0  0  0  0  0  0  0  0  0  0  0  0
   -6.6250   -8.8820   -7.3400 C   0  0  0  0  0  0  0  0  0  0  0  0
  1  2  1  0
  2  3  1  0
  3  4  1  0
  4  5  1  0
  5  6  1  0
  6  7  1  0
  7  8  1  0
  8  9  1  0
  9 10  2  0
 10 11  1  0
 11 12  2  0
 12 13  1  0
 13 14  2  0
 13 15  1  0
 15 16  2  0
 15 17  1  0
 17 18  1  0
 18 19  1  0
  6  2  1  0
 14  9  1  0
 19 12  1  0
A    1
 C1 
A    2
 C2 
A    3
 O1 
A    4
 C3 
A    5
 C4 
A    6
 C5 
A    7
 N1 
A    8
 C6 
A    9
 C7 
A   10
 C8 
A   11
 C9 
A   12
 C10
A   13
 C11
A   14
 C12
A   15
 C13
A   16
 O2 
A   17
 N2 
A   18
 C14
A   19
 C15
M  END
>  <ref_url>  (3) 
https://github.com/stephwills/fragment_network_merges

>  <submitter_name>  (3) 
Steph Wills

>  <submitter_institution>  (3) 
University of Oxford

>  <submitter_email>  (3) 
stephanie.wills@balliol.ox.ac.uk

>  <generation_date>  (3) 
2023-07-04

>  <original SMILES>  (3) 
CC(=O)NC12CCCCC1N(C(=O)Cc1ccc(=O)[nH]c1)CC2

>  <ref_mols>  (3) 
x0789_0A,x0771_0A

>  <SuCOS_score>  (3) 
0.4009823638330105

>  <cmpd_id>  (3) 
ENAMINE:Z1671428496

>  <method>  (3) 
fragnetv2_named

>  <ref_pdb>  (3) 
x0789_0A

$$$$
x0789-0A-x0771-0A-2596_p
     RDKit          3D

 15 15  0  0  0  0  0  0  0  0999 V2000
   -7.5430   -5.3020   -7.9700 C   0  0  0  0  0  0  0  0  0  0  0  0
   -6.8200   -6.2440   -7.1840 O   0  0  0  0  0  0  0  0  0  0  0  0
   -7.2470   -7.5370   -7.2350 C   0  0  0  0  0  0  0  0  0  0  0  0
   -6.9710   -8.3380   -8.1320 O   0  0  0  0  0  0  0  0  0  0  0  0
   -8.1020   -7.9190   -6.0350 C   0  0  0  0  0  0  0  0  0  0  0  0
   -7.5060   -9.0930   -5.3470 N   0  0  0  0  0  0  0  0  0  0  0  0
   -8.2280   -6.6760   -5.1660 C   0  0  0  0  0  0  0  0  0  0  0  0
   -9.0420   -5.5100   -5.6330 N   0  0  0  0  0  0  0  0  0  0  0  0
   -8.3400   -4.2790   -5.3250 C   0  0  0  0  0  0  0  0  0  0  0  0
  -10.4900   -5.3920   -5.2070 C   0  0  0  0  0  0  0  0  0  0  0  0
  -10.9110   -4.1300   -4.5380 C   0  0  0  0  0  0  0  0  0  0  0  0
  -12.0600   -4.2610   -4.1150 O   0  0  0  0  0  0  0  0  0  0  0  0
  -12.1300   -5.5610   -3.5120 C   0  0  0  0  0  0  0  0  0  0  0  0
  -13.3470   -6.1910   -3.8300 C   0  0  0  0  0  0  0  0  0  0  0  0
  -10.9090   -6.3060   -4.0560 C   0  0  0  0  0  0  0  0  0  0  0  0
  1  2  1  0
  2  3  1  0
  3  4  2  0
  3  5  1  0
  5  6  1  0
  5  7  1  0
  7  8  1  0
  8  9  1  0
  8 10  1  0
 10 11  1  0
 11 12  1  0
 12 13  1  0
 13 14  1  0
 13 15  1  0
 15 10  1  0
A    1
 C1 
A    2
 O1 
A    3
 C2 
A    4
 O2 
A    5
 C3 
A    6
 N1 
A    7
 C4 
A    8
 N2 
A    9
 C5 
A   10
 C6 
A   11
 C7 
A   12
 O3 
A   13
 C8 
A   14
 C9 
A   15
 C10
M  END
>  <ref_url>  (4) 
https://github.com/stephwills/fragment_network_merges

>  <submitter_name>  (4) 
Steph Wills

>  <submitter_institution>  (4) 
University of Oxford

>  <submitter_email>  (4) 
stephanie.wills@balliol.ox.ac.uk

>  <generation_date>  (4) 
2023-07-04

>  <original SMILES>  (4) 
CC(=O)NC12CCCCC1N(C(=O)Cc1ccc(=O)[nH]c1)CC2

>  <ref_mols>  (4) 
x0789_0A,x0771_0A

>  <SuCOS_score>  (4) 
0.40605199363055483

>  <cmpd_id>  (4) 
CHEMSPACE-BB:CSMB00017969830

>  <method>  (4) 
fragnetv2_named

>  <ref_pdb>  (4) 
x0789_0A

$$$$
x0789-0A-x0771-0A-1649_p
     RDKit          3D

 21 23  0  0  0  0  0  0  0  0999 V2000
  -14.4080   -4.0310   -4.0210 C   0  0  0  0  0  0  0  0  0  0  0  0
  -13.1170   -4.8480   -4.0910 C   0  0  0  0  0  0  0  0  0  0  0  0
  -13.3240   -6.2690   -3.4980 C   0  0  0  0  0  0  0  0  0  0  0  0
  -12.5460   -4.8950   -5.5070 C   0  0  0  0  0  0  0  0  0  0  0  0
  -11.1050   -5.1310   -5.3100 C   0  0  0  0  0  0  0  0  0  0  0  0
  -10.7560   -6.5370   -5.5630 N   0  0  0  0  0  0  0  0  0  0  0  0
  -10.4170   -7.4850   -4.4720 C   0  0  0  0  0  0  0  0  0  0  0  0
  -10.7160   -7.2590   -3.3090 O   0  0  0  0  0  0  0  0  0  0  0  0
   -9.7100   -8.6990   -4.8780 C   0  0  0  0  0  0  0  0  0  0  0  0
   -8.3520   -8.4500   -5.0470 C   0  0  0  0  0  0  0  0  0  0  0  0
   -7.6020   -9.4640   -5.7380 N   0  0  0  0  0  0  0  0  0  0  0  0
   -7.3780   -9.0460   -7.0200 C   0  0  0  0  0  0  0  0  0  0  0  0
   -7.1610   -9.7100   -7.9720 O   0  0  0  0  0  0  0  0  0  0  0  0
   -7.4880   -7.5720   -6.9950 C   0  0  0  0  0  0  0  0  0  0  0  0
   -7.0320   -6.6610   -8.0920 C   0  0  0  0  0  0  0  0  0  0  0  0
   -7.2900   -5.1960   -7.8030 C   0  0  0  0  0  0  0  0  0  0  0  0
   -7.9100   -4.8970   -6.5570 C   0  0  0  0  0  0  0  0  0  0  0  0
   -8.2710   -5.8820   -5.6280 C   0  0  0  0  0  0  0  0  0  0  0  0
   -8.0600   -7.2200   -5.8510 C   0  0  0  0  0  0  0  0  0  0  0  0
  -10.8530   -4.6130   -3.8920 C   0  0  0  0  0  0  0  0  0  0  0  0
  -12.1060   -4.1530   -3.3620 O   0  0  0  0  0  0  0  0  0  0  0  0
  1  2  1  0
  2  3  1  0
  2  4  1  0
  4  5  1  0
  5  6  1  0
  6  7  1  0
  7  8  2  0
  7  9  1  0
  9 10  1  0
 10 11  1  0
 11 12  1  0
 12 13  2  0
 12 14  1  0
 14 15  2  0
 15 16  1  0
 16 17  2  0
 17 18  1  0
 18 19  2  0
  5 20  1  0
 20 21  1  0
 21  2  1  0
 19 10  1  0
 19 14  1  0
A    1
 C1 
A    2
 C2 
A    3
 C3 
A    4
 C4 
A    5
 C5 
A    6
 N1 
A    7
 C6 
A    8
 O1 
A    9
 C7 
A   10
 C8 
A   11
 N2 
A   12
 C9 
A   13
 O2 
A   14
 C10
A   15
 C11
A   16
 C12
A   17
 C13
A   18
 C14
A   19
 C15
A   20
 C16
A   21
 O3 
M  END
>  <ref_url>  (5) 
https://github.com/stephwills/fragment_network_merges

>  <submitter_name>  (5) 
Steph Wills

>  <submitter_institution>  (5) 
University of Oxford

>  <submitter_email>  (5) 
stephanie.wills@balliol.ox.ac.uk

>  <generation_date>  (5) 
2023-07-04

>  <original SMILES>  (5) 
CC(=O)NC12CCCCC1N(C(=O)Cc1ccc(=O)[nH]c1)CC2

>  <ref_mols>  (5) 
x0789_0A,x0771_0A

>  <SuCOS_score>  (5) 
0.40791650302645194

>  <cmpd_id>  (5) 
ENAMINE:Z2882399263

>  <method>  (5) 
fragnetv2_named

>  <ref_pdb>  (5) 
x0789_0A

$$$$
x0789-0A-x0771-0A-1539_p
     RDKit          3D

 21 23  0  0  0  0  0  0  0  0999 V2000
  -13.2700   -6.0970   -3.8960 C   0  0  0  0  0  0  0  0  0  0  0  0
  -13.1070   -4.5780   -3.8680 C   0  0  0  0  0  0  0  0  0  0  0  0
  -14.2030   -3.9250   -3.0240 C   0  0  0  0  0  0  0  0  0  0  0  0
  -12.9990   -3.9680   -5.2750 C   0  0  0  0  0  0  0  0  0  0  0  0
  -11.4920   -3.6760   -5.5060 C   0  0  0  0  0  0  0  0  0  0  0  0
  -10.9950   -3.9780   -6.6030 O   0  0  0  0  0  0  0  0  0  0  0  0
   -9.6800   -3.6610   -6.8380 C   0  0  0  0  0  0  0  0  0  0  0  0
   -9.2630   -2.5490   -7.1200 O   0  0  0  0  0  0  0  0  0  0  0  0
   -8.8750   -4.8590   -6.7120 C   0  0  0  0  0  0  0  0  0  0  0  0
   -8.6700   -5.6860   -5.4870 C   0  0  0  0  0  0  0  0  0  0  0  0
   -7.7980   -6.8240   -5.8860 C   0  0  0  0  0  0  0  0  0  0  0  0
   -7.5320   -6.6580   -7.1980 N   0  0  0  0  0  0  0  0  0  0  0  0
   -8.1370   -5.5040   -7.7020 C   0  0  0  0  0  0  0  0  0  0  0  0
   -6.7350   -7.5610   -7.9620 C   0  0  0  0  0  0  0  0  0  0  0  0
   -6.9030   -9.0780   -7.5930 C   0  0  0  0  0  0  0  0  0  0  0  0
   -7.9580   -9.5190   -6.5710 C   0  0  0  0  0  0  0  0  0  0  0  0
   -7.5360   -9.1110   -5.2840 N   0  0  0  0  0  0  0  0  0  0  0  0
   -7.4100   -7.8180   -4.9640 C   0  0  0  0  0  0  0  0  0  0  0  0
   -6.9760   -7.5200   -3.8700 O   0  0  0  0  0  0  0  0  0  0  0  0
  -10.9000   -4.4370   -4.3280 C   0  0  0  0  0  0  0  0  0  0  0  0
  -11.8480   -4.2930   -3.2690 O   0  0  0  0  0  0  0  0  0  0  0  0
  1  2  1  0
  2  3  1  0
  2  4  1  0
  4  5  1  0
  5  6  1  0
  6  7  1  0
  7  8  2  0
  7  9  1  0
  9 10  1  0
 10 11  2  0
 11 12  1  0
 12 13  1  0
 12 14  1  0
 14 15  1  0
 15 16  1  0
 16 17  1  0
 17 18  1  0
 18 19  2  0
  5 20  1  0
 20 21  1  0
 21  2  1  0
 13  9  2  0
 18 11  1  0
A    1
 C1 
A    2
 C2 
A    3
 C3 
A    4
 C4 
A    5
 C5 
A    6
 O1 
A    7
 C6 
A    8
 O2 
A    9
 C7 
A   10
 C8 
A   11
 C9 
A   12
 N1 
A   13
 C10
A   14
 C11
A   15
 C12
A   16
 C13
A   17
 N2 
A   18
 C14
A   19
 O3 
A   20
 C15
A   21
 O4 
M  END
>  <ref_url>  (6) 
https://github.com/stephwills/fragment_network_merges

>  <submitter_name>  (6) 
Steph Wills

>  <submitter_institution>  (6) 
University of Oxford

>  <submitter_email>  (6) 
stephanie.wills@balliol.ox.ac.uk

>  <generation_date>  (6) 
2023-07-04

>  <original SMILES>  (6) 
CC(=O)NC12CCCCC1N(C(=O)Cc1ccc(=O)[nH]c1)CC2

>  <ref_mols>  (6) 
x0789_0A,x0771_0A

>  <SuCOS_score>  (6) 
0.4118759266772447

>  <cmpd_id>  (6) 
ENAMINE:Z4240954506

>  <method>  (6) 
fragnetv2_named

>  <ref_pdb>  (6) 
x0789_0A

$$$$
x0789-0A-x0771-0A-1937_p
     RDKit          3D

 26 29  0  0  0  0  0  0  0  0999 V2000
  -13.3200   -6.2400   -3.5280 C   0  0  0  0  0  0  0  0  0  0  0  0
  -12.5450   -5.1920   -2.7410 C   0  0  0  0  0  0  0  0  0  0  0  0
  -13.0510   -4.9900   -1.3030 C   0  0  0  0  0  0  0  0  0  0  0  0
  -11.0400   -5.5130   -2.7600 C   0  0  0  0  0  0  0  0  0  0  0  0
  -10.6280   -4.8050   -4.0570 C   0  0  0  0  0  0  0  0  0  0  0  0
  -11.7860   -3.9400   -4.5330 C   0  0  0  0  0  0  0  0  0  0  0  0
  -12.4460   -4.7060   -5.6660 C   0  0  0  0  0  0  0  0  0  0  0  0
  -12.5900   -3.8410   -6.8410 N   0  0  0  0  0  0  0  0  0  0  0  0
  -11.4800   -3.3100   -7.4700 C   0  0  0  0  0  0  0  0  0  0  0  0
  -11.4170   -2.1430   -7.8360 O   0  0  0  0  0  0  0  0  0  0  0  0
  -10.4740   -4.2270   -7.6320 N   0  0  0  0  0  0  0  0  0  0  0  0
  -10.5610   -5.4270   -7.0230 C   0  0  0  0  0  0  0  0  0  0  0  0
   -9.4390   -6.3360   -6.6040 C   0  0  0  0  0  0  0  0  0  0  0  0
   -8.0740   -5.7460   -6.8440 C   0  0  0  0  0  0  0  0  0  0  0  0
   -8.1730   -4.3670   -6.9990 C   0  0  0  0  0  0  0  0  0  0  0  0
   -9.1040   -3.7730   -7.8430 C   0  0  0  0  0  0  0  0  0  0  0  0
   -7.1000   -6.5020   -7.8070 C   0  0  0  0  0  0  0  0  0  0  0  0
   -7.1510   -7.8290   -7.1460 C   0  0  0  0  0  0  0  0  0  0  0  0
   -7.0440   -9.0940   -7.6800 C   0  0  0  0  0  0  0  0  0  0  0  0
   -7.1750  -10.1800   -6.8150 C   0  0  0  0  0  0  0  0  0  0  0  0
   -7.3810   -9.9990   -5.4580 C   0  0  0  0  0  0  0  0  0  0  0  0
   -7.4710   -8.7210   -4.9200 C   0  0  0  0  0  0  0  0  0  0  0  0
   -7.3560   -7.6640   -5.7930 C   0  0  0  0  0  0  0  0  0  0  0  0
   -7.4220   -6.2220   -5.5870 C   0  0  0  0  0  0  0  0  0  0  0  0
   -7.0480   -5.5850   -4.6370 O   0  0  0  0  0  0  0  0  0  0  0  0
  -12.6790   -3.9170   -3.4080 O   0  0  0  0  0  0  0  0  0  0  0  0
  1  2  1  0
  2  3  1  0
  2  4  1  0
  4  5  1  0
  5  6  1  0
  6  7  1  0
  7  8  1  0
  8  9  1  0
  9 10  2  0
  9 11  1  0
 11 12  1  0
 12 13  1  0
 13 14  1  0
 14 15  1  0
 15 16  1  0
 14 17  1  0
 17 18  1  0
 18 19  2  0
 19 20  1  0
 20 21  2  0
 21 22  1  0
 22 23  2  0
 23 24  1  0
 24 25  2  0
  6 26  1  0
 26  2  1  0
 16 11  1  0
 23 18  1  0
 24 14  1  0
A    1
 C1 
A    2
 C2 
A    3
 C3 
A    4
 C4 
A    5
 C5 
A    6
 C6 
A    7
 C7 
A    8
 N1 
A    9
 C8 
A   10
 O1 
A   11
 N2 
A   12
 C9 
A   13
 C10
A   14
 C11
A   15
 C12
A   16
 C13
A   17
 C14
A   18
 C15
A   19
 C16
A   20
 C17
A   21
 C18
A   22
 C19
A   23
 C20
A   24
 C21
A   25
 O2 
A   26
 O3 
M  END
>  <ref_url>  (7) 
https://github.com/stephwills/fragment_network_merges

>  <submitter_name>  (7) 
Steph Wills

>  <submitter_institution>  (7) 
University of Oxford

>  <submitter_email>  (7) 
stephanie.wills@balliol.ox.ac.uk

>  <generation_date>  (7) 
2023-07-04

>  <original SMILES>  (7) 
CC(=O)NC12CCCCC1N(C(=O)Cc1ccc(=O)[nH]c1)CC2

>  <ref_mols>  (7) 
x0789_0A,x0771_0A

>  <SuCOS_score>  (7) 
0.4121854364227828

>  <cmpd_id>  (7) 
ENAMINE:Z3442415568

>  <method>  (7) 
fragnetv2_named

>  <ref_pdb>  (7) 
x0789_0A

$$$$
x0789-0A-x0771-0A-1416_p
     RDKit          3D

 18 19  0  0  0  0  0  0  0  0999 V2000
  -13.6690   -6.2430   -2.5310 C   0  0  0  0  0  0  0  0  0  0  0  0
  -13.3710   -5.5180   -3.8330 C   0  0  0  0  0  0  0  0  0  0  0  0
  -12.4610   -6.3000   -4.6610 C   0  0  0  0  0  0  0  0  0  0  0  0
  -11.4910   -5.9260   -4.9070 C   0  0  0  0  0  0  0  0  0  0  0  0
  -11.0610   -4.5950   -4.4590 C   0  0  0  0  0  0  0  0  0  0  0  0
  -10.9480   -3.6180   -5.6030 C   0  0  0  0  0  0  0  0  0  0  0  0
   -9.5640   -3.5630   -6.2350 C   0  0  0  0  0  0  0  0  0  0  0  0
   -9.2580   -4.7600   -7.1380 C   0  0  0  0  0  0  0  0  0  0  0  0
  -10.1230   -5.5080   -7.6170 O   0  0  0  0  0  0  0  0  0  0  0  0
   -7.8970   -4.9430   -7.3910 N   0  0  0  0  0  0  0  0  0  0  0  0
   -7.2310   -6.1390   -7.8970 C   0  0  0  0  0  0  0  0  0  0  0  0
   -7.3820   -7.1420   -6.8170 C   0  0  0  0  0  0  0  0  0  0  0  0
   -7.3480   -6.7690   -5.3990 C   0  0  0  0  0  0  0  0  0  0  0  0
   -7.5360   -8.0510   -4.6920 C   0  0  0  0  0  0  0  0  0  0  0  0
   -7.8530   -8.1230   -3.5450 O   0  0  0  0  0  0  0  0  0  0  0  0
   -7.2830   -9.1110   -5.6560 N   0  0  0  0  0  0  0  0  0  0  0  0
   -7.5700   -8.5600   -6.9210 N   0  0  0  0  0  0  0  0  0  0  0  0
  -12.3680   -4.3580   -3.6670 O   0  0  0  0  0  0  0  0  0  0  0  0
  1  2  1  0
  2  3  1  0
  3  4  1  0
  4  5  1  0
  5  6  1  0
  6  7  1  0
  7  8  1  0
  8  9  2  0
  8 10  1  0
 10 11  1  0
 11 12  1  0
 12 13  2  0
 13 14  1  0
 14 15  2  0
 14 16  1  0
 16 17  1  0
  5 18  1  0
 18  2  1  0
 17 12  1  0
A    1
 C1 
A    2
 C2 
A    3
 C3 
A    4
 C4 
A    5
 C5 
A    6
 C6 
A    7
 C7 
A    8
 C8 
A    9
 O1 
A   10
 N1 
A   11
 C9 
A   12
 C10
A   13
 C11
A   14
 C12
A   15
 O2 
A   16
 N2 
A   17
 N3 
A   18
 O3 
M  END
>  <ref_url>  (8) 
https://github.com/stephwills/fragment_network_merges

>  <submitter_name>  (8) 
Steph Wills

>  <submitter_institution>  (8) 
University of Oxford

>  <submitter_email>  (8) 
stephanie.wills@balliol.ox.ac.uk

>  <generation_date>  (8) 
2023-07-04

>  <original SMILES>  (8) 
CC(=O)NC12CCCCC1N(C(=O)Cc1ccc(=O)[nH]c1)CC2

>  <ref_mols>  (8) 
x0789_0A,x0771_0A

>  <SuCOS_score>  (8) 
0.41655327115003105

>  <cmpd_id>  (8) 
ENAMINE:Z3595007017

>  <method>  (8) 
fragnetv2_named

>  <ref_pdb>  (8) 
x0789_0A

$$$$
x0771-0A-x1083-0A-2478_p
     RDKit          3D

 21 23  0  0  0  0  0  0  0  0999 V2000
   -6.3360   -9.9950   -2.1290 C   0  0  0  0  0  0  0  0  0  0  0  0
   -6.3810   -8.6740   -2.9040 C   0  0  0  0  0  0  0  0  0  0  0  0
   -5.2850   -7.6760   -2.4740 C   0  0  0  0  0  0  0  0  0  0  0  0
   -5.7070   -6.9300   -1.3320 O   0  0  0  0  0  0  0  0  0  0  0  0
   -5.9100   -7.7520   -0.1850 C   0  0  0  0  0  0  0  0  0  0  0  0
   -4.8050   -7.8620    0.5670 C   0  0  0  0  0  0  0  0  0  0  0  0
   -5.1980   -8.3010    1.9490 C   0  0  0  0  0  0  0  0  0  0  0  0
   -4.0160   -8.4560    2.9060 C   0  0  0  0  0  0  0  0  0  0  0  0
   -2.6750   -8.1950    2.4660 C   0  0  0  0  0  0  0  0  0  0  0  0
   -2.4560   -7.7890    1.1310 C   0  0  0  0  0  0  0  0  0  0  0  0
   -3.4860   -7.6250    0.2000 C   0  0  0  0  0  0  0  0  0  0  0  0
   -6.2440   -8.9200   -4.4250 C   0  0  0  0  0  0  0  0  0  0  0  0
   -7.4240   -9.0190   -5.2830 N   0  0  0  0  0  0  0  0  0  0  0  0
   -7.2310   -9.9530   -6.3880 C   0  0  0  0  0  0  0  0  0  0  0  0
   -7.1080   -9.0670   -7.4630 C   0  0  0  0  0  0  0  0  0  0  0  0
   -6.7980   -7.7800   -7.0180 C   0  0  0  0  0  0  0  0  0  0  0  0
   -6.9760   -6.6010   -7.9740 C   0  0  0  0  0  0  0  0  0  0  0  0
   -8.1140   -5.6650   -7.5140 C   0  0  0  0  0  0  0  0  0  0  0  0
   -8.0360   -5.2910   -6.0350 C   0  0  0  0  0  0  0  0  0  0  0  0
   -7.8970   -6.5200   -5.1360 C   0  0  0  0  0  0  0  0  0  0  0  0
   -7.8670   -7.8010   -5.9460 C   0  0  0  0  0  0  0  0  0  0  0  0
  1  2  1  0
  2  3  1  0
  3  4  1  0
  4  5  1  0
  5  6  1  0
  6  7  2  0
  7  8  1  0
  8  9  2  0
  9 10  1  0
 10 11  2  0
  2 12  1  0
 12 13  1  0
 13 14  1  0
 14 15  1  0
 15 16  1  0
 16 17  1  0
 17 18  1  0
 18 19  1  0
 19 20  1  0
 20 21  1  0
 11  6  1  0
 21 13  1  0
 21 16  1  0
A    1
 C1 
A    2
 C2 
A    3
 C3 
A    4
 O1 
A    5
 C4 
A    6
 C5 
A    7
 C6 
A    8
 C7 
A    9
 C8 
A   10
 C9 
A   11
 C10
A   12
 C11
A   13
 N1 
A   14
 C12
A   15
 C13
A   16
 C14
A   17
 C15
A   18
 C16
A   19
 C17
A   20
 C18
A   21
 C19
M  END
>  <ref_url>  (9) 
https://github.com/stephwills/fragment_network_merges

>  <submitter_name>  (9) 
Steph Wills

>  <submitter_institution>  (9) 
University of Oxford

>  <submitter_email>  (9) 
stephanie.wills@balliol.ox.ac.uk

>  <generation_date>  (9) 
2023-07-04

>  <original SMILES>  (9) 
CC(=O)NC12CCCCC1N(C(=O)Cc1ccc(=O)[nH]c1)CC2

>  <ref_mols>  (9) 
x0771_0A,x1083_0A

>  <SuCOS_score>  (9) 
0.5151840794334399

>  <cmpd_id>  (9) 
CHEMSPACE-BB:CSMB00156179943

>  <method>  (9) 
fragnetv2_named

>  <ref_pdb>  (9) 
x0771_0A

$$$$
x0771-0A-x1083-0A-1432_p
     RDKit          3D

 20 22  0  0  0  0  0  0  0  0999 V2000
   -6.8150  -10.5280   -3.3640 O   0  0  0  0  0  0  0  0  0  0  0  0
   -6.5960   -9.4090   -3.8210 C   0  0  0  0  0  0  0  0  0  0  0  0
   -5.7940   -8.3750   -3.0400 C   0  0  0  0  0  0  0  0  0  0  0  0
   -5.7460   -8.7340   -1.6120 N   0  0  0  0  0  0  0  0  0  0  0  0
   -5.7590   -7.6650   -0.7230 C   0  0  0  0  0  0  0  0  0  0  0  0
   -4.6830   -7.8380    0.3680 C   0  0  0  0  0  0  0  0  0  0  0  0
   -5.1460   -8.2590    1.7580 C   0  0  0  0  0  0  0  0  0  0  0  0
   -4.1500   -8.4230    2.8010 C   0  0  0  0  0  0  0  0  0  0  0  0
   -2.7920   -8.2070    2.5550 C   0  0  0  0  0  0  0  0  0  0  0  0
   -2.3170   -7.8210    1.3000 C   0  0  0  0  0  0  0  0  0  0  0  0
   -3.3170   -7.6280    0.1420 C   0  0  0  0  0  0  0  0  0  0  0  0
   -7.0590   -8.9900   -5.0620 N   0  0  0  0  0  0  0  0  0  0  0  0
   -7.2310   -9.8930   -6.1830 C   0  0  0  0  0  0  0  0  0  0  0  0
   -7.3560   -9.0850   -7.2950 C   0  0  0  0  0  0  0  0  0  0  0  0
   -6.8890   -7.6560   -6.9990 C   0  0  0  0  0  0  0  0  0  0  0  0
   -7.7490   -6.5740   -7.6460 C   0  0  0  0  0  0  0  0  0  0  0  0
   -7.5870   -5.2080   -7.0210 C   0  0  0  0  0  0  0  0  0  0  0  0
   -7.9030   -5.2560   -5.5320 C   0  0  0  0  0  0  0  0  0  0  0  0
   -8.0980   -6.6970   -5.0190 C   0  0  0  0  0  0  0  0  0  0  0  0
   -6.9490   -7.5900   -5.4820 C   0  0  0  0  0  0  0  0  0  0  0  0
  1  2  2  0
  2  3  1  0
  3  4  1  0
  4  5  1  0
  5  6  1  0
  6  7  2  0
  7  8  1  0
  8  9  2  0
  9 10  1  0
 10 11  2  0
  2 12  1  0
 12 13  1  0
 13 14  1  0
 14 15  1  0
 15 16  1  0
 16 17  1  0
 17 18  1  0
 18 19  1  0
 19 20  1  0
 11  6  1  0
 20 12  1  0
 20 15  1  0
A    1
 O1 
A    2
 C1 
A    3
 C2 
A    4
 N1 
A    5
 C3 
A    6
 C4 
A    7
 C5 
A    8
 C6 
A    9
 C7 
A   10
 C8 
A   11
 C9 
A   12
 N2 
A   13
 C10
A   14
 C11
A   15
 C12
A   16
 C13
A   17
 C14
A   18
 C15
A   19
 C16
A   20
 C17
M  END
>  <ref_url>  (10) 
https://github.com/stephwills/fragment_network_merges

>  <submitter_name>  (10) 
Steph Wills

>  <submitter_institution>  (10) 
University of Oxford

>  <submitter_email>  (10) 
stephanie.wills@balliol.ox.ac.uk

>  <generation_date>  (10) 
2023-07-04

>  <original SMILES>  (10) 
CC(=O)NC12CCCCC1N(C(=O)Cc1ccc(=O)[nH]c1)CC2

>  <ref_mols>  (10) 
x0771_0A,x1083_0A

>  <SuCOS_score>  (10) 
0.40669655676601774

>  <cmpd_id>  (10) 
CHEMSPACE-BB:CSMB00022146561

>  <method>  (10) 
fragnetv2_named

>  <ref_pdb>  (10) 
x0771_0A

$$$$
x0771-0A-x1083-0A-11_p
     RDKit          3D

 20 22  0  0  0  0  0  0  0  0999 V2000
   -7.8000   -4.0710   -8.0260 Br  0  0  0  0  0  0  0  0  0  0  0  0
   -8.5570   -5.2600   -6.6830 C   0  0  0  0  0  0  0  0  0  0  0  0
   -7.9570   -5.1880   -5.3100 C   0  0  0  0  0  0  0  0  0  0  0  0
   -7.9570   -6.5650   -4.6350 C   0  0  0  0  0  0  0  0  0  0  0  0
   -7.0900   -7.5900   -5.3600 C   0  0  0  0  0  0  0  0  0  0  0  0
   -7.3250   -7.5400   -6.8680 C   0  0  0  0  0  0  0  0  0  0  0  0
   -7.4190   -9.0050   -7.3330 C   0  0  0  0  0  0  0  0  0  0  0  0
   -7.0470   -9.8510   -6.1310 C   0  0  0  0  0  0  0  0  0  0  0  0
   -7.3020   -8.9960   -4.9610 N   0  0  0  0  0  0  0  0  0  0  0  0
   -6.4590   -9.3760   -3.8090 C   0  0  0  0  0  0  0  0  0  0  0  0
   -6.9550   -8.8390   -2.4440 C   0  0  0  0  0  0  0  0  0  0  0  0
   -5.9480   -8.9680   -1.4200 O   0  0  0  0  0  0  0  0  0  0  0  0
   -5.6170   -7.7240   -0.7890 C   0  0  0  0  0  0  0  0  0  0  0  0
   -4.6570   -7.8910    0.3660 C   0  0  0  0  0  0  0  0  0  0  0  0
   -5.1160   -8.2660    1.6410 C   0  0  0  0  0  0  0  0  0  0  0  0
   -4.2180   -8.4130    2.7020 C   0  0  0  0  0  0  0  0  0  0  0  0
   -2.8580   -8.1890    2.4990 C   0  0  0  0  0  0  0  0  0  0  0  0
   -2.3940   -7.8170    1.2400 C   0  0  0  0  0  0  0  0  0  0  0  0
   -3.2880   -7.6700    0.1810 C   0  0  0  0  0  0  0  0  0  0  0  0
   -8.4420   -6.6120   -7.2920 C   0  0  0  0  0  0  0  0  0  0  0  0
  1  2  1  0
  2  3  1  0
  3  4  1  0
  4  5  1  0
  5  6  1  0
  6  7  1  0
  7  8  1  0
  8  9  1  0
  9 10  1  0
 10 11  1  0
 11 12  1  0
 12 13  1  0
 13 14  1  0
 14 15  2  0
 15 16  1  0
 16 17  2  0
 17 18  1  0
 18 19  2  0
  6 20  1  0
 20  2  1  0
  9  5  1  0
 19 14  1  0
A    1
BR1 
A    2
 C1 
A    3
 C2 
A    4
 C3 
A    5
 C4 
A    6
 C5 
A    7
 C6 
A    8
 C7 
A    9
 N1 
A   10
 C8 
A   11
 C9 
A   12
 O1 
A   13
 C10
A   14
 C11
A   15
 C12
A   16
 C13
A   17
 C14
A   18
 C15
A   19
 C16
A   20
 C17
M  END
>  <ref_url>  (11) 
https://github.com/stephwills/fragment_network_merges

>  <submitter_name>  (11) 
Steph Wills

>  <submitter_institution>  (11) 
University of Oxford

>  <submitter_email>  (11) 
stephanie.wills@balliol.ox.ac.uk

>  <generation_date>  (11) 
2023-07-04

>  <original SMILES>  (11) 
CC(=O)NC12CCCCC1N(C(=O)Cc1ccc(=O)[nH]c1)CC2

>  <ref_mols>  (11) 
x0771_0A,x1083_0A

>  <SuCOS_score>  (11) 
0.4412004422053492

>  <cmpd_id>  (11) 
CHEMSPACE-BB:CSMB00116802556

>  <method>  (11) 
fragnetv2_named

>  <ref_pdb>  (11) 
x0771_0A

$$$$
x0771-0A-x1083-0A-2308_p
     RDKit          3D

 22 24  0  0  0  0  0  0  0  0999 V2000
   -6.9360  -11.6360   -5.3190 O   0  0  0  0  0  0  0  0  0  0  0  0
   -7.4360  -11.0050   -6.2390 C   0  0  0  0  0  0  0  0  0  0  0  0
   -7.6110  -11.5940   -7.4420 O   0  0  0  0  0  0  0  0  0  0  0  0
   -7.8610   -9.6820   -6.1700 C   0  0  0  0  0  0  0  0  0  0  0  0
   -7.4370   -8.9170   -7.2550 C   0  0  0  0  0  0  0  0  0  0  0  0
   -7.2540   -7.5170   -6.9890 C   0  0  0  0  0  0  0  0  0  0  0  0
   -8.2180   -6.4570   -7.4880 C   0  0  0  0  0  0  0  0  0  0  0  0
   -7.9050   -5.0970   -6.8700 C   0  0  0  0  0  0  0  0  0  0  0  0
   -8.0300   -5.1750   -5.3560 C   0  0  0  0  0  0  0  0  0  0  0  0
   -8.1430   -6.6090   -4.8340 C   0  0  0  0  0  0  0  0  0  0  0  0
   -7.0880   -7.5120   -5.4700 C   0  0  0  0  0  0  0  0  0  0  0  0
   -7.1950   -8.9250   -5.0890 N   0  0  0  0  0  0  0  0  0  0  0  0
   -6.5920   -9.3930   -3.9200 C   0  0  0  0  0  0  0  0  0  0  0  0
   -5.7920   -8.4120   -3.1050 C   0  0  0  0  0  0  0  0  0  0  0  0
   -5.6080   -8.7740   -1.7140 O   0  0  0  0  0  0  0  0  0  0  0  0
   -5.5870   -7.6450   -0.8270 C   0  0  0  0  0  0  0  0  0  0  0  0
   -4.6940   -7.8520    0.2500 C   0  0  0  0  0  0  0  0  0  0  0  0
   -5.1680   -8.2410    1.5130 C   0  0  0  0  0  0  0  0  0  0  0  0
   -4.2810   -8.4340    2.5770 C   0  0  0  0  0  0  0  0  0  0  0  0
   -2.9130   -8.2410    2.3900 C   0  0  0  0  0  0  0  0  0  0  0  0
   -2.4330   -7.8570    1.1370 C   0  0  0  0  0  0  0  0  0  0  0  0
   -3.3180   -7.6650    0.0760 C   0  0  0  0  0  0  0  0  0  0  0  0
  1  2  2  0
  2  3  1  0
  2  4  1  0
  4  5  1  0
  5  6  1  0
  6  7  1  0
  7  8  1  0
  8  9  1  0
  9 10  1  0
 10 11  1  0
 11 12  1  0
 12 13  1  0
 13 14  1  0
 14 15  1  0
 15 16  1  0
 16 17  1  0
 17 18  2  0
 18 19  1  0
 19 20  2  0
 20 21  1  0
 21 22  2  0
 12  4  1  0
 22 17  1  0
 11  6  1  0
A    1
 O1 
A    2
 C1 
A    3
 O2 
A    4
 C2 
A    5
 C3 
A    6
 C4 
A    7
 C5 
A    8
 C6 
A    9
 C7 
A   10
 C8 
A   11
 C9 
A   12
 N1 
A   13
 C10
A   14
 C11
A   15
 O3 
A   16
 C12
A   17
 C13
A   18
 C14
A   19
 C15
A   20
 C16
A   21
 C17
A   22
 C18
M  END
>  <ref_url>  (12) 
https://github.com/stephwills/fragment_network_merges

>  <submitter_name>  (12) 
Steph Wills

>  <submitter_institution>  (12) 
University of Oxford

>  <submitter_email>  (12) 
stephanie.wills@balliol.ox.ac.uk

>  <generation_date>  (12) 
2023-07-04

>  <original SMILES>  (12) 
CC(=O)NC12CCCCC1N(C(=O)Cc1ccc(=O)[nH]c1)CC2

>  <ref_mols>  (12) 
x0771_0A,x1083_0A

>  <SuCOS_score>  (12) 
0.40265853631495163

>  <cmpd_id>  (12) 
CHEMSPACE-BB:CSMB00014806513

>  <method>  (12) 
fragnetv2_named

>  <ref_pdb>  (12) 
x0771_0A

$$$$
x0771-0A-x1083-0A-2123_p
     RDKit          3D

 23 25  0  0  0  0  0  0  0  0999 V2000
   -8.6740  -11.2740   -5.2250 N   0  0  0  0  0  0  0  0  0  0  0  0
   -8.1440  -10.8120   -6.3980 C   0  0  0  0  0  0  0  0  0  0  0  0
   -8.5460  -11.2370   -7.4800 O   0  0  0  0  0  0  0  0  0  0  0  0
   -7.1440   -9.8470   -6.2990 C   0  0  0  0  0  0  0  0  0  0  0  0
   -7.0850   -8.9380   -7.3350 C   0  0  0  0  0  0  0  0  0  0  0  0
   -6.8750   -7.5900   -7.0100 C   0  0  0  0  0  0  0  0  0  0  0  0
   -7.6980   -6.5130   -7.6840 C   0  0  0  0  0  0  0  0  0  0  0  0
   -7.5750   -5.1300   -7.0890 C   0  0  0  0  0  0  0  0  0  0  0  0
   -7.9780   -5.1790   -5.6360 C   0  0  0  0  0  0  0  0  0  0  0  0
   -8.2780   -6.6170   -5.1850 C   0  0  0  0  0  0  0  0  0  0  0  0
   -7.1280   -7.5770   -5.5050 C   0  0  0  0  0  0  0  0  0  0  0  0
   -7.3500   -8.9840   -5.0780 N   0  0  0  0  0  0  0  0  0  0  0  0
   -6.3220   -9.3270   -4.0310 C   0  0  0  0  0  0  0  0  0  0  0  0
   -6.6840   -8.9260   -2.5880 C   0  0  0  0  0  0  0  0  0  0  0  0
   -7.8550   -8.8630   -2.2120 O   0  0  0  0  0  0  0  0  0  0  0  0
   -5.6120   -8.6520   -1.7590 N   0  0  0  0  0  0  0  0  0  0  0  0
   -5.6420   -7.5880   -0.7790 C   0  0  0  0  0  0  0  0  0  0  0  0
   -4.6810   -7.8300    0.3640 C   0  0  0  0  0  0  0  0  0  0  0  0
   -5.1360   -8.2350    1.6320 C   0  0  0  0  0  0  0  0  0  0  0  0
   -4.2300   -8.4430    2.6770 C   0  0  0  0  0  0  0  0  0  0  0  0
   -2.8640   -8.2510    2.4670 C   0  0  0  0  0  0  0  0  0  0  0  0
   -2.4010   -7.8520    1.2130 C   0  0  0  0  0  0  0  0  0  0  0  0
   -3.3040   -7.6440    0.1680 C   0  0  0  0  0  0  0  0  0  0  0  0
  1  2  1  0
  2  3  2  0
  2  4  1  0
  4  5  1  0
  5  6  1  0
  6  7  1  0
  7  8  1  0
  8  9  1  0
  9 10  1  0
 10 11  1  0
 11 12  1  0
 12 13  1  0
 13 14  1  0
 14 15  2  0
 14 16  1  0
 16 17  1  0
 17 18  1  0
 18 19  2  0
 19 20  1  0
 20 21  2  0
 21 22  1  0
 22 23  2  0
 12  4  1  0
 23 18  1  0
 11  6  1  0
A    1
 N1 
A    2
 C1 
A    3
 O1 
A    4
 C2 
A    5
 C3 
A    6
 C4 
A    7
 C5 
A    8
 C6 
A    9
 C7 
A   10
 C8 
A   11
 C9 
A   12
 N2 
A   13
 C10
A   14
 C11
A   15
 O2 
A   16
 N3 
A   17
 C12
A   18
 C13
A   19
 C14
A   20
 C15
A   21
 C16
A   22
 C17
A   23
 C18
M  END
>  <ref_url>  (13) 
https://github.com/stephwills/fragment_network_merges

>  <submitter_name>  (13) 
Steph Wills

>  <submitter_institution>  (13) 
University of Oxford

>  <submitter_email>  (13) 
stephanie.wills@balliol.ox.ac.uk

>  <generation_date>  (13) 
2023-07-04

>  <original SMILES>  (13) 
CC(=O)NC12CCCCC1N(C(=O)Cc1ccc(=O)[nH]c1)CC2

>  <ref_mols>  (13) 
x0771_0A,x1083_0A

>  <SuCOS_score>  (13) 
0.4225342075134247

>  <cmpd_id>  (13) 
MOLPORT:009-589-402

>  <method>  (13) 
fragnetv2_named

>  <ref_pdb>  (13) 
x0771_0A

$$$$
x0771-0A-x1083-0A-2393_p
     RDKit          3D

 23 25  0  0  0  0  0  0  0  0999 V2000
   -7.1880   -8.0570   -2.1440 O   0  0  0  0  0  0  0  0  0  0  0  0
   -6.4010   -7.8900   -3.0790 C   0  0  0  0  0  0  0  0  0  0  0  0
   -6.1460   -9.0410   -4.0690 C   0  0  0  0  0  0  0  0  0  0  0  0
   -7.2440   -8.9780   -5.0750 N   0  0  0  0  0  0  0  0  0  0  0  0
   -7.0210   -9.9890   -6.1670 C   0  0  0  0  0  0  0  0  0  0  0  0
   -7.3340   -9.2420   -7.4590 C   0  0  0  0  0  0  0  0  0  0  0  0
   -7.7470   -7.8060   -7.0890 C   0  0  0  0  0  0  0  0  0  0  0  0
   -7.2870   -6.6870   -7.7460 C   0  0  0  0  0  0  0  0  0  0  0  0
   -7.9360   -5.4000   -7.3140 C   0  0  0  0  0  0  0  0  0  0  0  0
   -8.1030   -5.3470   -5.9200 C   0  0  0  0  0  0  0  0  0  0  0  0
   -8.1970   -6.5220   -5.1300 C   0  0  0  0  0  0  0  0  0  0  0  0
   -7.3140   -7.6440   -5.6770 C   0  0  0  0  0  0  0  0  0  0  0  0
   -5.7090   -6.7080   -3.3290 N   0  0  0  0  0  0  0  0  0  0  0  0
   -5.6850   -5.7340   -2.3620 C   0  0  0  0  0  0  0  0  0  0  0  0
   -6.1410   -4.6020   -2.4730 O   0  0  0  0  0  0  0  0  0  0  0  0
   -5.0710   -6.1880   -1.2160 N   0  0  0  0  0  0  0  0  0  0  0  0
   -5.4230   -7.4590   -0.6170 C   0  0  0  0  0  0  0  0  0  0  0  0
   -4.4630   -7.7730    0.5100 C   0  0  0  0  0  0  0  0  0  0  0  0
   -5.0690   -8.2500    1.8250 C   0  0  0  0  0  0  0  0  0  0  0  0
   -4.2090   -8.5420    2.8850 C   0  0  0  0  0  0  0  0  0  0  0  0
   -2.8300   -8.4030    2.7420 C   0  0  0  0  0  0  0  0  0  0  0  0
   -2.2390   -7.9250    1.4140 C   0  0  0  0  0  0  0  0  0  0  0  0
   -3.0850   -7.6330    0.3560 C   0  0  0  0  0  0  0  0  0  0  0  0
  1  2  2  0
  2  3  1  0
  3  4  1  0
  4  5  1  0
  5  6  1  0
  6  7  1  0
  7  8  1  0
  8  9  1  0
  9 10  1  0
 10 11  1  0
 11 12  1  0
  2 13  1  0
 13 14  1  0
 14 15  2  0
 14 16  1  0
 16 17  1  0
 17 18  1  0
 18 19  2  0
 19 20  1  0
 20 21  2  0
 21 22  1  0
 22 23  2  0
 12  4  1  0
 23 18  1  0
 12  7  1  0
A    1
 O1 
A    2
 C1 
A    3
 C2 
A    4
 N1 
A    5
 C3 
A    6
 C4 
A    7
 C5 
A    8
 C6 
A    9
 C7 
A   10
 C8 
A   11
 C9 
A   12
 C10
A   13
 N2 
A   14
 C11
A   15
 O2 
A   16
 N3 
A   17
 C12
A   18
 C13
A   19
 C14
A   20
 C15
A   21
 C16
A   22
 C17
A   23
 C18
M  END
>  <ref_url>  (14) 
https://github.com/stephwills/fragment_network_merges

>  <submitter_name>  (14) 
Steph Wills

>  <submitter_institution>  (14) 
University of Oxford

>  <submitter_email>  (14) 
stephanie.wills@balliol.ox.ac.uk

>  <generation_date>  (14) 
2023-07-04

>  <original SMILES>  (14) 
CC(=O)NC12CCCCC1N(C(=O)Cc1ccc(=O)[nH]c1)CC2

>  <ref_mols>  (14) 
x0771_0A,x1083_0A

>  <SuCOS_score>  (14) 
0.4428660586286789

>  <cmpd_id>  (14) 
ENAMINE:Z977569554

>  <method>  (14) 
fragnetv2_named

>  <ref_pdb>  (14) 
x0771_0A

$$$$
x0771-0A-x1083-0A-2869_p
     RDKit          3D

 22 24  0  0  0  0  0  0  0  0999 V2000
   -7.0820   -4.3410   -8.0370 O   0  0  0  0  0  0  0  0  0  0  0  0
   -7.9040   -5.3980   -7.4850 C   0  0  0  0  0  0  0  0  0  0  0  0
   -8.0050   -5.3040   -6.0930 C   0  0  0  0  0  0  0  0  0  0  0  0
   -7.2850   -6.3930   -5.2520 C   0  0  0  0  0  0  0  0  0  0  0  0
   -7.9270   -7.7680   -5.4610 C   0  0  0  0  0  0  0  0  0  0  0  0
   -7.9100   -7.8700   -6.9590 C   0  0  0  0  0  0  0  0  0  0  0  0
   -7.5380   -9.2580   -7.4030 C   0  0  0  0  0  0  0  0  0  0  0  0
   -7.1930   -9.8750   -6.0580 C   0  0  0  0  0  0  0  0  0  0  0  0
   -7.3590   -8.9630   -5.0000 N   0  0  0  0  0  0  0  0  0  0  0  0
   -7.9750   -9.3010   -3.7130 C   0  0  0  0  0  0  0  0  0  0  0  0
   -6.9570  -10.1050   -2.9210 C   0  0  0  0  0  0  0  0  0  0  0  0
   -6.2810  -11.0230   -3.7870 O   0  0  0  0  0  0  0  0  0  0  0  0
   -6.0060   -9.0000   -2.3530 C   0  0  0  0  0  0  0  0  0  0  0  0
   -6.3610   -8.6440   -1.2290 O   0  0  0  0  0  0  0  0  0  0  0  0
   -5.5570   -7.5880   -0.7060 C   0  0  0  0  0  0  0  0  0  0  0  0
   -4.6780   -7.8210    0.4220 C   0  0  0  0  0  0  0  0  0  0  0  0
   -5.0890   -8.2440    1.7050 C   0  0  0  0  0  0  0  0  0  0  0  0
   -4.1730   -8.4580    2.7980 C   0  0  0  0  0  0  0  0  0  0  0  0
   -2.8380   -8.2470    2.6010 C   0  0  0  0  0  0  0  0  0  0  0  0
   -2.2770   -7.7970    1.2830 C   0  0  0  0  0  0  0  0  0  0  0  0
   -3.3040   -7.5980    0.1900 C   0  0  0  0  0  0  0  0  0  0  0  0
   -7.2600   -6.7220   -7.7460 C   0  0  0  0  0  0  0  0  0  0  0  0
  1  2  1  0
  2  3  1  0
  3  4  1  0
  4  5  1  0
  5  6  1  0
  6  7  1  0
  7  8  1  0
  8  9  1  0
  9 10  1  0
 10 11  1  0
 11 12  1  0
 11 13  1  0
 13 14  1  0
 14 15  1  0
 15 16  1  0
 16 17  2  0
 17 18  1  0
 18 19  2  0
 19 20  1  0
 20 21  2  0
  6 22  1  0
 22  2  1  0
  9  5  1  0
 21 16  1  0
A    1
 O1 
A    2
 C1 
A    3
 C2 
A    4
 C3 
A    5
 C4 
A    6
 C5 
A    7
 C6 
A    8
 C7 
A    9
 N1 
A   10
 C8 
A   11
 C9 
A   12
 O2 
A   13
 C10
A   14
 O3 
A   15
 C11
A   16
 C12
A   17
 C13
A   18
 C14
A   19
 C15
A   20
 C16
A   21
 C17
A   22
 C18
M  END
>  <ref_url>  (15) 
https://github.com/stephwills/fragment_network_merges

>  <submitter_name>  (15) 
Steph Wills

>  <submitter_institution>  (15) 
University of Oxford

>  <submitter_email>  (15) 
stephanie.wills@balliol.ox.ac.uk

>  <generation_date>  (15) 
2023-07-04

>  <original SMILES>  (15) 
CC(=O)NC12CCCCC1N(C(=O)Cc1ccc(=O)[nH]c1)CC2

>  <ref_mols>  (15) 
x0771_0A,x1083_0A

>  <SuCOS_score>  (15) 
0.44684000089153997

>  <cmpd_id>  (15) 
CHEMSPACE-BB:CSMB00116802544

>  <method>  (15) 
fragnetv2_named

>  <ref_pdb>  (15) 
x0771_0A

$$$$
x0771-0A-x1083-0A-1715_p
     RDKit          3D

 22 24  0  0  0  0  0  0  0  0999 V2000
   -5.2730   -9.1630   -5.3360 O   0  0  0  0  0  0  0  0  0  0  0  0
   -6.2350   -9.9040   -5.1870 C   0  0  0  0  0  0  0  0  0  0  0  0
   -6.3090  -10.9290   -4.2540 N   0  0  0  0  0  0  0  0  0  0  0  0
   -6.5950  -10.6510   -2.8480 C   0  0  0  0  0  0  0  0  0  0  0  0
   -6.0990   -9.2700   -2.3970 C   0  0  0  0  0  0  0  0  0  0  0  0
   -6.5910   -8.8720   -1.1120 O   0  0  0  0  0  0  0  0  0  0  0  0
   -6.0420   -7.6390   -0.6360 C   0  0  0  0  0  0  0  0  0  0  0  0
   -5.0080   -7.8880    0.4320 C   0  0  0  0  0  0  0  0  0  0  0  0
   -5.4000   -8.2860    1.8740 C   0  0  0  0  0  0  0  0  0  0  0  0
   -4.4130   -8.5500    2.9990 C   0  0  0  0  0  0  0  0  0  0  0  0
   -2.9320   -8.4180    2.6820 C   0  0  0  0  0  0  0  0  0  0  0  0
   -2.4980   -8.0300    1.2720 C   0  0  0  0  0  0  0  0  0  0  0  0
   -3.5010   -7.7620    0.1480 C   0  0  0  0  0  0  0  0  0  0  0  0
   -7.5170   -9.7740   -6.0010 C   0  0  0  0  0  0  0  0  0  0  0  0
   -7.2920   -9.0800   -7.3480 C   0  0  0  0  0  0  0  0  0  0  0  0
   -7.6800   -7.6380   -7.0380 C   0  0  0  0  0  0  0  0  0  0  0  0
   -6.9110   -6.5140   -7.7050 C   0  0  0  0  0  0  0  0  0  0  0  0
   -7.7270   -5.2660   -7.4070 C   0  0  0  0  0  0  0  0  0  0  0  0
   -8.0230   -5.0620   -5.9120 C   0  0  0  0  0  0  0  0  0  0  0  0
   -8.3900   -6.3200   -5.1040 C   0  0  0  0  0  0  0  0  0  0  0  0
   -7.6550   -7.5720   -5.5520 C   0  0  0  0  0  0  0  0  0  0  0  0
   -8.3440   -8.8270   -5.2490 N   0  0  0  0  0  0  0  0  0  0  0  0
  1  2  2  0
  2  3  1  0
  3  4  1  0
  4  5  1  0
  5  6  1  0
  6  7  1  0
  7  8  1  0
  8  9  2  0
  9 10  1  0
 10 11  2  0
 11 12  1  0
 12 13  2  0
  2 14  1  0
 14 15  1  0
 15 16  1  0
 16 17  1  0
 17 18  1  0
 18 19  1  0
 19 20  1  0
 20 21  1  0
 21 22  1  0
 13  8  1  0
 22 14  1  0
 21 16  1  0
A    1
 O1 
A    2
 C1 
A    3
 N1 
A    4
 C2 
A    5
 C3 
A    6
 O2 
A    7
 C4 
A    8
 C5 
A    9
 C6 
A   10
 C7 
A   11
 C8 
A   12
 C9 
A   13
 C10
A   14
 C11
A   15
 C12
A   16
 C13
A   17
 C14
A   18
 C15
A   19
 C16
A   20
 C17
A   21
 C18
A   22
 N2 
M  END
>  <ref_url>  (16) 
https://github.com/stephwills/fragment_network_merges

>  <submitter_name>  (16) 
Steph Wills

>  <submitter_institution>  (16) 
University of Oxford

>  <submitter_email>  (16) 
stephanie.wills@balliol.ox.ac.uk

>  <generation_date>  (16) 
2023-07-04

>  <original SMILES>  (16) 
CC(=O)NC12CCCCC1N(C(=O)Cc1ccc(=O)[nH]c1)CC2

>  <ref_mols>  (16) 
x0771_0A,x1083_0A

>  <SuCOS_score>  (16) 
0.4018896676212975

>  <cmpd_id>  (16) 
CHEMSPACE-BB:CSMB00017127474

>  <method>  (16) 
fragnetv2_named

>  <ref_pdb>  (16) 
x0771_0A

$$$$
x0771-0A-x1083-0A-1662_p
     RDKit          3D

 23 25  0  0  0  0  0  0  0  0999 V2000
   -5.3410   -8.6540   -3.5190 O   0  0  0  0  0  0  0  0  0  0  0  0
   -6.2860   -9.2860   -3.9800 C   0  0  0  0  0  0  0  0  0  0  0  0
   -6.9080  -10.3060   -3.2650 N   0  0  0  0  0  0  0  0  0  0  0  0
   -6.4220  -10.6670   -1.9470 C   0  0  0  0  0  0  0  0  0  0  0  0
   -7.4870  -10.4650   -0.8510 C   0  0  0  0  0  0  0  0  0  0  0  0
   -7.0160   -9.6230    0.1620 C   0  0  0  0  0  0  0  0  0  0  0  0
   -6.9410   -8.2470   -0.0840 C   0  0  0  0  0  0  0  0  0  0  0  0
   -5.7080   -7.6870   -0.4210 C   0  0  0  0  0  0  0  0  0  0  0  0
   -4.7210   -7.8550    0.5470 C   0  0  0  0  0  0  0  0  0  0  0  0
   -5.0700   -8.2520    1.8310 C   0  0  0  0  0  0  0  0  0  0  0  0
   -4.0950   -8.4200    2.8130 C   0  0  0  0  0  0  0  0  0  0  0  0
   -2.6020   -8.1870    2.5330 C   0  0  0  0  0  0  0  0  0  0  0  0
   -2.3900   -7.7930    1.2080 C   0  0  0  0  0  0  0  0  0  0  0  0
   -3.3810   -7.6300    0.2440 C   0  0  0  0  0  0  0  0  0  0  0  0
   -6.8330   -9.0500   -5.2260 N   0  0  0  0  0  0  0  0  0  0  0  0
   -7.0280  -10.0840   -6.2390 C   0  0  0  0  0  0  0  0  0  0  0  0
   -7.5810   -9.2760   -7.3950 C   0  0  0  0  0  0  0  0  0  0  0  0
   -7.9960   -7.8760   -6.9240 C   0  0  0  0  0  0  0  0  0  0  0  0
   -7.3400   -6.6790   -7.6110 C   0  0  0  0  0  0  0  0  0  0  0  0
   -8.0070   -5.3970   -7.1770 C   0  0  0  0  0  0  0  0  0  0  0  0
   -8.1240   -5.3740   -5.6520 C   0  0  0  0  0  0  0  0  0  0  0  0
   -7.3840   -6.5360   -4.9380 C   0  0  0  0  0  0  0  0  0  0  0  0
   -7.7600   -7.9280   -5.4360 C   0  0  0  0  0  0  0  0  0  0  0  0
  1  2  2  0
  2  3  1  0
  3  4  1  0
  4  5  1  0
  5  6  1  0
  6  7  1  0
  7  8  1  0
  8  9  1  0
  9 10  2  0
 10 11  1  0
 11 12  2  0
 12 13  1  0
 13 14  2  0
  2 15  1  0
 15 16  1  0
 16 17  1  0
 17 18  1  0
 18 19  1  0
 19 20  1  0
 20 21  1  0
 21 22  1  0
 22 23  1  0
 14  9  1  0
 23 15  1  0
 23 18  1  0
A    1
 O1 
A    2
 C1 
A    3
 N1 
A    4
 C2 
A    5
 C3 
A    6
 C4 
A    7
 C5 
A    8
 C6 
A    9
 C7 
A   10
 C8 
A   11
 C9 
A   12
 C10
A   13
 C11
A   14
 C12
A   15
 N2 
A   16
 C13
A   17
 C14
A   18
 C15
A   19
 C16
A   20
 C17
A   21
 C18
A   22
 C19
A   23
 C20
M  END
>  <ref_url>  (17) 
https://github.com/stephwills/fragment_network_merges

>  <submitter_name>  (17) 
Steph Wills

>  <submitter_institution>  (17) 
University of Oxford

>  <submitter_email>  (17) 
stephanie.wills@balliol.ox.ac.uk

>  <generation_date>  (17) 
2023-07-04

>  <original SMILES>  (17) 
CC(=O)NC12CCCCC1N(C(=O)Cc1ccc(=O)[nH]c1)CC2

>  <ref_mols>  (17) 
x0771_0A,x1083_0A

>  <SuCOS_score>  (17) 
0.41821602282592957

>  <cmpd_id>  (17) 
ENAMINE:Z1088876304

>  <method>  (17) 
fragnetv2_named

>  <ref_pdb>  (17) 
x0771_0A

$$$$
x0771-0A-x1083-0A-2093_p
     RDKit          3D

 23 25  0  0  0  0  0  0  0  0999 V2000
   -6.7750  -10.0320   -3.0890 O   0  0  0  0  0  0  0  0  0  0  0  0
   -6.3560   -9.1230   -3.8030 C   0  0  0  0  0  0  0  0  0  0  0  0
   -5.2730   -8.1630   -3.2960 C   0  0  0  0  0  0  0  0  0  0  0  0
   -5.8370   -6.9170   -2.6540 C   0  0  0  0  0  0  0  0  0  0  0  0
   -5.3430   -6.7810   -1.3150 O   0  0  0  0  0  0  0  0  0  0  0  0
   -5.7420   -7.8440   -0.4530 C   0  0  0  0  0  0  0  0  0  0  0  0
   -4.8490   -7.9740    0.6070 C   0  0  0  0  0  0  0  0  0  0  0  0
   -5.1990   -8.3350    1.8960 C   0  0  0  0  0  0  0  0  0  0  0  0
   -4.1260   -8.4470    2.9840 C   0  0  0  0  0  0  0  0  0  0  0  0
   -2.6720   -8.1460    2.5750 C   0  0  0  0  0  0  0  0  0  0  0  0
   -2.3480   -7.7460    1.1210 C   0  0  0  0  0  0  0  0  0  0  0  0
   -3.4560   -7.6510    0.0840 C   0  0  0  0  0  0  0  0  0  0  0  0
   -6.8710   -8.9240   -5.1600 N   0  0  0  0  0  0  0  0  0  0  0  0
   -7.4060   -9.9670   -6.0310 C   0  0  0  0  0  0  0  0  0  0  0  0
   -6.5530  -11.2080   -6.1790 C   0  0  0  0  0  0  0  0  0  0  0  0
   -7.0730  -12.0270   -7.2280 O   0  0  0  0  0  0  0  0  0  0  0  0
   -7.5710   -9.2000   -7.3510 C   0  0  0  0  0  0  0  0  0  0  0  0
   -7.9140   -7.8610   -6.9520 C   0  0  0  0  0  0  0  0  0  0  0  0
   -7.3980   -6.7070   -7.5780 C   0  0  0  0  0  0  0  0  0  0  0  0
   -7.9160   -5.5150   -7.1340 C   0  0  0  0  0  0  0  0  0  0  0  0
   -8.0500   -5.4610   -5.7660 C   0  0  0  0  0  0  0  0  0  0  0  0
   -7.3990   -6.4920   -5.0400 C   0  0  0  0  0  0  0  0  0  0  0  0
   -7.7320   -7.7910   -5.4440 C   0  0  0  0  0  0  0  0  0  0  0  0
  1  2  2  0
  2  3  1  0
  3  4  1  0
  4  5  1  0
  5  6  1  0
  6  7  1  0
  7  8  2  0
  8  9  1  0
  9 10  2  0
 10 11  1  0
 11 12  2  0
  2 13  1  0
 13 14  1  0
 14 15  1  0
 15 16  1  0
 14 17  1  0
 17 18  1  0
 18 19  1  0
 19 20  1  0
 20 21  1  0
 21 22  1  0
 22 23  1  0
 12  7  1  0
 23 13  1  0
 23 18  1  0
A    1
 O1 
A    2
 C1 
A    3
 C2 
A    4
 C3 
A    5
 O2 
A    6
 C4 
A    7
 C5 
A    8
 C6 
A    9
 C7 
A   10
 C8 
A   11
 C9 
A   12
 C10
A   13
 N1 
A   14
 C11
A   15
 C12
A   16
 O3 
A   17
 C13
A   18
 C14
A   19
 C15
A   20
 C16
A   21
 C17
A   22
 C18
A   23
 C19
M  END
>  <ref_url>  (18) 
https://github.com/stephwills/fragment_network_merges

>  <submitter_name>  (18) 
Steph Wills

>  <submitter_institution>  (18) 
University of Oxford

>  <submitter_email>  (18) 
stephanie.wills@balliol.ox.ac.uk

>  <generation_date>  (18) 
2023-07-04

>  <original SMILES>  (18) 
CC(=O)NC12CCCCC1N(C(=O)Cc1ccc(=O)[nH]c1)CC2

>  <ref_mols>  (18) 
x0771_0A,x1083_0A

>  <SuCOS_score>  (18) 
0.4370128476148791

>  <cmpd_id>  (18) 
ENAMINE:Z3595380995

>  <method>  (18) 
fragnetv2_named

>  <ref_pdb>  (18) 
x0771_0A

$$$$
x0771-0A-x1083-0A-2395_p
     RDKit          3D

 20 22  0  0  0  0  0  0  0  0999 V2000
   -6.4830   -4.2070   -3.7670 O   0  0  0  0  0  0  0  0  0  0  0  0
   -6.9400   -5.3440   -3.9420 C   0  0  0  0  0  0  0  0  0  0  0  0
   -6.5120   -6.4700   -3.1830 N   0  0  0  0  0  0  0  0  0  0  0  0
   -5.9300   -6.2700   -1.8710 O   0  0  0  0  0  0  0  0  0  0  0  0
   -6.0750   -7.5020   -1.1030 C   0  0  0  0  0  0  0  0  0  0  0  0
   -4.9740   -7.7090   -0.0100 C   0  0  0  0  0  0  0  0  0  0  0  0
   -5.4110   -8.1560    1.4010 C   0  0  0  0  0  0  0  0  0  0  0  0
   -4.4470   -8.3980    2.5730 C   0  0  0  0  0  0  0  0  0  0  0  0
   -2.9570   -8.1890    2.3360 C   0  0  0  0  0  0  0  0  0  0  0  0
   -2.4590   -7.7470    0.9450 C   0  0  0  0  0  0  0  0  0  0  0  0
   -3.4510   -7.5130   -0.2150 C   0  0  0  0  0  0  0  0  0  0  0  0
   -8.0460   -5.6170   -5.0050 C   0  0  0  0  0  0  0  0  0  0  0  0
   -7.7720   -5.1620   -6.4580 C   0  0  0  0  0  0  0  0  0  0  0  0
   -7.9140   -6.3340   -7.4400 C   0  0  0  0  0  0  0  0  0  0  0  0
   -7.0920   -7.5330   -7.0590 C   0  0  0  0  0  0  0  0  0  0  0  0
   -7.0750   -8.7630   -7.6620 C   0  0  0  0  0  0  0  0  0  0  0  0
   -7.8720   -9.7020   -6.9690 C   0  0  0  0  0  0  0  0  0  0  0  0
   -7.6810   -9.3910   -5.6460 N   0  0  0  0  0  0  0  0  0  0  0  0
   -7.3670   -7.9560   -5.6180 C   0  0  0  0  0  0  0  0  0  0  0  0
   -8.4490   -7.0940   -4.9910 C   0  0  0  0  0  0  0  0  0  0  0  0
  1  2  2  0
  2  3  1  0
  3  4  1  0
  4  5  1  0
  5  6  1  0
  6  7  2  0
  7  8  1  0
  8  9  2  0
  9 10  1  0
 10 11  2  0
  2 12  1  0
 12 13  1  0
 13 14  1  0
 14 15  1  0
 15 16  1  0
 16 17  1  0
 17 18  1  0
 18 19  1  0
 19 20  1  0
 11  6  1  0
 20 12  1  0
 19 15  1  0
A    1
 O1 
A    2
 C1 
A    3
 N1 
A    4
 O2 
A    5
 C2 
A    6
 C3 
A    7
 C4 
A    8
 C5 
A    9
 C6 
A   10
 C7 
A   11
 C8 
A   12
 C9 
A   13
 C10
A   14
 C11
A   15
 C12
A   16
 C13
A   17
 C14
A   18
 N2 
A   19
 C15
A   20
 C16
M  END
>  <ref_url>  (19) 
https://github.com/stephwills/fragment_network_merges

>  <submitter_name>  (19) 
Steph Wills

>  <submitter_institution>  (19) 
University of Oxford

>  <submitter_email>  (19) 
stephanie.wills@balliol.ox.ac.uk

>  <generation_date>  (19) 
2023-07-04

>  <original SMILES>  (19) 
CC(=O)NC12CCCCC1N(C(=O)Cc1ccc(=O)[nH]c1)CC2

>  <ref_mols>  (19) 
x0771_0A,x1083_0A

>  <SuCOS_score>  (19) 
0.44317849118044433

>  <cmpd_id>  (19) 
CHEMSPACE-BB:CSMB00015042979

>  <method>  (19) 
fragnetv2_named

>  <ref_pdb>  (19) 
x0771_0A

$$$$
x0771-0A-x1083-0A-684_p
     RDKit          3D

 24 26  0  0  0  0  0  0  0  0999 V2000
   -4.6420   -8.3010   -3.0630 O   0  0  0  0  0  0  0  0  0  0  0  0
   -5.8640   -8.3630   -3.0550 C   0  0  0  0  0  0  0  0  0  0  0  0
   -6.6690   -9.4150   -3.8460 C   0  0  0  0  0  0  0  0  0  0  0  0
   -6.7780   -8.9880   -5.2280 N   0  0  0  0  0  0  0  0  0  0  0  0
   -7.1410   -9.9840   -6.1430 C   0  0  0  0  0  0  0  0  0  0  0  0
   -8.3320  -10.8720   -5.7660 C   0  0  0  0  0  0  0  0  0  0  0  0
   -8.7780  -11.5930   -6.9120 O   0  0  0  0  0  0  0  0  0  0  0  0
   -7.4720   -9.2380   -7.4380 C   0  0  0  0  0  0  0  0  0  0  0  0
   -7.8780   -7.8430   -6.9640 C   0  0  0  0  0  0  0  0  0  0  0  0
   -7.2120   -6.6360   -7.6230 C   0  0  0  0  0  0  0  0  0  0  0  0
   -7.9650   -5.3570   -7.3560 C   0  0  0  0  0  0  0  0  0  0  0  0
   -8.3460   -5.4710   -5.8740 C   0  0  0  0  0  0  0  0  0  0  0  0
   -7.4450   -6.4150   -5.0300 C   0  0  0  0  0  0  0  0  0  0  0  0
   -7.6940   -7.8570   -5.4830 C   0  0  0  0  0  0  0  0  0  0  0  0
   -6.6510   -7.4880   -2.3180 N   0  0  0  0  0  0  0  0  0  0  0  0
   -6.1430   -6.8600   -1.1920 C   0  0  0  0  0  0  0  0  0  0  0  0
   -5.9620   -5.6520   -1.0880 O   0  0  0  0  0  0  0  0  0  0  0  0
   -5.8840   -7.8180   -0.2260 N   0  0  0  0  0  0  0  0  0  0  0  0
   -4.7740   -7.9090    0.6320 C   0  0  0  0  0  0  0  0  0  0  0  0
   -5.0410   -8.2890    1.9550 C   0  0  0  0  0  0  0  0  0  0  0  0
   -4.0090   -8.4070    2.8830 C   0  0  0  0  0  0  0  0  0  0  0  0
   -2.6970   -8.1490    2.4980 C   0  0  0  0  0  0  0  0  0  0  0  0
   -2.4210   -7.7710    1.1870 C   0  0  0  0  0  0  0  0  0  0  0  0
   -3.4560   -7.6510    0.2540 C   0  0  0  0  0  0  0  0  0  0  0  0
  1  2  2  0
  2  3  1  0
  3  4  1  0
  4  5  1  0
  5  6  1  0
  6  7  1  0
  5  8  1  0
  8  9  1  0
  9 10  1  0
 10 11  1  0
 11 12  1  0
 12 13  1  0
 13 14  1  0
  2 15  1  0
 15 16  1  0
 16 17  2  0
 16 18  1  0
 18 19  1  0
 19 20  2  0
 20 21  1  0
 21 22  2  0
 22 23  1  0
 23 24  2  0
 14  4  1  0
 24 19  1  0
 14  9  1  0
A    1
 O1 
A    2
 C1 
A    3
 C2 
A    4
 N1 
A    5
 C3 
A    6
 C4 
A    7
 O2 
A    8
 C5 
A    9
 C6 
A   10
 C7 
A   11
 C8 
A   12
 C9 
A   13
 C10
A   14
 C11
A   15
 N2 
A   16
 C12
A   17
 O3 
A   18
 N3 
A   19
 C13
A   20
 C14
A   21
 C15
A   22
 C16
A   23
 C17
A   24
 C18
M  END
>  <ref_url>  (20) 
https://github.com/stephwills/fragment_network_merges

>  <submitter_name>  (20) 
Steph Wills

>  <submitter_institution>  (20) 
University of Oxford

>  <submitter_email>  (20) 
stephanie.wills@balliol.ox.ac.uk

>  <generation_date>  (20) 
2023-07-04

>  <original SMILES>  (20) 
CC(=O)NC12CCCCC1N(C(=O)Cc1ccc(=O)[nH]c1)CC2

>  <ref_mols>  (20) 
x0771_0A,x1083_0A

>  <SuCOS_score>  (20) 
0.47091889035073053

>  <cmpd_id>  (20) 
ENAMINE:Z3320950149

>  <method>  (20) 
fragnetv2_named

>  <ref_pdb>  (20) 
x0771_0A

$$$$
x0771-0A-x1083-0A-316_p
     RDKit          3D

 20 22  0  0  0  0  0  0  0  0999 V2000
   -6.9280  -12.0740   -7.0170 O   0  0  0  0  0  0  0  0  0  0  0  0
   -6.4410  -11.1970   -6.0020 C   0  0  0  0  0  0  0  0  0  0  0  0
   -7.3390   -9.9800   -5.8900 C   0  0  0  0  0  0  0  0  0  0  0  0
   -7.5320   -9.2770   -7.2430 C   0  0  0  0  0  0  0  0  0  0  0  0
   -7.9750   -7.8740   -6.8430 C   0  0  0  0  0  0  0  0  0  0  0  0
   -7.3170   -6.7040   -7.6090 C   0  0  0  0  0  0  0  0  0  0  0  0
   -7.9620   -5.3780   -7.2050 C   0  0  0  0  0  0  0  0  0  0  0  0
   -8.1280   -5.2970   -5.6840 C   0  0  0  0  0  0  0  0  0  0  0  0
   -7.4020   -6.4020   -4.8940 C   0  0  0  0  0  0  0  0  0  0  0  0
   -7.8170   -7.8010   -5.3350 C   0  0  0  0  0  0  0  0  0  0  0  0
   -6.8590   -8.8690   -5.0300 N   0  0  0  0  0  0  0  0  0  0  0  0
   -6.6950   -9.1680   -3.5570 C   0  0  0  0  0  0  0  0  0  0  0  0
   -5.5350   -8.5020   -2.7390 C   0  0  0  0  0  0  0  0  0  0  0  0
   -6.0990   -7.6330   -1.2010 S   0  0  0  0  0  0  0  0  0  0  0  0
   -4.8670   -7.8690    0.1100 C   0  0  0  0  0  0  0  0  0  0  0  0
   -5.2500   -8.2600    1.4150 C   0  0  0  0  0  0  0  0  0  0  0  0
   -4.2990   -8.4320    2.4320 C   0  0  0  0  0  0  0  0  0  0  0  0
   -2.9490   -8.2190    2.1680 C   0  0  0  0  0  0  0  0  0  0  0  0
   -2.5490   -7.8350    0.8900 C   0  0  0  0  0  0  0  0  0  0  0  0
   -3.4970   -7.6620   -0.1330 C   0  0  0  0  0  0  0  0  0  0  0  0
  1  2  1  0
  2  3  1  0
  3  4  1  0
  4  5  1  0
  5  6  1  0
  6  7  1  0
  7  8  1  0
  8  9  1  0
  9 10  1  0
 10 11  1  0
 11 12  1  0
 12 13  1  0
 13 14  1  0
 14 15  1  0
 15 16  2  0
 16 17  1  0
 17 18  2  0
 18 19  1  0
 19 20  2  0
 11  3  1  0
 20 15  1  0
 10  5  1  0
A    1
 O1 
A    2
 C1 
A    3
 C2 
A    4
 C3 
A    5
 C4 
A    6
 C5 
A    7
 C6 
A    8
 C7 
A    9
 C8 
A   10
 C9 
A   11
 N1 
A   12
 C10
A   13
 C11
A   14
 S1 
A   15
 C12
A   16
 C13
A   17
 C14
A   18
 C15
A   19
 C16
A   20
 C17
M  END
>  <ref_url>  (21) 
https://github.com/stephwills/fragment_network_merges

>  <submitter_name>  (21) 
Steph Wills

>  <submitter_institution>  (21) 
University of Oxford

>  <submitter_email>  (21) 
stephanie.wills@balliol.ox.ac.uk

>  <generation_date>  (21) 
2023-07-04

>  <original SMILES>  (21) 
CC(=O)NC12CCCCC1N(C(=O)Cc1ccc(=O)[nH]c1)CC2

>  <ref_mols>  (21) 
x0771_0A,x1083_0A

>  <SuCOS_score>  (21) 
0.40058825945666465

>  <cmpd_id>  (21) 
ENAMINE:PV-002115131018

>  <method>  (21) 
fragnetv2_named

>  <ref_pdb>  (21) 
x0771_0A

$$$$
x0771-0A-x1083-0A-188_p
     RDKit          3D

 22 25  0  0  0  0  0  0  0  0999 V2000
   -7.2140  -10.4510   -3.3690 O   0  0  0  0  0  0  0  0  0  0  0  0
   -6.6980   -9.4070   -3.7780 C   0  0  0  0  0  0  0  0  0  0  0  0
   -5.8990   -8.6160   -2.8280 C   0  0  0  0  0  0  0  0  0  0  0  0
   -5.3410   -7.3360   -3.0290 C   0  0  0  0  0  0  0  0  0  0  0  0
   -4.6750   -6.9300   -1.9440 N   0  0  0  0  0  0  0  0  0  0  0  0
   -4.8420   -7.9830   -1.1050 N   0  0  0  0  0  0  0  0  0  0  0  0
   -4.2690   -8.0160    0.1880 C   0  0  0  0  0  0  0  0  0  0  0  0
   -5.0060   -8.3140    1.3480 C   0  0  0  0  0  0  0  0  0  0  0  0
   -4.3510   -8.3420    2.5840 C   0  0  0  0  0  0  0  0  0  0  0  0
   -2.9820   -8.0770    2.6520 C   0  0  0  0  0  0  0  0  0  0  0  0
   -2.2630   -7.7770    1.5010 C   0  0  0  0  0  0  0  0  0  0  0  0
   -2.9060   -7.7470    0.2730 C   0  0  0  0  0  0  0  0  0  0  0  0
   -5.5740   -9.0170   -1.5850 N   0  0  0  0  0  0  0  0  0  0  0  0
   -6.8940   -9.0320   -5.1110 N   0  0  0  0  0  0  0  0  0  0  0  0
   -7.2230  -10.0410   -6.1050 C   0  0  0  0  0  0  0  0  0  0  0  0
   -7.4230   -9.2800   -7.4090 C   0  0  0  0  0  0  0  0  0  0  0  0
   -7.7900   -7.8770   -6.9470 C   0  0  0  0  0  0  0  0  0  0  0  0
   -7.0360   -6.7280   -7.5910 C   0  0  0  0  0  0  0  0  0  0  0  0
   -7.7260   -5.4100   -7.2470 C   0  0  0  0  0  0  0  0  0  0  0  0
   -8.0950   -5.3790   -5.7620 C   0  0  0  0  0  0  0  0  0  0  0  0
   -7.3900   -6.4870   -4.9420 C   0  0  0  0  0  0  0  0  0  0  0  0
   -7.7280   -7.8910   -5.4310 C   0  0  0  0  0  0  0  0  0  0  0  0
  1  2  2  0
  2  3  1  0
  3  4  1  0
  4  5  2  0
  5  6  1  0
  6  7  1  0
  7  8  2  0
  8  9  1  0
  9 10  2  0
 10 11  1  0
 11 12  2  0
  6 13  1  0
  2 14  1  0
 14 15  1  0
 15 16  1  0
 16 17  1  0
 17 18  1  0
 18 19  1  0
 19 20  1  0
 20 21  1  0
 21 22  1  0
 13  3  2  0
 22 14  1  0
 12  7  1  0
 22 17  1  0
A    1
 O1 
A    2
 C1 
A    3
 C2 
A    4
 C3 
A    5
 N1 
A    6
 N2 
A    7
 C4 
A    8
 C5 
A    9
 C6 
A   10
 C7 
A   11
 C8 
A   12
 C9 
A   13
 N3 
A   14
 N4 
A   15
 C10
A   16
 C11
A   17
 C12
A   18
 C13
A   19
 C14
A   20
 C15
A   21
 C16
A   22
 C17
M  END
>  <ref_url>  (22) 
https://github.com/stephwills/fragment_network_merges

>  <submitter_name>  (22) 
Steph Wills

>  <submitter_institution>  (22) 
University of Oxford

>  <submitter_email>  (22) 
stephanie.wills@balliol.ox.ac.uk

>  <generation_date>  (22) 
2023-07-04

>  <original SMILES>  (22) 
CC(=O)NC12CCCCC1N(C(=O)Cc1ccc(=O)[nH]c1)CC2

>  <ref_mols>  (22) 
x0771_0A,x1083_0A

>  <SuCOS_score>  (22) 
0.40133311128146054

>  <cmpd_id>  (22) 
ENAMINE:Z977432654

>  <method>  (22) 
fragnetv2_named

>  <ref_pdb>  (22) 
x0771_0A

$$$$
x0771-0A-x1083-0A-1016_p
     RDKit          3D

 23 25  0  0  0  0  0  0  0  0999 V2000
   -7.8410  -10.1240   -0.1140 O   0  0  0  0  0  0  0  0  0  0  0  0
   -7.4140   -9.1470   -0.7250 C   0  0  0  0  0  0  0  0  0  0  0  0
   -7.0000   -7.9980   -0.0830 C   0  0  0  0  0  0  0  0  0  0  0  0
   -5.6610   -7.6680   -0.4380 O   0  0  0  0  0  0  0  0  0  0  0  0
   -4.7350   -7.8530    0.5550 C   0  0  0  0  0  0  0  0  0  0  0  0
   -5.0770   -8.2690    1.9280 C   0  0  0  0  0  0  0  0  0  0  0  0
   -3.9750   -8.4350    2.9400 C   0  0  0  0  0  0  0  0  0  0  0  0
   -2.6870   -8.1750    2.4720 C   0  0  0  0  0  0  0  0  0  0  0  0
   -2.4020   -7.7840    1.1670 C   0  0  0  0  0  0  0  0  0  0  0  0
   -3.4010   -7.6220    0.2080 C   0  0  0  0  0  0  0  0  0  0  0  0
   -7.3100   -9.0970   -2.0980 N   0  0  0  0  0  0  0  0  0  0  0  0
   -6.1000   -9.5470   -2.7680 C   0  0  0  0  0  0  0  0  0  0  0  0
   -6.0070   -8.8580   -4.1580 C   0  0  0  0  0  0  0  0  0  0  0  0
   -5.0080   -8.2070   -4.4500 O   0  0  0  0  0  0  0  0  0  0  0  0
   -7.0510   -8.9850   -5.0460 N   0  0  0  0  0  0  0  0  0  0  0  0
   -7.2080  -10.0280   -6.0440 C   0  0  0  0  0  0  0  0  0  0  0  0
   -7.4170   -9.2290   -7.3200 C   0  0  0  0  0  0  0  0  0  0  0  0
   -7.9310   -7.8520   -6.9120 C   0  0  0  0  0  0  0  0  0  0  0  0
   -7.1330   -6.7720   -7.6430 C   0  0  0  0  0  0  0  0  0  0  0  0
   -7.6790   -5.3980   -7.2810 C   0  0  0  0  0  0  0  0  0  0  0  0
   -8.0210   -5.3410   -5.8040 C   0  0  0  0  0  0  0  0  0  0  0  0
   -7.3920   -6.4630   -4.9540 C   0  0  0  0  0  0  0  0  0  0  0  0
   -7.8680   -7.8270   -5.4020 C   0  0  0  0  0  0  0  0  0  0  0  0
  1  2  2  0
  2  3  1  0
  3  4  1  0
  4  5  1  0
  5  6  2  0
  6  7  1  0
  7  8  2  0
  8  9  1  0
  9 10  2  0
  2 11  1  0
 11 12  1  0
 12 13  1  0
 13 14  2  0
 13 15  1  0
 15 16  1  0
 16 17  1  0
 17 18  1  0
 18 19  1  0
 19 20  1  0
 20 21  1  0
 21 22  1  0
 22 23  1  0
 10  5  1  0
 23 15  1  0
 23 18  1  0
A    1
 O1 
A    2
 C1 
A    3
 C2 
A    4
 O2 
A    5
 C3 
A    6
 C4 
A    7
 C5 
A    8
 C6 
A    9
 C7 
A   10
 C8 
A   11
 N1 
A   12
 C9 
A   13
 C10
A   14
 O3 
A   15
 N2 
A   16
 C11
A   17
 C12
A   18
 C13
A   19
 C14
A   20
 C15
A   21
 C16
A   22
 C17
A   23
 C18
M  END
>  <ref_url>  (23) 
https://github.com/stephwills/fragment_network_merges

>  <submitter_name>  (23) 
Steph Wills

>  <submitter_institution>  (23) 
University of Oxford

>  <submitter_email>  (23) 
stephanie.wills@balliol.ox.ac.uk

>  <generation_date>  (23) 
2023-07-04

>  <original SMILES>  (23) 
CC(=O)NC12CCCCC1N(C(=O)Cc1ccc(=O)[nH]c1)CC2

>  <ref_mols>  (23) 
x0771_0A,x1083_0A

>  <SuCOS_score>  (23) 
0.4058198196459467

>  <cmpd_id>  (23) 
ENAMINE:Z978070582

>  <method>  (23) 
fragnetv2_named

>  <ref_pdb>  (23) 
x0771_0A

$$$$
x0771-0A-x1083-0A-2518_p
     RDKit          3D

 26 28  0  0  0  0  0  0  0  0999 V2000
   -4.2340  -11.5060   -5.5380 C   0  0  0  0  0  0  0  0  0  0  0  0
   -5.3010  -10.5570   -5.5500 O   0  0  0  0  0  0  0  0  0  0  0  0
   -6.3560  -10.8380   -6.3840 C   0  0  0  0  0  0  0  0  0  0  0  0
   -6.3120  -11.7040   -7.5080 O   0  0  0  0  0  0  0  0  0  0  0  0
   -7.5820  -10.0590   -5.8820 C   0  0  0  0  0  0  0  0  0  0  0  0
   -7.5020   -9.3050   -7.2150 C   0  0  0  0  0  0  0  0  0  0  0  0
   -7.8720   -7.8930   -6.9280 C   0  0  0  0  0  0  0  0  0  0  0  0
   -7.2970   -6.7640   -7.5520 C   0  0  0  0  0  0  0  0  0  0  0  0
   -7.7830   -5.5040   -7.2270 C   0  0  0  0  0  0  0  0  0  0  0  0
   -8.0750   -5.3430   -5.8660 C   0  0  0  0  0  0  0  0  0  0  0  0
   -7.4800   -6.4080   -5.1620 C   0  0  0  0  0  0  0  0  0  0  0  0
   -7.9050   -7.6650   -5.5710 C   0  0  0  0  0  0  0  0  0  0  0  0
   -7.5160   -8.9000   -4.9370 N   0  0  0  0  0  0  0  0  0  0  0  0
   -7.8560   -9.0340   -3.5880 C   0  0  0  0  0  0  0  0  0  0  0  0
   -7.1660   -8.1330   -2.5520 C   0  0  0  0  0  0  0  0  0  0  0  0
   -6.6750   -7.0270   -2.7770 O   0  0  0  0  0  0  0  0  0  0  0  0
   -7.1580   -8.6890   -1.2880 N   0  0  0  0  0  0  0  0  0  0  0  0
   -5.9510   -9.1160   -0.7950 C   0  0  0  0  0  0  0  0  0  0  0  0
   -5.8000   -9.9850    0.0530 O   0  0  0  0  0  0  0  0  0  0  0  0
   -4.9140   -8.4290   -1.3840 N   0  0  0  0  0  0  0  0  0  0  0  0
   -4.2770   -7.3480   -0.6770 C   0  0  0  0  0  0  0  0  0  0  0  0
   -3.9860   -7.7830    0.7350 C   0  0  0  0  0  0  0  0  0  0  0  0
   -5.0800   -8.2500    1.6860 C   0  0  0  0  0  0  0  0  0  0  0  0
   -4.3950   -8.5970    2.9750 C   0  0  0  0  0  0  0  0  0  0  0  0
   -2.8840   -8.3950    2.9500 C   0  0  0  0  0  0  0  0  0  0  0  0
   -2.4040   -7.8020    1.4090 S   0  0  0  0  0  0  0  0  0  0  0  0
  1  2  1  0
  2  3  1  0
  3  4  2  0
  3  5  1  0
  5  6  1  0
  6  7  1  0
  7  8  1  0
  8  9  1  0
  9 10  1  0
 10 11  1  0
 11 12  1  0
 12 13  1  0
 13 14  1  0
 14 15  1  0
 15 16  2  0
 15 17  1  0
 17 18  1  0
 18 19  2  0
 18 20  1  0
 20 21  1  0
 21 22  1  0
 22 23  2  0
 23 24  1  0
 24 25  2  0
 25 26  1  0
 13  5  1  0
 26 22  1  0
 12  7  1  0
A    1
 C1 
A    2
 O1 
A    3
 C2 
A    4
 O2 
A    5
 C3 
A    6
 C4 
A    7
 C5 
A    8
 C6 
A    9
 C7 
A   10
 C8 
A   11
 C9 
A   12
 C10
A   13
 N1 
A   14
 C11
A   15
 C12
A   16
 O3 
A   17
 N2 
A   18
 C13
A   19
 O4 
A   20
 N3 
A   21
 C14
A   22
 C15
A   23
 C16
A   24
 C17
A   25
 C18
A   26
 S1 
M  END
>  <ref_url>  (24) 
https://github.com/stephwills/fragment_network_merges

>  <submitter_name>  (24) 
Steph Wills

>  <submitter_institution>  (24) 
University of Oxford

>  <submitter_email>  (24) 
stephanie.wills@balliol.ox.ac.uk

>  <generation_date>  (24) 
2023-07-04

>  <original SMILES>  (24) 
CC(=O)NC12CCCCC1N(C(=O)Cc1ccc(=O)[nH]c1)CC2

>  <ref_mols>  (24) 
x0771_0A,x1083_0A

>  <SuCOS_score>  (24) 
0.4120822290636887

>  <cmpd_id>  (24) 
MOLPORT:009-079-615

>  <method>  (24) 
fragnetv2_named

>  <ref_pdb>  (24) 
x0771_0A

$$$$
x0771-0A-x1083-0A-628_p
     RDKit          3D

 22 24  0  0  0  0  0  0  0  0999 V2000
   -5.0180   -6.0720   -0.6780 O   0  0  0  0  0  0  0  0  0  0  0  0
   -4.4830   -7.1690   -0.5030 C   0  0  0  0  0  0  0  0  0  0  0  0
   -4.2250   -7.9840   -1.5820 N   0  0  0  0  0  0  0  0  0  0  0  0
   -5.1420   -8.0380   -2.7040 C   0  0  0  0  0  0  0  0  0  0  0  0
   -5.9860   -9.3180   -2.7220 C   0  0  0  0  0  0  0  0  0  0  0  0
   -7.4100   -9.0780   -2.8400 N   0  0  0  0  0  0  0  0  0  0  0  0
   -8.1140   -9.5890   -3.8920 C   0  0  0  0  0  0  0  0  0  0  0  0
   -8.9400  -10.4900   -3.7520 O   0  0  0  0  0  0  0  0  0  0  0  0
   -7.8330   -9.0260   -5.1140 N   0  0  0  0  0  0  0  0  0  0  0  0
   -7.2360   -9.8590   -6.1640 C   0  0  0  0  0  0  0  0  0  0  0  0
   -7.4350   -9.0430   -7.4280 C   0  0  0  0  0  0  0  0  0  0  0  0
   -7.4230   -7.6100   -6.8260 C   0  0  0  0  0  0  0  0  0  0  0  0
   -7.7790   -6.4720   -7.7370 C   0  0  0  0  0  0  0  0  0  0  0  0
   -7.6170   -5.1400   -7.0890 C   0  0  0  0  0  0  0  0  0  0  0  0
   -8.2050   -5.1590   -5.6590 C   0  0  0  0  0  0  0  0  0  0  0  0
   -8.1140   -6.4770   -4.8410 C   0  0  0  0  0  0  0  0  0  0  0  0
   -8.3300   -7.7570   -5.6660 C   0  0  0  0  0  0  0  0  0  0  0  0
   -4.1050   -7.6910    0.7850 C   0  0  0  0  0  0  0  0  0  0  0  0
   -4.8770   -8.2610    1.7870 C   0  0  0  0  0  0  0  0  0  0  0  0
   -4.1000   -8.6440    2.9160 C   0  0  0  0  0  0  0  0  0  0  0  0
   -2.7670   -8.3600    2.7410 C   0  0  0  0  0  0  0  0  0  0  0  0
   -2.4490   -7.6320    1.2340 S   0  0  0  0  0  0  0  0  0  0  0  0
  1  2  2  0
  2  3  1  0
  3  4  1  0
  4  5  1  0
  5  6  1  0
  6  7  1  0
  7  8  2  0
  7  9  1  0
  9 10  1  0
 10 11  1  0
 11 12  1  0
 12 13  1  0
 13 14  1  0
 14 15  1  0
 15 16  1  0
 16 17  1  0
  2 18  1  0
 18 19  2  0
 19 20  1  0
 20 21  2  0
 21 22  1  0
 17  9  1  0
 22 18  1  0
 17 12  1  0
A    1
 O1 
A    2
 C1 
A    3
 N1 
A    4
 C2 
A    5
 C3 
A    6
 N2 
A    7
 C4 
A    8
 O2 
A    9
 N3 
A   10
 C5 
A   11
 C6 
A   12
 C7 
A   13
 C8 
A   14
 C9 
A   15
 C10
A   16
 C11
A   17
 C12
A   18
 C13
A   19
 C14
A   20
 C15
A   21
 C16
A   22
 S1 
M  END
>  <ref_url>  (25) 
https://github.com/stephwills/fragment_network_merges

>  <submitter_name>  (25) 
Steph Wills

>  <submitter_institution>  (25) 
University of Oxford

>  <submitter_email>  (25) 
stephanie.wills@balliol.ox.ac.uk

>  <generation_date>  (25) 
2023-07-04

>  <original SMILES>  (25) 
CC(=O)NC12CCCCC1N(C(=O)Cc1ccc(=O)[nH]c1)CC2

>  <ref_mols>  (25) 
x0771_0A,x1083_0A

>  <SuCOS_score>  (25) 
0.4241809251896097

>  <cmpd_id>  (25) 
MOLPORT:038-991-554

>  <method>  (25) 
fragnetv2_named

>  <ref_pdb>  (25) 
x0771_0A

$$$$
x0771-0A-x1083-0A-1497_p
     RDKit          3D

 23 25  0  0  0  0  0  0  0  0999 V2000
   -8.0970   -5.0740    0.0410 O   0  0  0  0  0  0  0  0  0  0  0  0
   -7.1520   -5.6540   -0.8870 C   0  0  0  0  0  0  0  0  0  0  0  0
   -7.4820   -5.8960   -2.1930 N   0  0  0  0  0  0  0  0  0  0  0  0
   -6.8270   -5.2210   -3.2910 C   0  0  0  0  0  0  0  0  0  0  0  0
   -7.0810   -5.8980   -4.5920 C   0  0  0  0  0  0  0  0  0  0  0  0
   -7.4290   -4.9820   -5.7010 N   0  0  0  0  0  0  0  0  0  0  0  0
   -8.1820   -5.5440   -6.8190 C   0  0  0  0  0  0  0  0  0  0  0  0
   -9.3610   -5.9240   -6.2430 C   0  0  0  0  0  0  0  0  0  0  0  0
   -9.1370   -7.1160   -5.2990 C   0  0  0  0  0  0  0  0  0  0  0  0
   -8.5920   -8.2920   -6.0740 C   0  0  0  0  0  0  0  0  0  0  0  0
   -8.0730   -9.4590   -5.3230 N   0  0  0  0  0  0  0  0  0  0  0  0
   -7.2960  -10.2430   -6.3240 C   0  0  0  0  0  0  0  0  0  0  0  0
   -7.2930   -9.3090   -7.5170 C   0  0  0  0  0  0  0  0  0  0  0  0
   -7.3990   -7.9170   -6.8830 C   0  0  0  0  0  0  0  0  0  0  0  0
   -7.4130   -6.6780   -7.5480 C   0  0  0  0  0  0  0  0  0  0  0  0
   -5.8720   -6.0210   -0.6330 O   0  0  0  0  0  0  0  0  0  0  0  0
   -5.6370   -7.4360   -0.6400 C   0  0  0  0  0  0  0  0  0  0  0  0
   -4.6580   -7.7550    0.4640 C   0  0  0  0  0  0  0  0  0  0  0  0
   -5.1000   -8.2010    1.7240 C   0  0  0  0  0  0  0  0  0  0  0  0
   -4.1810   -8.4840    2.7410 C   0  0  0  0  0  0  0  0  0  0  0  0
   -2.8140   -8.3310    2.5180 C   0  0  0  0  0  0  0  0  0  0  0  0
   -2.3580   -7.8950    1.2770 C   0  0  0  0  0  0  0  0  0  0  0  0
   -3.2810   -7.6180    0.2760 C   0  0  0  0  0  0  0  0  0  0  0  0
  1  2  2  0
  2  3  1  0
  3  4  1  0
  4  5  1  0
  5  6  1  0
  6  7  1  0
  7  8  1  0
  8  9  1  0
  9 10  1  0
 10 11  1  0
 11 12  1  0
 12 13  1  0
 13 14  1  0
 14 15  1  0
  2 16  1  0
 16 17  1  0
 17 18  1  0
 18 19  2  0
 19 20  1  0
 20 21  2  0
 21 22  1  0
 22 23  2  0
 15  7  1  0
 23 18  1  0
 14 10  1  0
A    1
 O1 
A    2
 C1 
A    3
 N1 
A    4
 C2 
A    5
 C3 
A    6
 N2 
A    7
 C4 
A    8
 C5 
A    9
 C6 
A   10
 C7 
A   11
 N3 
A   12
 C8 
A   13
 C9 
A   14
 C10
A   15
 C11
A   16
 O2 
A   17
 C12
A   18
 C13
A   19
 C14
A   20
 C15
A   21
 C16
A   22
 C17
A   23
 C18
M  END
>  <ref_url>  (26) 
https://github.com/stephwills/fragment_network_merges

>  <submitter_name>  (26) 
Steph Wills

>  <submitter_institution>  (26) 
University of Oxford

>  <submitter_email>  (26) 
stephanie.wills@balliol.ox.ac.uk

>  <generation_date>  (26) 
2023-07-04

>  <original SMILES>  (26) 
CC(=O)NC12CCCCC1N(C(=O)Cc1ccc(=O)[nH]c1)CC2

>  <ref_mols>  (26) 
x0771_0A,x1083_0A

>  <SuCOS_score>  (26) 
0.4253265205490799

>  <cmpd_id>  (26) 
CHEMSPACE-BB:CSMB00118046466

>  <method>  (26) 
fragnetv2_named

>  <ref_pdb>  (26) 
x0771_0A

$$$$
x0771-0A-x1083-0A-675_p
     RDKit          3D

 25 27  0  0  0  0  0  0  0  0999 V2000
   -9.4620   -9.0180   -2.0280 O   0  0  0  0  0  0  0  0  0  0  0  0
   -8.6350   -9.4580   -2.8290 C   0  0  0  0  0  0  0  0  0  0  0  0
   -8.7750   -9.3760   -4.3730 C   0  0  0  0  0  0  0  0  0  0  0  0
   -7.5020   -9.0590   -5.0650 N   0  0  0  0  0  0  0  0  0  0  0  0
   -7.0890   -9.9230   -6.2210 C   0  0  0  0  0  0  0  0  0  0  0  0
   -7.8690  -11.2090   -6.4620 C   0  0  0  0  0  0  0  0  0  0  0  0
   -8.4270  -11.9040   -5.6240 O   0  0  0  0  0  0  0  0  0  0  0  0
   -7.9130  -11.5580   -7.7690 O   0  0  0  0  0  0  0  0  0  0  0  0
   -7.1790   -9.0400   -7.4480 C   0  0  0  0  0  0  0  0  0  0  0  0
   -6.9180   -7.6190   -6.9560 C   0  0  0  0  0  0  0  0  0  0  0  0
   -7.6650   -6.5270   -7.7080 C   0  0  0  0  0  0  0  0  0  0  0  0
   -7.5520   -5.1640   -7.0910 C   0  0  0  0  0  0  0  0  0  0  0  0
   -7.9230   -5.1930   -5.6120 C   0  0  0  0  0  0  0  0  0  0  0  0
   -8.3690   -6.5840   -5.1540 C   0  0  0  0  0  0  0  0  0  0  0  0
   -7.2990   -7.6430   -5.4770 C   0  0  0  0  0  0  0  0  0  0  0  0
   -7.4740  -10.0960   -2.4100 N   0  0  0  0  0  0  0  0  0  0  0  0
   -6.7490   -9.6870   -1.2130 C   0  0  0  0  0  0  0  0  0  0  0  0
   -5.6700   -8.6380   -1.5120 C   0  0  0  0  0  0  0  0  0  0  0  0
   -5.5980   -7.6630   -0.4650 O   0  0  0  0  0  0  0  0  0  0  0  0
   -4.7310   -7.8640    0.5680 C   0  0  0  0  0  0  0  0  0  0  0  0
   -5.0660   -8.2710    1.8600 C   0  0  0  0  0  0  0  0  0  0  0  0
   -4.0710   -8.4330    2.8250 C   0  0  0  0  0  0  0  0  0  0  0  0
   -2.7370   -8.1940    2.5050 C   0  0  0  0  0  0  0  0  0  0  0  0
   -2.3950   -7.7890    1.2190 C   0  0  0  0  0  0  0  0  0  0  0  0
   -3.3890   -7.6260    0.2550 C   0  0  0  0  0  0  0  0  0  0  0  0
  1  2  2  0
  2  3  1  0
  3  4  1  0
  4  5  1  0
  5  6  1  0
  6  7  2  0
  6  8  1  0
  5  9  1  0
  9 10  1  0
 10 11  1  0
 11 12  1  0
 12 13  1  0
 13 14  1  0
 14 15  1  0
  2 16  1  0
 16 17  1  0
 17 18  1  0
 18 19  1  0
 19 20  1  0
 20 21  2  0
 21 22  1  0
 22 23  2  0
 23 24  1  0
 24 25  2  0
 15  4  1  0
 25 20  1  0
 15 10  1  0
A    1
 O1 
A    2
 C1 
A    3
 C2 
A    4
 N1 
A    5
 C3 
A    6
 C4 
A    7
 O2 
A    8
 O3 
A    9
 C5 
A   10
 C6 
A   11
 C7 
A   12
 C8 
A   13
 C9 
A   14
 C10
A   15
 C11
A   16
 N2 
A   17
 C12
A   18
 C13
A   19
 O4 
A   20
 C14
A   21
 C15
A   22
 C16
A   23
 C17
A   24
 C18
A   25
 C19
M  END
>  <ref_url>  (27) 
https://github.com/stephwills/fragment_network_merges

>  <submitter_name>  (27) 
Steph Wills

>  <submitter_institution>  (27) 
University of Oxford

>  <submitter_email>  (27) 
stephanie.wills@balliol.ox.ac.uk

>  <generation_date>  (27) 
2023-07-04

>  <original SMILES>  (27) 
CC(=O)NC12CCCCC1N(C(=O)Cc1ccc(=O)[nH]c1)CC2

>  <ref_mols>  (27) 
x0771_0A,x1083_0A

>  <SuCOS_score>  (27) 
0.42568911701761186

>  <cmpd_id>  (27) 
MOLPORT:039-228-384

>  <method>  (27) 
fragnetv2_named

>  <ref_pdb>  (27) 
x0771_0A

$$$$
x0147-0A-x0980-0B-136_p
     RDKit          3D

 14 15  0  0  0  0  0  0  0  0999 V2000
  -13.5190   -0.8280   -3.9780 C   0  0  0  0  0  0  0  0  0  0  0  0
  -13.2760   -2.3280   -4.0470 C   0  0  0  0  0  0  0  0  0  0  0  0
  -12.0330   -2.6470   -4.7190 N   0  0  0  0  0  0  0  0  0  0  0  0
  -11.6590   -3.9380   -5.0620 C   0  0  0  0  0  0  0  0  0  0  0  0
  -12.1790   -4.9490   -4.6050 O   0  0  0  0  0  0  0  0  0  0  0  0
  -10.5210   -3.9570   -6.0800 C   0  0  0  0  0  0  0  0  0  0  0  0
   -9.6800   -5.0300   -6.1720 C   0  0  0  0  0  0  0  0  0  0  0  0
   -8.6450   -4.9630   -7.1020 N   0  0  0  0  0  0  0  0  0  0  0  0
   -7.6240   -5.7900   -7.4870 C   0  0  0  0  0  0  0  0  0  0  0  0
   -6.9130   -5.2100   -8.4350 N   0  0  0  0  0  0  0  0  0  0  0  0
   -7.4710   -3.9730   -8.6870 N   0  0  0  0  0  0  0  0  0  0  0  0
   -8.4980   -3.8550   -7.8830 C   0  0  0  0  0  0  0  0  0  0  0  0
   -9.4230   -2.7790   -7.7320 C   0  0  0  0  0  0  0  0  0  0  0  0
  -10.4010   -2.8210   -6.8760 N   0  0  0  0  0  0  0  0  0  0  0  0
  1  2  1  0
  2  3  1  0
  3  4  1  0
  4  5  2  0
  4  6  1  0
  6  7  2  0
  7  8  1  0
  8  9  1  0
  9 10  2  0
 10 11  1  0
 11 12  2  0
 12 13  1  0
 13 14  2  0
 14  6  1  0
 12  8  1  0
A    1
 C1 
A    2
 C2 
A    3
 N1 
A    4
 C3 
A    5
 O1 
A    6
 C4 
A    7
 C5 
A    8
 N2 
A    9
 C6 
A   10
 N3 
A   11
 N4 
A   12
 C7 
A   13
 C8 
A   14
 N5 
M  END
>  <ref_url>  (28) 
https://github.com/stephwills/fragment_network_merges

>  <submitter_name>  (28) 
Steph Wills

>  <submitter_institution>  (28) 
University of Oxford

>  <submitter_email>  (28) 
stephanie.wills@balliol.ox.ac.uk

>  <generation_date>  (28) 
2023-07-04

>  <original SMILES>  (28) 
CC(=O)NC12CCCCC1N(C(=O)Cc1ccc(=O)[nH]c1)CC2

>  <ref_mols>  (28) 
x0147_0A,x0980_0B

>  <SuCOS_score>  (28) 
0.6498755776713904

>  <cmpd_id>  (28) 
ENAMINE:Z3434001816

>  <method>  (28) 
fragnetv2_named

>  <ref_pdb>  (28) 
x0147_0A

$$$$
x0147-0A-x0980-0B-165_p
     RDKit          3D

 14 15  0  0  0  0  0  0  0  0999 V2000
  -13.4460   -0.5950   -3.9250 C   0  0  0  0  0  0  0  0  0  0  0  0
  -13.9440   -1.9270   -3.8970 O   0  0  0  0  0  0  0  0  0  0  0  0
  -12.9220   -2.9240   -3.8660 C   0  0  0  0  0  0  0  0  0  0  0  0
  -12.7210   -3.5970   -5.2340 C   0  0  0  0  0  0  0  0  0  0  0  0
  -11.4580   -3.1920   -5.9120 N   0  0  0  0  0  0  0  0  0  0  0  0
  -10.5240   -4.1660   -6.2530 C   0  0  0  0  0  0  0  0  0  0  0  0
  -10.8300   -5.2460   -5.6510 N   0  0  0  0  0  0  0  0  0  0  0  0
  -10.0860   -6.3650   -5.7870 C   0  0  0  0  0  0  0  0  0  0  0  0
   -8.9980   -6.4620   -6.5330 C   0  0  0  0  0  0  0  0  0  0  0  0
   -8.5960   -5.3660   -7.2210 N   0  0  0  0  0  0  0  0  0  0  0  0
   -7.5480   -5.1730   -8.0540 C   0  0  0  0  0  0  0  0  0  0  0  0
   -7.5690   -3.9450   -8.4880 N   0  0  0  0  0  0  0  0  0  0  0  0
   -8.6770   -3.3030   -7.9150 N   0  0  0  0  0  0  0  0  0  0  0  0
   -9.2960   -4.1850   -7.1410 C   0  0  0  0  0  0  0  0  0  0  0  0
  1  2  1  0
  2  3  1  0
  3  4  1  0
  4  5  1  0
  5  6  1  0
  6  7  2  0
  7  8  1  0
  8  9  2  0
  9 10  1  0
 10 11  1  0
 11 12  2  0
 12 13  1  0
 13 14  2  0
 14  6  1  0
 14 10  1  0
A    1
 C1 
A    2
 O1 
A    3
 C2 
A    4
 C3 
A    5
 N1 
A    6
 C4 
A    7
 N2 
A    8
 C5 
A    9
 C6 
A   10
 N3 
A   11
 C7 
A   12
 N4 
A   13
 N5 
A   14
 C8 
M  END
>  <ref_url>  (29) 
https://github.com/stephwills/fragment_network_merges

>  <submitter_name>  (29) 
Steph Wills

>  <submitter_institution>  (29) 
University of Oxford

>  <submitter_email>  (29) 
stephanie.wills@balliol.ox.ac.uk

>  <generation_date>  (29) 
2023-07-04

>  <original SMILES>  (29) 
CC(=O)NC12CCCCC1N(C(=O)Cc1ccc(=O)[nH]c1)CC2

>  <ref_mols>  (29) 
x0147_0A,x0980_0B

>  <SuCOS_score>  (29) 
0.4954045414171764

>  <cmpd_id>  (29) 
ENAMINE:Z1281715855

>  <method>  (29) 
fragnetv2_named

>  <ref_pdb>  (29) 
x0147_0A

$$$$
x0147-0A-x0980-0B-61_p
     RDKit          3D

 18 19  0  0  0  0  0  0  0  0999 V2000
  -13.4290   -0.7750   -3.9940 C   0  0  0  0  0  0  0  0  0  0  0  0
  -13.0460   -2.2460   -3.8280 C   0  0  0  0  0  0  0  0  0  0  0  0
  -12.2420   -2.6790   -4.9850 N   0  0  0  0  0  0  0  0  0  0  0  0
  -11.6610   -3.9380   -5.1020 C   0  0  0  0  0  0  0  0  0  0  0  0
  -12.0150   -4.9290   -4.4830 O   0  0  0  0  0  0  0  0  0  0  0  0
  -10.5160   -3.9530   -6.1070 C   0  0  0  0  0  0  0  0  0  0  0  0
   -9.6870   -5.0340   -6.1920 C   0  0  0  0  0  0  0  0  0  0  0  0
   -8.6440   -4.9780   -7.1090 N   0  0  0  0  0  0  0  0  0  0  0  0
   -7.6300   -5.8170   -7.4830 C   0  0  0  0  0  0  0  0  0  0  0  0
   -6.9020   -5.2440   -8.4240 N   0  0  0  0  0  0  0  0  0  0  0  0
   -7.4440   -4.0010   -8.6810 N   0  0  0  0  0  0  0  0  0  0  0  0
   -8.4770   -3.8710   -7.8870 C   0  0  0  0  0  0  0  0  0  0  0  0
   -9.3900   -2.7830   -7.7430 C   0  0  0  0  0  0  0  0  0  0  0  0
  -10.3780   -2.8140   -6.8970 N   0  0  0  0  0  0  0  0  0  0  0  0
  -14.2860   -3.1250   -3.5370 C   0  0  0  0  0  0  0  0  0  0  0  0
  -14.0110   -4.6080   -3.3880 C   0  0  0  0  0  0  0  0  0  0  0  0
  -15.2140   -2.9640   -4.5190 F   0  0  0  0  0  0  0  0  0  0  0  0
  -14.8810   -2.6880   -2.3920 F   0  0  0  0  0  0  0  0  0  0  0  0
  1  2  1  0
  2  3  1  0
  3  4  1  0
  4  5  2  0
  4  6  1  0
  6  7  2  0
  7  8  1  0
  8  9  1  0
  9 10  2  0
 10 11  1  0
 11 12  2  0
 12 13  1  0
 13 14  2  0
  2 15  1  0
 15 16  1  0
 15 17  1  0
 15 18  1  0
 14  6  1  0
 12  8  1  0
A    1
 C1 
A    2
 C2 
A    3
 N1 
A    4
 C3 
A    5
 O1 
A    6
 C4 
A    7
 C5 
A    8
 N2 
A    9
 C6 
A   10
 N3 
A   11
 N4 
A   12
 C7 
A   13
 C8 
A   14
 N5 
A   15
 C9 
A   16
 C10
A   17
 F1 
A   18
 F2 
M  END
>  <ref_url>  (30) 
https://github.com/stephwills/fragment_network_merges

>  <submitter_name>  (30) 
Steph Wills

>  <submitter_institution>  (30) 
University of Oxford

>  <submitter_email>  (30) 
stephanie.wills@balliol.ox.ac.uk

>  <generation_date>  (30) 
2023-07-04

>  <original SMILES>  (30) 
CC(=O)NC12CCCCC1N(C(=O)Cc1ccc(=O)[nH]c1)CC2

>  <ref_mols>  (30) 
x0147_0A,x0980_0B

>  <SuCOS_score>  (30) 
0.6794752996584038

>  <cmpd_id>  (30) 
ENAMINE:Z3552137725

>  <method>  (30) 
fragnetv2_named

>  <ref_pdb>  (30) 
x0147_0A

$$$$
x0147-0A-x0980-0B-130_p
     RDKit          3D

 14 15  0  0  0  0  0  0  0  0999 V2000
  -12.7310   -0.8200   -4.5450 C   0  0  0  0  0  0  0  0  0  0  0  0
  -12.2000   -2.2250   -4.7000 C   0  0  0  0  0  0  0  0  0  0  0  0
  -13.4010   -3.1840   -4.6970 C   0  0  0  0  0  0  0  0  0  0  0  0
  -13.3760   -4.0060   -3.6050 F   0  0  0  0  0  0  0  0  0  0  0  0
  -11.3200   -2.3100   -5.9300 N   0  0  0  0  0  0  0  0  0  0  0  0
  -10.5520   -3.4920   -6.2770 C   0  0  0  0  0  0  0  0  0  0  0  0
  -11.0470   -4.5050   -5.6430 N   0  0  0  0  0  0  0  0  0  0  0  0
  -10.5220   -5.7590   -5.7370 C   0  0  0  0  0  0  0  0  0  0  0  0
   -9.4640   -6.0930   -6.4660 C   0  0  0  0  0  0  0  0  0  0  0  0
   -8.8630   -5.1130   -7.1900 N   0  0  0  0  0  0  0  0  0  0  0  0
   -7.7870   -5.1530   -8.0240 C   0  0  0  0  0  0  0  0  0  0  0  0
   -7.5860   -3.9620   -8.5090 N   0  0  0  0  0  0  0  0  0  0  0  0
   -8.5630   -3.1160   -7.9730 N   0  0  0  0  0  0  0  0  0  0  0  0
   -9.3400   -3.8120   -7.1600 C   0  0  0  0  0  0  0  0  0  0  0  0
  1  2  1  0
  2  3  1  0
  3  4  1  0
  2  5  1  0
  5  6  1  0
  6  7  2  0
  7  8  1  0
  8  9  2  0
  9 10  1  0
 10 11  1  0
 11 12  2  0
 12 13  1  0
 13 14  2  0
 14  6  1  0
 14 10  1  0
A    1
 C1 
A    2
 C2 
A    3
 C3 
A    4
 F1 
A    5
 N1 
A    6
 C4 
A    7
 N2 
A    8
 C5 
A    9
 C6 
A   10
 N3 
A   11
 C7 
A   12
 N4 
A   13
 N5 
A   14
 C8 
M  END
>  <ref_url>  (31) 
https://github.com/stephwills/fragment_network_merges

>  <submitter_name>  (31) 
Steph Wills

>  <submitter_institution>  (31) 
University of Oxford

>  <submitter_email>  (31) 
stephanie.wills@balliol.ox.ac.uk

>  <generation_date>  (31) 
2023-07-04

>  <original SMILES>  (31) 
CC(=O)NC12CCCCC1N(C(=O)Cc1ccc(=O)[nH]c1)CC2

>  <ref_mols>  (31) 
x0147_0A,x0980_0B

>  <SuCOS_score>  (31) 
0.4712103397294172

>  <cmpd_id>  (31) 
CHEMSPACE-BB:CSMB00015289308

>  <method>  (31) 
fragnetv2_named

>  <ref_pdb>  (31) 
x0147_0A

$$$$
x0147-0A-x0980-0B-1825_p
     RDKit          3D

 19 21  0  0  0  0  0  0  0  0999 V2000
  -11.4360   -3.3760   -4.2670 C   0  0  0  0  0  0  0  0  0  0  0  0
  -11.2720   -2.0750   -5.0610 C   0  0  0  0  0  0  0  0  0  0  0  0
  -12.4210   -1.1440   -4.6370 C   0  0  0  0  0  0  0  0  0  0  0  0
  -13.6890   -1.4710   -5.2650 N   0  0  0  0  0  0  0  0  0  0  0  0
  -14.6750   -0.4970   -5.3180 C   0  0  0  0  0  0  0  0  0  0  0  0
  -14.4100    0.6140   -6.0490 N   0  0  0  0  0  0  0  0  0  0  0  0
  -15.7550   -0.6050   -4.7360 O   0  0  0  0  0  0  0  0  0  0  0  0
  -13.5800   -2.4250   -6.2610 C   0  0  0  0  0  0  0  0  0  0  0  0
  -12.3930   -2.1840   -7.2240 C   0  0  0  0  0  0  0  0  0  0  0  0
  -11.0910   -2.3610   -6.5440 N   0  0  0  0  0  0  0  0  0  0  0  0
  -10.3320   -3.5420   -6.7790 C   0  0  0  0  0  0  0  0  0  0  0  0
  -10.9160   -4.5020   -6.1330 N   0  0  0  0  0  0  0  0  0  0  0  0
  -10.4070   -5.7520   -6.0960 C   0  0  0  0  0  0  0  0  0  0  0  0
   -9.2990   -6.1640   -6.6800 C   0  0  0  0  0  0  0  0  0  0  0  0
   -8.6170   -5.2370   -7.4090 N   0  0  0  0  0  0  0  0  0  0  0  0
   -7.5150   -5.3420   -8.1060 C   0  0  0  0  0  0  0  0  0  0  0  0
   -7.2270   -4.1960   -8.6570 N   0  0  0  0  0  0  0  0  0  0  0  0
   -8.2160   -3.2950   -8.2840 N   0  0  0  0  0  0  0  0  0  0  0  0
   -9.0680   -3.9290   -7.5100 C   0  0  0  0  0  0  0  0  0  0  0  0
  1  2  1  0
  2  3  1  0
  3  4  1  0
  4  5  1  0
  5  6  1  0
  5  7  2  0
  4  8  1  0
  8  9  1  0
  9 10  1  0
 10 11  1  0
 11 12  2  0
 12 13  1  0
 13 14  2  0
 14 15  1  0
 15 16  1  0
 16 17  2  0
 17 18  1  0
 18 19  2  0
 10  2  1  0
 19 11  1  0
 19 15  1  0
A    1
 C1 
A    2
 C2 
A    3
 C3 
A    4
 N1 
A    5
 C4 
A    6
 N2 
A    7
 O1 
A    8
 C5 
A    9
 C6 
A   10
 N3 
A   11
 C7 
A   12
 N4 
A   13
 C8 
A   14
 C9 
A   15
 N5 
A   16
 C10
A   17
 N6 
A   18
 N7 
A   19
 C11
M  END
>  <ref_url>  (32) 
https://github.com/stephwills/fragment_network_merges

>  <submitter_name>  (32) 
Steph Wills

>  <submitter_institution>  (32) 
University of Oxford

>  <submitter_email>  (32) 
stephanie.wills@balliol.ox.ac.uk

>  <generation_date>  (32) 
2023-07-04

>  <original SMILES>  (32) 
CC(=O)NC12CCCCC1N(C(=O)Cc1ccc(=O)[nH]c1)CC2

>  <ref_mols>  (32) 
x0147_0A,x0980_0B

>  <SuCOS_score>  (32) 
0.5370036194753791

>  <cmpd_id>  (32) 
ENAMINE:Z1465064857

>  <method>  (32) 
fragnetv2_named

>  <ref_pdb>  (32) 
x0147_0A

$$$$
x0147-0A-x0980-0B-522_p
     RDKit          3D

 19 21  0  0  0  0  0  0  0  0999 V2000
   -6.6010   -6.1360   -8.7470 C   0  0  0  0  0  0  0  0  0  0  0  0
   -7.5860   -5.1190   -8.2240 C   0  0  0  0  0  0  0  0  0  0  0  0
   -7.4420   -3.8430   -8.6080 N   0  0  0  0  0  0  0  0  0  0  0  0
   -8.4660   -3.1420   -7.9830 N   0  0  0  0  0  0  0  0  0  0  0  0
   -9.1760   -3.9790   -7.2510 C   0  0  0  0  0  0  0  0  0  0  0  0
  -10.4120   -3.8310   -6.3010 C   0  0  0  0  0  0  0  0  0  0  0  0
  -11.1350   -2.7960   -5.6850 N   0  0  0  0  0  0  0  0  0  0  0  0
  -11.0270   -2.9350   -4.2270 C   0  0  0  0  0  0  0  0  0  0  0  0
  -11.9350   -4.0760   -3.7160 C   0  0  0  0  0  0  0  0  0  0  0  0
  -13.2410   -3.8880   -3.9460 C   0  0  0  0  0  0  0  0  0  0  0  0
  -13.2640   -2.4920   -4.5660 C   0  0  0  0  0  0  0  0  0  0  0  0
  -14.5180   -1.8540   -4.4740 C   0  0  0  0  0  0  0  0  0  0  0  0
  -14.6010   -0.7210   -3.8280 N   0  0  0  0  0  0  0  0  0  0  0  0
  -15.5400   -2.3190   -4.9750 O   0  0  0  0  0  0  0  0  0  0  0  0
  -12.5610   -2.5460   -5.9420 C   0  0  0  0  0  0  0  0  0  0  0  0
  -10.8590   -4.9230   -5.7920 N   0  0  0  0  0  0  0  0  0  0  0  0
  -10.2930   -6.1310   -6.0270 C   0  0  0  0  0  0  0  0  0  0  0  0
   -9.2150   -6.3160   -6.7770 C   0  0  0  0  0  0  0  0  0  0  0  0
   -8.6520   -5.2440   -7.3990 N   0  0  0  0  0  0  0  0  0  0  0  0
  1  2  1  0
  2  3  2  0
  3  4  1  0
  4  5  2  0
  5  6  1  0
  6  7  1  0
  7  8  1  0
  8  9  1  0
  9 10  1  0
 10 11  1  0
 11 12  1  0
 12 13  1  0
 12 14  2  0
 11 15  1  0
  6 16  2  0
 16 17  1  0
 17 18  2  0
 18 19  1  0
 19  2  1  0
 19  5  1  0
 15  7  1  0
A    1
 C1 
A    2
 C2 
A    3
 N1 
A    4
 N2 
A    5
 C3 
A    6
 C4 
A    7
 N3 
A    8
 C5 
A    9
 C6 
A   10
 C7 
A   11
 C8 
A   12
 C9 
A   13
 N4 
A   14
 O1 
A   15
 C10
A   16
 N5 
A   17
 C11
A   18
 C12
A   19
 N6 
M  END
>  <ref_url>  (33) 
https://github.com/stephwills/fragment_network_merges

>  <submitter_name>  (33) 
Steph Wills

>  <submitter_institution>  (33) 
University of Oxford

>  <submitter_email>  (33) 
stephanie.wills@balliol.ox.ac.uk

>  <generation_date>  (33) 
2023-07-04

>  <original SMILES>  (33) 
CC(=O)NC12CCCCC1N(C(=O)Cc1ccc(=O)[nH]c1)CC2

>  <ref_mols>  (33) 
x0147_0A,x0980_0B

>  <SuCOS_score>  (33) 
0.5272313595939812

>  <cmpd_id>  (33) 
ENAMINE:Z1230721377

>  <method>  (33) 
fragnetv2_named

>  <ref_pdb>  (33) 
x0147_0A

$$$$
x0147-0A-x0980-0B-221_p
     RDKit          3D

 19 21  0  0  0  0  0  0  0  0999 V2000
  -14.0190   -0.9070   -3.2730 F   0  0  0  0  0  0  0  0  0  0  0  0
  -13.9300   -1.8200   -4.2650 C   0  0  0  0  0  0  0  0  0  0  0  0
  -12.7740   -1.5760   -4.9200 F   0  0  0  0  0  0  0  0  0  0  0  0
  -13.8530   -3.1060   -3.6850 O   0  0  0  0  0  0  0  0  0  0  0  0
  -12.9480   -3.9070   -4.4500 C   0  0  0  0  0  0  0  0  0  0  0  0
  -11.7090   -3.2280   -4.4770 C   0  0  0  0  0  0  0  0  0  0  0  0
  -11.1150   -3.0400   -5.8260 N   0  0  0  0  0  0  0  0  0  0  0  0
  -10.3560   -4.0930   -6.2660 C   0  0  0  0  0  0  0  0  0  0  0  0
  -10.8060   -5.1520   -5.7190 N   0  0  0  0  0  0  0  0  0  0  0  0
  -10.2060   -6.3400   -5.9100 C   0  0  0  0  0  0  0  0  0  0  0  0
   -9.1290   -6.5180   -6.6550 C   0  0  0  0  0  0  0  0  0  0  0  0
   -8.6010   -5.4380   -7.2940 N   0  0  0  0  0  0  0  0  0  0  0  0
   -7.5370   -5.3000   -8.1220 C   0  0  0  0  0  0  0  0  0  0  0  0
   -6.5950   -6.3920   -8.5730 C   0  0  0  0  0  0  0  0  0  0  0  0
   -6.4960   -7.6180   -8.1530 C   0  0  0  0  0  0  0  0  0  0  0  0
   -5.5580   -7.0200   -7.4730 C   0  0  0  0  0  0  0  0  0  0  0  0
   -7.4380   -4.0540   -8.4940 N   0  0  0  0  0  0  0  0  0  0  0  0
   -8.4740   -3.3410   -7.8860 N   0  0  0  0  0  0  0  0  0  0  0  0
   -9.1630   -4.1980   -7.1560 C   0  0  0  0  0  0  0  0  0  0  0  0
  1  2  1  0
  2  3  1  0
  2  4  1  0
  4  5  1  0
  5  6  1  0
  6  7  1  0
  7  8  1  0
  8  9  2  0
  9 10  1  0
 10 11  2  0
 11 12  1  0
 12 13  1  0
 13 14  1  0
 14 15  1  0
 15 16  1  0
 13 17  2  0
 17 18  1  0
 18 19  2  0
 19  8  1  0
 19 12  1  0
 16 14  1  0
A    1
 F1 
A    2
 C1 
A    3
 F2 
A    4
 O1 
A    5
 C2 
A    6
 C3 
A    7
 N1 
A    8
 C4 
A    9
 N2 
A   10
 C5 
A   11
 C6 
A   12
 N3 
A   13
 C7 
A   14
 C8 
A   15
 C9 
A   16
 C10
A   17
 N4 
A   18
 N5 
A   19
 C11
M  END
>  <ref_url>  (34) 
https://github.com/stephwills/fragment_network_merges

>  <submitter_name>  (34) 
Steph Wills

>  <submitter_institution>  (34) 
University of Oxford

>  <submitter_email>  (34) 
stephanie.wills@balliol.ox.ac.uk

>  <generation_date>  (34) 
2023-07-04

>  <original SMILES>  (34) 
CC(=O)NC12CCCCC1N(C(=O)Cc1ccc(=O)[nH]c1)CC2

>  <ref_mols>  (34) 
x0147_0A,x0980_0B

>  <SuCOS_score>  (34) 
0.530215835915776

>  <cmpd_id>  (34) 
ENAMINE:Z2614859668

>  <method>  (34) 
fragnetv2_named

>  <ref_pdb>  (34) 
x0147_0A

$$$$
x0147-0A-x0980-0B-125_p
     RDKit          3D

 15 16  0  0  0  0  0  0  0  0999 V2000
  -13.9500   -0.6760   -3.6580 F   0  0  0  0  0  0  0  0  0  0  0  0
  -13.0070   -1.5110   -4.1710 C   0  0  0  0  0  0  0  0  0  0  0  0
  -13.5580   -2.9190   -4.1970 C   0  0  0  0  0  0  0  0  0  0  0  0
  -13.9510   -3.4190   -2.5130 Cl  0  0  0  0  0  0  0  0  0  0  0  0
  -12.5560   -3.9020   -4.8370 C   0  0  0  0  0  0  0  0  0  0  0  0
  -11.5150   -3.3440   -5.7610 N   0  0  0  0  0  0  0  0  0  0  0  0
  -10.5420   -4.2510   -6.1980 C   0  0  0  0  0  0  0  0  0  0  0  0
  -10.8010   -5.3680   -5.6440 N   0  0  0  0  0  0  0  0  0  0  0  0
  -10.0280   -6.4560   -5.8460 C   0  0  0  0  0  0  0  0  0  0  0  0
   -8.9550   -6.4870   -6.6090 C   0  0  0  0  0  0  0  0  0  0  0  0
   -8.5960   -5.3520   -7.2540 N   0  0  0  0  0  0  0  0  0  0  0  0
   -7.5710   -5.0970   -8.0930 C   0  0  0  0  0  0  0  0  0  0  0  0
   -7.6310   -3.8580   -8.4720 N   0  0  0  0  0  0  0  0  0  0  0  0
   -8.7470   -3.2690   -7.8540 N   0  0  0  0  0  0  0  0  0  0  0  0
   -9.3310   -4.1940   -7.1090 C   0  0  0  0  0  0  0  0  0  0  0  0
  1  2  1  0
  2  3  1  0
  3  4  1  0
  3  5  1  0
  5  6  1  0
  6  7  1  0
  7  8  2  0
  8  9  1  0
  9 10  2  0
 10 11  1  0
 11 12  1  0
 12 13  2  0
 13 14  1  0
 14 15  2  0
 15  7  1  0
 15 11  1  0
A    1
 F1 
A    2
 C1 
A    3
 C2 
A    4
CL1 
A    5
 C3 
A    6
 N1 
A    7
 C4 
A    8
 N2 
A    9
 C5 
A   10
 C6 
A   11
 N3 
A   12
 C7 
A   13
 N4 
A   14
 N5 
A   15
 C8 
M  END
>  <ref_url>  (35) 
https://github.com/stephwills/fragment_network_merges

>  <submitter_name>  (35) 
Steph Wills

>  <submitter_institution>  (35) 
University of Oxford

>  <submitter_email>  (35) 
stephanie.wills@balliol.ox.ac.uk

>  <generation_date>  (35) 
2023-07-04

>  <original SMILES>  (35) 
CC(=O)NC12CCCCC1N(C(=O)Cc1ccc(=O)[nH]c1)CC2

>  <ref_mols>  (35) 
x0147_0A,x0980_0B

>  <SuCOS_score>  (35) 
0.5295073045366513

>  <cmpd_id>  (35) 
CHEMSPACE-BB:CSMB00118739528

>  <method>  (35) 
fragnetv2_named

>  <ref_pdb>  (35) 
x0147_0A

$$$$
x0147-0A-x0980-0B-655_p
     RDKit          3D

 21 23  0  0  0  0  0  0  0  0999 V2000
  -16.2160   -0.5920   -4.0890 C   0  0  0  0  0  0  0  0  0  0  0  0
  -15.6260   -1.1490   -2.8040 C   0  0  0  0  0  0  0  0  0  0  0  0
  -15.6330   -0.4870   -1.7720 O   0  0  0  0  0  0  0  0  0  0  0  0
  -15.1240   -2.4200   -2.9780 N   0  0  0  0  0  0  0  0  0  0  0  0
  -13.9660   -2.6270   -3.6630 C   0  0  0  0  0  0  0  0  0  0  0  0
  -13.2370   -3.9370   -3.8970 C   0  0  0  0  0  0  0  0  0  0  0  0
  -11.9560   -3.7390   -4.7160 C   0  0  0  0  0  0  0  0  0  0  0  0
  -11.5850   -2.4960   -5.1520 C   0  0  0  0  0  0  0  0  0  0  0  0
  -10.3540   -2.1740   -5.9430 C   0  0  0  0  0  0  0  0  0  0  0  0
  -10.3680   -2.5600   -7.3160 N   0  0  0  0  0  0  0  0  0  0  0  0
   -9.9490   -3.8090   -7.2890 C   0  0  0  0  0  0  0  0  0  0  0  0
  -10.7750   -4.6070   -6.6170 N   0  0  0  0  0  0  0  0  0  0  0  0
  -10.4140   -5.8940   -6.3900 C   0  0  0  0  0  0  0  0  0  0  0  0
   -9.2610   -6.4140   -6.8040 C   0  0  0  0  0  0  0  0  0  0  0  0
   -8.4040   -5.6170   -7.5210 N   0  0  0  0  0  0  0  0  0  0  0  0
   -7.2040   -5.8320   -8.0950 C   0  0  0  0  0  0  0  0  0  0  0  0
   -6.8020   -4.7340   -8.6770 N   0  0  0  0  0  0  0  0  0  0  0  0
   -7.7520   -3.7570   -8.4900 N   0  0  0  0  0  0  0  0  0  0  0  0
   -8.7040   -4.3190   -7.7910 C   0  0  0  0  0  0  0  0  0  0  0  0
  -12.3340   -1.3770   -4.8790 C   0  0  0  0  0  0  0  0  0  0  0  0
  -13.4830   -1.4360   -4.1610 C   0  0  0  0  0  0  0  0  0  0  0  0
  1  2  1  0
  2  3  2  0
  2  4  1  0
  4  5  1  0
  5  6  2  0
  6  7  1  0
  7  8  2  0
  8  9  1  0
  9 10  1  0
 10 11  1  0
 11 12  2  0
 12 13  1  0
 13 14  2  0
 14 15  1  0
 15 16  1  0
 16 17  2  0
 17 18  1  0
 18 19  2  0
  8 20  1  0
 20 21  2  0
 21  5  1  0
 19 11  1  0
 19 15  1  0
A    1
 C1 
A    2
 C2 
A    3
 O1 
A    4
 N1 
A    5
 C3 
A    6
 C4 
A    7
 C5 
A    8
 C6 
A    9
 C7 
A   10
 N2 
A   11
 C8 
A   12
 N3 
A   13
 C9 
A   14
 C10
A   15
 N4 
A   16
 C11
A   17
 N5 
A   18
 N6 
A   19
 C12
A   20
 C13
A   21
 C14
M  END
>  <ref_url>  (36) 
https://github.com/stephwills/fragment_network_merges

>  <submitter_name>  (36) 
Steph Wills

>  <submitter_institution>  (36) 
University of Oxford

>  <submitter_email>  (36) 
stephanie.wills@balliol.ox.ac.uk

>  <generation_date>  (36) 
2023-07-04

>  <original SMILES>  (36) 
CC(=O)NC12CCCCC1N(C(=O)Cc1ccc(=O)[nH]c1)CC2

>  <ref_mols>  (36) 
x0147_0A,x0980_0B

>  <SuCOS_score>  (36) 
0.6448780867210412

>  <cmpd_id>  (36) 
ENAMINE:Z1281717213

>  <method>  (36) 
fragnetv2_named

>  <ref_pdb>  (36) 
x0147_0A

$$$$
x0147-0A-x0980-0B-1130_p
     RDKit          3D

 18 20  0  0  0  0  0  0  0  0999 V2000
  -14.1710   -0.8110   -3.1430 O   0  0  0  0  0  0  0  0  0  0  0  0
  -14.0050   -1.9450   -3.5460 C   0  0  0  0  0  0  0  0  0  0  0  0
  -14.3630   -2.9610   -3.1890 C   0  0  0  0  0  0  0  0  0  0  0  0
  -14.3550   -4.3080   -3.5680 C   0  0  0  0  0  0  0  0  0  0  0  0
  -13.7030   -3.8500   -4.8890 C   0  0  0  0  0  0  0  0  0  0  0  0
  -13.3040   -2.4710   -4.6300 N   0  0  0  0  0  0  0  0  0  0  0  0
  -12.0390   -2.0770   -4.8550 C   0  0  0  0  0  0  0  0  0  0  0  0
  -11.1520   -3.2480   -4.9590 C   0  0  0  0  0  0  0  0  0  0  0  0
  -10.8130   -3.4250   -6.3480 N   0  0  0  0  0  0  0  0  0  0  0  0
  -10.0460   -4.4800   -6.5800 C   0  0  0  0  0  0  0  0  0  0  0  0
  -10.5050   -5.4730   -5.9190 N   0  0  0  0  0  0  0  0  0  0  0  0
   -9.8550   -6.6360   -5.9500 C   0  0  0  0  0  0  0  0  0  0  0  0
   -8.6000   -6.7830   -6.7470 C   0  0  0  0  0  0  0  0  0  0  0  0
   -8.1410   -5.7250   -7.4520 N   0  0  0  0  0  0  0  0  0  0  0  0
   -7.0800   -5.5320   -8.2610 C   0  0  0  0  0  0  0  0  0  0  0  0
   -7.0950   -4.3020   -8.7060 N   0  0  0  0  0  0  0  0  0  0  0  0
   -8.2070   -3.6660   -8.1710 N   0  0  0  0  0  0  0  0  0  0  0  0
   -8.8220   -4.5470   -7.4120 C   0  0  0  0  0  0  0  0  0  0  0  0
  1  2  2  0
  2  3  1  0
  3  4  1  0
  4  5  1  0
  5  6  1  0
  6  7  1  0
  7  8  1  0
  8  9  1  0
  9 10  1  0
 10 11  2  0
 11 12  1  0
 12 13  2  0
 13 14  1  0
 14 15  1  0
 15 16  2  0
 16 17  1  0
 17 18  2  0
  6  2  1  0
 18 10  1  0
 18 14  1  0
A    1
 O1 
A    2
 C1 
A    3
 C2 
A    4
 C3 
A    5
 C4 
A    6
 N1 
A    7
 C5 
A    8
 C6 
A    9
 N2 
A   10
 C7 
A   11
 N3 
A   12
 C8 
A   13
 C9 
A   14
 N4 
A   15
 C10
A   16
 N5 
A   17
 N6 
A   18
 C11
M  END
>  <ref_url>  (37) 
https://github.com/stephwills/fragment_network_merges

>  <submitter_name>  (37) 
Steph Wills

>  <submitter_institution>  (37) 
University of Oxford

>  <submitter_email>  (37) 
stephanie.wills@balliol.ox.ac.uk

>  <generation_date>  (37) 
2023-07-04

>  <original SMILES>  (37) 
CC(=O)NC12CCCCC1N(C(=O)Cc1ccc(=O)[nH]c1)CC2

>  <ref_mols>  (37) 
x0147_0A,x0980_0B

>  <SuCOS_score>  (37) 
0.5962774721246235

>  <cmpd_id>  (37) 
ENAMINE:Z2479613606

>  <method>  (37) 
fragnetv2_named

>  <ref_pdb>  (37) 
x0147_0A

$$$$
x0771-0A-x0980-0B-539_p
     RDKit          3D

 23 26  0  0  0  0  0  0  0  0999 V2000
  -12.5790   -8.4230   -5.3950 O   0  0  0  0  0  0  0  0  0  0  0  0
  -12.6890   -7.3860   -4.7380 C   0  0  0  0  0  0  0  0  0  0  0  0
  -13.8780   -7.1560   -3.8690 C   0  0  0  0  0  0  0  0  0  0  0  0
  -14.1830   -5.9510   -3.3750 C   0  0  0  0  0  0  0  0  0  0  0  0
  -13.4630   -4.7700   -3.7920 C   0  0  0  0  0  0  0  0  0  0  0  0
  -13.8890   -3.5130   -3.5690 C   0  0  0  0  0  0  0  0  0  0  0  0
  -13.1490   -2.2990   -4.0000 C   0  0  0  0  0  0  0  0  0  0  0  0
  -11.9540   -2.5030   -4.6690 C   0  0  0  0  0  0  0  0  0  0  0  0
  -11.5020   -3.8210   -4.9060 C   0  0  0  0  0  0  0  0  0  0  0  0
  -12.2270   -4.9680   -4.4830 C   0  0  0  0  0  0  0  0  0  0  0  0
  -11.7650   -6.3410   -4.7280 N   0  0  0  0  0  0  0  0  0  0  0  0
  -10.3750   -6.6530   -5.1950 C   0  0  0  0  0  0  0  0  0  0  0  0
   -9.8730   -8.1330   -5.0540 C   0  0  0  0  0  0  0  0  0  0  0  0
  -10.6200   -9.0380   -4.6760 O   0  0  0  0  0  0  0  0  0  0  0  0
   -8.5190   -8.4460   -5.3720 N   0  0  0  0  0  0  0  0  0  0  0  0
   -8.2240   -9.6220   -6.2230 C   0  0  0  0  0  0  0  0  0  0  0  0
   -7.2190   -9.0930   -7.2490 C   0  0  0  0  0  0  0  0  0  0  0  0
   -7.4980   -7.6100   -7.0970 C   0  0  0  0  0  0  0  0  0  0  0  0
   -6.7390   -6.5830   -7.8850 C   0  0  0  0  0  0  0  0  0  0  0  0
   -7.3610   -5.2140   -7.6440 C   0  0  0  0  0  0  0  0  0  0  0  0
   -8.1130   -5.1130   -6.3030 C   0  0  0  0  0  0  0  0  0  0  0  0
   -7.6680   -6.0690   -5.1770 C   0  0  0  0  0  0  0  0  0  0  0  0
   -7.4260   -7.5060   -5.6200 C   0  0  0  0  0  0  0  0  0  0  0  0
  1  2  2  0
  2  3  1  0
  3  4  1  0
  4  5  1  0
  5  6  2  0
  6  7  1  0
  7  8  2  0
  8  9  1  0
  9 10  2  0
 10 11  1  0
 11 12  1  0
 12 13  1  0
 13 14  2  0
 13 15  1  0
 15 16  1  0
 16 17  1  0
 17 18  1  0
 18 19  1  0
 19 20  1  0
 20 21  1  0
 21 22  1  0
 22 23  1  0
 11  2  1  0
 23 15  1  0
 10  5  1  0
 23 18  1  0
A    1
 O1 
A    2
 C1 
A    3
 C2 
A    4
 C3 
A    5
 C4 
A    6
 C5 
A    7
 C6 
A    8
 C7 
A    9
 C8 
A   10
 C9 
A   11
 N1 
A   12
 C10
A   13
 C11
A   14
 O2 
A   15
 N2 
A   16
 C12
A   17
 C13
A   18
 C14
A   19
 C15
A   20
 C16
A   21
 C17
A   22
 C18
A   23
 C19
M  END
>  <ref_url>  (38) 
https://github.com/stephwills/fragment_network_merges

>  <submitter_name>  (38) 
Steph Wills

>  <submitter_institution>  (38) 
University of Oxford

>  <submitter_email>  (38) 
stephanie.wills@balliol.ox.ac.uk

>  <generation_date>  (38) 
2023-07-04

>  <original SMILES>  (38) 
CC(=O)NC12CCCCC1N(C(=O)Cc1ccc(=O)[nH]c1)CC2

>  <ref_mols>  (38) 
x0771_0A,x0980_0B

>  <SuCOS_score>  (38) 
0.4022708794391422

>  <cmpd_id>  (38) 
ENAMINE:Z1174334165

>  <method>  (38) 
fragnetv2_named

>  <ref_pdb>  (38) 
x0771_0A

$$$$
x0771-0A-x0980-0B-941_p
     RDKit          3D

 22 25  0  0  0  0  0  0  0  0999 V2000
   -9.4220   -9.0870   -3.5130 O   0  0  0  0  0  0  0  0  0  0  0  0
   -9.6870   -8.6360   -4.6250 C   0  0  0  0  0  0  0  0  0  0  0  0
  -11.0700   -8.2650   -4.9850 N   0  0  0  0  0  0  0  0  0  0  0  0
  -11.7000   -7.1260   -4.2900 C   0  0  0  0  0  0  0  0  0  0  0  0
  -13.2350   -7.2060   -4.1700 C   0  0  0  0  0  0  0  0  0  0  0  0
  -13.7980   -6.0360   -3.4510 N   0  0  0  0  0  0  0  0  0  0  0  0
  -13.3120   -4.7640   -3.8250 C   0  0  0  0  0  0  0  0  0  0  0  0
  -14.0220   -3.4930   -3.4110 C   0  0  0  0  0  0  0  0  0  0  0  0
  -13.5080   -2.2520   -3.7990 C   0  0  0  0  0  0  0  0  0  0  0  0
  -12.3420   -2.1870   -4.5650 C   0  0  0  0  0  0  0  0  0  0  0  0
  -11.6790   -3.3550   -4.9540 C   0  0  0  0  0  0  0  0  0  0  0  0
  -12.1530   -4.6300   -4.5920 C   0  0  0  0  0  0  0  0  0  0  0  0
  -11.3790   -5.8410   -5.0540 C   0  0  0  0  0  0  0  0  0  0  0  0
   -8.7020   -8.4590   -5.5960 N   0  0  0  0  0  0  0  0  0  0  0  0
   -8.3710   -9.5740   -6.4580 C   0  0  0  0  0  0  0  0  0  0  0  0
   -7.1450   -9.1370   -7.2610 C   0  0  0  0  0  0  0  0  0  0  0  0
   -6.7540   -7.7320   -6.8110 C   0  0  0  0  0  0  0  0  0  0  0  0
   -6.8760   -6.6800   -7.9320 C   0  0  0  0  0  0  0  0  0  0  0  0
   -7.6110   -5.3790   -7.5880 C   0  0  0  0  0  0  0  0  0  0  0  0
   -8.5540   -5.4430   -6.3980 C   0  0  0  0  0  0  0  0  0  0  0  0
   -7.9210   -6.1090   -5.1980 C   0  0  0  0  0  0  0  0  0  0  0  0
   -7.5530   -7.5540   -5.5070 C   0  0  0  0  0  0  0  0  0  0  0  0
  1  2  2  0
  2  3  1  0
  3  4  1  0
  4  5  1  0
  5  6  1  0
  6  7  1  0
  7  8  2  0
  8  9  1  0
  9 10  2  0
 10 11  1  0
 11 12  2  0
 12 13  1  0
  2 14  1  0
 14 15  1  0
 15 16  1  0
 16 17  1  0
 17 18  1  0
 18 19  1  0
 19 20  1  0
 20 21  1  0
 21 22  1  0
 13  4  1  0
 22 14  1  0
 12  7  1  0
 22 17  1  0
A    1
 O1 
A    2
 C1 
A    3
 N1 
A    4
 C2 
A    5
 C3 
A    6
 N2 
A    7
 C4 
A    8
 C5 
A    9
 C6 
A   10
 C7 
A   11
 C8 
A   12
 C9 
A   13
 C10
A   14
 N3 
A   15
 C11
A   16
 C12
A   17
 C13
A   18
 C14
A   19
 C15
A   20
 C16
A   21
 C17
A   22
 C18
M  END
>  <ref_url>  (39) 
https://github.com/stephwills/fragment_network_merges

>  <submitter_name>  (39) 
Steph Wills

>  <submitter_institution>  (39) 
University of Oxford

>  <submitter_email>  (39) 
stephanie.wills@balliol.ox.ac.uk

>  <generation_date>  (39) 
2023-07-04

>  <original SMILES>  (39) 
CC(=O)NC12CCCCC1N(C(=O)Cc1ccc(=O)[nH]c1)CC2

>  <ref_mols>  (39) 
x0771_0A,x0980_0B

>  <SuCOS_score>  (39) 
0.4029805428693562

>  <cmpd_id>  (39) 
ENAMINE:Z2482529073

>  <method>  (39) 
fragnetv2_named

>  <ref_pdb>  (39) 
x0771_0A

$$$$
x0771-0A-x0980-0B-576_p
     RDKit          3D

 28 31  0  0  0  0  0  0  0  0999 V2000
   -6.6820  -12.3700   -4.8630 C   0  0  0  0  0  0  0  0  0  0  0  0
   -7.3290  -11.1090   -5.0360 O   0  0  0  0  0  0  0  0  0  0  0  0
   -8.0850  -11.0550   -6.1730 C   0  0  0  0  0  0  0  0  0  0  0  0
   -8.6590  -12.0170   -6.6810 O   0  0  0  0  0  0  0  0  0  0  0  0
   -8.1280   -9.6280   -6.7570 C   0  0  0  0  0  0  0  0  0  0  0  0
   -6.7890   -9.0890   -7.1590 C   0  0  0  0  0  0  0  0  0  0  0  0
   -6.6270   -7.6470   -6.7690 C   0  0  0  0  0  0  0  0  0  0  0  0
   -6.8520   -6.7010   -7.9520 C   0  0  0  0  0  0  0  0  0  0  0  0
   -7.5640   -5.3890   -7.6060 C   0  0  0  0  0  0  0  0  0  0  0  0
   -8.5020   -5.4750   -6.4140 C   0  0  0  0  0  0  0  0  0  0  0  0
   -7.8750   -6.1580   -5.2060 C   0  0  0  0  0  0  0  0  0  0  0  0
   -7.5460   -7.6040   -5.5280 C   0  0  0  0  0  0  0  0  0  0  0  0
   -8.5880   -8.6080   -5.7930 N   0  0  0  0  0  0  0  0  0  0  0  0
   -9.9010   -8.7130   -5.3520 C   0  0  0  0  0  0  0  0  0  0  0  0
  -10.5940   -9.6590   -5.7310 O   0  0  0  0  0  0  0  0  0  0  0  0
  -10.4470   -7.6560   -4.4070 C   0  0  0  0  0  0  0  0  0  0  0  0
  -10.9050   -6.5320   -4.9930 C   0  0  0  0  0  0  0  0  0  0  0  0
  -12.2510   -6.0990   -4.5910 N   0  0  0  0  0  0  0  0  0  0  0  0
  -13.1860   -7.1020   -4.2970 C   0  0  0  0  0  0  0  0  0  0  0  0
  -13.4690   -8.0220   -5.0700 O   0  0  0  0  0  0  0  0  0  0  0  0
  -13.7880   -7.0150   -3.1050 C   0  0  0  0  0  0  0  0  0  0  0  0
  -14.8650   -5.5800   -3.0030 S   0  0  0  0  0  0  0  0  0  0  0  0
  -13.7380   -4.3670   -3.6670 C   0  0  0  0  0  0  0  0  0  0  0  0
  -14.0730   -3.0210   -3.4490 C   0  0  0  0  0  0  0  0  0  0  0  0
  -13.2590   -1.9980   -3.9290 C   0  0  0  0  0  0  0  0  0  0  0  0
  -12.1040   -2.3160   -4.6300 C   0  0  0  0  0  0  0  0  0  0  0  0
  -11.7650   -3.6570   -4.8510 C   0  0  0  0  0  0  0  0  0  0  0  0
  -12.5730   -4.7120   -4.3760 C   0  0  0  0  0  0  0  0  0  0  0  0
  1  2  1  0
  2  3  1  0
  3  4  2  0
  3  5  1  0
  5  6  1  0
  6  7  1  0
  7  8  1  0
  8  9  1  0
  9 10  1  0
 10 11  1  0
 11 12  1  0
 12 13  1  0
 13 14  1  0
 14 15  2  0
 14 16  1  0
 16 17  1  0
 17 18  1  0
 18 19  1  0
 19 20  2  0
 19 21  1  0
 21 22  1  0
 22 23  1  0
 23 24  2  0
 24 25  1  0
 25 26  2  0
 26 27  1  0
 27 28  2  0
 13  5  1  0
 28 18  1  0
 12  7  1  0
 28 23  1  0
A    1
 C1 
A    2
 O1 
A    3
 C2 
A    4
 O2 
A    5
 C3 
A    6
 C4 
A    7
 C5 
A    8
 C6 
A    9
 C7 
A   10
 C8 
A   11
 C9 
A   12
 C10
A   13
 N1 
A   14
 C11
A   15
 O3 
A   16
 C12
A   17
 C13
A   18
 N2 
A   19
 C14
A   20
 O4 
A   21
 C15
A   22
 S1 
A   23
 C16
A   24
 C17
A   25
 C18
A   26
 C19
A   27
 C20
A   28
 C21
M  END
>  <ref_url>  (40) 
https://github.com/stephwills/fragment_network_merges

>  <submitter_name>  (40) 
Steph Wills

>  <submitter_institution>  (40) 
University of Oxford

>  <submitter_email>  (40) 
stephanie.wills@balliol.ox.ac.uk

>  <generation_date>  (40) 
2023-07-04

>  <original SMILES>  (40) 
CC(=O)NC12CCCCC1N(C(=O)Cc1ccc(=O)[nH]c1)CC2

>  <ref_mols>  (40) 
x0771_0A,x0980_0B

>  <SuCOS_score>  (40) 
0.4092075294865781

>  <cmpd_id>  (40) 
MOLPORT:009-462-913

>  <method>  (40) 
fragnetv2_named

>  <ref_pdb>  (40) 
x0771_0A

$$$$
x0980-0B-x0771-0A-1159_p
     RDKit          3D

 25 27  0  0  0  0  0  0  0  0999 V2000
  -12.3670   -5.9260   -4.8460 C   0  0  0  0  0  0  0  0  0  0  0  0
  -12.7450   -4.5170   -4.4700 C   0  0  0  0  0  0  0  0  0  0  0  0
  -13.3950   -4.2810   -3.2540 C   0  0  0  0  0  0  0  0  0  0  0  0
  -13.7570   -2.9810   -2.8900 C   0  0  0  0  0  0  0  0  0  0  0  0
  -13.4650   -1.9140   -3.7350 C   0  0  0  0  0  0  0  0  0  0  0  0
  -13.8140   -0.6750   -3.3800 F   0  0  0  0  0  0  0  0  0  0  0  0
  -12.8230   -2.1160   -4.9390 C   0  0  0  0  0  0  0  0  0  0  0  0
  -12.4730   -3.4130   -5.3000 C   0  0  0  0  0  0  0  0  0  0  0  0
  -11.8180   -3.5780   -6.5960 C   0  0  0  0  0  0  0  0  0  0  0  0
  -12.0500   -4.5850   -7.2240 O   0  0  0  0  0  0  0  0  0  0  0  0
  -10.9720   -2.6000   -7.0220 N   0  0  0  0  0  0  0  0  0  0  0  0
   -9.7470   -3.1270   -7.5800 C   0  0  0  0  0  0  0  0  0  0  0  0
   -8.9350   -2.0970   -8.3600 C   0  0  0  0  0  0  0  0  0  0  0  0
   -9.0030   -3.8640   -6.4620 C   0  0  0  0  0  0  0  0  0  0  0  0
   -8.8400   -5.2290   -6.8350 N   0  0  0  0  0  0  0  0  0  0  0  0
   -8.2690   -5.2070   -8.0560 N   0  0  0  0  0  0  0  0  0  0  0  0
   -7.2320   -5.8970   -8.2350 C   0  0  0  0  0  0  0  0  0  0  0  0
   -6.6610   -6.6930   -7.2300 C   0  0  0  0  0  0  0  0  0  0  0  0
   -5.4850   -7.2330   -7.5130 C   0  0  0  0  0  0  0  0  0  0  0  0
   -4.8970   -8.0040   -6.5650 C   0  0  0  0  0  0  0  0  0  0  0  0
   -5.5190   -8.2490   -5.3320 C   0  0  0  0  0  0  0  0  0  0  0  0
   -6.7460   -7.6770   -5.0610 C   0  0  0  0  0  0  0  0  0  0  0  0
   -7.3050   -6.8770   -6.0400 C   0  0  0  0  0  0  0  0  0  0  0  0
   -8.5650   -6.1920   -5.8710 C   0  0  0  0  0  0  0  0  0  0  0  0
   -9.2670   -6.4570   -4.9270 O   0  0  0  0  0  0  0  0  0  0  0  0
  1  2  1  0
  2  3  2  0
  3  4  1  0
  4  5  2  0
  5  6  1  0
  5  7  1  0
  7  8  2  0
  8  9  1  0
  9 10  2  0
  9 11  1  0
 11 12  1  0
 12 13  1  0
 12 14  1  0
 14 15  1  0
 15 16  1  0
 16 17  2  0
 17 18  1  0
 18 19  2  0
 19 20  1  0
 20 21  2  0
 21 22  1  0
 22 23  2  0
 23 24  1  0
 24 25  2  0
  8  2  1  0
 24 15  1  0
 23 18  1  0
A    1
 C1 
A    2
 C2 
A    3
 C3 
A    4
 C4 
A    5
 C5 
A    6
 F1 
A    7
 C6 
A    8
 C7 
A    9
 C8 
A   10
 O1 
A   11
 N1 
A   12
 C9 
A   13
 C10
A   14
 C11
A   15
 N2 
A   16
 N3 
A   17
 C12
A   18
 C13
A   19
 C14
A   20
 C15
A   21
 C16
A   22
 C17
A   23
 C18
A   24
 C19
A   25
 O2 
M  END
>  <ref_url>  (41) 
https://github.com/stephwills/fragment_network_merges

>  <submitter_name>  (41) 
Steph Wills

>  <submitter_institution>  (41) 
University of Oxford

>  <submitter_email>  (41) 
stephanie.wills@balliol.ox.ac.uk

>  <generation_date>  (41) 
2023-07-04

>  <original SMILES>  (41) 
CC(=O)NC12CCCCC1N(C(=O)Cc1ccc(=O)[nH]c1)CC2

>  <ref_mols>  (41) 
x0980_0B,x0771_0A

>  <SuCOS_score>  (41) 
0.4001555258084893

>  <cmpd_id>  (41) 
ENAMINE:Z1545558291

>  <method>  (41) 
fragnetv2_named

>  <ref_pdb>  (41) 
x0980_0B

$$$$
x0980-0B-x0771-0A-1460_p
     RDKit          3D

 22 22  0  0  0  0  0  0  0  0999 V2000
  -11.7850   -5.5710   -5.2190 C   0  0  0  0  0  0  0  0  0  0  0  0
  -12.4120   -4.3030   -4.7010 C   0  0  0  0  0  0  0  0  0  0  0  0
  -13.4600   -4.4070   -3.7650 C   0  0  0  0  0  0  0  0  0  0  0  0
  -14.0760   -3.2610   -3.2560 C   0  0  0  0  0  0  0  0  0  0  0  0
  -15.4810   -3.4390   -2.0040 Br  0  0  0  0  0  0  0  0  0  0  0  0
  -13.6520   -2.0070   -3.6740 C   0  0  0  0  0  0  0  0  0  0  0  0
  -14.2220   -0.8890   -3.2060 F   0  0  0  0  0  0  0  0  0  0  0  0
  -12.6250   -1.8830   -4.5920 C   0  0  0  0  0  0  0  0  0  0  0  0
  -11.9900   -3.0130   -5.1210 C   0  0  0  0  0  0  0  0  0  0  0  0
  -10.8940   -2.7310   -6.1160 C   0  0  0  0  0  0  0  0  0  0  0  0
  -10.0400   -3.8570   -6.3830 N   0  0  0  0  0  0  0  0  0  0  0  0
   -9.3100   -3.8020   -7.5460 C   0  0  0  0  0  0  0  0  0  0  0  0
   -9.8090   -3.4040   -8.5950 O   0  0  0  0  0  0  0  0  0  0  0  0
   -7.8660   -4.2240   -7.4030 C   0  0  0  0  0  0  0  0  0  0  0  0
   -7.6170   -5.6130   -7.9330 C   0  0  0  0  0  0  0  0  0  0  0  0
   -7.2300   -6.5360   -6.8070 C   0  0  0  0  0  0  0  0  0  0  0  0
   -5.8840   -7.2070   -7.0060 C   0  0  0  0  0  0  0  0  0  0  0  0
   -5.4350   -7.9690   -5.7420 C   0  0  0  0  0  0  0  0  0  0  0  0
   -6.5070   -8.5350   -4.9150 N   0  0  0  0  0  0  0  0  0  0  0  0
   -7.7970   -8.0910   -4.9270 C   0  0  0  0  0  0  0  0  0  0  0  0
   -7.9180   -6.8670   -4.3610 N   0  0  0  0  0  0  0  0  0  0  0  0
   -8.7630   -8.7010   -5.3570 O   0  0  0  0  0  0  0  0  0  0  0  0
  1  2  1  0
  2  3  2  0
  3  4  1  0
  4  5  1  0
  4  6  2  0
  6  7  1  0
  6  8  1  0
  8  9  2  0
  9 10  1  0
 10 11  1  0
 11 12  1  0
 12 13  2  0
 12 14  1  0
 14 15  1  0
 15 16  1  0
 16 17  1  0
 17 18  1  0
 18 19  1  0
 19 20  1  0
 20 21  1  0
 20 22  2  0
  9  2  1  0
A    1
 C1 
A    2
 C2 
A    3
 C3 
A    4
 C4 
A    5
BR1 
A    6
 C5 
A    7
 F1 
A    8
 C6 
A    9
 C7 
A   10
 C8 
A   11
 N1 
A   12
 C9 
A   13
 O1 
A   14
 C10
A   15
 C11
A   16
 C12
A   17
 C13
A   18
 C14
A   19
 N2 
A   20
 C15
A   21
 N3 
A   22
 O2 
M  END
>  <ref_url>  (42) 
https://github.com/stephwills/fragment_network_merges

>  <submitter_name>  (42) 
Steph Wills

>  <submitter_institution>  (42) 
University of Oxford

>  <submitter_email>  (42) 
stephanie.wills@balliol.ox.ac.uk

>  <generation_date>  (42) 
2023-07-04

>  <original SMILES>  (42) 
CC(=O)NC12CCCCC1N(C(=O)Cc1ccc(=O)[nH]c1)CC2

>  <ref_mols>  (42) 
x0980_0B,x0771_0A

>  <SuCOS_score>  (42) 
0.40074314764739627

>  <cmpd_id>  (42) 
ENAMINE:Z2846595873

>  <method>  (42) 
fragnetv2_named

>  <ref_pdb>  (42) 
x0980_0B

$$$$
x0980-0B-x0771-0A-2184_p
     RDKit          3D

 21 22  0  0  0  0  0  0  0  0999 V2000
  -12.0880   -5.9270   -5.0510 C   0  0  0  0  0  0  0  0  0  0  0  0
  -12.5870   -4.5650   -4.6430 C   0  0  0  0  0  0  0  0  0  0  0  0
  -13.5750   -4.4170   -3.6480 C   0  0  0  0  0  0  0  0  0  0  0  0
  -14.3450   -5.9100   -2.7520 Br  0  0  0  0  0  0  0  0  0  0  0  0
  -14.0370   -3.1510   -3.2730 C   0  0  0  0  0  0  0  0  0  0  0  0
  -13.5160   -2.0200   -3.8850 C   0  0  0  0  0  0  0  0  0  0  0  0
  -13.9610   -0.8110   -3.5240 F   0  0  0  0  0  0  0  0  0  0  0  0
  -12.5480   -2.1220   -4.8650 C   0  0  0  0  0  0  0  0  0  0  0  0
  -12.0860   -3.3840   -5.2450 C   0  0  0  0  0  0  0  0  0  0  0  0
  -11.0590   -3.3660   -6.3080 C   0  0  0  0  0  0  0  0  0  0  0  0
  -11.3860   -3.4540   -7.4850 O   0  0  0  0  0  0  0  0  0  0  0  0
   -9.7720   -3.2370   -5.8690 N   0  0  0  0  0  0  0  0  0  0  0  0
   -8.6350   -3.6120   -6.6760 C   0  0  0  0  0  0  0  0  0  0  0  0
   -8.8450   -4.8170   -7.5200 C   0  0  0  0  0  0  0  0  0  0  0  0
   -7.5860   -5.6350   -7.7250 C   0  0  0  0  0  0  0  0  0  0  0  0
   -7.6150   -6.7040   -6.7170 C   0  0  0  0  0  0  0  0  0  0  0  0
   -6.6080   -7.2140   -6.0380 C   0  0  0  0  0  0  0  0  0  0  0  0
   -7.2850   -8.1260   -5.1170 C   0  0  0  0  0  0  0  0  0  0  0  0
   -6.8740   -8.4340   -4.0430 O   0  0  0  0  0  0  0  0  0  0  0  0
   -8.4630   -8.4800   -5.6940 N   0  0  0  0  0  0  0  0  0  0  0  0
   -8.8120   -7.3130   -6.3490 N   0  0  0  0  0  0  0  0  0  0  0  0
  1  2  1  0
  2  3  2  0
  3  4  1  0
  3  5  1  0
  5  6  2  0
  6  7  1  0
  6  8  1  0
  8  9  2  0
  9 10  1  0
 10 11  2  0
 10 12  1  0
 12 13  1  0
 13 14  1  0
 14 15  1  0
 15 16  1  0
 16 17  2  0
 17 18  1  0
 18 19  2  0
 18 20  1  0
 20 21  1  0
  9  2  1  0
 21 16  1  0
A    1
 C1 
A    2
 C2 
A    3
 C3 
A    4
BR1 
A    5
 C4 
A    6
 C5 
A    7
 F1 
A    8
 C6 
A    9
 C7 
A   10
 C8 
A   11
 O1 
A   12
 N1 
A   13
 C9 
A   14
 C10
A   15
 C11
A   16
 C12
A   17
 C13
A   18
 C14
A   19
 O2 
A   20
 N2 
A   21
 N3 
M  END
>  <ref_url>  (43) 
https://github.com/stephwills/fragment_network_merges

>  <submitter_name>  (43) 
Steph Wills

>  <submitter_institution>  (43) 
University of Oxford

>  <submitter_email>  (43) 
stephanie.wills@balliol.ox.ac.uk

>  <generation_date>  (43) 
2023-07-04

>  <original SMILES>  (43) 
CC(=O)NC12CCCCC1N(C(=O)Cc1ccc(=O)[nH]c1)CC2

>  <ref_mols>  (43) 
x0980_0B,x0771_0A

>  <SuCOS_score>  (43) 
0.40167352656085786

>  <cmpd_id>  (43) 
ENAMINE:Z4182497703

>  <method>  (43) 
fragnetv2_named

>  <ref_pdb>  (43) 
x0980_0B

$$$$
x0980-0B-x0771-0A-2394_p
     RDKit          3D

 23 25  0  0  0  0  0  0  0  0999 V2000
  -12.4740   -6.5100   -4.2400 C   0  0  0  0  0  0  0  0  0  0  0  0
  -12.7550   -5.0430   -4.1870 C   0  0  0  0  0  0  0  0  0  0  0  0
  -13.7570   -4.4990   -3.3750 C   0  0  0  0  0  0  0  0  0  0  0  0
  -13.9780   -3.1180   -3.3660 C   0  0  0  0  0  0  0  0  0  0  0  0
  -13.2010   -2.2820   -4.1690 C   0  0  0  0  0  0  0  0  0  0  0  0
  -13.4610   -0.9630   -4.1200 F   0  0  0  0  0  0  0  0  0  0  0  0
  -12.1970   -2.8370   -4.9840 C   0  0  0  0  0  0  0  0  0  0  0  0
  -11.2790   -2.1520   -5.9080 C   0  0  0  0  0  0  0  0  0  0  0  0
  -11.6190   -1.1080   -6.4220 O   0  0  0  0  0  0  0  0  0  0  0  0
  -10.0810   -2.7970   -6.1600 N   0  0  0  0  0  0  0  0  0  0  0  0
   -9.9280   -3.6570   -7.3260 C   0  0  0  0  0  0  0  0  0  0  0  0
   -8.7860   -4.6140   -7.3160 C   0  0  0  0  0  0  0  0  0  0  0  0
   -7.7540   -4.4580   -8.2080 C   0  0  0  0  0  0  0  0  0  0  0  0
   -6.7180   -5.3570   -8.1890 C   0  0  0  0  0  0  0  0  0  0  0  0
   -6.6710   -6.3990   -7.2940 C   0  0  0  0  0  0  0  0  0  0  0  0
   -7.7100   -6.5480   -6.4140 C   0  0  0  0  0  0  0  0  0  0  0  0
   -8.7560   -5.6660   -6.4290 C   0  0  0  0  0  0  0  0  0  0  0  0
   -7.7620   -7.6170   -5.4220 C   0  0  0  0  0  0  0  0  0  0  0  0
   -8.7890   -7.8790   -4.8470 O   0  0  0  0  0  0  0  0  0  0  0  0
   -6.6150   -8.2770   -5.1530 N   0  0  0  0  0  0  0  0  0  0  0  0
   -5.3980   -8.0130   -5.8920 C   0  0  0  0  0  0  0  0  0  0  0  0
   -5.5190   -7.3330   -7.2740 C   0  0  0  0  0  0  0  0  0  0  0  0
  -11.9950   -4.2040   -4.9730 C   0  0  0  0  0  0  0  0  0  0  0  0
  1  2  1  0
  2  3  2  0
  3  4  1  0
  4  5  2  0
  5  6  1  0
  5  7  1  0
  7  8  1  0
  8  9  2  0
  8 10  1  0
 10 11  1  0
 11 12  1  0
 12 13  2  0
 13 14  1  0
 14 15  2  0
 15 16  1  0
 16 17  2  0
 16 18  1  0
 18 19  2  0
 18 20  1  0
 20 21  1  0
 21 22  1  0
  7 23  2  0
 23  2  1  0
 17 12  1  0
 22 15  1  0
A    1
 C1 
A    2
 C2 
A    3
 C3 
A    4
 C4 
A    5
 C5 
A    6
 F1 
A    7
 C6 
A    8
 C7 
A    9
 O1 
A   10
 N1 
A   11
 C8 
A   12
 C9 
A   13
 C10
A   14
 C11
A   15
 C12
A   16
 C13
A   17
 C14
A   18
 C15
A   19
 O2 
A   20
 N2 
A   21
 C16
A   22
 C17
A   23
 C18
M  END
>  <ref_url>  (44) 
https://github.com/stephwills/fragment_network_merges

>  <submitter_name>  (44) 
Steph Wills

>  <submitter_institution>  (44) 
University of Oxford

>  <submitter_email>  (44) 
stephanie.wills@balliol.ox.ac.uk

>  <generation_date>  (44) 
2023-07-04

>  <original SMILES>  (44) 
CC(=O)NC12CCCCC1N(C(=O)Cc1ccc(=O)[nH]c1)CC2

>  <ref_mols>  (44) 
x0980_0B,x0771_0A

>  <SuCOS_score>  (44) 
0.4020734284658088

>  <cmpd_id>  (44) 
ENAMINE:Z1667251384

>  <method>  (44) 
fragnetv2_named

>  <ref_pdb>  (44) 
x0980_0B

$$$$
x0980-0B-x0771-0A-2875_p
     RDKit          3D

 22 24  0  0  0  0  0  0  0  0999 V2000
  -12.2470   -6.1340   -4.5650 C   0  0  0  0  0  0  0  0  0  0  0  0
  -12.5690   -4.6850   -4.3490 C   0  0  0  0  0  0  0  0  0  0  0  0
  -13.8570   -4.3510   -3.9090 C   0  0  0  0  0  0  0  0  0  0  0  0
  -14.2150   -3.0250   -3.6940 C   0  0  0  0  0  0  0  0  0  0  0  0
  -13.2870   -2.0230   -3.9210 C   0  0  0  0  0  0  0  0  0  0  0  0
  -13.6490   -0.7500   -3.7140 F   0  0  0  0  0  0  0  0  0  0  0  0
  -11.9970   -2.3240   -4.3560 C   0  0  0  0  0  0  0  0  0  0  0  0
  -11.6150   -3.6690   -4.5750 C   0  0  0  0  0  0  0  0  0  0  0  0
  -10.1960   -3.9970   -5.0340 C   0  0  0  0  0  0  0  0  0  0  0  0
   -9.7170   -3.3170   -6.2550 N   0  0  0  0  0  0  0  0  0  0  0  0
  -10.6750   -2.3070   -6.7110 C   0  0  0  0  0  0  0  0  0  0  0  0
   -9.3680   -4.2620   -7.3340 C   0  0  0  0  0  0  0  0  0  0  0  0
   -8.7150   -5.4810   -6.8620 N   0  0  0  0  0  0  0  0  0  0  0  0
   -9.2450   -6.3930   -6.0000 C   0  0  0  0  0  0  0  0  0  0  0  0
  -10.3810   -6.7100   -5.9000 O   0  0  0  0  0  0  0  0  0  0  0  0
   -8.1800   -6.9580   -5.1400 C   0  0  0  0  0  0  0  0  0  0  0  0
   -8.0270   -8.4550   -5.0930 C   0  0  0  0  0  0  0  0  0  0  0  0
   -6.5190   -8.5720   -4.9140 C   0  0  0  0  0  0  0  0  0  0  0  0
   -5.9390   -7.5300   -5.8740 C   0  0  0  0  0  0  0  0  0  0  0  0
   -6.9590   -6.4130   -5.8040 C   0  0  0  0  0  0  0  0  0  0  0  0
   -7.4290   -5.8040   -7.0990 C   0  0  0  0  0  0  0  0  0  0  0  0
   -6.7730   -5.6280   -8.1040 O   0  0  0  0  0  0  0  0  0  0  0  0
  1  2  1  0
  2  3  2  0
  3  4  1  0
  4  5  2  0
  5  6  1  0
  5  7  1  0
  7  8  2  0
  8  9  1  0
  9 10  1  0
 10 11  1  0
 10 12  1  0
 12 13  1  0
 13 14  1  0
 14 15  2  0
 14 16  1  0
 16 17  1  0
 17 18  1  0
 18 19  1  0
 19 20  1  0
 20 21  1  0
 21 22  2  0
  8  2  1  0
 21 13  1  0
 20 16  1  0
A    1
 C1 
A    2
 C2 
A    3
 C3 
A    4
 C4 
A    5
 C5 
A    6
 F1 
A    7
 C6 
A    8
 C7 
A    9
 C8 
A   10
 N1 
A   11
 C9 
A   12
 C10
A   13
 N2 
A   14
 C11
A   15
 O1 
A   16
 C12
A   17
 C13
A   18
 C14
A   19
 C15
A   20
 C16
A   21
 C17
A   22
 O2 
M  END
>  <ref_url>  (45) 
https://github.com/stephwills/fragment_network_merges

>  <submitter_name>  (45) 
Steph Wills

>  <submitter_institution>  (45) 
University of Oxford

>  <submitter_email>  (45) 
stephanie.wills@balliol.ox.ac.uk

>  <generation_date>  (45) 
2023-07-04

>  <original SMILES>  (45) 
CC(=O)NC12CCCCC1N(C(=O)Cc1ccc(=O)[nH]c1)CC2

>  <ref_mols>  (45) 
x0980_0B,x0771_0A

>  <SuCOS_score>  (45) 
0.4055916551226192

>  <cmpd_id>  (45) 
ENAMINE:Z3338744204

>  <method>  (45) 
fragnetv2_named

>  <ref_pdb>  (45) 
x0980_0B

$$$$
x0980-0B-x0771-0A-2089_p
     RDKit          3D

 27 30  0  0  0  0  0  0  0  0999 V2000
   -7.3920   -4.8140   -8.1810 O   0  0  0  0  0  0  0  0  0  0  0  0
   -7.8380   -5.4480   -7.2160 C   0  0  0  0  0  0  0  0  0  0  0  0
   -7.0420   -6.2420   -6.2550 C   0  0  0  0  0  0  0  0  0  0  0  0
   -5.9270   -7.0640   -6.8690 C   0  0  0  0  0  0  0  0  0  0  0  0
   -5.3450   -7.9350   -5.8000 C   0  0  0  0  0  0  0  0  0  0  0  0
   -6.1020   -8.5070   -4.8570 C   0  0  0  0  0  0  0  0  0  0  0  0
   -7.6010   -8.3210   -4.7990 C   0  0  0  0  0  0  0  0  0  0  0  0
   -8.0320   -6.9840   -5.3750 C   0  0  0  0  0  0  0  0  0  0  0  0
   -9.2010   -6.8860   -6.2470 C   0  0  0  0  0  0  0  0  0  0  0  0
  -10.0150   -7.7630   -6.4280 O   0  0  0  0  0  0  0  0  0  0  0  0
   -9.1090   -5.6060   -6.7570 N   0  0  0  0  0  0  0  0  0  0  0  0
   -9.7830   -4.5010   -6.1250 C   0  0  0  0  0  0  0  0  0  0  0  0
  -11.0710   -4.2400   -6.8910 C   0  0  0  0  0  0  0  0  0  0  0  0
  -11.0570   -3.5290   -7.9090 O   0  0  0  0  0  0  0  0  0  0  0  0
  -12.2260   -4.8330   -6.3990 N   0  0  0  0  0  0  0  0  0  0  0  0
  -13.4720   -4.9130   -7.1210 C   0  0  0  0  0  0  0  0  0  0  0  0
  -14.4040   -5.6530   -6.1840 C   0  0  0  0  0  0  0  0  0  0  0  0
  -13.4770   -6.7160   -5.6240 C   0  0  0  0  0  0  0  0  0  0  0  0
  -12.1470   -5.9570   -5.4460 C   0  0  0  0  0  0  0  0  0  0  0  0
  -11.9590   -5.4570   -4.0130 C   0  0  0  0  0  0  0  0  0  0  0  0
  -12.4970   -4.0610   -3.8850 C   0  0  0  0  0  0  0  0  0  0  0  0
  -13.7830   -3.8460   -3.3750 C   0  0  0  0  0  0  0  0  0  0  0  0
  -14.2820   -2.5510   -3.2660 C   0  0  0  0  0  0  0  0  0  0  0  0
  -13.4950   -1.4760   -3.6660 C   0  0  0  0  0  0  0  0  0  0  0  0
  -13.9840   -0.2330   -3.5590 F   0  0  0  0  0  0  0  0  0  0  0  0
  -12.2160   -1.6690   -4.1730 C   0  0  0  0  0  0  0  0  0  0  0  0
  -11.7140   -2.9640   -4.2830 C   0  0  0  0  0  0  0  0  0  0  0  0
  1  2  2  0
  2  3  1  0
  3  4  1  0
  4  5  1  0
  5  6  2  0
  6  7  1  0
  7  8  1  0
  8  9  1  0
  9 10  2  0
  9 11  1  0
 11 12  1  0
 12 13  1  0
 13 14  2  0
 13 15  1  0
 15 16  1  0
 16 17  1  0
 17 18  1  0
 18 19  1  0
 19 20  1  0
 20 21  1  0
 21 22  2  0
 22 23  1  0
 23 24  2  0
 24 25  1  0
 24 26  1  0
 26 27  2  0
 11  2  1  0
 19 15  1  0
 27 21  1  0
  8  3  1  0
A    1
 O1 
A    2
 C1 
A    3
 C2 
A    4
 C3 
A    5
 C4 
A    6
 C5 
A    7
 C6 
A    8
 C7 
A    9
 C8 
A   10
 O2 
A   11
 N1 
A   12
 C9 
A   13
 C10
A   14
 O3 
A   15
 N2 
A   16
 C11
A   17
 C12
A   18
 C13
A   19
 C14
A   20
 C15
A   21
 C16
A   22
 C17
A   23
 C18
A   24
 C19
A   25
 F1 
A   26
 C20
A   27
 C21
M  END
>  <ref_url>  (46) 
https://github.com/stephwills/fragment_network_merges

>  <submitter_name>  (46) 
Steph Wills

>  <submitter_institution>  (46) 
University of Oxford

>  <submitter_email>  (46) 
stephanie.wills@balliol.ox.ac.uk

>  <generation_date>  (46) 
2023-07-04

>  <original SMILES>  (46) 
CC(=O)NC12CCCCC1N(C(=O)Cc1ccc(=O)[nH]c1)CC2

>  <ref_mols>  (46) 
x0980_0B,x0771_0A

>  <SuCOS_score>  (46) 
0.406126040069834

>  <cmpd_id>  (46) 
ENAMINE:Z2218795932

>  <method>  (46) 
fragnetv2_named

>  <ref_pdb>  (46) 
x0980_0B

$$$$
x0980-0B-x0771-0A-93_p
     RDKit          3D

 23 25  0  0  0  0  0  0  0  0999 V2000
  -15.3910   -5.7210   -3.1850 C   0  0  0  0  0  0  0  0  0  0  0  0
  -13.9800   -5.6580   -3.5640 N   0  0  0  0  0  0  0  0  0  0  0  0
  -13.5670   -6.7210   -4.4900 C   0  0  0  0  0  0  0  0  0  0  0  0
  -13.4610   -4.3950   -3.8910 C   0  0  0  0  0  0  0  0  0  0  0  0
  -14.0680   -3.1910   -3.5150 C   0  0  0  0  0  0  0  0  0  0  0  0
  -13.5030   -1.9700   -3.8740 C   0  0  0  0  0  0  0  0  0  0  0  0
  -14.1040   -0.8340   -3.5020 F   0  0  0  0  0  0  0  0  0  0  0  0
  -12.3340   -1.8950   -4.6090 C   0  0  0  0  0  0  0  0  0  0  0  0
  -11.7000   -3.0580   -5.0020 C   0  0  0  0  0  0  0  0  0  0  0  0
  -10.5050   -3.0450   -5.7540 N   0  0  0  0  0  0  0  0  0  0  0  0
  -10.3410   -3.3610   -7.0870 C   0  0  0  0  0  0  0  0  0  0  0  0
  -10.8900   -2.8980   -8.0620 O   0  0  0  0  0  0  0  0  0  0  0  0
   -9.4460   -4.3460   -7.2660 N   0  0  0  0  0  0  0  0  0  0  0  0
   -7.9870   -4.3900   -7.2320 C   0  0  0  0  0  0  0  0  0  0  0  0
   -8.2880   -5.8960   -7.2650 C   0  0  0  0  0  0  0  0  0  0  0  0
   -7.6610   -6.8650   -6.4290 C   0  0  0  0  0  0  0  0  0  0  0  0
   -6.3920   -7.1190   -6.3460 C   0  0  0  0  0  0  0  0  0  0  0  0
   -6.3860   -8.0490   -5.2090 C   0  0  0  0  0  0  0  0  0  0  0  0
   -5.4770   -8.2040   -4.4780 O   0  0  0  0  0  0  0  0  0  0  0  0
   -7.6140   -8.6250   -5.1040 N   0  0  0  0  0  0  0  0  0  0  0  0
   -8.4420   -7.6440   -5.5770 N   0  0  0  0  0  0  0  0  0  0  0  0
   -9.4650   -5.4810   -6.4070 C   0  0  0  0  0  0  0  0  0  0  0  0
  -12.2670   -4.2990   -4.6390 C   0  0  0  0  0  0  0  0  0  0  0  0
  1  2  1  0
  2  3  1  0
  2  4  1  0
  4  5  2  0
  5  6  1  0
  6  7  1  0
  6  8  2  0
  8  9  1  0
  9 10  1  0
 10 11  1  0
 11 12  2  0
 11 13  1  0
 13 14  1  0
 14 15  1  0
 15 16  1  0
 16 17  2  0
 17 18  1  0
 18 19  2  0
 18 20  1  0
 20 21  1  0
 15 22  1  0
  9 23  2  0
 23  4  1  0
 22 13  1  0
 21 16  1  0
A    1
 C1 
A    2
 N1 
A    3
 C2 
A    4
 C3 
A    5
 C4 
A    6
 C5 
A    7
 F1 
A    8
 C6 
A    9
 C7 
A   10
 N2 
A   11
 C8 
A   12
 O1 
A   13
 N3 
A   14
 C9 
A   15
 C10
A   16
 C11
A   17
 C12
A   18
 C13
A   19
 O2 
A   20
 N4 
A   21
 N5 
A   22
 C14
A   23
 C15
M  END
>  <ref_url>  (47) 
https://github.com/stephwills/fragment_network_merges

>  <submitter_name>  (47) 
Steph Wills

>  <submitter_institution>  (47) 
University of Oxford

>  <submitter_email>  (47) 
stephanie.wills@balliol.ox.ac.uk

>  <generation_date>  (47) 
2023-07-04

>  <original SMILES>  (47) 
CC(=O)NC12CCCCC1N(C(=O)Cc1ccc(=O)[nH]c1)CC2

>  <ref_mols>  (47) 
x0980_0B,x0771_0A

>  <SuCOS_score>  (47) 
0.407447349680863

>  <cmpd_id>  (47) 
ENAMINE:Z3842242196

>  <method>  (47) 
fragnetv2_named

>  <ref_pdb>  (47) 
x0980_0B

$$$$
x0980-0B-x0771-0A-2418_p
     RDKit          3D

 23 25  0  0  0  0  0  0  0  0999 V2000
  -12.1670   -6.0180   -4.6770 C   0  0  0  0  0  0  0  0  0  0  0  0
  -12.6300   -4.6150   -4.3830 C   0  0  0  0  0  0  0  0  0  0  0  0
  -13.8480   -4.4130   -3.7140 C   0  0  0  0  0  0  0  0  0  0  0  0
  -14.2980   -3.1230   -3.4330 C   0  0  0  0  0  0  0  0  0  0  0  0
  -13.5330   -2.0340   -3.8240 C   0  0  0  0  0  0  0  0  0  0  0  0
  -13.9650   -0.7910   -3.5590 F   0  0  0  0  0  0  0  0  0  0  0  0
  -12.3250   -2.2060   -4.4860 C   0  0  0  0  0  0  0  0  0  0  0  0
  -11.8640   -3.5010   -4.7690 C   0  0  0  0  0  0  0  0  0  0  0  0
  -10.5600   -3.6680   -5.4800 C   0  0  0  0  0  0  0  0  0  0  0  0
  -10.3830   -2.6270   -6.4510 N   0  0  0  0  0  0  0  0  0  0  0  0
   -9.8940   -2.9610   -7.6860 C   0  0  0  0  0  0  0  0  0  0  0  0
   -9.5620   -2.1140   -8.5000 O   0  0  0  0  0  0  0  0  0  0  0  0
   -9.8440   -4.3310   -7.8380 N   0  0  0  0  0  0  0  0  0  0  0  0
   -8.8380   -5.1960   -7.3870 C   0  0  0  0  0  0  0  0  0  0  0  0
   -7.5230   -5.0970   -7.8030 C   0  0  0  0  0  0  0  0  0  0  0  0
   -6.5900   -5.9640   -7.3090 C   0  0  0  0  0  0  0  0  0  0  0  0
   -7.0070   -6.8980   -6.3980 C   0  0  0  0  0  0  0  0  0  0  0  0
   -8.2950   -7.0630   -6.0030 C   0  0  0  0  0  0  0  0  0  0  0  0
   -9.2350   -6.2020   -6.4860 C   0  0  0  0  0  0  0  0  0  0  0  0
   -8.4300   -8.2140   -5.0620 C   0  0  0  0  0  0  0  0  0  0  0  0
   -7.0750   -8.5850   -4.8580 N   0  0  0  0  0  0  0  0  0  0  0  0
   -6.2370   -7.8500   -5.6560 C   0  0  0  0  0  0  0  0  0  0  0  0
   -5.0760   -7.9360   -5.7320 O   0  0  0  0  0  0  0  0  0  0  0  0
  1  2  1  0
  2  3  2  0
  3  4  1  0
  4  5  2  0
  5  6  1  0
  5  7  1  0
  7  8  2  0
  8  9  1  0
  9 10  1  0
 10 11  1  0
 11 12  2  0
 11 13  1  0
 13 14  1  0
 14 15  2  0
 15 16  1  0
 16 17  2  0
 17 18  1  0
 18 19  2  0
 18 20  1  0
 20 21  1  0
 21 22  1  0
 22 23  2  0
  8  2  1  0
 19 14  1  0
 22 17  1  0
A    1
 C1 
A    2
 C2 
A    3
 C3 
A    4
 C4 
A    5
 C5 
A    6
 F1 
A    7
 C6 
A    8
 C7 
A    9
 C8 
A   10
 N1 
A   11
 C9 
A   12
 O1 
A   13
 N2 
A   14
 C10
A   15
 C11
A   16
 C12
A   17
 C13
A   18
 C14
A   19
 C15
A   20
 C16
A   21
 N3 
A   22
 C17
A   23
 O2 
M  END
>  <ref_url>  (48) 
https://github.com/stephwills/fragment_network_merges

>  <submitter_name>  (48) 
Steph Wills

>  <submitter_institution>  (48) 
University of Oxford

>  <submitter_email>  (48) 
stephanie.wills@balliol.ox.ac.uk

>  <generation_date>  (48) 
2023-07-04

>  <original SMILES>  (48) 
CC(=O)NC12CCCCC1N(C(=O)Cc1ccc(=O)[nH]c1)CC2

>  <ref_mols>  (48) 
x0980_0B,x0771_0A

>  <SuCOS_score>  (48) 
0.4110248847537817

>  <cmpd_id>  (48) 
ENAMINE:PV-002999786671

>  <method>  (48) 
fragnetv2_named

>  <ref_pdb>  (48) 
x0980_0B

$$$$
x0980-0B-x0771-0A-2810_p
     RDKit          3D

 23 25  0  0  0  0  0  0  0  0999 V2000
  -12.5340   -6.3730   -4.3600 C   0  0  0  0  0  0  0  0  0  0  0  0
  -12.8510   -4.9420   -4.2330 C   0  0  0  0  0  0  0  0  0  0  0  0
  -13.8830   -4.4640   -3.4220 C   0  0  0  0  0  0  0  0  0  0  0  0
  -14.1370   -3.0860   -3.3460 C   0  0  0  0  0  0  0  0  0  0  0  0
  -13.3590   -2.1850   -4.0820 C   0  0  0  0  0  0  0  0  0  0  0  0
  -13.6210   -0.8700   -3.9950 F   0  0  0  0  0  0  0  0  0  0  0  0
  -12.3290   -2.6760   -4.8940 C   0  0  0  0  0  0  0  0  0  0  0  0
  -11.4220   -1.8600   -5.7390 C   0  0  0  0  0  0  0  0  0  0  0  0
  -10.4130   -2.6640   -6.4200 C   0  0  0  0  0  0  0  0  0  0  0  0
   -9.7100   -3.3860   -5.7300 O   0  0  0  0  0  0  0  0  0  0  0  0
  -10.2400   -2.6730   -7.7760 N   0  0  0  0  0  0  0  0  0  0  0  0
   -9.0760   -3.2900   -8.3690 C   0  0  0  0  0  0  0  0  0  0  0  0
   -8.5670   -4.5620   -7.6610 C   0  0  0  0  0  0  0  0  0  0  0  0
   -7.2350   -4.8700   -7.9230 C   0  0  0  0  0  0  0  0  0  0  0  0
   -6.6120   -5.9480   -7.3350 C   0  0  0  0  0  0  0  0  0  0  0  0
   -7.3270   -6.7280   -6.4650 C   0  0  0  0  0  0  0  0  0  0  0  0
   -8.6380   -6.5300   -6.2150 C   0  0  0  0  0  0  0  0  0  0  0  0
   -9.2840   -5.4250   -6.8020 C   0  0  0  0  0  0  0  0  0  0  0  0
   -9.1350   -7.6100   -5.2950 C   0  0  0  0  0  0  0  0  0  0  0  0
   -8.0320   -8.5020   -5.2410 N   0  0  0  0  0  0  0  0  0  0  0  0
   -6.9280   -7.8280   -5.6330 C   0  0  0  0  0  0  0  0  0  0  0  0
   -5.8130   -8.0590   -5.3150 O   0  0  0  0  0  0  0  0  0  0  0  0
  -12.0940   -4.0420   -4.9520 C   0  0  0  0  0  0  0  0  0  0  0  0
  1  2  1  0
  2  3  2  0
  3  4  1  0
  4  5  2  0
  5  6  1  0
  5  7  1  0
  7  8  1  0
  8  9  1  0
  9 10  2  0
  9 11  1  0
 11 12  1  0
 12 13  1  0
 13 14  2  0
 14 15  1  0
 15 16  2  0
 16 17  1  0
 17 18  2  0
 17 19  1  0
 19 20  1  0
 20 21  1  0
 21 22  2  0
  7 23  2  0
 23  2  1  0
 18 13  1  0
 21 16  1  0
A    1
 C1 
A    2
 C2 
A    3
 C3 
A    4
 C4 
A    5
 C5 
A    6
 F1 
A    7
 C6 
A    8
 C7 
A    9
 C8 
A   10
 O1 
A   11
 N1 
A   12
 C9 
A   13
 C10
A   14
 C11
A   15
 C12
A   16
 C13
A   17
 C14
A   18
 C15
A   19
 C16
A   20
 N2 
A   21
 C17
A   22
 O2 
A   23
 C18
M  END
>  <ref_url>  (49) 
https://github.com/stephwills/fragment_network_merges

>  <submitter_name>  (49) 
Steph Wills

>  <submitter_institution>  (49) 
University of Oxford

>  <submitter_email>  (49) 
stephanie.wills@balliol.ox.ac.uk

>  <generation_date>  (49) 
2023-07-04

>  <original SMILES>  (49) 
CC(=O)NC12CCCCC1N(C(=O)Cc1ccc(=O)[nH]c1)CC2

>  <ref_mols>  (49) 
x0980_0B,x0771_0A

>  <SuCOS_score>  (49) 
0.41661435656780627

>  <cmpd_id>  (49) 
ENAMINE:PV-003040381250

>  <method>  (49) 
fragnetv2_named

>  <ref_pdb>  (49) 
x0980_0B

$$$$
x0980-0B-x0771-0A-2164_p
     RDKit          3D

 21 21  0  0  0  0  0  0  0  0999 V2000
   -6.3020   -8.5630   -4.8510 C   0  0  0  0  0  0  0  0  0  0  0  0
   -7.7490   -8.4770   -4.9690 N   0  0  0  0  0  0  0  0  0  0  0  0
   -8.1860   -7.4060   -5.8840 C   0  0  0  0  0  0  0  0  0  0  0  0
   -8.4630   -6.0300   -5.2180 C   0  0  0  0  0  0  0  0  0  0  0  0
   -9.0580   -4.9710   -6.1170 N   0  0  0  0  0  0  0  0  0  0  0  0
   -8.3840   -4.8560   -7.4650 C   0  0  0  0  0  0  0  0  0  0  0  0
   -7.0160   -5.5000   -7.6460 C   0  0  0  0  0  0  0  0  0  0  0  0
   -8.4010   -3.4080   -7.9520 C   0  0  0  0  0  0  0  0  0  0  0  0
  -10.8020   -4.9300   -6.2840 S   0  0  0  0  0  6  0  0  0  0  0  0
  -11.2570   -6.2930   -6.0930 O   0  0  0  0  0  0  0  0  0  0  0  0
  -11.0260   -4.2370   -7.5400 O   0  0  0  0  0  0  0  0  0  0  0  0
  -11.7820   -4.0460   -5.0280 C   0  0  0  0  0  0  0  0  0  0  0  0
  -12.1530   -4.7740   -3.9070 C   0  0  0  0  0  0  0  0  0  0  0  0
  -11.7940   -6.2190   -3.6990 C   0  0  0  0  0  0  0  0  0  0  0  0
  -12.8990   -4.1340   -2.9270 C   0  0  0  0  0  0  0  0  0  0  0  0
  -13.2940   -2.8050   -3.0340 C   0  0  0  0  0  0  0  0  0  0  0  0
  -14.1040   -2.1520   -1.9540 C   0  0  0  0  0  0  0  0  0  0  0  0
  -12.9410   -2.0940   -4.1430 C   0  0  0  0  0  0  0  0  0  0  0  0
  -13.3470   -0.8140   -4.2220 F   0  0  0  0  0  0  0  0  0  0  0  0
  -12.1840   -2.6840   -5.1590 C   0  0  0  0  0  0  0  0  0  0  0  0
  -11.8430   -1.8200   -6.3420 C   0  0  0  0  0  0  0  0  0  0  0  0
  1  2  1  0
  2  3  1  0
  3  4  1  0
  4  5  1  0
  5  6  1  0
  6  7  1  0
  6  8  1  0
  5  9  1  0
  9 10  2  0
  9 11  2  0
  9 12  1  0
 12 13  2  0
 13 14  1  0
 13 15  1  0
 15 16  2  0
 16 17  1  0
 16 18  1  0
 18 19  1  0
 18 20  2  0
 20 21  1  0
 20 12  1  0
A    1
 C1 
A    2
 N1 
A    3
 C2 
A    4
 C3 
A    5
 N2 
A    6
 C4 
A    7
 C5 
A    8
 C6 
A    9
 S1 
A   10
 O1 
A   11
 O2 
A   12
 C7 
A   13
 C8 
A   14
 C9 
A   15
 C10
A   16
 C11
A   17
 C12
A   18
 C13
A   19
 F1 
A   20
 C14
A   21
 C15
M  END
>  <ref_url>  (50) 
https://github.com/stephwills/fragment_network_merges

>  <submitter_name>  (50) 
Steph Wills

>  <submitter_institution>  (50) 
University of Oxford

>  <submitter_email>  (50) 
stephanie.wills@balliol.ox.ac.uk

>  <generation_date>  (50) 
2023-07-04

>  <original SMILES>  (50) 
CC(=O)NC12CCCCC1N(C(=O)Cc1ccc(=O)[nH]c1)CC2

>  <ref_mols>  (50) 
x0980_0B,x0771_0A

>  <SuCOS_score>  (50) 
0.425813068780828

>  <cmpd_id>  (50) 
ENAMINE:PV-003212425081

>  <method>  (50) 
fragnetv2_named

>  <ref_pdb>  (50) 
x0980_0B

$$$$
x0980-0B-x0771-0A-2095_p
     RDKit          3D

 23 25  0  0  0  0  0  0  0  0999 V2000
  -11.6960   -5.7840   -4.7020 C   0  0  0  0  0  0  0  0  0  0  0  0
  -12.2910   -4.4200   -4.4550 C   0  0  0  0  0  0  0  0  0  0  0  0
  -13.5070   -4.3810   -3.7420 C   0  0  0  0  0  0  0  0  0  0  0  0
  -14.1360   -3.1710   -3.4620 C   0  0  0  0  0  0  0  0  0  0  0  0
  -13.5580   -1.9880   -3.8890 C   0  0  0  0  0  0  0  0  0  0  0  0
  -14.1570   -0.8230   -3.6210 F   0  0  0  0  0  0  0  0  0  0  0  0
  -12.3670   -1.9870   -4.5900 C   0  0  0  0  0  0  0  0  0  0  0  0
  -11.7050   -3.1840   -4.8930 C   0  0  0  0  0  0  0  0  0  0  0  0
  -10.4080   -3.0070   -5.6730 C   0  0  0  0  0  0  0  0  0  0  0  0
  -10.5030   -3.4790   -7.0450 N   0  0  0  0  0  0  0  0  0  0  0  0
  -11.7170   -4.2550   -7.1590 C   0  0  0  0  0  0  0  0  0  0  0  0
   -9.2920   -3.8330   -7.6710 C   0  0  0  0  0  0  0  0  0  0  0  0
   -8.7740   -3.2560   -8.6290 O   0  0  0  0  0  0  0  0  0  0  0  0
   -8.6190   -5.0060   -7.0990 C   0  0  0  0  0  0  0  0  0  0  0  0
   -9.2030   -5.4760   -5.9410 C   0  0  0  0  0  0  0  0  0  0  0  0
   -8.7040   -6.5660   -5.2930 C   0  0  0  0  0  0  0  0  0  0  0  0
   -7.6100   -7.1990   -5.7940 C   0  0  0  0  0  0  0  0  0  0  0  0
   -6.9940   -6.7320   -6.9620 C   0  0  0  0  0  0  0  0  0  0  0  0
   -7.4930   -5.6240   -7.6410 C   0  0  0  0  0  0  0  0  0  0  0  0
   -5.8910   -7.3270   -7.4860 O   0  0  0  0  0  0  0  0  0  0  0  0
   -5.0680   -7.9350   -6.4820 C   0  0  0  0  0  0  0  0  0  0  0  0
   -5.7560   -8.4470   -5.1790 C   0  0  0  0  0  0  0  0  0  0  0  0
   -7.1840   -8.2890   -5.0730 N   0  0  0  0  0  0  0  0  0  0  0  0
  1  2  1  0
  2  3  2  0
  3  4  1  0
  4  5  2  0
  5  6  1  0
  5  7  1  0
  7  8  2  0
  8  9  1  0
  9 10  1  0
 10 11  1  0
 10 12  1  0
 12 13  2  0
 12 14  1  0
 14 15  2  0
 15 16  1  0
 16 17  2  0
 17 18  1  0
 18 19  2  0
 18 20  1  0
 20 21  1  0
 21 22  1  0
 22 23  1  0
  8  2  1  0
 19 14  1  0
 23 17  1  0
A    1
 C1 
A    2
 C2 
A    3
 C3 
A    4
 C4 
A    5
 C5 
A    6
 F1 
A    7
 C6 
A    8
 C7 
A    9
 C8 
A   10
 N1 
A   11
 C9 
A   12
 C10
A   13
 O1 
A   14
 C11
A   15
 C12
A   16
 C13
A   17
 C14
A   18
 C15
A   19
 C16
A   20
 O2 
A   21
 C17
A   22
 C18
A   23
 N2 
M  END
>  <ref_url>  (51) 
https://github.com/stephwills/fragment_network_merges

>  <submitter_name>  (51) 
Steph Wills

>  <submitter_institution>  (51) 
University of Oxford

>  <submitter_email>  (51) 
stephanie.wills@balliol.ox.ac.uk

>  <generation_date>  (51) 
2023-07-04

>  <original SMILES>  (51) 
CC(=O)NC12CCCCC1N(C(=O)Cc1ccc(=O)[nH]c1)CC2

>  <ref_mols>  (51) 
x0980_0B,x0771_0A

>  <SuCOS_score>  (51) 
0.4310875722363589

>  <cmpd_id>  (51) 
ENAMINE:Z4291178530

>  <method>  (51) 
fragnetv2_named

>  <ref_pdb>  (51) 
x0980_0B

$$$$
x1498-0A-x0980-0B-416_u
     RDKit          3D

 20 21  0  0  0  0  0  0  0  0999 V2000
   -9.5400   -7.1220   -4.9290 O   0  0  0  0  0  0  0  0  0  0  0  0
   -9.7100   -5.9130   -5.0500 C   0  0  0  0  0  0  0  0  0  0  0  0
  -10.4140   -5.1320   -4.1390 N   0  0  0  0  0  0  0  0  0  0  0  0
   -9.8680   -3.8650   -3.6370 C   0  0  0  0  0  0  0  0  0  0  0  0
  -10.8580   -2.6720   -3.4840 C   0  0  0  0  0  0  0  0  0  0  0  0
  -12.0470   -2.7280   -4.3400 N   0  0  0  0  0  0  0  0  0  0  0  0
  -12.1960   -3.8950   -5.0490 C   0  0  0  0  0  0  0  0  0  0  0  0
  -13.1580   -4.7610   -4.7160 C   0  0  0  0  0  0  0  0  0  0  0  0
  -14.0410   -4.4450   -3.6220 C   0  0  0  0  0  0  0  0  0  0  0  0
  -14.0900   -3.1900   -3.1620 C   0  0  0  0  0  0  0  0  0  0  0  0
  -13.2130   -2.1750   -3.7970 C   0  0  0  0  0  0  0  0  0  0  0  0
  -13.5420   -0.9880   -3.8080 O   0  0  0  0  0  0  0  0  0  0  0  0
   -9.1480   -5.1920   -6.2190 C   0  0  0  0  0  0  0  0  0  0  0  0
   -9.7360   -3.9730   -6.4190 C   0  0  0  0  0  0  0  0  0  0  0  0
   -9.3170   -3.1970   -7.4520 C   0  0  0  0  0  0  0  0  0  0  0  0
   -8.3480   -3.5500   -8.2950 N   0  0  0  0  0  0  0  0  0  0  0  0
   -7.7800   -4.7360   -8.1010 C   0  0  0  0  0  0  0  0  0  0  0  0
   -6.8210   -4.9280   -9.0510 O   0  0  0  0  0  0  0  0  0  0  0  0
   -8.1490   -5.6160   -7.0650 C   0  0  0  0  0  0  0  0  0  0  0  0
   -7.4270   -7.2920   -6.7180 Br  0  0  0  0  0  0  0  0  0  0  0  0
  1  2  2  0
  2  3  1  0
  3  4  1  0
  4  5  1  0
  5  6  1  0
  6  7  1  0
  7  8  2  0
  8  9  1  0
  9 10  2  0
 10 11  1  0
 11 12  2  0
  2 13  1  0
 13 14  2  0
 14 15  1  0
 15 16  2  0
 16 17  1  0
 17 18  1  0
 17 19  2  0
 19 20  1  0
 11  6  1  0
 19 13  1  0
A    1
 O1 
A    2
 C1 
A    3
 N1 
A    4
 C2 
A    5
 C3 
A    6
 N2 
A    7
 C4 
A    8
 C5 
A    9
 C6 
A   10
 C7 
A   11
 C8 
A   12
 O2 
A   13
 C9 
A   14
 C10
A   15
 C11
A   16
 N3 
A   17
 C12
A   18
 O3 
A   19
 C13
A   20
BR1 
M  END
>  <ref_url>  (52) 
https://github.com/stephwills/fragment_network_merges

>  <submitter_name>  (52) 
Steph Wills

>  <submitter_institution>  (52) 
University of Oxford

>  <submitter_email>  (52) 
stephanie.wills@balliol.ox.ac.uk

>  <generation_date>  (52) 
2023-07-04

>  <original SMILES>  (52) 
CC(=O)NC12CCCCC1N(C(=O)Cc1ccc(=O)[nH]c1)CC2

>  <ref_mols>  (52) 
x1498_0A,x0980_0B

>  <SuCOS_score>  (52) 
0.6355330455392597

>  <cmpd_id>  (52) 
ENAMINE:Z1892360718

>  <method>  (52) 
fragnetv2_named

>  <ref_pdb>  (52) 
x1498_0A

$$$$
x1498-0A-x0980-0B-1238_u
     RDKit          3D

 22 24  0  0  0  0  0  0  0  0999 V2000
  -13.3140   -4.9640   -7.8970 O   0  0  0  0  0  0  0  0  0  0  0  0
  -12.8030   -3.9180   -7.5030 C   0  0  0  0  0  0  0  0  0  0  0  0
  -13.5430   -3.0420   -6.4590 C   0  0  0  0  0  0  0  0  0  0  0  0
  -12.9050   -2.7660   -5.1600 N   0  0  0  0  0  0  0  0  0  0  0  0
  -11.9710   -3.7020   -4.7450 C   0  0  0  0  0  0  0  0  0  0  0  0
  -12.2880   -4.5990   -3.6600 C   0  0  0  0  0  0  0  0  0  0  0  0
  -13.5750   -4.4810   -3.0290 C   0  0  0  0  0  0  0  0  0  0  0  0
  -14.3510   -3.2420   -3.2850 C   0  0  0  0  0  0  0  0  0  0  0  0
  -13.7440   -2.2230   -4.1820 C   0  0  0  0  0  0  0  0  0  0  0  0
  -13.9940   -1.0320   -4.0190 O   0  0  0  0  0  0  0  0  0  0  0  0
  -11.5890   -3.5030   -7.9820 N   0  0  0  0  0  0  0  0  0  0  0  0
  -11.2780   -2.1230   -8.1730 C   0  0  0  0  0  0  0  0  0  0  0  0
   -9.9780   -1.9700   -7.7300 C   0  0  0  0  0  0  0  0  0  0  0  0
   -9.2870   -3.1030   -7.4230 C   0  0  0  0  0  0  0  0  0  0  0  0
   -8.1770   -3.4470   -8.2720 O   0  0  0  0  0  0  0  0  0  0  0  0
   -7.9840   -4.6580   -7.7600 C   0  0  0  0  0  0  0  0  0  0  0  0
   -7.3210   -5.6300   -8.4350 C   0  0  0  0  0  0  0  0  0  0  0  0
   -7.2370   -6.8390   -7.7990 C   0  0  0  0  0  0  0  0  0  0  0  0
   -7.7940   -7.0150   -6.5370 C   0  0  0  0  0  0  0  0  0  0  0  0
   -8.4300   -5.9550   -5.9450 C   0  0  0  0  0  0  0  0  0  0  0  0
   -8.5390   -4.7800   -6.5310 N   0  0  0  0  0  0  0  0  0  0  0  0
  -10.3870   -4.1740   -7.5130 C   0  0  0  0  0  0  0  0  0  0  0  0
  1  2  2  0
  2  3  1  0
  3  4  1  0
  4  5  1  0
  5  6  2  0
  6  7  1  0
  7  8  2  0
  8  9  1  0
  9 10  2  0
  2 11  1  0
 11 12  1  0
 12 13  1  0
 13 14  1  0
 14 15  1  0
 15 16  1  0
 16 17  2  0
 17 18  1  0
 18 19  2  0
 19 20  1  0
 20 21  2  0
 14 22  1  0
  9  4  1  0
 22 11  1  0
 21 16  1  0
A    1
 O1 
A    2
 C1 
A    3
 C2 
A    4
 N1 
A    5
 C3 
A    6
 C4 
A    7
 C5 
A    8
 C6 
A    9
 C7 
A   10
 O2 
A   11
 N2 
A   12
 C8 
A   13
 C9 
A   14
 C10
A   15
 O3 
A   16
 C11
A   17
 C12
A   18
 C13
A   19
 C14
A   20
 C15
A   21
 N3 
A   22
 C16
M  END
>  <ref_url>  (53) 
https://github.com/stephwills/fragment_network_merges

>  <submitter_name>  (53) 
Steph Wills

>  <submitter_institution>  (53) 
University of Oxford

>  <submitter_email>  (53) 
stephanie.wills@balliol.ox.ac.uk

>  <generation_date>  (53) 
2023-07-04

>  <original SMILES>  (53) 
CC(=O)NC12CCCCC1N(C(=O)Cc1ccc(=O)[nH]c1)CC2

>  <ref_mols>  (53) 
x1498_0A,x0980_0B

>  <SuCOS_score>  (53) 
0.5309114184667513

>  <cmpd_id>  (53) 
ENAMINE:Z1432905552

>  <method>  (53) 
fragnetv2_named

>  <ref_pdb>  (53) 
x1498_0A

$$$$
x1498-0A-x0980-0B-1757_u
     RDKit          3D

 26 27  0  0  0  0  0  0  0  0999 V2000
  -15.5120   -4.5790   -6.1810 C   0  0  0  0  0  0  0  0  0  0  0  0
  -15.0270   -6.0290   -6.1830 C   0  0  0  0  0  0  0  0  0  0  0  0
  -13.8490   -6.2960   -7.1390 C   0  0  0  0  0  0  0  0  0  0  0  0
  -13.0800   -5.0750   -7.7020 C   0  0  0  0  0  0  0  0  0  0  0  0
  -13.0700   -5.0570   -9.0380 C   0  0  0  0  0  0  0  0  0  0  0  0
  -11.7290   -4.9690   -7.1420 N   0  0  0  0  0  0  0  0  0  0  0  0
  -10.7010   -4.1960   -7.6720 C   0  0  0  0  0  0  0  0  0  0  0  0
  -10.8580   -3.1010   -8.2010 O   0  0  0  0  0  0  0  0  0  0  0  0
   -9.3480   -4.7930   -7.5520 C   0  0  0  0  0  0  0  0  0  0  0  0
   -9.2240   -5.9350   -6.7780 C   0  0  0  0  0  0  0  0  0  0  0  0
   -8.0110   -6.4930   -6.6570 C   0  0  0  0  0  0  0  0  0  0  0  0
   -7.8340   -7.5960   -5.9190 F   0  0  0  0  0  0  0  0  0  0  0  0
   -6.9600   -5.8930   -7.3210 C   0  0  0  0  0  0  0  0  0  0  0  0
   -7.0170   -4.8010   -8.0800 N   0  0  0  0  0  0  0  0  0  0  0  0
   -8.2030   -4.2650   -8.1770 C   0  0  0  0  0  0  0  0  0  0  0  0
   -8.1260   -3.1680   -8.9460 O   0  0  0  0  0  0  0  0  0  0  0  0
  -14.6530   -6.4270   -4.8200 N   0  0  0  0  0  0  0  0  0  0  0  0
  -14.6580   -5.5540   -3.7750 C   0  0  0  0  0  0  0  0  0  0  0  0
  -15.3670   -5.6830   -2.7820 O   0  0  0  0  0  0  0  0  0  0  0  0
  -13.7220   -4.3990   -3.9170 C   0  0  0  0  0  0  0  0  0  0  0  0
  -12.5070   -4.5490   -4.4660 C   0  0  0  0  0  0  0  0  0  0  0  0
  -11.6480   -3.4050   -4.5960 C   0  0  0  0  0  0  0  0  0  0  0  0
  -12.1030   -2.1850   -4.2820 C   0  0  0  0  0  0  0  0  0  0  0  0
  -13.4840   -2.0020   -3.7950 C   0  0  0  0  0  0  0  0  0  0  0  0
  -13.9620   -0.8750   -3.7140 O   0  0  0  0  0  0  0  0  0  0  0  0
  -14.1700   -3.1330   -3.4530 O   0  0  0  0  0  0  0  0  0  0  0  0
  1  2  1  0
  2  3  1  0
  3  4  1  0
  4  5  1  0
  4  6  1  0
  6  7  1  0
  7  8  2  0
  7  9  1  0
  9 10  2  0
 10 11  1  0
 11 12  1  0
 11 13  2  0
 13 14  1  0
 14 15  2  0
 15 16  1  0
  2 17  1  0
 17 18  1  0
 18 19  2  0
 18 20  1  0
 20 21  2  0
 21 22  1  0
 22 23  2  0
 23 24  1  0
 24 25  2  0
 24 26  1  0
 15  9  1  0
 26 20  1  0
A    1
 C1 
A    2
 C2 
A    3
 C3 
A    4
 C4 
A    5
 C5 
A    6
 N1 
A    7
 C6 
A    8
 O1 
A    9
 C7 
A   10
 C8 
A   11
 C9 
A   12
 F1 
A   13
 C10
A   14
 N2 
A   15
 C11
A   16
 O2 
A   17
 N3 
A   18
 C12
A   19
 O3 
A   20
 C13
A   21
 C14
A   22
 C15
A   23
 C16
A   24
 C17
A   25
 O4 
A   26
 O5 
M  END
>  <ref_url>  (54) 
https://github.com/stephwills/fragment_network_merges

>  <submitter_name>  (54) 
Steph Wills

>  <submitter_institution>  (54) 
University of Oxford

>  <submitter_email>  (54) 
stephanie.wills@balliol.ox.ac.uk

>  <generation_date>  (54) 
2023-07-04

>  <original SMILES>  (54) 
CC(=O)NC12CCCCC1N(C(=O)Cc1ccc(=O)[nH]c1)CC2

>  <ref_mols>  (54) 
x1498_0A,x0980_0B

>  <SuCOS_score>  (54) 
0.5881131253520131

>  <cmpd_id>  (54) 
ENAMINE:PV-004142356511

>  <method>  (54) 
fragnetv2_named

>  <ref_pdb>  (54) 
x1498_0A

$$$$
x1498-0A-x0980-0B-1094_p
     RDKit          3D

 23 24  0  0  0  0  0  0  0  0999 V2000
   -9.7570   -1.8060   -8.0610 C   0  0  0  0  0  0  0  0  0  0  0  0
  -10.6090   -2.9910   -7.8530 C   0  0  0  0  0  0  0  0  0  0  0  0
  -11.4610   -2.7540   -6.7990 C   0  0  0  0  0  0  0  0  0  0  0  0
   -9.6490   -4.1020   -7.5970 C   0  0  0  0  0  0  0  0  0  0  0  0
   -9.9360   -5.1450   -6.7990 C   0  0  0  0  0  0  0  0  0  0  0  0
   -9.0190   -6.1500   -6.5940 C   0  0  0  0  0  0  0  0  0  0  0  0
   -9.4840   -7.2370   -5.6900 C   0  0  0  0  0  0  0  0  0  0  0  0
   -8.9640   -8.3440   -5.7110 O   0  0  0  0  0  0  0  0  0  0  0  0
  -10.5520   -6.8770   -4.8370 N   0  0  0  0  0  0  0  0  0  0  0  0
  -11.9650   -6.6240   -5.2230 C   0  0  0  0  0  0  0  0  0  0  0  0
  -12.3130   -5.1650   -5.6110 C   0  0  0  0  0  0  0  0  0  0  0  0
  -13.6520   -4.7010   -5.4380 C   0  0  0  0  0  0  0  0  0  0  0  0
  -13.8270   -3.9030   -4.1970 N   0  0  0  0  0  0  0  0  0  0  0  0
  -13.1960   -4.5800   -3.1890 C   0  0  0  0  0  0  0  0  0  0  0  0
  -11.8750   -4.2390   -2.9580 C   0  0  0  0  0  0  0  0  0  0  0  0
  -11.2930   -3.1850   -3.7660 C   0  0  0  0  0  0  0  0  0  0  0  0
  -12.1460   -2.3050   -4.4210 C   0  0  0  0  0  0  0  0  0  0  0  0
  -13.5200   -2.5220   -4.2670 C   0  0  0  0  0  0  0  0  0  0  0  0
  -14.3020   -1.5640   -4.1870 O   0  0  0  0  0  0  0  0  0  0  0  0
   -7.7650   -6.0720   -7.2340 C   0  0  0  0  0  0  0  0  0  0  0  0
   -7.5910   -4.9460   -8.0260 C   0  0  0  0  0  0  0  0  0  0  0  0
   -6.4750   -4.6770   -8.7200 O   0  0  0  0  0  0  0  0  0  0  0  0
   -8.4790   -3.9880   -8.2150 N   0  0  0  0  0  0  0  0  0  0  0  0
  1  2  1  0
  2  3  1  0
  2  4  1  0
  4  5  2  0
  5  6  1  0
  6  7  1  0
  7  8  2  0
  7  9  1  0
  9 10  1  0
 10 11  1  0
 11 12  1  0
 12 13  1  0
 13 14  1  0
 14 15  2  0
 15 16  1  0
 16 17  2  0
 17 18  1  0
 18 19  2  0
  6 20  2  0
 20 21  1  0
 21 22  1  0
 21 23  2  0
 23  4  1  0
 18 13  1  0
A    1
 C1 
A    2
 C2 
A    3
 C3 
A    4
 C4 
A    5
 C5 
A    6
 C6 
A    7
 C7 
A    8
 O1 
A    9
 N1 
A   10
 C8 
A   11
 C9 
A   12
 C10
A   13
 N2 
A   14
 C11
A   15
 C12
A   16
 C13
A   17
 C14
A   18
 C15
A   19
 O2 
A   20
 C16
A   21
 C17
A   22
 O3 
A   23
 N3 
M  END
>  <ref_url>  (55) 
https://github.com/stephwills/fragment_network_merges

>  <submitter_name>  (55) 
Steph Wills

>  <submitter_institution>  (55) 
University of Oxford

>  <submitter_email>  (55) 
stephanie.wills@balliol.ox.ac.uk

>  <generation_date>  (55) 
2023-07-04

>  <original SMILES>  (55) 
CC(=O)NC12CCCCC1N(C(=O)Cc1ccc(=O)[nH]c1)CC2

>  <ref_mols>  (55) 
x1498_0A,x0980_0B

>  <SuCOS_score>  (55) 
0.6492315785360192

>  <cmpd_id>  (55) 
ENAMINE:Z1591101700

>  <method>  (55) 
fragnetv2_named

>  <ref_pdb>  (55) 
x1498_0A

$$$$
x1498-0A-x0980-0B-1220_u
     RDKit          3D

 25 27  0  0  0  0  0  0  0  0999 V2000
  -15.2860   -3.3530   -8.5500 O   0  0  0  0  0  0  0  0  0  0  0  0
  -14.7420   -3.2250   -7.4590 C   0  0  0  0  0  0  0  0  0  0  0  0
  -15.2870   -2.3630   -6.3370 C   0  0  0  0  0  0  0  0  0  0  0  0
  -14.2060   -1.5980   -5.5670 C   0  0  0  0  0  0  0  0  0  0  0  0
  -13.6510   -2.3020   -4.3970 N   0  0  0  0  0  0  0  0  0  0  0  0
  -13.0480   -3.5450   -4.5490 C   0  0  0  0  0  0  0  0  0  0  0  0
  -13.1870   -4.5040   -3.6260 C   0  0  0  0  0  0  0  0  0  0  0  0
  -13.9740   -4.2510   -2.4510 C   0  0  0  0  0  0  0  0  0  0  0  0
  -14.4180   -3.0090   -2.2020 C   0  0  0  0  0  0  0  0  0  0  0  0
  -14.0960   -1.9010   -3.1400 C   0  0  0  0  0  0  0  0  0  0  0  0
  -14.2410   -0.7400   -2.7680 O   0  0  0  0  0  0  0  0  0  0  0  0
  -13.5590   -3.8650   -7.1260 N   0  0  0  0  0  0  0  0  0  0  0  0
  -12.3150   -3.5930   -7.8610 C   0  0  0  0  0  0  0  0  0  0  0  0
  -12.1140   -2.0840   -8.0640 C   0  0  0  0  0  0  0  0  0  0  0  0
  -10.9750   -1.5890   -7.3390 O   0  0  0  0  0  0  0  0  0  0  0  0
  -10.9790   -2.0270   -5.9920 C   0  0  0  0  0  0  0  0  0  0  0  0
  -10.5670   -3.4800   -5.9550 C   0  0  0  0  0  0  0  0  0  0  0  0
  -11.0700   -4.2320   -7.1980 C   0  0  0  0  0  0  0  0  0  0  0  0
   -9.9400   -4.2490   -8.0900 O   0  0  0  0  0  0  0  0  0  0  0  0
   -8.9750   -5.0300   -7.5420 C   0  0  0  0  0  0  0  0  0  0  0  0
   -7.7490   -5.1200   -8.1590 C   0  0  0  0  0  0  0  0  0  0  0  0
   -6.8090   -5.9320   -7.5580 C   0  0  0  0  0  0  0  0  0  0  0  0
   -7.1420   -6.6010   -6.3810 C   0  0  0  0  0  0  0  0  0  0  0  0
   -8.3940   -6.4360   -5.8580 C   0  0  0  0  0  0  0  0  0  0  0  0
   -9.3160   -5.6640   -6.4170 N   0  0  0  0  0  0  0  0  0  0  0  0
  1  2  2  0
  2  3  1  0
  3  4  1  0
  4  5  1  0
  5  6  1  0
  6  7  2  0
  7  8  1  0
  8  9  2  0
  9 10  1  0
 10 11  2  0
  2 12  1  0
 12 13  1  0
 13 14  1  0
 14 15  1  0
 15 16  1  0
 16 17  1  0
 17 18  1  0
 18 19  1  0
 19 20  1  0
 20 21  2  0
 21 22  1  0
 22 23  2  0
 23 24  1  0
 24 25  2  0
 10  5  1  0
 18 13  1  0
 25 20  1  0
A    1
 O1 
A    2
 C1 
A    3
 C2 
A    4
 C3 
A    5
 N1 
A    6
 C4 
A    7
 C5 
A    8
 C6 
A    9
 C7 
A   10
 C8 
A   11
 O2 
A   12
 N2 
A   13
 C9 
A   14
 C10
A   15
 O3 
A   16
 C11
A   17
 C12
A   18
 C13
A   19
 O4 
A   20
 C14
A   21
 C15
A   22
 C16
A   23
 C17
A   24
 C18
A   25
 N3 
M  END
>  <ref_url>  (56) 
https://github.com/stephwills/fragment_network_merges

>  <submitter_name>  (56) 
Steph Wills

>  <submitter_institution>  (56) 
University of Oxford

>  <submitter_email>  (56) 
stephanie.wills@balliol.ox.ac.uk

>  <generation_date>  (56) 
2023-07-04

>  <original SMILES>  (56) 
CC(=O)NC12CCCCC1N(C(=O)Cc1ccc(=O)[nH]c1)CC2

>  <ref_mols>  (56) 
x1498_0A,x0980_0B

>  <SuCOS_score>  (56) 
0.4179997171884205

>  <cmpd_id>  (56) 
MOLPORT:038-394-851

>  <method>  (56) 
fragnetv2_named

>  <ref_pdb>  (56) 
x1498_0A

$$$$
x1498-0A-x0980-0B-666_u
     RDKit          3D

 23 25  0  0  0  0  0  0  0  0999 V2000
  -12.5090   -6.0820   -7.8870 O   0  0  0  0  0  0  0  0  0  0  0  0
  -12.4700   -5.0280   -7.2410 C   0  0  0  0  0  0  0  0  0  0  0  0
  -13.3540   -4.5300   -6.2440 N   0  0  0  0  0  0  0  0  0  0  0  0
  -12.8110   -3.5820   -5.2890 N   0  0  0  0  0  0  0  0  0  0  0  0
  -11.8100   -4.1360   -4.5660 C   0  0  0  0  0  0  0  0  0  0  0  0
  -12.1310   -4.6180   -3.3600 C   0  0  0  0  0  0  0  0  0  0  0  0
  -13.5030   -4.5000   -2.8980 C   0  0  0  0  0  0  0  0  0  0  0  0
  -14.3070   -3.5930   -3.4650 C   0  0  0  0  0  0  0  0  0  0  0  0
  -13.7090   -2.7910   -4.5480 C   0  0  0  0  0  0  0  0  0  0  0  0
  -13.9820   -1.5910   -4.6960 O   0  0  0  0  0  0  0  0  0  0  0  0
  -11.4140   -4.0560   -7.4940 C   0  0  0  0  0  0  0  0  0  0  0  0
  -11.7740   -2.7920   -7.2370 C   0  0  0  0  0  0  0  0  0  0  0  0
  -10.9040   -1.8110   -7.4210 C   0  0  0  0  0  0  0  0  0  0  0  0
   -9.6070   -2.0070   -7.8960 C   0  0  0  0  0  0  0  0  0  0  0  0
   -9.1900   -3.2940   -8.1720 C   0  0  0  0  0  0  0  0  0  0  0  0
   -7.9250   -3.6900   -8.6340 O   0  0  0  0  0  0  0  0  0  0  0  0
   -7.9310   -4.7380   -7.8260 C   0  0  0  0  0  0  0  0  0  0  0  0
   -7.3190   -5.9520   -7.9870 C   0  0  0  0  0  0  0  0  0  0  0  0
   -7.5600   -6.8680   -6.9690 C   0  0  0  0  0  0  0  0  0  0  0  0
   -8.3620   -6.5210   -5.8890 C   0  0  0  0  0  0  0  0  0  0  0  0
   -8.9030   -5.2670   -5.8500 C   0  0  0  0  0  0  0  0  0  0  0  0
   -8.7010   -4.3790   -6.7990 N   0  0  0  0  0  0  0  0  0  0  0  0
  -10.1220   -4.3390   -7.9540 C   0  0  0  0  0  0  0  0  0  0  0  0
  1  2  2  0
  2  3  1  0
  3  4  1  0
  4  5  1  0
  5  6  2  0
  6  7  1  0
  7  8  2  0
  8  9  1  0
  9 10  2  0
  2 11  1  0
 11 12  2  0
 12 13  1  0
 13 14  2  0
 14 15  1  0
 15 16  1  0
 16 17  1  0
 17 18  2  0
 18 19  1  0
 19 20  2  0
 20 21  1  0
 21 22  2  0
 15 23  2  0
  9  4  1  0
 23 11  1  0
 22 17  1  0
A    1
 O1 
A    2
 C1 
A    3
 N1 
A    4
 N2 
A    5
 C2 
A    6
 C3 
A    7
 C4 
A    8
 C5 
A    9
 C6 
A   10
 O2 
A   11
 C7 
A   12
 C8 
A   13
 C9 
A   14
 C10
A   15
 C11
A   16
 O3 
A   17
 C12
A   18
 C13
A   19
 C14
A   20
 C15
A   21
 C16
A   22
 N3 
A   23
 C17
M  END
>  <ref_url>  (57) 
https://github.com/stephwills/fragment_network_merges

>  <submitter_name>  (57) 
Steph Wills

>  <submitter_institution>  (57) 
University of Oxford

>  <submitter_email>  (57) 
stephanie.wills@balliol.ox.ac.uk

>  <generation_date>  (57) 
2023-07-04

>  <original SMILES>  (57) 
CC(=O)NC12CCCCC1N(C(=O)Cc1ccc(=O)[nH]c1)CC2

>  <ref_mols>  (57) 
x1498_0A,x0980_0B

>  <SuCOS_score>  (57) 
0.5019485768539778

>  <cmpd_id>  (57) 
ENAMINE:PV-002236071019

>  <method>  (57) 
fragnetv2_named

>  <ref_pdb>  (57) 
x1498_0A

$$$$
x1498-0A-x0980-0B-1912_u
     RDKit          3D

 22 24  0  0  0  0  0  0  0  0999 V2000
  -13.9790   -0.8490   -3.5480 O   0  0  0  0  0  0  0  0  0  0  0  0
  -13.4860   -1.9700   -3.6420 C   0  0  0  0  0  0  0  0  0  0  0  0
  -14.3100   -3.1990   -3.2240 C   0  0  0  0  0  0  0  0  0  0  0  0
  -13.7580   -4.4140   -3.1580 C   0  0  0  0  0  0  0  0  0  0  0  0
  -12.3580   -4.5650   -3.4840 C   0  0  0  0  0  0  0  0  0  0  0  0
  -11.6380   -3.5160   -3.9310 C   0  0  0  0  0  0  0  0  0  0  0  0
  -12.2090   -2.2580   -4.1020 N   0  0  0  0  0  0  0  0  0  0  0  0
  -11.6200   -1.3670   -5.0970 C   0  0  0  0  0  0  0  0  0  0  0  0
  -11.6870   -1.9880   -6.5070 C   0  0  0  0  0  0  0  0  0  0  0  0
  -11.6490   -3.4660   -6.4300 N   0  0  0  0  0  0  0  0  0  0  0  0
  -12.9450   -4.0040   -6.0200 C   0  0  0  0  0  0  0  0  0  0  0  0
  -13.8460   -3.7870   -7.0550 C   0  0  0  0  0  0  0  0  0  0  0  0
  -13.4880   -4.3290   -8.2650 C   0  0  0  0  0  0  0  0  0  0  0  0
  -12.2560   -4.9740   -8.2900 C   0  0  0  0  0  0  0  0  0  0  0  0
  -11.1190   -4.0880   -7.6840 C   0  0  0  0  0  0  0  0  0  0  0  0
   -9.8390   -4.6720   -7.5020 C   0  0  0  0  0  0  0  0  0  0  0  0
   -9.7880   -5.8220   -6.7240 C   0  0  0  0  0  0  0  0  0  0  0  0
   -8.5870   -6.4550   -6.4930 C   0  0  0  0  0  0  0  0  0  0  0  0
   -7.4550   -5.9200   -7.0520 C   0  0  0  0  0  0  0  0  0  0  0  0
   -7.4340   -4.8180   -7.8090 N   0  0  0  0  0  0  0  0  0  0  0  0
   -8.6040   -4.2250   -8.0130 C   0  0  0  0  0  0  0  0  0  0  0  0
   -8.4070   -3.1320   -8.7840 O   0  0  0  0  0  0  0  0  0  0  0  0
  1  2  2  0
  2  3  1  0
  3  4  2  0
  4  5  1  0
  5  6  2  0
  6  7  1  0
  7  8  1  0
  8  9  1  0
  9 10  1  0
 10 11  1  0
 11 12  1  0
 12 13  1  0
 13 14  1  0
 14 15  1  0
 15 16  1  0
 16 17  2  0
 17 18  1  0
 18 19  2  0
 19 20  1  0
 20 21  2  0
 21 22  1  0
  7  2  1  0
 15 10  1  0
 21 16  1  0
A    1
 O1 
A    2
 C1 
A    3
 C2 
A    4
 C3 
A    5
 C4 
A    6
 C5 
A    7
 N1 
A    8
 C6 
A    9
 C7 
A   10
 N2 
A   11
 C8 
A   12
 C9 
A   13
 C10
A   14
 C11
A   15
 C12
A   16
 C13
A   17
 C14
A   18
 C15
A   19
 C16
A   20
 N3 
A   21
 C17
A   22
 O2 
M  END
>  <ref_url>  (58) 
https://github.com/stephwills/fragment_network_merges

>  <submitter_name>  (58) 
Steph Wills

>  <submitter_institution>  (58) 
University of Oxford

>  <submitter_email>  (58) 
stephanie.wills@balliol.ox.ac.uk

>  <generation_date>  (58) 
2023-07-04

>  <original SMILES>  (58) 
CC(=O)NC12CCCCC1N(C(=O)Cc1ccc(=O)[nH]c1)CC2

>  <ref_mols>  (58) 
x1498_0A,x0980_0B

>  <SuCOS_score>  (58) 
0.5425111256461124

>  <cmpd_id>  (58) 
ENAMINE:Z4347063099

>  <method>  (58) 
fragnetv2_named

>  <ref_pdb>  (58) 
x1498_0A

$$$$
x1498-0A-x0980-0B-894_u
     RDKit          3D

 18 19  0  0  0  0  0  0  0  0999 V2000
  -12.7090   -6.5560   -3.1570 O   0  0  0  0  0  0  0  0  0  0  0  0
  -11.9930   -5.7480   -3.7360 C   0  0  0  0  0  0  0  0  0  0  0  0
  -10.6860   -6.0020   -4.1960 N   0  0  0  0  0  0  0  0  0  0  0  0
  -10.4510   -6.5880   -5.5170 C   0  0  0  0  0  0  0  0  0  0  0  0
   -9.4050   -5.9200   -6.4210 C   0  0  0  0  0  0  0  0  0  0  0  0
   -8.2030   -6.5680   -6.7730 C   0  0  0  0  0  0  0  0  0  0  0  0
   -7.2770   -5.9440   -7.6210 C   0  0  0  0  0  0  0  0  0  0  0  0
   -7.5800   -4.6920   -8.0850 C   0  0  0  0  0  0  0  0  0  0  0  0
   -6.7400   -4.0220   -8.9160 O   0  0  0  0  0  0  0  0  0  0  0  0
   -8.6990   -4.0150   -7.7830 N   0  0  0  0  0  0  0  0  0  0  0  0
   -9.5850   -4.6390   -6.9650 C   0  0  0  0  0  0  0  0  0  0  0  0
  -12.3940   -4.3420   -4.0550 C   0  0  0  0  0  0  0  0  0  0  0  0
  -11.5700   -3.7850   -4.9150 C   0  0  0  0  0  0  0  0  0  0  0  0
  -11.7470   -2.4390   -5.3500 C   0  0  0  0  0  0  0  0  0  0  0  0
  -12.7010   -1.6860   -4.8180 C   0  0  0  0  0  0  0  0  0  0  0  0
  -13.5830   -2.2500   -3.7760 C   0  0  0  0  0  0  0  0  0  0  0  0
  -14.3520   -1.5150   -3.1730 O   0  0  0  0  0  0  0  0  0  0  0  0
  -13.4730   -3.6170   -3.5490 N   0  0  0  0  0  0  0  0  0  0  0  0
  1  2  2  0
  2  3  1  0
  3  4  1  0
  4  5  1  0
  5  6  2  0
  6  7  1  0
  7  8  2  0
  8  9  1  0
  8 10  1  0
 10 11  2  0
  2 12  1  0
 12 13  2  0
 13 14  1  0
 14 15  2  0
 15 16  1  0
 16 17  2  0
 16 18  1  0
 11  5  1  0
 18 12  1  0
A    1
 O1 
A    2
 C1 
A    3
 N1 
A    4
 C2 
A    5
 C3 
A    6
 C4 
A    7
 C5 
A    8
 C6 
A    9
 O2 
A   10
 N2 
A   11
 C7 
A   12
 C8 
A   13
 C9 
A   14
 C10
A   15
 C11
A   16
 C12
A   17
 O3 
A   18
 N3 
M  END
>  <ref_url>  (59) 
https://github.com/stephwills/fragment_network_merges

>  <submitter_name>  (59) 
Steph Wills

>  <submitter_institution>  (59) 
University of Oxford

>  <submitter_email>  (59) 
stephanie.wills@balliol.ox.ac.uk

>  <generation_date>  (59) 
2023-07-04

>  <original SMILES>  (59) 
CC(=O)NC12CCCCC1N(C(=O)Cc1ccc(=O)[nH]c1)CC2

>  <ref_mols>  (59) 
x1498_0A,x0980_0B

>  <SuCOS_score>  (59) 
0.6964247156691425

>  <cmpd_id>  (59) 
ENAMINE:Z1938252093

>  <method>  (59) 
fragnetv2_named

>  <ref_pdb>  (59) 
x1498_0A

$$$$
x1498-0A-x0980-0B-1597_p
     RDKit          3D

 20 21  0  0  0  0  0  0  0  0999 V2000
   -8.4260   -7.9040   -6.0930 C   0  0  0  0  0  0  0  0  0  0  0  0
   -8.5260   -6.5330   -6.7030 C   0  0  0  0  0  0  0  0  0  0  0  0
   -7.3690   -5.9840   -7.5050 C   0  0  0  0  0  0  0  0  0  0  0  0
   -7.4960   -4.6230   -8.0930 C   0  0  0  0  0  0  0  0  0  0  0  0
   -6.4800   -4.1070   -8.8030 O   0  0  0  0  0  0  0  0  0  0  0  0
   -8.5890   -3.8780   -7.9350 N   0  0  0  0  0  0  0  0  0  0  0  0
   -9.6070   -4.4150   -7.2110 C   0  0  0  0  0  0  0  0  0  0  0  0
   -9.6510   -5.6810   -6.5910 C   0  0  0  0  0  0  0  0  0  0  0  0
  -10.8280   -6.0130   -5.9000 C   0  0  0  0  0  0  0  0  0  0  0  0
  -12.0080   -5.8150   -6.7590 N   0  0  0  0  0  0  0  0  0  0  0  0
  -13.2510   -5.6380   -5.9910 C   0  0  0  0  0  0  0  0  0  0  0  0
  -13.8770   -4.2810   -6.3640 C   0  0  0  0  0  0  0  0  0  0  0  0
  -14.8480   -3.7200   -5.3040 C   0  0  0  0  0  0  0  0  0  0  0  0
  -14.1820   -3.3390   -4.0590 N   0  0  0  0  0  0  0  0  0  0  0  0
  -13.4630   -4.3630   -3.4900 C   0  0  0  0  0  0  0  0  0  0  0  0
  -12.1290   -4.3750   -3.6270 C   0  0  0  0  0  0  0  0  0  0  0  0
  -11.4830   -3.3360   -4.3340 C   0  0  0  0  0  0  0  0  0  0  0  0
  -12.1490   -2.2000   -4.5770 C   0  0  0  0  0  0  0  0  0  0  0  0
  -13.5480   -2.0980   -4.0970 C   0  0  0  0  0  0  0  0  0  0  0  0
  -14.0310   -1.0130   -3.7820 O   0  0  0  0  0  0  0  0  0  0  0  0
  1  2  1  0
  2  3  2  0
  3  4  1  0
  4  5  1  0
  4  6  2  0
  6  7  1  0
  7  8  2  0
  8  9  1  0
  9 10  1  0
 10 11  1  0
 11 12  1  0
 12 13  1  0
 13 14  1  0
 14 15  1  0
 15 16  2  0
 16 17  1  0
 17 18  2  0
 18 19  1  0
 19 20  2  0
  8  2  1  0
 19 14  1  0
A    1
 C1 
A    2
 C2 
A    3
 C3 
A    4
 C4 
A    5
 O1 
A    6
 N1 
A    7
 C5 
A    8
 C6 
A    9
 C7 
A   10
 N2 
A   11
 C8 
A   12
 C9 
A   13
 C10
A   14
 N3 
A   15
 C11
A   16
 C12
A   17
 C13
A   18
 C14
A   19
 C15
A   20
 O2 
M  END
>  <ref_url>  (60) 
https://github.com/stephwills/fragment_network_merges

>  <submitter_name>  (60) 
Steph Wills

>  <submitter_institution>  (60) 
University of Oxford

>  <submitter_email>  (60) 
stephanie.wills@balliol.ox.ac.uk

>  <generation_date>  (60) 
2023-07-04

>  <original SMILES>  (60) 
CC(=O)NC12CCCCC1N(C(=O)Cc1ccc(=O)[nH]c1)CC2

>  <ref_mols>  (60) 
x1498_0A,x0980_0B

>  <SuCOS_score>  (60) 
0.7299400582115946

>  <cmpd_id>  (60) 
ENAMINE:Z3360653027

>  <method>  (60) 
fragnetv2_named

>  <ref_pdb>  (60) 
x1498_0A

$$$$
x1498-0A-x0980-0B-1971_u
     RDKit          3D

 24 26  0  0  0  0  0  0  0  0999 V2000
  -13.9180   -0.6820   -6.7360 O   0  0  0  0  0  0  0  0  0  0  0  0
  -13.2620   -1.5690   -6.1860 C   0  0  0  0  0  0  0  0  0  0  0  0
  -12.4460   -1.3020   -4.9140 C   0  0  0  0  0  0  0  0  0  0  0  0
  -12.7860   -2.2530   -3.8570 N   0  0  0  0  0  0  0  0  0  0  0  0
  -12.1250   -3.4710   -3.8910 N   0  0  0  0  0  0  0  0  0  0  0  0
  -12.7790   -4.4890   -3.4280 C   0  0  0  0  0  0  0  0  0  0  0  0
  -14.0220   -4.4000   -2.9380 C   0  0  0  0  0  0  0  0  0  0  0  0
  -14.6130   -3.1980   -2.8210 C   0  0  0  0  0  0  0  0  0  0  0  0
  -13.9830   -2.0730   -3.1890 C   0  0  0  0  0  0  0  0  0  0  0  0
  -14.4830   -0.9780   -2.9260 O   0  0  0  0  0  0  0  0  0  0  0  0
  -13.1860   -2.8760   -6.6570 N   0  0  0  0  0  0  0  0  0  0  0  0
  -12.2050   -3.2070   -7.6740 C   0  0  0  0  0  0  0  0  0  0  0  0
  -11.2270   -2.0300   -7.7720 C   0  0  0  0  0  0  0  0  0  0  0  0
   -9.9110   -2.3090   -7.4430 C   0  0  0  0  0  0  0  0  0  0  0  0
   -9.4490   -3.5000   -7.9080 C   0  0  0  0  0  0  0  0  0  0  0  0
   -8.0450   -3.8160   -8.0210 O   0  0  0  0  0  0  0  0  0  0  0  0
   -7.8720   -4.8970   -7.2490 C   0  0  0  0  0  0  0  0  0  0  0  0
   -7.5430   -6.1100   -7.7960 C   0  0  0  0  0  0  0  0  0  0  0  0
   -7.4260   -7.1800   -6.9250 C   0  0  0  0  0  0  0  0  0  0  0  0
   -7.6260   -6.9950   -5.5690 C   0  0  0  0  0  0  0  0  0  0  0  0
   -7.9430   -5.7290   -5.1300 C   0  0  0  0  0  0  0  0  0  0  0  0
   -8.0730   -4.6800   -5.9400 N   0  0  0  0  0  0  0  0  0  0  0  0
  -10.2080   -4.6120   -7.1780 C   0  0  0  0  0  0  0  0  0  0  0  0
  -11.5760   -4.6050   -7.4430 C   0  0  0  0  0  0  0  0  0  0  0  0
  1  2  2  0
  2  3  1  0
  3  4  1  0
  4  5  1  0
  5  6  2  0
  6  7  1  0
  7  8  2  0
  8  9  1  0
  9 10  2  0
  2 11  1  0
 11 12  1  0
 12 13  1  0
 13 14  1  0
 14 15  1  0
 15 16  1  0
 16 17  1  0
 17 18  2  0
 18 19  1  0
 19 20  2  0
 20 21  1  0
 21 22  2  0
 15 23  1  0
 23 24  1  0
  9  4  1  0
 24 12  1  0
 22 17  1  0
A    1
 O1 
A    2
 C1 
A    3
 C2 
A    4
 N1 
A    5
 N2 
A    6
 C3 
A    7
 C4 
A    8
 C5 
A    9
 C6 
A   10
 O2 
A   11
 N3 
A   12
 C7 
A   13
 C8 
A   14
 C9 
A   15
 C10
A   16
 O3 
A   17
 C11
A   18
 C12
A   19
 C13
A   20
 C14
A   21
 C15
A   22
 N4 
A   23
 C16
A   24
 C17
M  END
>  <ref_url>  (61) 
https://github.com/stephwills/fragment_network_merges

>  <submitter_name>  (61) 
Steph Wills

>  <submitter_institution>  (61) 
University of Oxford

>  <submitter_email>  (61) 
stephanie.wills@balliol.ox.ac.uk

>  <generation_date>  (61) 
2023-07-04

>  <original SMILES>  (61) 
CC(=O)NC12CCCCC1N(C(=O)Cc1ccc(=O)[nH]c1)CC2

>  <ref_mols>  (61) 
x1498_0A,x0980_0B

>  <SuCOS_score>  (61) 
0.44667619592479757

>  <cmpd_id>  (61) 
MOLPORT:038-938-251

>  <method>  (61) 
fragnetv2_named

>  <ref_pdb>  (61) 
x1498_0A

$$$$
x1498-0A-x0980-0B-1324_u
     RDKit          3D

 25 27  0  0  0  0  0  0  0  0999 V2000
   -8.5320   -2.9950   -2.0700 O   0  0  0  0  0  0  0  0  0  0  0  0
   -9.2320   -3.6430   -2.8430 C   0  0  0  0  0  0  0  0  0  0  0  0
  -10.7400   -3.4970   -2.8710 C   0  0  0  0  0  0  0  0  0  0  0  0
  -11.1920   -2.1900   -3.5250 C   0  0  0  0  0  0  0  0  0  0  0  0
  -12.4620   -2.3700   -4.2350 N   0  0  0  0  0  0  0  0  0  0  0  0
  -12.6010   -3.5180   -5.0020 C   0  0  0  0  0  0  0  0  0  0  0  0
  -13.6110   -4.3710   -4.7760 C   0  0  0  0  0  0  0  0  0  0  0  0
  -14.5580   -4.0860   -3.7280 C   0  0  0  0  0  0  0  0  0  0  0  0
  -14.5700   -2.8750   -3.1580 C   0  0  0  0  0  0  0  0  0  0  0  0
  -13.5960   -1.8490   -3.6190 C   0  0  0  0  0  0  0  0  0  0  0  0
  -13.8320   -0.6560   -3.4500 O   0  0  0  0  0  0  0  0  0  0  0  0
   -8.7870   -4.5850   -3.7650 N   0  0  0  0  0  0  0  0  0  0  0  0
   -8.7030   -4.4800   -5.1760 C   0  0  0  0  0  0  0  0  0  0  0  0
   -9.5970   -3.6430   -5.8480 C   0  0  0  0  0  0  0  0  0  0  0  0
   -9.5120   -3.5410   -7.2290 C   0  0  0  0  0  0  0  0  0  0  0  0
   -8.6140   -4.2070   -7.9720 N   0  0  0  0  0  0  0  0  0  0  0  0
   -7.7700   -5.0060   -7.2970 C   0  0  0  0  0  0  0  0  0  0  0  0
   -6.8520   -5.7040   -8.0280 O   0  0  0  0  0  0  0  0  0  0  0  0
   -6.9590   -7.0550   -7.8300 C   0  0  0  0  0  0  0  0  0  0  0  0
   -6.5780   -7.9920   -8.7840 C   0  0  0  0  0  0  0  0  0  0  0  0
   -6.7370   -9.3730   -8.4840 C   0  0  0  0  0  0  0  0  0  0  0  0
   -7.2590   -9.7880   -7.2590 C   0  0  0  0  0  0  0  0  0  0  0  0
   -7.6320   -8.8400   -6.3180 C   0  0  0  0  0  0  0  0  0  0  0  0
   -7.4840   -7.4810   -6.6030 C   0  0  0  0  0  0  0  0  0  0  0  0
   -7.7740   -5.1710   -5.9250 C   0  0  0  0  0  0  0  0  0  0  0  0
  1  2  2  0
  2  3  1  0
  3  4  1  0
  4  5  1  0
  5  6  1  0
  6  7  2  0
  7  8  1  0
  8  9  2  0
  9 10  1  0
 10 11  2  0
  2 12  1  0
 12 13  1  0
 13 14  2  0
 14 15  1  0
 15 16  2  0
 16 17  1  0
 17 18  1  0
 18 19  1  0
 19 20  2  0
 20 21  1  0
 21 22  2  0
 22 23  1  0
 23 24  2  0
 17 25  2  0
 10  5  1  0
 25 13  1  0
 24 19  1  0
A    1
 O1 
A    2
 C1 
A    3
 C2 
A    4
 C3 
A    5
 N1 
A    6
 C4 
A    7
 C5 
A    8
 C6 
A    9
 C7 
A   10
 C8 
A   11
 O2 
A   12
 N2 
A   13
 C9 
A   14
 C10
A   15
 C11
A   16
 N3 
A   17
 C12
A   18
 O3 
A   19
 C13
A   20
 C14
A   21
 C15
A   22
 C16
A   23
 C17
A   24
 C18
A   25
 C19
M  END
>  <ref_url>  (62) 
https://github.com/stephwills/fragment_network_merges

>  <submitter_name>  (62) 
Steph Wills

>  <submitter_institution>  (62) 
University of Oxford

>  <submitter_email>  (62) 
stephanie.wills@balliol.ox.ac.uk

>  <generation_date>  (62) 
2023-07-04

>  <original SMILES>  (62) 
CC(=O)NC12CCCCC1N(C(=O)Cc1ccc(=O)[nH]c1)CC2

>  <ref_mols>  (62) 
x1498_0A,x0980_0B

>  <SuCOS_score>  (62) 
0.46919016696174903

>  <cmpd_id>  (62) 
MOLPORT:028-272-293

>  <method>  (62) 
fragnetv2_named

>  <ref_pdb>  (62) 
x1498_0A

$$$$
x1498-0A-x0980-0B-539_u
     RDKit          3D

 19 20  0  0  0  0  0  0  0  0999 V2000
  -12.4320   -3.4320   -6.6860 O   0  0  0  0  0  0  0  0  0  0  0  0
  -11.9630   -4.5130   -6.3440 C   0  0  0  0  0  0  0  0  0  0  0  0
  -12.6680   -5.4390   -5.5790 N   0  0  0  0  0  0  0  0  0  0  0  0
  -13.4860   -4.9990   -4.4660 C   0  0  0  0  0  0  0  0  0  0  0  0
  -12.9940   -3.6480   -4.0340 C   0  0  0  0  0  0  0  0  0  0  0  0
  -11.6940   -3.3150   -3.9890 C   0  0  0  0  0  0  0  0  0  0  0  0
  -11.2940   -1.9910   -3.5730 C   0  0  0  0  0  0  0  0  0  0  0  0
  -12.2120   -1.0470   -3.3240 C   0  0  0  0  0  0  0  0  0  0  0  0
  -13.6520   -1.3750   -3.4770 C   0  0  0  0  0  0  0  0  0  0  0  0
  -14.5170   -0.5080   -3.4300 O   0  0  0  0  0  0  0  0  0  0  0  0
  -13.9350   -2.7040   -3.6670 N   0  0  0  0  0  0  0  0  0  0  0  0
  -10.5880   -4.9340   -6.7490 C   0  0  0  0  0  0  0  0  0  0  0  0
  -10.0890   -6.1450   -6.2710 C   0  0  0  0  0  0  0  0  0  0  0  0
   -8.8250   -6.5420   -6.6720 C   0  0  0  0  0  0  0  0  0  0  0  0
   -8.1250   -5.7150   -7.5250 C   0  0  0  0  0  0  0  0  0  0  0  0
   -6.4380   -6.1950   -8.1410 Br  0  0  0  0  0  0  0  0  0  0  0  0
   -8.6720   -4.5280   -7.9420 C   0  0  0  0  0  0  0  0  0  0  0  0
   -7.9570   -3.7230   -8.7780 O   0  0  0  0  0  0  0  0  0  0  0  0
   -9.8970   -4.1050   -7.5760 N   0  0  0  0  0  0  0  0  0  0  0  0
  1  2  2  0
  2  3  1  0
  3  4  1  0
  4  5  1  0
  5  6  2  0
  6  7  1  0
  7  8  2  0
  8  9  1  0
  9 10  2  0
  9 11  1  0
  2 12  1  0
 12 13  2  0
 13 14  1  0
 14 15  2  0
 15 16  1  0
 15 17  1  0
 17 18  1  0
 17 19  2  0
 11  5  1  0
 19 12  1  0
A    1
 O1 
A    2
 C1 
A    3
 N1 
A    4
 C2 
A    5
 C3 
A    6
 C4 
A    7
 C5 
A    8
 C6 
A    9
 C7 
A   10
 O2 
A   11
 N2 
A   12
 C8 
A   13
 C9 
A   14
 C10
A   15
 C11
A   16
BR1 
A   17
 C12
A   18
 O3 
A   19
 N3 
M  END
>  <ref_url>  (63) 
https://github.com/stephwills/fragment_network_merges

>  <submitter_name>  (63) 
Steph Wills

>  <submitter_institution>  (63) 
University of Oxford

>  <submitter_email>  (63) 
stephanie.wills@balliol.ox.ac.uk

>  <generation_date>  (63) 
2023-07-04

>  <original SMILES>  (63) 
CC(=O)NC12CCCCC1N(C(=O)Cc1ccc(=O)[nH]c1)CC2

>  <ref_mols>  (63) 
x1498_0A,x0980_0B

>  <SuCOS_score>  (63) 
0.48078415021700865

>  <cmpd_id>  (63) 
ENAMINE:PV-002888808652

>  <method>  (63) 
fragnetv2_named

>  <ref_pdb>  (63) 
x1498_0A

$$$$
x1498-0A-x0980-0B-1123_u
     RDKit          3D

 20 21  0  0  0  0  0  0  0  0999 V2000
   -8.0270   -6.8980   -4.7580 C   0  0  0  0  0  0  0  0  0  0  0  0
   -7.9180   -6.1910   -6.0780 C   0  0  0  0  0  0  0  0  0  0  0  0
   -7.5090   -6.9130   -7.1380 C   0  0  0  0  0  0  0  0  0  0  0  0
   -7.3830   -6.3000   -8.3460 C   0  0  0  0  0  0  0  0  0  0  0  0
   -7.6450   -5.0340   -8.6060 N   0  0  0  0  0  0  0  0  0  0  0  0
   -8.0520   -4.3470   -7.5920 C   0  0  0  0  0  0  0  0  0  0  0  0
   -8.2700   -3.1160   -8.0840 O   0  0  0  0  0  0  0  0  0  0  0  0
   -8.2020   -4.8480   -6.2730 C   0  0  0  0  0  0  0  0  0  0  0  0
   -8.6160   -4.1200   -5.0300 C   0  0  0  0  0  0  0  0  0  0  0  0
   -7.7280   -3.8970   -4.2020 O   0  0  0  0  0  0  0  0  0  0  0  0
   -9.9190   -3.7280   -4.7940 N   0  0  0  0  0  0  0  0  0  0  0  0
  -10.1760   -2.5310   -4.0000 C   0  0  0  0  0  0  0  0  0  0  0  0
  -11.5020   -2.4750   -3.2910 C   0  0  0  0  0  0  0  0  0  0  0  0
  -12.5430   -2.5800   -4.2760 N   0  0  0  0  0  0  0  0  0  0  0  0
  -12.3720   -3.7320   -5.0040 N   0  0  0  0  0  0  0  0  0  0  0  0
  -13.1700   -4.6900   -4.6810 C   0  0  0  0  0  0  0  0  0  0  0  0
  -14.2100   -4.5980   -3.6460 C   0  0  0  0  0  0  0  0  0  0  0  0
  -14.5110   -3.3620   -3.2350 C   0  0  0  0  0  0  0  0  0  0  0  0
  -13.7870   -2.2230   -3.8220 C   0  0  0  0  0  0  0  0  0  0  0  0
  -14.2880   -1.1020   -3.8610 O   0  0  0  0  0  0  0  0  0  0  0  0
  1  2  1  0
  2  3  2  0
  3  4  1  0
  4  5  2  0
  5  6  1  0
  6  7  1  0
  6  8  2  0
  8  9  1  0
  9 10  2  0
  9 11  1  0
 11 12  1  0
 12 13  1  0
 13 14  1  0
 14 15  1  0
 15 16  2  0
 16 17  1  0
 17 18  2  0
 18 19  1  0
 19 20  2  0
  8  2  1  0
 19 14  1  0
A    1
 C1 
A    2
 C2 
A    3
 C3 
A    4
 C4 
A    5
 N1 
A    6
 C5 
A    7
 O1 
A    8
 C6 
A    9
 C7 
A   10
 O2 
A   11
 N2 
A   12
 C8 
A   13
 C9 
A   14
 N3 
A   15
 N4 
A   16
 C10
A   17
 C11
A   18
 C12
A   19
 C13
A   20
 O3 
M  END
>  <ref_url>  (64) 
https://github.com/stephwills/fragment_network_merges

>  <submitter_name>  (64) 
Steph Wills

>  <submitter_institution>  (64) 
University of Oxford

>  <submitter_email>  (64) 
stephanie.wills@balliol.ox.ac.uk

>  <generation_date>  (64) 
2023-07-04

>  <original SMILES>  (64) 
CC(=O)NC12CCCCC1N(C(=O)Cc1ccc(=O)[nH]c1)CC2

>  <ref_mols>  (64) 
x1498_0A,x0980_0B

>  <SuCOS_score>  (64) 
0.49297750709218996

>  <cmpd_id>  (64) 
ENAMINE:PV-002200380690

>  <method>  (64) 
fragnetv2_named

>  <ref_pdb>  (64) 
x1498_0A

$$$$
x1498-0A-x0980-0B-1198_u
     RDKit          3D

 22 23  0  0  0  0  0  0  0  0999 V2000
  -11.4660   -2.3790   -8.3880 C   0  0  0  0  0  0  0  0  0  0  0  0
  -10.3170   -2.2600   -7.4130 C   0  0  0  0  0  0  0  0  0  0  0  0
  -10.8990   -1.8800   -6.0630 C   0  0  0  0  0  0  0  0  0  0  0  0
   -9.5690   -3.5630   -7.3540 C   0  0  0  0  0  0  0  0  0  0  0  0
  -10.0940   -4.5830   -6.6310 C   0  0  0  0  0  0  0  0  0  0  0  0
   -9.4490   -5.7800   -6.5660 C   0  0  0  0  0  0  0  0  0  0  0  0
  -10.2540   -6.7120   -5.7230 C   0  0  0  0  0  0  0  0  0  0  0  0
   -9.6800   -7.5880   -5.0770 O   0  0  0  0  0  0  0  0  0  0  0  0
  -11.6820   -6.4930   -5.7550 N   0  0  0  0  0  0  0  0  0  0  0  0
  -12.3500   -5.9970   -6.9580 C   0  0  0  0  0  0  0  0  0  0  0  0
  -12.4760   -6.2440   -4.5140 C   0  0  0  0  0  0  0  0  0  0  0  0
  -12.4750   -4.7510   -4.2010 C   0  0  0  0  0  0  0  0  0  0  0  0
  -11.2940   -4.1660   -4.1200 C   0  0  0  0  0  0  0  0  0  0  0  0
  -11.1640   -2.7710   -3.8570 C   0  0  0  0  0  0  0  0  0  0  0  0
  -12.2300   -1.9830   -3.7680 C   0  0  0  0  0  0  0  0  0  0  0  0
  -13.5740   -2.5680   -3.9300 C   0  0  0  0  0  0  0  0  0  0  0  0
  -14.5510   -1.8280   -3.9780 O   0  0  0  0  0  0  0  0  0  0  0  0
  -13.6240   -3.9590   -4.0080 N   0  0  0  0  0  0  0  0  0  0  0  0
   -8.2240   -5.9640   -7.2560 C   0  0  0  0  0  0  0  0  0  0  0  0
   -7.7910   -4.8410   -7.9650 C   0  0  0  0  0  0  0  0  0  0  0  0
   -6.6580   -4.7930   -8.6990 O   0  0  0  0  0  0  0  0  0  0  0  0
   -8.4180   -3.6740   -8.0230 N   0  0  0  0  0  0  0  0  0  0  0  0
  1  2  1  0
  2  3  1  0
  2  4  1  0
  4  5  2  0
  5  6  1  0
  6  7  1  0
  7  8  2  0
  7  9  1  0
  9 10  1  0
  9 11  1  0
 11 12  1  0
 12 13  2  0
 13 14  1  0
 14 15  2  0
 15 16  1  0
 16 17  2  0
 16 18  1  0
  6 19  2  0
 19 20  1  0
 20 21  1  0
 20 22  2  0
 22  4  1  0
 18 12  1  0
A    1
 C1 
A    2
 C2 
A    3
 C3 
A    4
 C4 
A    5
 C5 
A    6
 C6 
A    7
 C7 
A    8
 O1 
A    9
 N1 
A   10
 C8 
A   11
 C9 
A   12
 C10
A   13
 C11
A   14
 C12
A   15
 C13
A   16
 C14
A   17
 O2 
A   18
 N2 
A   19
 C15
A   20
 C16
A   21
 O3 
A   22
 N3 
M  END
>  <ref_url>  (65) 
https://github.com/stephwills/fragment_network_merges

>  <submitter_name>  (65) 
Steph Wills

>  <submitter_institution>  (65) 
University of Oxford

>  <submitter_email>  (65) 
stephanie.wills@balliol.ox.ac.uk

>  <generation_date>  (65) 
2023-07-04

>  <original SMILES>  (65) 
CC(=O)NC12CCCCC1N(C(=O)Cc1ccc(=O)[nH]c1)CC2

>  <ref_mols>  (65) 
x1498_0A,x0980_0B

>  <SuCOS_score>  (65) 
0.6024824459468615

>  <cmpd_id>  (65) 
ENAMINE:Z2963803120

>  <method>  (65) 
fragnetv2_named

>  <ref_pdb>  (65) 
x1498_0A

$$$$
x1498-0A-x0980-0B-506_u
     RDKit          3D

 21 22  0  0  0  0  0  0  0  0999 V2000
  -11.0850   -6.4760   -3.6260 O   0  0  0  0  0  0  0  0  0  0  0  0
  -10.8970   -6.5590   -4.8320 C   0  0  0  0  0  0  0  0  0  0  0  0
   -9.5300   -6.5230   -5.5010 C   0  0  0  0  0  0  0  0  0  0  0  0
   -9.2820   -5.3110   -6.3730 C   0  0  0  0  0  0  0  0  0  0  0  0
  -10.0860   -4.1840   -6.2270 C   0  0  0  0  0  0  0  0  0  0  0  0
   -9.8590   -3.0810   -7.0290 C   0  0  0  0  0  0  0  0  0  0  0  0
   -8.8960   -3.0140   -7.9610 N   0  0  0  0  0  0  0  0  0  0  0  0
   -8.1270   -4.1060   -8.0920 C   0  0  0  0  0  0  0  0  0  0  0  0
   -7.1430   -4.0520   -9.0470 O   0  0  0  0  0  0  0  0  0  0  0  0
   -8.2810   -5.2380   -7.3360 C   0  0  0  0  0  0  0  0  0  0  0  0
   -7.0980   -6.6270   -7.6700 Br  0  0  0  0  0  0  0  0  0  0  0  0
  -11.8980   -6.7080   -5.7590 O   0  0  0  0  0  0  0  0  0  0  0  0
  -12.3540   -5.5250   -6.4610 C   0  0  0  0  0  0  0  0  0  0  0  0
  -13.4110   -4.7120   -5.6860 C   0  0  0  0  0  0  0  0  0  0  0  0
  -12.8500   -3.6670   -4.8150 N   0  0  0  0  0  0  0  0  0  0  0  0
  -12.0000   -4.1120   -3.8200 C   0  0  0  0  0  0  0  0  0  0  0  0
  -12.4160   -4.1120   -2.5480 C   0  0  0  0  0  0  0  0  0  0  0  0
  -13.7430   -3.6370   -2.2370 C   0  0  0  0  0  0  0  0  0  0  0  0
  -14.4080   -2.9190   -3.1500 C   0  0  0  0  0  0  0  0  0  0  0  0
  -13.7400   -2.6560   -4.4450 C   0  0  0  0  0  0  0  0  0  0  0  0
  -13.9850   -1.6310   -5.0740 O   0  0  0  0  0  0  0  0  0  0  0  0
  1  2  2  0
  2  3  1  0
  3  4  1  0
  4  5  2  0
  5  6  1  0
  6  7  2  0
  7  8  1  0
  8  9  1  0
  8 10  2  0
 10 11  1  0
  2 12  1  0
 12 13  1  0
 13 14  1  0
 14 15  1  0
 15 16  1  0
 16 17  2  0
 17 18  1  0
 18 19  2  0
 19 20  1  0
 20 21  2  0
 10  4  1  0
 20 15  1  0
A    1
 O1 
A    2
 C1 
A    3
 C2 
A    4
 C3 
A    5
 C4 
A    6
 C5 
A    7
 N1 
A    8
 C6 
A    9
 O2 
A   10
 C7 
A   11
BR1 
A   12
 O3 
A   13
 C8 
A   14
 C9 
A   15
 N2 
A   16
 C10
A   17
 C11
A   18
 C12
A   19
 C13
A   20
 C14
A   21
 O4 
M  END
>  <ref_url>  (66) 
https://github.com/stephwills/fragment_network_merges

>  <submitter_name>  (66) 
Steph Wills

>  <submitter_institution>  (66) 
University of Oxford

>  <submitter_email>  (66) 
stephanie.wills@balliol.ox.ac.uk

>  <generation_date>  (66) 
2023-07-04

>  <original SMILES>  (66) 
CC(=O)NC12CCCCC1N(C(=O)Cc1ccc(=O)[nH]c1)CC2

>  <ref_mols>  (66) 
x1498_0A,x0980_0B

>  <SuCOS_score>  (66) 
0.6075825381166509

>  <cmpd_id>  (66) 
ENAMINE:Z1894327036

>  <method>  (66) 
fragnetv2_named

>  <ref_pdb>  (66) 
x1498_0A

$$$$
x1140-0A-x0771-0A-2778_p
     RDKit          3D

 28 32  0  0  0  0  0  0  0  0999 V2000
   -9.5020   -9.1770   -5.5540 O   0  0  0  0  0  0  0  0  0  0  0  0
   -8.3930   -8.8370   -5.9410 C   0  0  0  0  0  0  0  0  0  0  0  0
   -7.3140   -9.6160   -6.3210 N   0  0  0  0  0  0  0  0  0  0  0  0
   -6.4360  -10.2000   -5.3180 C   0  0  0  0  0  0  0  0  0  0  0  0
   -6.4470   -9.4100   -3.9790 C   0  0  0  0  0  0  0  0  0  0  0  0
   -7.3890   -9.9810   -2.9750 N   0  0  0  0  0  0  0  0  0  0  0  0
   -7.3530   -9.3140   -1.6390 C   0  0  0  0  0  0  0  0  0  0  0  0
   -6.0100   -8.7580   -1.1650 C   0  0  0  0  0  0  0  0  0  0  0  0
   -5.2960   -7.8600   -1.9900 C   0  0  0  0  0  0  0  0  0  0  0  0
   -4.0700   -7.3270   -1.5950 C   0  0  0  0  0  0  0  0  0  0  0  0
   -3.5740   -7.7050   -0.3730 C   0  0  0  0  0  0  0  0  0  0  0  0
   -4.2450   -8.5710    0.4500 C   0  0  0  0  0  0  0  0  0  0  0  0
   -5.4660   -9.1190    0.0890 C   0  0  0  0  0  0  0  0  0  0  0  0
   -3.5620   -8.7990    1.6080 O   0  0  0  0  0  0  0  0  0  0  0  0
   -2.5080   -7.8390    1.4880 C   0  0  0  0  0  0  0  0  0  0  0  0
   -2.4020   -7.2950    0.1620 O   0  0  0  0  0  0  0  0  0  0  0  0
   -7.4070  -11.4490   -2.9270 C   0  0  0  0  0  0  0  0  0  0  0  0
   -7.7360  -12.1520   -1.5980 C   0  0  0  0  0  0  0  0  0  0  0  0
   -7.1970  -13.5760   -1.7810 C   0  0  0  0  0  0  0  0  0  0  0  0
   -6.3650  -13.5560   -3.0590 C   0  0  0  0  0  0  0  0  0  0  0  0
   -6.0800  -12.0980   -3.2820 C   0  0  0  0  0  0  0  0  0  0  0  0
   -6.8210   -8.9970   -7.4760 N   0  0  0  0  0  0  0  0  0  0  0  0
   -7.1970   -7.7590   -7.2880 C   0  0  0  0  0  0  0  0  0  0  0  0
   -7.0080   -6.5600   -8.1320 C   0  0  0  0  0  0  0  0  0  0  0  0
   -7.4210   -5.3800   -7.6270 C   0  0  0  0  0  0  0  0  0  0  0  0
   -8.0210   -5.2860   -6.3040 C   0  0  0  0  0  0  0  0  0  0  0  0
   -8.2320   -6.3990   -5.5890 C   0  0  0  0  0  0  0  0  0  0  0  0
   -7.8770   -7.5940   -6.1360 N   0  0  0  0  0  0  0  0  0  0  0  0
  1  2  2  0
  2  3  1  0
  3  4  1  0
  4  5  1  0
  5  6  1  0
  6  7  1  0
  7  8  1  0
  8  9  2  0
  9 10  1  0
 10 11  2  0
 11 12  1  0
 12 13  2  0
 12 14  1  0
 14 15  1  0
 15 16  1  0
  6 17  1  0
 17 18  1  0
 18 19  1  0
 19 20  1  0
 20 21  1  0
  3 22  1  0
 22 23  2  0
 23 24  1  0
 24 25  2  0
 25 26  1  0
 26 27  2  0
 27 28  1  0
 28  2  1  0
 13  8  1  0
 21 17  1  0
 28 23  1  0
 16 11  1  0
A    1
 O1 
A    2
 C1 
A    3
 N1 
A    4
 C2 
A    5
 C3 
A    6
 N2 
A    7
 C4 
A    8
 C5 
A    9
 C6 
A   10
 C7 
A   11
 C8 
A   12
 C9 
A   13
 C10
A   14
 O2 
A   15
 C11
A   16
 O3 
A   17
 C12
A   18
 C13
A   19
 C14
A   20
 C15
A   21
 C16
A   22
 N3 
A   23
 C17
A   24
 C18
A   25
 C19
A   26
 C20
A   27
 C21
A   28
 N4 
M  END
>  <ref_url>  (67) 
https://github.com/stephwills/fragment_network_merges

>  <submitter_name>  (67) 
Steph Wills

>  <submitter_institution>  (67) 
University of Oxford

>  <submitter_email>  (67) 
stephanie.wills@balliol.ox.ac.uk

>  <generation_date>  (67) 
2023-07-04

>  <original SMILES>  (67) 
CC(=O)NC12CCCCC1N(C(=O)Cc1ccc(=O)[nH]c1)CC2

>  <ref_mols>  (67) 
x1140_0A,x0771_0A

>  <SuCOS_score>  (67) 
0.41372428095520886

>  <cmpd_id>  (67) 
MOLPORT:009-281-359

>  <method>  (67) 
fragnetv2_named

>  <ref_pdb>  (67) 
x1140_0A

$$$$
x1140-0A-x0771-0A-477_p
     RDKit          3D

 29 31  0  0  0  0  0  0  0  0999 V2000
   -8.1120   -4.9290   -7.6060 C   0  0  0  0  0  0  0  0  0  0  0  0
   -7.9200   -5.0880   -6.1990 O   0  0  0  0  0  0  0  0  0  0  0  0
   -8.4020   -6.3340   -5.6860 C   0  0  0  0  0  0  0  0  0  0  0  0
   -7.5320   -7.5090   -6.1420 C   0  0  0  0  0  0  0  0  0  0  0  0
   -6.7270   -7.1360   -7.3740 C   0  0  0  0  0  0  0  0  0  0  0  0
   -8.3650   -8.6470   -6.5020 N   0  0  0  0  0  0  0  0  0  0  0  0
   -7.6210   -9.8910   -7.2730 S   0  0  0  0  0  6  0  0  0  0  0  0
   -6.5010   -9.2570   -7.8790 O   0  0  0  0  0  0  0  0  0  0  0  0
   -8.5530  -10.6740   -8.0320 O   0  0  0  0  0  0  0  0  0  0  0  0
   -7.2700  -10.7170   -5.7910 C   0  0  0  0  0  0  0  0  0  0  0  0
   -7.2450  -12.1150   -5.6950 C   0  0  0  0  0  0  0  0  0  0  0  0
   -7.0020  -12.6980   -4.4480 C   0  0  0  0  0  0  0  0  0  0  0  0
   -6.7900  -11.8730   -3.3290 C   0  0  0  0  0  0  0  0  0  0  0  0
   -6.5550  -12.4680   -2.0020 C   0  0  0  0  0  0  0  0  0  0  0  0
   -6.3320  -13.6690   -1.9620 O   0  0  0  0  0  0  0  0  0  0  0  0
   -6.6030  -11.6670   -0.8550 N   0  0  0  0  0  0  0  0  0  0  0  0
   -6.2650  -12.1650    0.4690 C   0  0  0  0  0  0  0  0  0  0  0  0
   -6.9930  -10.2440   -0.9520 C   0  0  0  0  0  0  0  0  0  0  0  0
   -5.7820   -9.3510   -0.7540 C   0  0  0  0  0  0  0  0  0  0  0  0
   -5.2390   -8.5340   -1.7830 C   0  0  0  0  0  0  0  0  0  0  0  0
   -4.1000   -7.7470   -1.5440 C   0  0  0  0  0  0  0  0  0  0  0  0
   -3.5430   -7.8050   -0.2870 C   0  0  0  0  0  0  0  0  0  0  0  0
   -4.0700   -8.5800    0.7100 C   0  0  0  0  0  0  0  0  0  0  0  0
   -5.1790   -9.3550    0.5090 C   0  0  0  0  0  0  0  0  0  0  0  0
   -3.3720   -8.4860    1.8710 O   0  0  0  0  0  0  0  0  0  0  0  0
   -2.2500   -7.7310    1.4300 C   0  0  0  0  0  0  0  0  0  0  0  0
   -2.4440   -7.1430    0.1350 O   0  0  0  0  0  0  0  0  0  0  0  0
   -6.8030  -10.4930   -3.4570 C   0  0  0  0  0  0  0  0  0  0  0  0
   -7.0410   -9.9130   -4.6800 C   0  0  0  0  0  0  0  0  0  0  0  0
  1  2  1  0
  2  3  1  0
  3  4  1  0
  4  5  1  0
  4  6  1  0
  6  7  1  0
  7  8  2  0
  7  9  2  0
  7 10  1  0
 10 11  2  0
 11 12  1  0
 12 13  2  0
 13 14  1  0
 14 15  2  0
 14 16  1  0
 16 17  1  0
 16 18  1  0
 18 19  1  0
 19 20  2  0
 20 21  1  0
 21 22  2  0
 22 23  1  0
 23 24  2  0
 23 25  1  0
 25 26  1  0
 26 27  1  0
 13 28  1  0
 28 29  2  0
 29 10  1  0
 24 19  1  0
 27 22  1  0
A    1
 C1 
A    2
 O1 
A    3
 C2 
A    4
 C3 
A    5
 C4 
A    6
 N1 
A    7
 S1 
A    8
 O2 
A    9
 O3 
A   10
 C5 
A   11
 C6 
A   12
 C7 
A   13
 C8 
A   14
 C9 
A   15
 O4 
A   16
 N2 
A   17
 C10
A   18
 C11
A   19
 C12
A   20
 C13
A   21
 C14
A   22
 C15
A   23
 C16
A   24
 C17
A   25
 O5 
A   26
 C18
A   27
 O6 
A   28
 C19
A   29
 C20
M  END
>  <ref_url>  (68) 
https://github.com/stephwills/fragment_network_merges

>  <submitter_name>  (68) 
Steph Wills

>  <submitter_institution>  (68) 
University of Oxford

>  <submitter_email>  (68) 
stephanie.wills@balliol.ox.ac.uk

>  <generation_date>  (68) 
2023-07-04

>  <original SMILES>  (68) 
CC(=O)NC12CCCCC1N(C(=O)Cc1ccc(=O)[nH]c1)CC2

>  <ref_mols>  (68) 
x1140_0A,x0771_0A

>  <SuCOS_score>  (68) 
0.42029134100357296

>  <cmpd_id>  (68) 
MOLPORT:005-810-716

>  <method>  (68) 
fragnetv2_named

>  <ref_pdb>  (68) 
x1140_0A

$$$$
x1140-0A-x0771-0A-2996_p
     RDKit          3D

 23 23  0  0  0  0  0  0  0  0999 V2000
   -6.4650   -4.4790   -0.9500 C   0  0  0  0  0  0  0  0  0  0  0  0
   -7.3640   -5.4580   -1.6360 C   0  0  0  0  0  0  0  0  0  0  0  0
   -6.9620   -5.5230   -3.3680 S   0  0  0  0  0  6  0  0  0  0  0  0
   -8.0810   -6.1750   -4.0140 O   0  0  0  0  0  0  0  0  0  0  0  0
   -6.5480   -4.1730   -3.7240 O   0  0  0  0  0  0  0  0  0  0  0  0
   -5.6260   -6.5490   -3.4180 N   0  0  0  0  0  0  0  0  0  0  0  0
   -5.5560   -7.7770   -2.5980 C   0  0  0  0  0  0  0  0  0  0  0  0
   -6.2360   -8.8350   -3.3720 C   0  0  0  0  0  0  0  0  0  0  0  0
   -6.7420   -8.7160   -4.6180 C   0  0  0  0  0  0  0  0  0  0  0  0
   -7.2610   -9.9350   -4.9130 N   0  0  0  0  0  0  0  0  0  0  0  0
   -7.9200  -10.2850   -6.1590 C   0  0  0  0  0  0  0  0  0  0  0  0
   -9.2950   -9.6850   -6.1780 C   0  0  0  0  0  0  0  0  0  0  0  0
   -7.2000   -9.6220   -7.2550 C   0  0  0  0  0  0  0  0  0  0  0  0
   -7.2160   -9.9040   -8.4500 O   0  0  0  0  0  0  0  0  0  0  0  0
   -6.5150   -8.5920   -6.7060 N   0  0  0  0  0  0  0  0  0  0  0  0
   -6.7420   -7.2210   -7.1060 C   0  0  0  0  0  0  0  0  0  0  0  0
   -6.6890   -7.1270   -8.6200 C   0  0  0  0  0  0  0  0  0  0  0  0
   -8.0610   -6.6580   -6.5370 C   0  0  0  0  0  0  0  0  0  0  0  0
   -9.0320   -7.3240   -6.2090 O   0  0  0  0  0  0  0  0  0  0  0  0
   -7.9900   -5.3060   -6.4650 O   0  0  0  0  0  0  0  0  0  0  0  0
   -7.7860   -4.6870   -7.7370 C   0  0  0  0  0  0  0  0  0  0  0  0
   -7.0870  -10.7950   -3.8830 N   0  0  0  0  0  0  0  0  0  0  0  0
   -6.4510  -10.1210   -2.9180 N   0  0  0  0  0  0  0  0  0  0  0  0
  1  2  1  0
  2  3  1  0
  3  4  2  0
  3  5  2  0
  3  6  1  0
  6  7  1  0
  7  8  1  0
  8  9  2  0
  9 10  1  0
 10 11  1  0
 11 12  1  0
 11 13  1  0
 13 14  2  0
 13 15  1  0
 15 16  1  0
 16 17  1  0
 16 18  1  0
 18 19  2  0
 18 20  1  0
 20 21  1  0
 10 22  1  0
 22 23  2  0
 23  8  1  0
A    1
 C1 
A    2
 C2 
A    3
 S1 
A    4
 O1 
A    5
 O2 
A    6
 N1 
A    7
 C3 
A    8
 C4 
A    9
 C5 
A   10
 N2 
A   11
 C6 
A   12
 C7 
A   13
 C8 
A   14
 O3 
A   15
 N3 
A   16
 C9 
A   17
 C10
A   18
 C11
A   19
 O4 
A   20
 O5 
A   21
 C12
A   22
 N4 
A   23
 N5 
M  END
>  <ref_url>  (69) 
https://github.com/stephwills/fragment_network_merges

>  <submitter_name>  (69) 
Steph Wills

>  <submitter_institution>  (69) 
University of Oxford

>  <submitter_email>  (69) 
stephanie.wills@balliol.ox.ac.uk

>  <generation_date>  (69) 
2023-07-04

>  <original SMILES>  (69) 
CC(=O)NC12CCCCC1N(C(=O)Cc1ccc(=O)[nH]c1)CC2

>  <ref_mols>  (69) 
x1140_0A,x0771_0A

>  <SuCOS_score>  (69) 
0.43158828991800113

>  <cmpd_id>  (69) 
ENAMINE:PV-002948945223

>  <method>  (69) 
fragnetv2_named

>  <ref_pdb>  (69) 
x1140_0A

$$$$
x1140-0A-x0771-0A-2936_p
     RDKit          3D

 23 23  0  0  0  0  0  0  0  0999 V2000
  -10.0270   -2.2510   -7.5840 C   0  0  0  0  0  0  0  0  0  0  0  0
   -9.7580   -3.7310   -7.3850 C   0  0  0  0  0  0  0  0  0  0  0  0
   -8.3430   -4.0020   -7.3670 N   0  0  0  0  0  0  0  0  0  0  0  0
   -7.7430   -4.9440   -8.1810 C   0  0  0  0  0  0  0  0  0  0  0  0
   -7.2350   -4.6550   -9.2590 O   0  0  0  0  0  0  0  0  0  0  0  0
   -7.7830   -6.3370   -7.5650 C   0  0  0  0  0  0  0  0  0  0  0  0
   -6.8750   -7.3570   -8.2580 C   0  0  0  0  0  0  0  0  0  0  0  0
   -6.7340   -8.7260   -7.6080 C   0  0  0  0  0  0  0  0  0  0  0  0
   -7.8890   -9.4530   -6.9790 C   0  0  0  0  0  0  0  0  0  0  0  0
   -8.4470  -10.3460   -7.6080 O   0  0  0  0  0  0  0  0  0  0  0  0
   -8.2410   -9.0610   -5.6970 N   0  0  0  0  0  0  0  0  0  0  0  0
   -7.4730   -9.5500   -4.5630 C   0  0  0  0  0  0  0  0  0  0  0  0
   -6.1050   -8.8820   -4.4980 C   0  0  0  0  0  0  0  0  0  0  0  0
   -6.1710   -7.3660   -4.7430 C   0  0  0  0  0  0  0  0  0  0  0  0
   -6.0920   -6.5140   -3.5420 N   0  0  0  0  0  0  0  0  0  0  0  0
   -5.2580   -7.0540   -2.4430 C   0  0  0  0  0  0  0  0  0  0  0  0
   -7.2950   -5.3730   -3.1990 S   0  0  0  0  0  6  0  0  0  0  0  0
   -6.9050   -4.0710   -3.7100 O   0  0  0  0  0  0  0  0  0  0  0  0
   -8.5570   -5.9590   -3.5910 O   0  0  0  0  0  0  0  0  0  0  0  0
   -7.3140   -5.3030   -1.4270 C   0  0  0  0  0  0  0  0  0  0  0  0
   -6.4030   -4.1960   -1.0130 C   0  0  0  0  0  0  0  0  0  0  0  0
   -7.3250   -6.8430   -5.6210 C   0  0  0  0  0  0  0  0  0  0  0  0
   -8.5950   -7.6810   -5.5360 C   0  0  0  0  0  0  0  0  0  0  0  0
  1  2  1  0
  2  3  1  0
  3  4  1  0
  4  5  2  0
  4  6  1  0
  6  7  1  0
  7  8  1  0
  8  9  1  0
  9 10  2  0
  9 11  1  0
 11 12  1  0
 12 13  1  0
 13 14  1  0
 14 15  1  0
 15 16  1  0
 15 17  1  0
 17 18  2  0
 17 19  2  0
 17 20  1  0
 20 21  1  0
 14 22  1  0
 22 23  1  0
 23 11  1  0
A    1
 C1 
A    2
 C2 
A    3
 N1 
A    4
 C3 
A    5
 O1 
A    6
 C4 
A    7
 C5 
A    8
 C6 
A    9
 C7 
A   10
 O2 
A   11
 N2 
A   12
 C8 
A   13
 C9 
A   14
 C10
A   15
 N3 
A   16
 C11
A   17
 S1 
A   18
 O3 
A   19
 O4 
A   20
 C12
A   21
 C13
A   22
 C14
A   23
 C15
M  END
>  <ref_url>  (70) 
https://github.com/stephwills/fragment_network_merges

>  <submitter_name>  (70) 
Steph Wills

>  <submitter_institution>  (70) 
University of Oxford

>  <submitter_email>  (70) 
stephanie.wills@balliol.ox.ac.uk

>  <generation_date>  (70) 
2023-07-04

>  <original SMILES>  (70) 
CC(=O)NC12CCCCC1N(C(=O)Cc1ccc(=O)[nH]c1)CC2

>  <ref_mols>  (70) 
x1140_0A,x0771_0A

>  <SuCOS_score>  (70) 
0.44100063837196873

>  <cmpd_id>  (70) 
ENAMINE:Z1161744868

>  <method>  (70) 
fragnetv2_named

>  <ref_pdb>  (70) 
x1140_0A

$$$$
x0771-0A-x0789-0A-2885_p
     RDKit          3D

 24 26  0  0  0  0  0  0  0  0999 V2000
   -4.9310  -12.4190   -3.7900 C   0  0  0  0  0  0  0  0  0  0  0  0
   -3.7230  -11.7170   -4.0830 O   0  0  0  0  0  0  0  0  0  0  0  0
   -3.8730  -10.2940   -4.1480 C   0  0  0  0  0  0  0  0  0  0  0  0
   -5.0970   -9.9470   -4.9310 C   0  0  0  0  0  0  0  0  0  0  0  0
   -6.2580   -9.4430   -4.1380 C   0  0  0  0  0  0  0  0  0  0  0  0
   -6.3330   -9.4320   -2.9080 O   0  0  0  0  0  0  0  0  0  0  0  0
   -7.2270   -8.9980   -4.9860 N   0  0  0  0  0  0  0  0  0  0  0  0
   -7.7250   -9.8650   -6.0480 C   0  0  0  0  0  0  0  0  0  0  0  0
   -7.4520   -9.0510   -7.2800 C   0  0  0  0  0  0  0  0  0  0  0  0
   -7.8270   -7.7220   -6.8240 C   0  0  0  0  0  0  0  0  0  0  0  0
   -9.2830   -7.6930   -6.4620 N   0  0  0  0  0  0  0  0  0  0  0  0
  -10.1320   -6.5960   -6.2890 C   0  0  0  0  0  0  0  0  0  0  0  0
  -10.0090   -5.5330   -6.8810 O   0  0  0  0  0  0  0  0  0  0  0  0
  -11.2030   -6.8010   -5.3850 C   0  0  0  0  0  0  0  0  0  0  0  0
  -11.7800   -5.8210   -4.5890 C   0  0  0  0  0  0  0  0  0  0  0  0
  -13.0060   -6.0810   -4.0110 C   0  0  0  0  0  0  0  0  0  0  0  0
  -13.3830   -4.9300   -3.2580 C   0  0  0  0  0  0  0  0  0  0  0  0
  -12.5290   -3.9000   -3.2600 N   0  0  0  0  0  0  0  0  0  0  0  0
  -11.2040   -4.2800   -4.1890 S   0  0  0  0  0  0  0  0  0  0  0  0
   -7.3170   -6.5900   -7.7030 C   0  0  0  0  0  0  0  0  0  0  0  0
   -7.6500   -5.2370   -7.1130 C   0  0  0  0  0  0  0  0  0  0  0  0
   -7.9250   -5.2560   -5.5850 C   0  0  0  0  0  0  0  0  0  0  0  0
   -7.4700   -6.4740   -4.7410 C   0  0  0  0  0  0  0  0  0  0  0  0
   -6.9980   -7.6650   -5.5690 C   0  0  0  0  0  0  0  0  0  0  0  0
  1  2  1  0
  2  3  1  0
  3  4  1  0
  4  5  1  0
  5  6  2  0
  5  7  1  0
  7  8  1  0
  8  9  1  0
  9 10  1  0
 10 11  1  0
 11 12  1  0
 12 13  2  0
 12 14  1  0
 14 15  1  0
 15 16  2  0
 16 17  1  0
 17 18  2  0
 18 19  1  0
 10 20  1  0
 20 21  1  0
 21 22  1  0
 22 23  1  0
 23 24  1  0
 24  7  1  0
 24 10  1  0
 19 15  1  0
A    1
 C1 
A    2
 O1 
A    3
 C2 
A    4
 C3 
A    5
 C4 
A    6
 O2 
A    7
 N1 
A    8
 C5 
A    9
 C6 
A   10
 C7 
A   11
 N2 
A   12
 C8 
A   13
 O3 
A   14
 C9 
A   15
 C10
A   16
 C11
A   17
 C12
A   18
 N3 
A   19
 S1 
A   20
 C13
A   21
 C14
A   22
 C15
A   23
 C16
A   24
 C17
M  END
>  <ref_url>  (71) 
https://github.com/stephwills/fragment_network_merges

>  <submitter_name>  (71) 
Steph Wills

>  <submitter_institution>  (71) 
University of Oxford

>  <submitter_email>  (71) 
stephanie.wills@balliol.ox.ac.uk

>  <generation_date>  (71) 
2023-07-04

>  <original SMILES>  (71) 
CC(=O)NC12CCCCC1N(C(=O)Cc1ccc(=O)[nH]c1)CC2

>  <ref_mols>  (71) 
x0771_0A,x0789_0A

>  <SuCOS_score>  (71) 
0.40215369737872125

>  <cmpd_id>  (71) 
ENAMINE:PV-003241245532

>  <method>  (71) 
fragnetv2_named

>  <ref_pdb>  (71) 
x0771_0A

$$$$
x0771-0A-x0789-0A-1780_p
     RDKit          3D

 23 25  0  0  0  0  0  0  0  0999 V2000
   -9.5390   -7.8380   -3.5750 O   0  0  0  0  0  0  0  0  0  0  0  0
   -9.5540   -8.3230   -4.7020 C   0  0  0  0  0  0  0  0  0  0  0  0
  -10.8920   -8.7120   -5.3660 C   0  0  0  0  0  0  0  0  0  0  0  0
  -12.0690   -7.7010   -5.2900 C   0  0  0  0  0  0  0  0  0  0  0  0
  -12.1320   -6.3880   -4.6590 C   0  0  0  0  0  0  0  0  0  0  0  0
  -13.2450   -6.0660   -3.8220 C   0  0  0  0  0  0  0  0  0  0  0  0
  -13.1840   -4.7870   -3.2930 C   0  0  0  0  0  0  0  0  0  0  0  0
  -12.2040   -3.8830   -3.4980 N   0  0  0  0  0  0  0  0  0  0  0  0
  -11.1850   -4.2530   -4.2920 C   0  0  0  0  0  0  0  0  0  0  0  0
  -11.1090   -5.4840   -4.8900 C   0  0  0  0  0  0  0  0  0  0  0  0
   -8.3960   -8.5660   -5.4440 N   0  0  0  0  0  0  0  0  0  0  0  0
   -7.2950   -7.6070   -5.4340 C   0  0  2  0  0  0  0  0  0  0  0  0
   -7.5300   -6.2100   -4.8210 C   0  0  0  0  0  0  0  0  0  0  0  0
   -8.1030   -5.0980   -5.7180 C   0  0  0  0  0  0  0  0  0  0  0  0
   -7.6000   -5.1390   -7.1500 C   0  0  0  0  0  0  0  0  0  0  0  0
   -7.7240   -6.5380   -7.6650 C   0  0  0  0  0  0  0  0  0  0  0  0
   -6.8860   -7.5250   -6.8950 C   0  0  2  0  0  0  0  0  0  0  0  0
   -6.9570   -8.9850   -7.2830 C   0  0  0  0  0  0  0  0  0  0  0  0
   -8.2050   -9.5370   -6.5660 C   0  0  1  0  0  0  0  0  0  0  0  0
   -7.9820  -11.0310   -6.2490 C   0  0  0  0  0  0  0  0  0  0  0  0
   -7.8800  -11.7710   -7.3720 F   0  0  0  0  0  0  0  0  0  0  0  0
   -6.8360  -11.2170   -5.5510 F   0  0  0  0  0  0  0  0  0  0  0  0
   -8.9890  -11.5480   -5.5100 F   0  0  0  0  0  0  0  0  0  0  0  0
  1  2  2  0
  2  3  1  0
  3  4  2  3
  4  5  1  0
  5  6  2  0
  6  7  1  0
  7  8  2  0
  8  9  1  0
  9 10  2  0
  2 11  1  0
 11 12  1  0
 12 13  1  6
 13 14  1  0
 14 15  1  0
 15 16  1  0
 17 16  1  6
 17 18  1  0
 18 19  1  0
 19 20  1  1
 20 21  1  0
 20 22  1  0
 20 23  1  0
 10  5  1  0
 19 11  1  0
 17 12  1  0
A    1
 O1 
A    2
 C1 
A    3
 C2 
A    4
 C3 
A    5
 C4 
A    6
 C5 
A    7
 C6 
A    8
 N1 
A    9
 C7 
A   10
 C8 
A   11
 N2 
A   12
 C9 
A   13
 C10
A   14
 C11
A   15
 C12
A   16
 C13
A   17
 C14
A   18
 C15
A   19
 C16
A   20
 C17
A   21
 F1 
A   22
 F2 
A   23
 F3 
M  END
>  <ref_url>  (72) 
https://github.com/stephwills/fragment_network_merges

>  <submitter_name>  (72) 
Steph Wills

>  <submitter_institution>  (72) 
University of Oxford

>  <submitter_email>  (72) 
stephanie.wills@balliol.ox.ac.uk

>  <generation_date>  (72) 
2023-07-04

>  <original SMILES>  (72) 
CC(=O)NC12CCCCC1N(C(=O)Cc1ccc(=O)[nH]c1)CC2

>  <ref_mols>  (72) 
x0771_0A,x0789_0A

>  <SuCOS_score>  (72) 
0.4164249362185275

>  <cmpd_id>  (72) 
ENAMINE:Z3385648638

>  <method>  (72) 
fragnetv2_named

>  <ref_pdb>  (72) 
x0771_0A

$$$$
x0771-0A-x0789-0A-1359_p
     RDKit          3D

 22 24  0  0  0  0  0  0  0  0999 V2000
  -12.0700  -10.8910   -5.8710 C   0  0  0  0  0  0  0  0  0  0  0  0
  -11.3220   -9.9900   -4.8850 C   0  0  0  0  0  0  0  0  0  0  0  0
  -12.1400   -8.7600   -4.4180 C   0  0  0  0  0  0  0  0  0  0  0  0
  -12.0250   -7.5380   -5.3610 C   0  0  0  0  0  0  0  0  0  0  0  0
  -12.0550   -6.2090   -4.6530 C   0  0  0  0  0  0  0  0  0  0  0  0
  -13.3050   -6.0180   -3.8310 C   0  0  0  0  0  0  0  0  0  0  0  0
  -13.3760   -4.6950   -3.1140 C   0  0  0  0  0  0  0  0  0  0  0  0
  -12.4020   -3.7600   -3.2000 N   0  0  0  0  0  0  0  0  0  0  0  0
  -11.3070   -4.0410   -3.9730 C   0  0  0  0  0  0  0  0  0  0  0  0
  -11.0900   -5.2130   -4.6990 C   0  0  0  0  0  0  0  0  0  0  0  0
  -10.0040   -9.5800   -5.3990 N   0  0  0  0  0  0  0  0  0  0  0  0
   -9.1480  -10.3320   -6.1990 C   0  0  0  0  0  0  0  0  0  0  0  0
   -9.5200  -11.2740   -6.8980 O   0  0  0  0  0  0  0  0  0  0  0  0
   -7.6640   -9.9040   -6.1670 C   0  0  0  0  0  0  0  0  0  0  0  0
   -7.2500   -9.1560   -7.4210 C   0  0  0  0  0  0  0  0  0  0  0  0
   -7.6080   -7.7330   -7.0510 C   0  0  0  0  0  0  0  0  0  0  0  0
   -7.0060   -6.5950   -7.8230 C   0  0  0  0  0  0  0  0  0  0  0  0
   -7.6500   -5.4510   -7.3620 C   0  0  0  0  0  0  0  0  0  0  0  0
   -7.8900   -5.3190   -5.9860 C   0  0  0  0  0  0  0  0  0  0  0  0
   -7.9300   -6.6010   -5.1050 C   0  0  0  0  0  0  0  0  0  0  0  0
   -7.1330   -7.6010   -5.6410 C   0  0  0  0  0  0  0  0  0  0  0  0
   -7.3690   -8.9350   -5.0710 N   0  0  0  0  0  0  0  0  0  0  0  0
  1  2  1  0
  2  3  1  0
  3  4  1  0
  4  5  1  0
  5  6  2  0
  6  7  1  0
  7  8  2  0
  8  9  1  0
  9 10  2  0
  2 11  1  0
 11 12  1  0
 12 13  2  0
 12 14  1  0
 14 15  1  0
 15 16  1  0
 16 17  1  0
 17 18  1  0
 18 19  1  0
 19 20  1  0
 20 21  1  0
 21 22  1  0
 10  5  1  0
 22 14  1  0
 21 16  1  0
A    1
 C1 
A    2
 C2 
A    3
 C3 
A    4
 C4 
A    5
 C5 
A    6
 C6 
A    7
 C7 
A    8
 N1 
A    9
 C8 
A   10
 C9 
A   11
 N2 
A   12
 C10
A   13
 O1 
A   14
 C11
A   15
 C12
A   16
 C13
A   17
 C14
A   18
 C15
A   19
 C16
A   20
 C17
A   21
 C18
A   22
 N3 
M  END
>  <ref_url>  (73) 
https://github.com/stephwills/fragment_network_merges

>  <submitter_name>  (73) 
Steph Wills

>  <submitter_institution>  (73) 
University of Oxford

>  <submitter_email>  (73) 
stephanie.wills@balliol.ox.ac.uk

>  <generation_date>  (73) 
2023-07-04

>  <original SMILES>  (73) 
CC(=O)NC12CCCCC1N(C(=O)Cc1ccc(=O)[nH]c1)CC2

>  <ref_mols>  (73) 
x0771_0A,x0789_0A

>  <SuCOS_score>  (73) 
0.42412730649248837

>  <cmpd_id>  (73) 
ENAMINE:Z977428930

>  <method>  (73) 
fragnetv2_named

>  <ref_pdb>  (73) 
x0771_0A

$$$$
x0771-0A-x0789-0A-1270_p
     RDKit          3D

 22 25  0  0  0  0  0  0  0  0999 V2000
   -8.6440  -10.8630   -4.5900 O   0  0  0  0  0  0  0  0  0  0  0  0
   -8.9490   -9.8790   -5.2480 C   0  0  0  0  0  0  0  0  0  0  0  0
  -10.3280   -9.2380   -5.2510 C   0  0  0  0  0  0  0  0  0  0  0  0
  -10.2970   -7.8380   -4.7630 C   0  0  0  0  0  0  0  0  0  0  0  0
  -11.7350   -7.5070   -4.9050 C   0  0  0  0  0  0  0  0  0  0  0  0
  -12.1070   -6.1220   -4.4900 C   0  0  0  0  0  0  0  0  0  0  0  0
  -13.3920   -5.9550   -3.7100 C   0  0  0  0  0  0  0  0  0  0  0  0
  -13.6730   -4.5100   -3.3120 C   0  0  0  0  0  0  0  0  0  0  0  0
  -12.8690   -3.4600   -3.6110 N   0  0  0  0  0  0  0  0  0  0  0  0
  -11.7350   -3.6780   -4.3110 C   0  0  0  0  0  0  0  0  0  0  0  0
  -11.2960   -5.0450   -4.7930 C   0  0  0  0  0  0  0  0  0  0  0  0
  -12.4600   -8.5590   -5.3860 O   0  0  0  0  0  0  0  0  0  0  0  0
  -11.5820   -9.6460   -5.6000 N   0  0  0  0  0  0  0  0  0  0  0  0
   -7.9910   -9.2780   -6.0740 N   0  0  0  0  0  0  0  0  0  0  0  0
   -7.6540   -9.8050   -7.3690 C   0  0  0  0  0  0  0  0  0  0  0  0
   -6.9080   -8.6920   -8.0670 C   0  0  0  0  0  0  0  0  0  0  0  0
   -6.6240   -7.5500   -7.1240 C   0  0  0  0  0  0  0  0  0  0  0  0
   -6.8940   -6.2100   -7.8320 C   0  0  0  0  0  0  0  0  0  0  0  0
   -8.0090   -5.5070   -7.4460 C   0  0  0  0  0  0  0  0  0  0  0  0
   -8.0130   -5.4900   -5.9290 C   0  0  0  0  0  0  0  0  0  0  0  0
   -8.4000   -6.8490   -5.3980 C   0  0  0  0  0  0  0  0  0  0  0  0
   -7.4090   -7.9290   -5.8370 C   0  0  0  0  0  0  0  0  0  0  0  0
  1  2  2  0
  2  3  1  0
  3  4  1  0
  4  5  2  0
  5  6  1  0
  6  7  2  0
  7  8  1  0
  8  9  2  0
  9 10  1  0
 10 11  2  0
  5 12  1  0
 12 13  1  0
  2 14  1  0
 14 15  1  0
 15 16  1  0
 16 17  1  0
 17 18  1  0
 18 19  1  0
 19 20  1  0
 20 21  1  0
 21 22  1  0
 13  3  2  0
 22 14  1  0
 11  6  1  0
 22 17  1  0
A    1
 O1 
A    2
 C1 
A    3
 C2 
A    4
 C3 
A    5
 C4 
A    6
 C5 
A    7
 C6 
A    8
 C7 
A    9
 N1 
A   10
 C8 
A   11
 C9 
A   12
 O2 
A   13
 N2 
A   14
 N3 
A   15
 C10
A   16
 C11
A   17
 C12
A   18
 C13
A   19
 C14
A   20
 C15
A   21
 C16
A   22
 C17
M  END
>  <ref_url>  (74) 
https://github.com/stephwills/fragment_network_merges

>  <submitter_name>  (74) 
Steph Wills

>  <submitter_institution>  (74) 
University of Oxford

>  <submitter_email>  (74) 
stephanie.wills@balliol.ox.ac.uk

>  <generation_date>  (74) 
2023-07-04

>  <original SMILES>  (74) 
CC(=O)NC12CCCCC1N(C(=O)Cc1ccc(=O)[nH]c1)CC2

>  <ref_mols>  (74) 
x0771_0A,x0789_0A

>  <SuCOS_score>  (74) 
0.40064633239627107

>  <cmpd_id>  (74) 
MOLPORT:044-572-620

>  <method>  (74) 
fragnetv2_named

>  <ref_pdb>  (74) 
x0771_0A

$$$$
x0771-0A-x0789-0A-2559_p
     RDKit          3D

 22 24  0  0  0  0  0  0  0  0999 V2000
   -6.9100  -11.5480   -5.1880 O   0  0  0  0  0  0  0  0  0  0  0  0
   -7.5090  -11.2030   -6.1940 C   0  0  0  0  0  0  0  0  0  0  0  0
   -7.7650  -12.0960   -7.1780 O   0  0  0  0  0  0  0  0  0  0  0  0
   -8.0550   -9.8160   -6.5420 C   0  0  0  0  0  0  0  0  0  0  0  0
   -7.0970   -9.0800   -7.4600 C   0  0  0  0  0  0  0  0  0  0  0  0
   -7.4700   -7.6600   -7.1450 C   0  0  0  0  0  0  0  0  0  0  0  0
   -6.7340   -6.5580   -7.8640 C   0  0  0  0  0  0  0  0  0  0  0  0
   -7.4600   -5.2790   -7.5080 C   0  0  0  0  0  0  0  0  0  0  0  0
   -8.1820   -5.3670   -6.1440 C   0  0  0  0  0  0  0  0  0  0  0  0
   -7.6350   -6.3610   -5.0850 C   0  0  0  0  0  0  0  0  0  0  0  0
   -7.2760   -7.7320   -5.6670 C   0  0  0  0  0  0  0  0  0  0  0  0
   -8.1690   -8.8770   -5.3960 N   0  0  0  0  0  0  0  0  0  0  0  0
   -9.3910   -8.6240   -4.7880 C   0  0  0  0  0  0  0  0  0  0  0  0
   -9.8360   -9.3180   -3.8720 O   0  0  0  0  0  0  0  0  0  0  0  0
  -10.1500   -7.4260   -5.3320 C   0  0  0  0  0  0  0  0  0  0  0  0
  -11.6590   -7.4420   -5.0680 C   0  0  0  0  0  0  0  0  0  0  0  0
  -12.0280   -6.1330   -4.4690 C   0  0  0  0  0  0  0  0  0  0  0  0
  -13.2010   -5.9720   -3.7360 C   0  0  0  0  0  0  0  0  0  0  0  0
  -13.4650   -4.7200   -3.2130 C   0  0  0  0  0  0  0  0  0  0  0  0
  -12.6510   -3.6540   -3.3700 N   0  0  0  0  0  0  0  0  0  0  0  0
  -11.5240   -3.8470   -4.0830 C   0  0  0  0  0  0  0  0  0  0  0  0
  -11.1770   -5.0460   -4.6430 C   0  0  0  0  0  0  0  0  0  0  0  0
  1  2  2  0
  2  3  1  0
  2  4  1  0
  4  5  1  0
  5  6  1  0
  6  7  1  0
  7  8  1  0
  8  9  1  0
  9 10  1  0
 10 11  1  0
 11 12  1  0
 12 13  1  0
 13 14  2  0
 13 15  1  0
 15 16  1  0
 16 17  1  0
 17 18  2  0
 18 19  1  0
 19 20  2  0
 20 21  1  0
 21 22  2  0
 12  4  1  0
 22 17  1  0
 11  6  1  0
A    1
 O1 
A    2
 C1 
A    3
 O2 
A    4
 C2 
A    5
 C3 
A    6
 C4 
A    7
 C5 
A    8
 C6 
A    9
 C7 
A   10
 C8 
A   11
 C9 
A   12
 N1 
A   13
 C10
A   14
 O3 
A   15
 C11
A   16
 C12
A   17
 C13
A   18
 C14
A   19
 C15
A   20
 N2 
A   21
 C16
A   22
 C17
M  END
>  <ref_url>  (75) 
https://github.com/stephwills/fragment_network_merges

>  <submitter_name>  (75) 
Steph Wills

>  <submitter_institution>  (75) 
University of Oxford

>  <submitter_email>  (75) 
stephanie.wills@balliol.ox.ac.uk

>  <generation_date>  (75) 
2023-07-04

>  <original SMILES>  (75) 
CC(=O)NC12CCCCC1N(C(=O)Cc1ccc(=O)[nH]c1)CC2

>  <ref_mols>  (75) 
x0771_0A,x0789_0A

>  <SuCOS_score>  (75) 
0.4036935260518804

>  <cmpd_id>  (75) 
ENAMINE:Z1625156283

>  <method>  (75) 
fragnetv2_named

>  <ref_pdb>  (75) 
x0771_0A

$$$$
x0771-0A-x0789-0A-476_p
     RDKit          3D

 22 25  0  0  0  0  0  0  0  0999 V2000
   -8.5330  -10.5040   -3.6590 O   0  0  0  0  0  0  0  0  0  0  0  0
   -8.6570   -9.6330   -4.5220 C   0  0  0  0  0  0  0  0  0  0  0  0
  -10.0090   -8.9820   -4.7900 C   0  0  0  0  0  0  0  0  0  0  0  0
  -11.0710   -9.5070   -5.3870 N   0  0  0  0  0  0  0  0  0  0  0  0
  -12.0580   -8.5260   -5.3790 N   0  0  0  0  0  0  0  0  0  0  0  0
  -11.5140   -7.4870   -4.7800 C   0  0  0  0  0  0  0  0  0  0  0  0
  -11.9690   -6.1790   -4.4310 C   0  0  0  0  0  0  0  0  0  0  0  0
  -13.2380   -5.8940   -3.8550 C   0  0  0  0  0  0  0  0  0  0  0  0
  -13.6190   -4.6250   -3.5190 C   0  0  0  0  0  0  0  0  0  0  0  0
  -12.7890   -3.5790   -3.7250 N   0  0  0  0  0  0  0  0  0  0  0  0
  -11.5740   -3.8390   -4.2770 C   0  0  0  0  0  0  0  0  0  0  0  0
  -11.1280   -5.0950   -4.6400 C   0  0  0  0  0  0  0  0  0  0  0  0
  -10.2310   -7.7080   -4.3880 O   0  0  0  0  0  0  0  0  0  0  0  0
   -7.5200   -9.2500   -5.2600 N   0  0  0  0  0  0  0  0  0  0  0  0
   -6.9510  -10.0780   -6.3040 C   0  0  0  0  0  0  0  0  0  0  0  0
   -7.2380   -9.2940   -7.5940 C   0  0  0  0  0  0  0  0  0  0  0  0
   -7.6450   -7.9280   -7.0400 C   0  0  0  0  0  0  0  0  0  0  0  0
   -6.9890   -6.8480   -7.8380 C   0  0  0  0  0  0  0  0  0  0  0  0
   -7.5240   -5.4930   -7.4230 C   0  0  0  0  0  0  0  0  0  0  0  0
   -8.2860   -5.6090   -6.0810 C   0  0  0  0  0  0  0  0  0  0  0  0
   -7.7350   -6.6070   -5.0260 C   0  0  0  0  0  0  0  0  0  0  0  0
   -7.1520   -7.8940   -5.6320 C   0  0  0  0  0  0  0  0  0  0  0  0
  1  2  2  0
  2  3  1  0
  3  4  2  0
  4  5  1  0
  5  6  2  0
  6  7  1  0
  7  8  2  0
  8  9  1  0
  9 10  2  0
 10 11  1  0
 11 12  2  0
  6 13  1  0
  2 14  1  0
 14 15  1  0
 15 16  1  0
 16 17  1  0
 17 18  1  0
 18 19  1  0
 19 20  1  0
 20 21  1  0
 21 22  1  0
 13  3  1  0
 22 14  1  0
 12  7  1  0
 22 17  1  0
A    1
 O1 
A    2
 C1 
A    3
 C2 
A    4
 N1 
A    5
 N2 
A    6
 C3 
A    7
 C4 
A    8
 C5 
A    9
 C6 
A   10
 N3 
A   11
 C7 
A   12
 C8 
A   13
 O2 
A   14
 N4 
A   15
 C9 
A   16
 C10
A   17
 C11
A   18
 C12
A   19
 C13
A   20
 C14
A   21
 C15
A   22
 C16
M  END
>  <ref_url>  (76) 
https://github.com/stephwills/fragment_network_merges

>  <submitter_name>  (76) 
Steph Wills

>  <submitter_institution>  (76) 
University of Oxford

>  <submitter_email>  (76) 
stephanie.wills@balliol.ox.ac.uk

>  <generation_date>  (76) 
2023-07-04

>  <original SMILES>  (76) 
CC(=O)NC12CCCCC1N(C(=O)Cc1ccc(=O)[nH]c1)CC2

>  <ref_mols>  (76) 
x0771_0A,x0789_0A

>  <SuCOS_score>  (76) 
0.4049340848763706

>  <cmpd_id>  (76) 
ENAMINE:Z3539954638

>  <method>  (76) 
fragnetv2_named

>  <ref_pdb>  (76) 
x0771_0A

$$$$
x0147-0A-x0789-0A-1403_p
     RDKit          3D

 18 20  0  0  0  0  0  0  0  0999 V2000
  -12.6400   -6.0120   -8.0670 O   0  0  0  0  0  0  0  0  0  0  0  0
  -12.2450   -5.1800   -7.2380 C   0  0  0  0  0  0  0  0  0  0  0  0
  -12.9790   -4.6540   -6.2180 N   0  0  0  0  0  0  0  0  0  0  0  0
  -13.6180   -5.4930   -5.2480 C   0  0  0  0  0  0  0  0  0  0  0  0
  -12.7470   -5.6300   -4.0270 C   0  0  0  0  0  0  0  0  0  0  0  0
  -13.2800   -4.8560   -2.8610 C   0  0  0  0  0  0  0  0  0  0  0  0
  -12.6320   -3.5950   -2.8680 O   0  0  0  0  0  0  0  0  0  0  0  0
  -11.8330   -6.8210   -3.8170 C   0  0  0  0  0  0  0  0  0  0  0  0
  -11.2420   -5.4980   -4.2110 C   0  0  0  0  0  0  0  0  0  0  0  0
  -10.8410   -4.6680   -7.3810 C   0  0  0  0  0  0  0  0  0  0  0  0
   -9.8850   -5.6090   -7.3220 C   0  0  0  0  0  0  0  0  0  0  0  0
   -8.6200   -5.2470   -7.6610 N   0  0  0  0  0  0  0  0  0  0  0  0
   -7.4480   -5.9250   -7.7970 C   0  0  0  0  0  0  0  0  0  0  0  0
   -6.5230   -5.0990   -8.2100 N   0  0  0  0  0  0  0  0  0  0  0  0
   -7.1040   -3.8560   -8.3410 N   0  0  0  0  0  0  0  0  0  0  0  0
   -8.3490   -3.9660   -7.9950 C   0  0  0  0  0  0  0  0  0  0  0  0
   -9.3920   -2.9870   -7.9380 C   0  0  0  0  0  0  0  0  0  0  0  0
  -10.6180   -3.3150   -7.6410 N   0  0  0  0  0  0  0  0  0  0  0  0
  1  2  2  0
  2  3  1  0
  3  4  1  0
  4  5  1  0
  5  6  1  0
  6  7  1  0
  5  8  1  0
  8  9  1  0
  2 10  1  0
 10 11  2  0
 11 12  1  0
 12 13  1  0
 13 14  2  0
 14 15  1  0
 15 16  2  0
 16 17  1  0
 17 18  2  0
  9  5  1  0
 18 10  1  0
 16 12  1  0
A    1
 O1 
A    2
 C1 
A    3
 N1 
A    4
 C2 
A    5
 C3 
A    6
 C4 
A    7
 O2 
A    8
 C5 
A    9
 C6 
A   10
 C7 
A   11
 C8 
A   12
 N2 
A   13
 C9 
A   14
 N3 
A   15
 N4 
A   16
 C10
A   17
 C11
A   18
 N5 
M  END
>  <ref_url>  (77) 
https://github.com/stephwills/fragment_network_merges

>  <submitter_name>  (77) 
Steph Wills

>  <submitter_institution>  (77) 
University of Oxford

>  <submitter_email>  (77) 
stephanie.wills@balliol.ox.ac.uk

>  <generation_date>  (77) 
2023-07-04

>  <original SMILES>  (77) 
CC(=O)NC12CCCCC1N(C(=O)Cc1ccc(=O)[nH]c1)CC2

>  <ref_mols>  (77) 
x0147_0A,x0789_0A

>  <SuCOS_score>  (77) 
0.63754447534643

>  <cmpd_id>  (77) 
ENAMINE:Z3578694507

>  <method>  (77) 
fragnetv2_named

>  <ref_pdb>  (77) 
x0147_0A

$$$$
x0147-0A-x0789-0A-1271_p
     RDKit          3D

 20 22  0  0  0  0  0  0  0  0999 V2000
  -10.7240   -6.9300   -4.7490 C   0  0  0  0  0  0  0  0  0  0  0  0
  -11.6030   -6.6070   -3.5320 C   0  0  0  0  0  0  0  0  0  0  0  0
  -13.0600   -6.9240   -3.8950 C   0  0  0  0  0  0  0  0  0  0  0  0
  -11.2200   -7.4990   -2.4860 O   0  0  0  0  0  0  0  0  0  0  0  0
  -11.4680   -5.1350   -3.0370 C   0  0  0  0  0  0  0  0  0  0  0  0
  -12.8120   -4.4500   -2.7750 C   0  0  0  0  0  0  0  0  0  0  0  0
  -13.3320   -4.2200   -4.1810 C   0  0  0  0  0  0  0  0  0  0  0  0
  -12.1080   -4.1260   -4.9640 N   0  0  0  0  0  0  0  0  0  0  0  0
  -12.0270   -4.6060   -6.2350 C   0  0  0  0  0  0  0  0  0  0  0  0
  -12.9430   -5.1930   -6.8210 O   0  0  0  0  0  0  0  0  0  0  0  0
  -10.6980   -4.3500   -6.8940 C   0  0  0  0  0  0  0  0  0  0  0  0
   -9.8240   -5.3850   -6.9810 C   0  0  0  0  0  0  0  0  0  0  0  0
   -8.6140   -5.1510   -7.5840 N   0  0  0  0  0  0  0  0  0  0  0  0
   -7.5180   -5.9090   -7.8640 C   0  0  0  0  0  0  0  0  0  0  0  0
   -6.6220   -5.1730   -8.4830 N   0  0  0  0  0  0  0  0  0  0  0  0
   -7.1380   -3.9010   -8.6120 N   0  0  0  0  0  0  0  0  0  0  0  0
   -8.3210   -3.9160   -8.0640 C   0  0  0  0  0  0  0  0  0  0  0  0
   -9.2810   -2.8700   -7.9200 C   0  0  0  0  0  0  0  0  0  0  0  0
  -10.4300   -3.0740   -7.3620 N   0  0  0  0  0  0  0  0  0  0  0  0
  -10.9810   -4.1330   -4.0630 C   0  0  0  0  0  0  0  0  0  0  0  0
  1  2  1  0
  2  3  1  0
  2  4  1  0
  2  5  1  0
  5  6  1  0
  6  7  1  0
  7  8  1  0
  8  9  1  0
  9 10  2  0
  9 11  1  0
 11 12  2  0
 12 13  1  0
 13 14  1  0
 14 15  2  0
 15 16  1  0
 16 17  2  0
 17 18  1  0
 18 19  2  0
  8 20  1  0
 20  5  1  0
 19 11  1  0
 17 13  1  0
A    1
 C1 
A    2
 C2 
A    3
 C3 
A    4
 O1 
A    5
 C4 
A    6
 C5 
A    7
 C6 
A    8
 N1 
A    9
 C7 
A   10
 O2 
A   11
 C8 
A   12
 C9 
A   13
 N2 
A   14
 C10
A   15
 N3 
A   16
 N4 
A   17
 C11
A   18
 C12
A   19
 N5 
A   20
 C13
M  END
>  <ref_url>  (78) 
https://github.com/stephwills/fragment_network_merges

>  <submitter_name>  (78) 
Steph Wills

>  <submitter_institution>  (78) 
University of Oxford

>  <submitter_email>  (78) 
stephanie.wills@balliol.ox.ac.uk

>  <generation_date>  (78) 
2023-07-04

>  <original SMILES>  (78) 
CC(=O)NC12CCCCC1N(C(=O)Cc1ccc(=O)[nH]c1)CC2

>  <ref_mols>  (78) 
x0147_0A,x0789_0A

>  <SuCOS_score>  (78) 
0.7288722497624978

>  <cmpd_id>  (78) 
ENAMINE:PV-002997980214

>  <method>  (78) 
fragnetv2_named

>  <ref_pdb>  (78) 
x0147_0A

$$$$
x0147-0A-x0789-0A-1835_p
     RDKit          3D

 17 19  0  0  0  0  0  0  0  0999 V2000
  -12.5000   -3.5870   -5.2600 O   0  0  0  0  0  0  0  0  0  0  0  0
  -11.5050   -4.3160   -5.2200 C   0  0  0  0  0  0  0  0  0  0  0  0
  -10.3900   -4.1390   -6.2270 C   0  0  0  0  0  0  0  0  0  0  0  0
   -9.5030   -5.1590   -6.3720 C   0  0  0  0  0  0  0  0  0  0  0  0
   -8.4780   -4.9990   -7.2740 N   0  0  0  0  0  0  0  0  0  0  0  0
   -7.4300   -5.7690   -7.6840 C   0  0  0  0  0  0  0  0  0  0  0  0
   -6.7330   -5.1150   -8.5900 N   0  0  0  0  0  0  0  0  0  0  0  0
   -7.3340   -3.8870   -8.7840 N   0  0  0  0  0  0  0  0  0  0  0  0
   -8.3720   -3.8470   -7.9870 C   0  0  0  0  0  0  0  0  0  0  0  0
   -9.3400   -2.8170   -7.7860 C   0  0  0  0  0  0  0  0  0  0  0  0
  -10.3180   -2.9540   -6.9430 N   0  0  0  0  0  0  0  0  0  0  0  0
  -11.3890   -5.2910   -4.2790 N   0  0  0  0  0  0  0  0  0  0  0  0
  -10.9530   -6.6500   -4.4320 C   0  0  0  0  0  0  0  0  0  0  0  0
  -12.4470   -6.9580   -4.3420 C   0  0  0  0  0  0  0  0  0  0  0  0
  -12.4750   -5.7520   -3.4050 C   0  0  0  0  0  0  0  0  0  0  0  0
  -13.6510   -4.8070   -3.4480 C   0  0  0  0  0  0  0  0  0  0  0  0
  -13.1340   -3.4830   -3.4820 O   0  0  0  0  0  0  0  0  0  0  0  0
  1  2  2  0
  2  3  1  0
  3  4  2  0
  4  5  1  0
  5  6  1  0
  6  7  2  0
  7  8  1  0
  8  9  2  0
  9 10  1  0
 10 11  2  0
  2 12  1  0
 12 13  1  0
 13 14  1  0
 14 15  1  0
 15 16  1  0
 16 17  1  0
 11  3  1  0
 15 12  1  0
  9  5  1  0
A    1
 O1 
A    2
 C1 
A    3
 C2 
A    4
 C3 
A    5
 N1 
A    6
 C4 
A    7
 N2 
A    8
 N3 
A    9
 C5 
A   10
 C6 
A   11
 N4 
A   12
 N5 
A   13
 C7 
A   14
 C8 
A   15
 C9 
A   16
 C10
A   17
 O2 
M  END
>  <ref_url>  (79) 
https://github.com/stephwills/fragment_network_merges

>  <submitter_name>  (79) 
Steph Wills

>  <submitter_institution>  (79) 
University of Oxford

>  <submitter_email>  (79) 
stephanie.wills@balliol.ox.ac.uk

>  <generation_date>  (79) 
2023-07-04

>  <original SMILES>  (79) 
CC(=O)NC12CCCCC1N(C(=O)Cc1ccc(=O)[nH]c1)CC2

>  <ref_mols>  (79) 
x0147_0A,x0789_0A

>  <SuCOS_score>  (79) 
0.7724872360844961

>  <cmpd_id>  (79) 
ENAMINE:Z3627022930

>  <method>  (79) 
fragnetv2_named

>  <ref_pdb>  (79) 
x0147_0A

$$$$
x0771-0A-x1052-1A-1653_p
     RDKit          3D

 23 25  0  0  0  0  0  0  0  0999 V2000
   -6.1120  -10.6790   -4.2120 O   0  0  0  0  0  0  0  0  0  0  0  0
   -6.1320   -9.4890   -4.5320 C   0  0  0  0  0  0  0  0  0  0  0  0
   -4.9560   -8.5760   -4.1760 C   0  0  0  0  0  0  0  0  0  0  0  0
   -4.6380   -8.4950   -2.6770 C   0  0  0  0  0  0  0  0  0  0  0  0
   -5.4580   -7.4630   -1.9250 C   0  0  0  0  0  0  0  0  0  0  0  0
   -5.4460   -6.1200   -2.3010 C   0  0  0  0  0  0  0  0  0  0  0  0
   -6.2200   -5.2160   -1.5930 C   0  0  0  0  0  0  0  0  0  0  0  0
   -7.0000   -5.5560   -0.5460 N   0  0  0  0  0  0  0  0  0  0  0  0
   -6.9870   -6.8610   -0.1940 C   0  0  0  0  0  0  0  0  0  0  0  0
   -6.2480   -7.8380   -0.8390 C   0  0  0  0  0  0  0  0  0  0  0  0
   -7.2060   -8.9300   -5.2270 N   0  0  0  0  0  0  0  0  0  0  0  0
   -7.1320   -7.5110   -5.5500 C   0  0  0  0  0  0  0  0  0  0  0  0
   -8.3090   -6.6040   -5.1910 C   0  0  0  0  0  0  0  0  0  0  0  0
   -8.0330   -5.1430   -5.5980 C   0  0  0  0  0  0  0  0  0  0  0  0
   -7.6310   -5.0450   -7.0630 C   0  0  0  0  0  0  0  0  0  0  0  0
   -7.7400   -6.4000   -7.7180 C   0  0  0  0  0  0  0  0  0  0  0  0
   -6.8980   -7.4750   -7.0610 C   0  0  0  0  0  0  0  0  0  0  0  0
   -7.1010   -8.9230   -7.4960 C   0  0  0  0  0  0  0  0  0  0  0  0
   -7.9390   -9.5290   -6.3680 C   0  0  0  0  0  0  0  0  0  0  0  0
   -8.0460  -11.0670   -6.4570 C   0  0  0  0  0  0  0  0  0  0  0  0
   -6.9550  -11.6930   -5.9660 F   0  0  0  0  0  0  0  0  0  0  0  0
   -9.1260  -11.5470   -5.7990 F   0  0  0  0  0  0  0  0  0  0  0  0
   -8.1670  -11.4520   -7.7510 F   0  0  0  0  0  0  0  0  0  0  0  0
  1  2  2  0
  2  3  1  0
  3  4  1  0
  4  5  1  0
  5  6  2  0
  6  7  1  0
  7  8  2  0
  8  9  1  0
  9 10  2  0
  2 11  1  0
 11 12  1  0
 12 13  1  0
 13 14  1  0
 14 15  1  0
 15 16  1  0
 16 17  1  0
 17 18  1  0
 18 19  1  0
 19 20  1  0
 20 21  1  0
 20 22  1  0
 20 23  1  0
 10  5  1  0
 19 11  1  0
 17 12  1  0
A    1
 O1 
A    2
 C1 
A    3
 C2 
A    4
 C3 
A    5
 C4 
A    6
 C5 
A    7
 C6 
A    8
 N1 
A    9
 C7 
A   10
 C8 
A   11
 N2 
A   12
 C9 
A   13
 C10
A   14
 C11
A   15
 C12
A   16
 C13
A   17
 C14
A   18
 C15
A   19
 C16
A   20
 C17
A   21
 F1 
A   22
 F2 
A   23
 F3 
M  END
>  <ref_url>  (80) 
https://github.com/stephwills/fragment_network_merges

>  <submitter_name>  (80) 
Steph Wills

>  <submitter_institution>  (80) 
University of Oxford

>  <submitter_email>  (80) 
stephanie.wills@balliol.ox.ac.uk

>  <generation_date>  (80) 
2023-07-04

>  <original SMILES>  (80) 
CC(=O)NC12CCCCC1N(C(=O)Cc1ccc(=O)[nH]c1)CC2

>  <ref_mols>  (80) 
x0771_0A,x1052_1A

>  <SuCOS_score>  (80) 
0.43504968318847936

>  <cmpd_id>  (80) 
MOLPORT:027-706-979

>  <method>  (80) 
fragnetv2_named

>  <ref_pdb>  (80) 
x0771_0A

$$$$
x0771-0A-x1052-1A-2482_p
     RDKit          3D

 23 25  0  0  0  0  0  0  0  0999 V2000
   -6.4720  -12.3700   -8.3330 C   0  0  0  0  0  0  0  0  0  0  0  0
   -7.6490  -11.6340   -7.9650 O   0  0  0  0  0  0  0  0  0  0  0  0
   -7.6980  -11.2940   -6.6360 C   0  0  0  0  0  0  0  0  0  0  0  0
   -8.2240  -11.9790   -5.7660 O   0  0  0  0  0  0  0  0  0  0  0  0
   -7.0190   -9.9360   -6.3710 C   0  0  0  0  0  0  0  0  0  0  0  0
   -7.3600   -9.0190   -7.5320 C   0  0  0  0  0  0  0  0  0  0  0  0
   -7.3090   -7.5790   -6.9760 C   0  0  0  0  0  0  0  0  0  0  0  0
   -8.2070   -6.4680   -7.4760 C   0  0  0  0  0  0  0  0  0  0  0  0
   -7.8430   -5.1600   -6.8180 C   0  0  0  0  0  0  0  0  0  0  0  0
   -7.9590   -5.3020   -5.3080 C   0  0  0  0  0  0  0  0  0  0  0  0
   -8.3750   -6.7270   -4.9060 C   0  0  0  0  0  0  0  0  0  0  0  0
   -7.3840   -7.7500   -5.4590 C   0  0  0  0  0  0  0  0  0  0  0  0
   -7.5400   -9.2090   -5.1610 N   0  0  0  0  0  0  0  0  0  0  0  0
   -6.8600   -9.7120   -3.9220 C   0  0  0  0  0  0  0  0  0  0  0  0
   -5.6730   -8.8360   -3.4740 C   0  0  0  0  0  0  0  0  0  0  0  0
   -4.8830   -8.3910   -4.2680 O   0  0  0  0  0  0  0  0  0  0  0  0
   -5.6240   -8.6000   -2.1210 N   0  0  0  0  0  0  0  0  0  0  0  0
   -6.0770   -7.4020   -1.5920 C   0  0  0  0  0  0  0  0  0  0  0  0
   -5.6310   -6.1570   -2.0200 C   0  0  0  0  0  0  0  0  0  0  0  0
   -6.1840   -5.0400   -1.4250 C   0  0  0  0  0  0  0  0  0  0  0  0
   -7.1190   -5.0980   -0.4610 N   0  0  0  0  0  0  0  0  0  0  0  0
   -7.5180   -6.3230   -0.0690 C   0  0  0  0  0  0  0  0  0  0  0  0
   -7.0340   -7.4910   -0.5970 C   0  0  0  0  0  0  0  0  0  0  0  0
  1  2  1  0
  2  3  1  0
  3  4  2  0
  3  5  1  0
  5  6  1  0
  6  7  1  0
  7  8  1  0
  8  9  1  0
  9 10  1  0
 10 11  1  0
 11 12  1  0
 12 13  1  0
 13 14  1  0
 14 15  1  0
 15 16  2  0
 15 17  1  0
 17 18  1  0
 18 19  2  0
 19 20  1  0
 20 21  2  0
 21 22  1  0
 22 23  2  0
 13  5  1  0
 23 18  1  0
 12  7  1  0
A    1
 C1 
A    2
 O1 
A    3
 C2 
A    4
 O2 
A    5
 C3 
A    6
 C4 
A    7
 C5 
A    8
 C6 
A    9
 C7 
A   10
 C8 
A   11
 C9 
A   12
 C10
A   13
 N1 
A   14
 C11
A   15
 C12
A   16
 O3 
A   17
 N2 
A   18
 C13
A   19
 C14
A   20
 C15
A   21
 N3 
A   22
 C16
A   23
 C17
M  END
>  <ref_url>  (81) 
https://github.com/stephwills/fragment_network_merges

>  <submitter_name>  (81) 
Steph Wills

>  <submitter_institution>  (81) 
University of Oxford

>  <submitter_email>  (81) 
stephanie.wills@balliol.ox.ac.uk

>  <generation_date>  (81) 
2023-07-04

>  <original SMILES>  (81) 
CC(=O)NC12CCCCC1N(C(=O)Cc1ccc(=O)[nH]c1)CC2

>  <ref_mols>  (81) 
x0771_0A,x1052_1A

>  <SuCOS_score>  (81) 
0.40999880281005413

>  <cmpd_id>  (81) 
ENAMINE:Z3104092695

>  <method>  (81) 
fragnetv2_named

>  <ref_pdb>  (81) 
x0771_0A

$$$$
x0771-0A-x1052-1A-2267_p
     RDKit          3D

 21 23  0  0  0  0  0  0  0  0999 V2000
   -6.6150  -11.8040   -2.7480 C   0  0  0  0  0  0  0  0  0  0  0  0
   -6.3330  -10.7880   -3.7540 N   0  0  0  0  0  0  0  0  0  0  0  0
   -6.1920   -9.3870   -3.2920 C   0  0  0  0  0  0  0  0  0  0  0  0
   -5.5410   -9.0900   -1.9320 C   0  0  0  0  0  0  0  0  0  0  0  0
   -6.0190   -7.7410   -1.4610 C   0  0  0  0  0  0  0  0  0  0  0  0
   -5.5230   -6.5420   -2.0000 C   0  0  0  0  0  0  0  0  0  0  0  0
   -6.0360   -5.3460   -1.5190 C   0  0  0  0  0  0  0  0  0  0  0  0
   -6.9810   -5.2730   -0.5640 N   0  0  0  0  0  0  0  0  0  0  0  0
   -7.4300   -6.4430   -0.0630 C   0  0  0  0  0  0  0  0  0  0  0  0
   -6.9910   -7.6790   -0.4710 C   0  0  0  0  0  0  0  0  0  0  0  0
   -6.6790  -10.9060   -5.1200 C   0  0  0  0  0  0  0  0  0  0  0  0
   -6.9340  -11.9800   -5.6740 O   0  0  0  0  0  0  0  0  0  0  0  0
   -6.7020   -9.5460   -5.8440 C   0  0  0  0  0  0  0  0  0  0  0  0
   -7.3250   -9.2800   -7.2210 C   0  0  0  0  0  0  0  0  0  0  0  0
   -7.6710   -7.7790   -7.0630 C   0  0  0  0  0  0  0  0  0  0  0  0
   -7.0360   -6.7660   -7.9780 C   0  0  0  0  0  0  0  0  0  0  0  0
   -7.5980   -5.3760   -7.6450 C   0  0  0  0  0  0  0  0  0  0  0  0
   -8.4230   -5.2970   -6.3430 C   0  0  0  0  0  0  0  0  0  0  0  0
   -7.9740   -6.2040   -5.1880 C   0  0  0  0  0  0  0  0  0  0  0  0
   -7.2620   -7.4440   -5.6740 C   0  0  0  0  0  0  0  0  0  0  0  0
   -7.5710   -8.6840   -5.0270 N   0  0  0  0  0  0  0  0  0  0  0  0
  1  2  1  0
  2  3  1  0
  3  4  1  0
  4  5  1  0
  5  6  2  0
  6  7  1  0
  7  8  2  0
  8  9  1  0
  9 10  2  0
  2 11  1  0
 11 12  2  0
 11 13  1  0
 13 14  1  0
 14 15  1  0
 15 16  1  0
 16 17  1  0
 17 18  1  0
 18 19  1  0
 19 20  1  0
 20 21  1  0
 10  5  1  0
 21 13  1  0
 20 15  1  0
A    1
 C1 
A    2
 N1 
A    3
 C2 
A    4
 C3 
A    5
 C4 
A    6
 C5 
A    7
 C6 
A    8
 N2 
A    9
 C7 
A   10
 C8 
A   11
 C9 
A   12
 O1 
A   13
 C10
A   14
 C11
A   15
 C12
A   16
 C13
A   17
 C14
A   18
 C15
A   19
 C16
A   20
 C17
A   21
 N3 
M  END
>  <ref_url>  (82) 
https://github.com/stephwills/fragment_network_merges

>  <submitter_name>  (82) 
Steph Wills

>  <submitter_institution>  (82) 
University of Oxford

>  <submitter_email>  (82) 
stephanie.wills@balliol.ox.ac.uk

>  <generation_date>  (82) 
2023-07-04

>  <original SMILES>  (82) 
CC(=O)NC12CCCCC1N(C(=O)Cc1ccc(=O)[nH]c1)CC2

>  <ref_mols>  (82) 
x0771_0A,x1052_1A

>  <SuCOS_score>  (82) 
0.4116676709337391

>  <cmpd_id>  (82) 
ENAMINE:Z1626680646

>  <method>  (82) 
fragnetv2_named

>  <ref_pdb>  (82) 
x0771_0A

$$$$
x0771-0A-x1052-1A-2367_p
     RDKit          3D

 18 20  0  0  0  0  0  0  0  0999 V2000
   -7.0480  -10.2190   -3.1670 O   0  0  0  0  0  0  0  0  0  0  0  0
   -6.6740   -9.2840   -3.8840 C   0  0  0  0  0  0  0  0  0  0  0  0
   -5.5270   -8.3900   -3.3860 C   0  0  0  0  0  0  0  0  0  0  0  0
   -5.9750   -7.3910   -2.3400 C   0  0  0  0  0  0  0  0  0  0  0  0
   -5.7080   -6.0260   -2.4800 C   0  0  0  0  0  0  0  0  0  0  0  0
   -6.1610   -5.1540   -1.5120 C   0  0  0  0  0  0  0  0  0  0  0  0
   -6.8520   -5.5490   -0.4270 N   0  0  0  0  0  0  0  0  0  0  0  0
   -7.0870   -6.8700   -0.2970 C   0  0  0  0  0  0  0  0  0  0  0  0
   -6.6780   -7.8170   -1.2120 C   0  0  0  0  0  0  0  0  0  0  0  0
   -7.2950   -9.0640   -5.1180 N   0  0  0  0  0  0  0  0  0  0  0  0
   -7.1270  -10.0570   -6.1760 C   0  0  0  0  0  0  0  0  0  0  0  0
   -7.2650   -9.2510   -7.4660 C   0  0  0  0  0  0  0  0  0  0  0  0
   -6.8810   -7.8580   -6.9670 C   0  0  0  0  0  0  0  0  0  0  0  0
   -7.0130   -6.6710   -7.9190 C   0  0  0  0  0  0  0  0  0  0  0  0
   -8.0610   -5.6600   -7.4450 C   0  0  0  0  0  0  0  0  0  0  0  0
   -8.0480   -5.3660   -5.9330 C   0  0  0  0  0  0  0  0  0  0  0  0
   -7.6260   -6.5260   -5.0220 C   0  0  0  0  0  0  0  0  0  0  0  0
   -7.7840   -7.8430   -5.7550 C   0  0  0  0  0  0  0  0  0  0  0  0
  1  2  2  0
  2  3  1  0
  3  4  1  0
  4  5  2  0
  5  6  1  0
  6  7  2  0
  7  8  1  0
  8  9  2  0
  2 10  1  0
 10 11  1  0
 11 12  1  0
 12 13  1  0
 13 14  1  0
 14 15  1  0
 15 16  1  0
 16 17  1  0
 17 18  1  0
  9  4  1  0
 18 10  1  0
 18 13  1  0
A    1
 O1 
A    2
 C1 
A    3
 C2 
A    4
 C3 
A    5
 C4 
A    6
 C5 
A    7
 N1 
A    8
 C6 
A    9
 C7 
A   10
 N2 
A   11
 C8 
A   12
 C9 
A   13
 C10
A   14
 C11
A   15
 C12
A   16
 C13
A   17
 C14
A   18
 C15
M  END
>  <ref_url>  (83) 
https://github.com/stephwills/fragment_network_merges

>  <submitter_name>  (83) 
Steph Wills

>  <submitter_institution>  (83) 
University of Oxford

>  <submitter_email>  (83) 
stephanie.wills@balliol.ox.ac.uk

>  <generation_date>  (83) 
2023-07-04

>  <original SMILES>  (83) 
CC(=O)NC12CCCCC1N(C(=O)Cc1ccc(=O)[nH]c1)CC2

>  <ref_mols>  (83) 
x0771_0A,x1052_1A

>  <SuCOS_score>  (83) 
0.41577089267130746

>  <cmpd_id>  (83) 
ENAMINE:Z1327418187

>  <method>  (83) 
fragnetv2_named

>  <ref_pdb>  (83) 
x0771_0A

$$$$
x0771-0A-x1052-1A-151_p
     RDKit          3D

 20 21  0  0  0  0  0  0  0  0999 V2000
   -5.8940    1.4390   -1.0630 C   0  0  0  0  0  0  0  0  0  0  0  0
   -6.8900    0.4220   -1.0630 O   0  0  0  0  0  0  0  0  0  0  0  0
   -6.3300   -0.8950   -1.0600 C   0  0  0  0  0  0  0  0  0  0  0  0
   -7.4090   -1.9780   -1.1950 C   0  0  0  0  0  0  0  0  0  0  0  0
   -6.8480   -3.4050   -1.0920 C   0  0  0  0  0  0  0  0  0  0  0  0
   -7.0330   -4.3300   -2.6110 S   0  0  0  0  0  6  0  0  0  0  0  0
   -8.4450   -4.5660   -2.8060 O   0  0  0  0  0  0  0  0  0  0  0  0
   -6.2590   -3.5600   -3.5440 O   0  0  0  0  0  0  0  0  0  0  0  0
   -6.2330   -5.8360   -2.4740 N   0  0  0  0  0  0  0  0  0  0  0  0
   -6.9990   -7.1350   -2.6100 C   0  0  0  0  0  0  0  0  0  0  0  0
   -6.4540   -8.2190   -3.6210 C   0  0  0  0  0  0  0  0  0  0  0  0
   -7.3890   -8.5100   -4.7630 N   0  0  0  0  0  0  0  0  0  0  0  0
   -7.0540   -9.6550   -5.6760 C   0  0  0  0  0  0  0  0  0  0  0  0
   -7.4500   -9.2290   -7.1070 C   0  0  0  0  0  0  0  0  0  0  0  0
   -7.8140   -7.7610   -6.9610 C   0  0  0  0  0  0  0  0  0  0  0  0
   -7.2520   -6.7040   -7.8870 C   0  0  0  0  0  0  0  0  0  0  0  0
   -8.0700   -5.4290   -7.6730 C   0  0  0  0  0  0  0  0  0  0  0  0
   -8.2000   -5.0530   -6.1890 C   0  0  0  0  0  0  0  0  0  0  0  0
   -8.3770   -6.2380   -5.2320 C   0  0  0  0  0  0  0  0  0  0  0  0
   -7.3930   -7.3260   -5.5970 C   0  0  0  0  0  0  0  0  0  0  0  0
  1  2  1  0
  2  3  1  0
  3  4  1  0
  4  5  1  0
  5  6  1  0
  6  7  2  0
  6  8  2  0
  6  9  1  0
  9 10  1  0
 10 11  1  0
 11 12  1  0
 12 13  1  0
 13 14  1  0
 14 15  1  0
 15 16  1  0
 16 17  1  0
 17 18  1  0
 18 19  1  0
 19 20  1  0
 20 12  1  0
 20 15  1  0
A    1
 C1 
A    2
 O1 
A    3
 C2 
A    4
 C3 
A    5
 C4 
A    6
 S1 
A    7
 O2 
A    8
 O3 
A    9
 N1 
A   10
 C5 
A   11
 C6 
A   12
 N2 
A   13
 C7 
A   14
 C8 
A   15
 C9 
A   16
 C10
A   17
 C11
A   18
 C12
A   19
 C13
A   20
 C14
M  END
>  <ref_url>  (84) 
https://github.com/stephwills/fragment_network_merges

>  <submitter_name>  (84) 
Steph Wills

>  <submitter_institution>  (84) 
University of Oxford

>  <submitter_email>  (84) 
stephanie.wills@balliol.ox.ac.uk

>  <generation_date>  (84) 
2023-07-04

>  <original SMILES>  (84) 
CC(=O)NC12CCCCC1N(C(=O)Cc1ccc(=O)[nH]c1)CC2

>  <ref_mols>  (84) 
x0771_0A,x1052_1A

>  <SuCOS_score>  (84) 
0.4468743566667404

>  <cmpd_id>  (84) 
ENAMINE:Z2514173876

>  <method>  (84) 
fragnetv2_named

>  <ref_pdb>  (84) 
x0771_0A

$$$$
x0771-0A-x1052-1A-599_p
     RDKit          3D

 24 26  0  0  0  0  0  0  0  0999 V2000
   -8.6670   -9.8170    1.3290 O   0  0  0  0  0  0  0  0  0  0  0  0
   -7.8400   -9.2330    0.3010 S   0  0  0  0  0  6  0  0  0  0  0  0
   -6.6540   -9.9220   -0.1650 O   0  0  0  0  0  0  0  0  0  0  0  0
   -8.8710   -8.8680   -1.1200 C   0  0  0  0  0  0  0  0  0  0  0  0
   -8.3100   -9.4100   -2.4380 C   0  0  0  0  0  0  0  0  0  0  0  0
   -9.3450  -10.1550   -3.2810 C   0  0  0  0  0  0  0  0  0  0  0  0
   -9.4960   -9.5370   -4.9650 S   0  0  0  0  0  6  0  0  0  0  0  0
   -9.9020  -10.6170   -5.8400 O   0  0  0  0  0  0  0  0  0  0  0  0
  -10.2800   -8.3220   -4.8930 O   0  0  0  0  0  0  0  0  0  0  0  0
   -7.9150   -9.1280   -5.3470 N   0  0  0  0  0  0  0  0  0  0  0  0
   -7.1300   -9.9780   -6.2440 C   0  0  0  0  0  0  0  0  0  0  0  0
   -7.1720   -9.1310   -7.4820 C   0  0  0  0  0  0  0  0  0  0  0  0
   -6.7480   -7.7690   -6.9350 C   0  0  0  0  0  0  0  0  0  0  0  0
   -6.8590   -6.6240   -7.9650 C   0  0  0  0  0  0  0  0  0  0  0  0
   -7.7050   -5.4050   -7.5800 C   0  0  0  0  0  0  0  0  0  0  0  0
   -8.1010   -5.3590   -6.1140 C   0  0  0  0  0  0  0  0  0  0  0  0
   -8.6320   -6.6950   -5.6190 C   0  0  0  0  0  0  0  0  0  0  0  0
   -7.5100   -7.7090   -5.5930 C   0  0  0  0  0  0  0  0  0  0  0  0
   -7.3350   -7.6910    0.7450 N   0  0  0  0  0  0  0  0  0  0  0  0
   -6.6760   -6.9330   -0.2980 C   0  0  0  0  0  0  0  0  0  0  0  0
   -7.1050   -5.7200   -0.5660 N   0  0  0  0  0  0  0  0  0  0  0  0
   -6.3400   -5.1880   -1.5890 C   0  0  0  0  0  0  0  0  0  0  0  0
   -5.3470   -6.0150   -2.0720 C   0  0  0  0  0  0  0  0  0  0  0  0
   -5.3600   -7.5010   -1.2220 S   0  0  0  0  0  0  0  0  0  0  0  0
  1  2  2  0
  2  3  2  0
  2  4  1  0
  4  5  1  0
  5  6  1  0
  6  7  1  0
  7  8  2  0
  7  9  2  0
  7 10  1  0
 10 11  1  0
 11 12  1  0
 12 13  1  0
 13 14  1  0
 14 15  1  0
 15 16  1  0
 16 17  1  0
 17 18  1  0
  2 19  1  0
 19 20  1  0
 20 21  2  0
 21 22  1  0
 22 23  2  0
 23 24  1  0
 18 10  1  0
 24 20  1  0
 18 13  1  0
A    1
 O1 
A    2
 S1 
A    3
 O2 
A    4
 C1 
A    5
 C2 
A    6
 C3 
A    7
 S2 
A    8
 O3 
A    9
 O4 
A   10
 N1 
A   11
 C4 
A   12
 C5 
A   13
 C6 
A   14
 C7 
A   15
 C8 
A   16
 C9 
A   17
 C10
A   18
 C11
A   19
 N2 
A   20
 C12
A   21
 N3 
A   22
 C13
A   23
 C14
A   24
 S3 
M  END
>  <ref_url>  (85) 
https://github.com/stephwills/fragment_network_merges

>  <submitter_name>  (85) 
Steph Wills

>  <submitter_institution>  (85) 
University of Oxford

>  <submitter_email>  (85) 
stephanie.wills@balliol.ox.ac.uk

>  <generation_date>  (85) 
2023-07-04

>  <original SMILES>  (85) 
CC(=O)NC12CCCCC1N(C(=O)Cc1ccc(=O)[nH]c1)CC2

>  <ref_mols>  (85) 
x0771_0A,x1052_1A

>  <SuCOS_score>  (85) 
0.4025447717938028

>  <cmpd_id>  (85) 
ENAMINE:PV-003227828556

>  <method>  (85) 
fragnetv2_named

>  <ref_pdb>  (85) 
x0771_0A

$$$$
x0771-0A-x1052-1A-2501_p
     RDKit          3D

 24 26  0  0  0  0  0  0  0  0999 V2000
   -6.4650   -5.2380   -8.7890 C   0  0  0  0  0  0  0  0  0  0  0  0
   -6.1260   -6.6860   -8.5270 C   0  0  0  0  0  0  0  0  0  0  0  0
   -5.8670   -7.4590   -9.4260 O   0  0  0  0  0  0  0  0  0  0  0  0
   -6.2090   -7.0570   -7.2140 N   0  0  0  0  0  0  0  0  0  0  0  0
   -7.4930   -7.6080   -6.8240 C   0  0  0  0  0  0  0  0  0  0  0  0
   -8.3960   -6.4750   -7.3430 C   0  0  0  0  0  0  0  0  0  0  0  0
   -8.0300   -5.1740   -6.6500 C   0  0  0  0  0  0  0  0  0  0  0  0
   -8.0110   -5.2990   -5.1260 C   0  0  0  0  0  0  0  0  0  0  0  0
   -7.3720   -6.5860   -4.5740 C   0  0  0  0  0  0  0  0  0  0  0  0
   -7.8680   -7.7860   -5.3570 C   0  0  0  0  0  0  0  0  0  0  0  0
   -7.3720   -9.1110   -5.0030 N   0  0  0  0  0  0  0  0  0  0  0  0
   -7.5920   -9.6530   -3.7510 C   0  0  0  0  0  0  0  0  0  0  0  0
   -8.6650  -10.1670   -3.4150 O   0  0  0  0  0  0  0  0  0  0  0  0
   -6.4240   -9.5940   -2.7970 C   0  0  0  0  0  0  0  0  0  0  0  0
   -5.1660   -8.5250   -3.5620 S   0  0  0  0  0  0  0  0  0  0  0  0
   -4.4380   -7.8520   -2.0510 C   0  0  0  0  0  0  0  0  0  0  0  0
   -5.4790   -6.9880   -1.4520 C   0  0  0  0  0  0  0  0  0  0  0  0
   -5.6480   -5.6980   -1.9340 C   0  0  0  0  0  0  0  0  0  0  0  0
   -6.6300   -4.9120   -1.3780 C   0  0  0  0  0  0  0  0  0  0  0  0
   -7.4410   -5.3330   -0.3890 N   0  0  0  0  0  0  0  0  0  0  0  0
   -7.2540   -6.5930    0.0590 C   0  0  0  0  0  0  0  0  0  0  0  0
   -6.2970   -7.4490   -0.4320 C   0  0  0  0  0  0  0  0  0  0  0  0
   -7.1250   -9.8940   -6.1920 C   0  0  0  0  0  0  0  0  0  0  0  0
   -7.6400   -9.0570   -7.3470 C   0  0  0  0  0  0  0  0  0  0  0  0
  1  2  1  0
  2  3  2  0
  2  4  1  0
  4  5  1  0
  5  6  1  0
  6  7  1  0
  7  8  1  0
  8  9  1  0
  9 10  1  0
 10 11  1  0
 11 12  1  0
 12 13  2  0
 12 14  1  0
 14 15  1  0
 15 16  1  0
 16 17  1  0
 17 18  2  0
 18 19  1  0
 19 20  2  0
 20 21  1  0
 21 22  2  0
 11 23  1  0
 23 24  1  0
 10  5  1  0
 22 17  1  0
 24  5  1  0
A    1
 C1 
A    2
 C2 
A    3
 O1 
A    4
 N1 
A    5
 C3 
A    6
 C4 
A    7
 C5 
A    8
 C6 
A    9
 C7 
A   10
 C8 
A   11
 N2 
A   12
 C9 
A   13
 O2 
A   14
 C10
A   15
 S1 
A   16
 C11
A   17
 C12
A   18
 C13
A   19
 C14
A   20
 N3 
A   21
 C15
A   22
 C16
A   23
 C17
A   24
 C18
M  END
>  <ref_url>  (86) 
https://github.com/stephwills/fragment_network_merges

>  <submitter_name>  (86) 
Steph Wills

>  <submitter_institution>  (86) 
University of Oxford

>  <submitter_email>  (86) 
stephanie.wills@balliol.ox.ac.uk

>  <generation_date>  (86) 
2023-07-04

>  <original SMILES>  (86) 
CC(=O)NC12CCCCC1N(C(=O)Cc1ccc(=O)[nH]c1)CC2

>  <ref_mols>  (86) 
x0771_0A,x1052_1A

>  <SuCOS_score>  (86) 
0.40421221129649454

>  <cmpd_id>  (86) 
ENAMINE:Z1354913564

>  <method>  (86) 
fragnetv2_named

>  <ref_pdb>  (86) 
x0771_0A

$$$$
x0771-0A-x1052-1A-714_p
     RDKit          3D

 22 25  0  0  0  0  0  0  0  0999 V2000
   -5.8500   -9.7090   -3.2640 O   0  0  0  0  0  0  0  0  0  0  0  0
   -6.0620   -8.7330   -3.9880 C   0  0  0  0  0  0  0  0  0  0  0  0
   -5.4180   -7.3660   -3.7620 C   0  0  0  0  0  0  0  0  0  0  0  0
   -4.6060   -7.2820   -2.4550 C   0  0  0  0  0  0  0  0  0  0  0  0
   -5.6940   -6.7400   -1.5780 C   0  0  0  0  0  0  0  0  0  0  0  0
   -6.3600   -7.6680   -0.6290 C   0  0  0  0  0  0  0  0  0  0  0  0
   -7.5590   -6.8620    0.2310 S   0  0  0  0  0  0  0  0  0  0  0  0
   -7.2800   -5.3410   -0.5500 C   0  0  0  0  0  0  0  0  0  0  0  0
   -8.0780   -4.0590   -0.2350 C   0  0  0  0  0  0  0  0  0  0  0  0
   -7.7310   -2.7710   -0.9900 C   0  0  0  0  0  0  0  0  0  0  0  0
   -6.6050   -2.8650   -2.0130 C   0  0  0  0  0  0  0  0  0  0  0  0
   -5.8640   -4.1670   -2.2770 C   0  0  0  0  0  0  0  0  0  0  0  0
   -6.2480   -5.4060   -1.4990 C   0  0  0  0  0  0  0  0  0  0  0  0
   -6.9280   -8.7780   -5.0660 N   0  0  0  0  0  0  0  0  0  0  0  0
   -6.9680   -9.9050   -6.0230 C   0  0  0  0  0  0  0  0  0  0  0  0
   -7.4170   -9.2720   -7.3330 C   0  0  0  0  0  0  0  0  0  0  0  0
   -7.8760   -7.8430   -6.9600 C   0  0  0  0  0  0  0  0  0  0  0  0
   -7.3120   -6.6640   -7.6420 C   0  0  0  0  0  0  0  0  0  0  0  0
   -7.8660   -5.4580   -7.2790 C   0  0  0  0  0  0  0  0  0  0  0  0
   -8.1400   -5.4610   -5.8970 C   0  0  0  0  0  0  0  0  0  0  0  0
   -7.5980   -6.4730   -5.0050 C   0  0  0  0  0  0  0  0  0  0  0  0
   -7.9010   -7.7680   -5.4380 C   0  0  0  0  0  0  0  0  0  0  0  0
  1  2  2  0
  2  3  1  0
  3  4  1  0
  4  5  1  0
  5  6  2  0
  6  7  1  0
  7  8  1  0
  8  9  2  0
  9 10  1  0
 10 11  2  0
 11 12  1  0
 12 13  2  0
  2 14  1  0
 14 15  1  0
 15 16  1  0
 16 17  1  0
 17 18  1  0
 18 19  1  0
 19 20  1  0
 20 21  1  0
 21 22  1  0
 13  5  1  0
 22 14  1  0
 13  8  1  0
 22 17  1  0
A    1
 O1 
A    2
 C1 
A    3
 C2 
A    4
 C3 
A    5
 C4 
A    6
 C5 
A    7
 S1 
A    8
 C6 
A    9
 C7 
A   10
 C8 
A   11
 C9 
A   12
 C10
A   13
 C11
A   14
 N1 
A   15
 C12
A   16
 C13
A   17
 C14
A   18
 C15
A   19
 C16
A   20
 C17
A   21
 C18
A   22
 C19
M  END
>  <ref_url>  (87) 
https://github.com/stephwills/fragment_network_merges

>  <submitter_name>  (87) 
Steph Wills

>  <submitter_institution>  (87) 
University of Oxford

>  <submitter_email>  (87) 
stephanie.wills@balliol.ox.ac.uk

>  <generation_date>  (87) 
2023-07-04

>  <original SMILES>  (87) 
CC(=O)NC12CCCCC1N(C(=O)Cc1ccc(=O)[nH]c1)CC2

>  <ref_mols>  (87) 
x0771_0A,x1052_1A

>  <SuCOS_score>  (87) 
0.4051491080395716

>  <cmpd_id>  (87) 
ENAMINE:Z1567446432

>  <method>  (87) 
fragnetv2_named

>  <ref_pdb>  (87) 
x0771_0A

$$$$
x0771-0A-x1052-1A-414_p
     RDKit          3D

 22 25  0  0  0  0  0  0  0  0999 V2000
   -6.3530  -11.2660   -1.5640 C   0  0  0  0  0  0  0  0  0  0  0  0
   -6.4560  -11.5120   -3.0700 C   0  0  0  0  0  0  0  0  0  0  0  0
   -6.5790  -10.1900   -3.8340 C   0  0  0  0  0  0  0  0  0  0  0  0
   -6.6790  -10.3710   -5.3180 C   0  0  0  0  0  0  0  0  0  0  0  0
   -7.6070   -9.3990   -5.9430 N   0  0  0  0  0  0  0  0  0  0  0  0
   -7.7450   -9.7200   -7.3620 C   0  0  0  0  0  0  0  0  0  0  0  0
   -6.8850   -8.6760   -8.0930 C   0  0  0  0  0  0  0  0  0  0  0  0
   -6.5980   -7.5020   -7.1840 C   0  0  0  0  0  0  0  0  0  0  0  0
   -7.0500   -6.1950   -7.8360 C   0  0  0  0  0  0  0  0  0  0  0  0
   -7.7900   -5.2710   -6.9080 C   0  0  0  0  0  0  0  0  0  0  0  0
   -8.8560   -6.0170   -6.1470 C   0  0  0  0  0  0  0  0  0  0  0  0
   -8.3060   -7.1000   -5.2230 C   0  0  0  0  0  0  0  0  0  0  0  0
   -7.1730   -7.9590   -5.8210 C   0  0  0  0  0  0  0  0  0  0  0  0
   -6.6010   -8.9720   -3.2200 C   0  0  0  0  0  0  0  0  0  0  0  0
   -6.5120   -8.8350   -1.8500 C   0  0  0  0  0  0  0  0  0  0  0  0
   -6.5930   -7.4590   -1.4140 C   0  0  0  0  0  0  0  0  0  0  0  0
   -5.8060   -6.4340   -1.9580 C   0  0  0  0  0  0  0  0  0  0  0  0
   -6.0200   -5.1540   -1.4960 C   0  0  0  0  0  0  0  0  0  0  0  0
   -6.9300   -4.8450   -0.5610 N   0  0  0  0  0  0  0  0  0  0  0  0
   -7.6520   -5.8580   -0.0520 C   0  0  0  0  0  0  0  0  0  0  0  0
   -7.5240   -7.1540   -0.4400 C   0  0  0  0  0  0  0  0  0  0  0  0
   -6.3830   -9.9700   -1.0180 C   0  0  0  0  0  0  0  0  0  0  0  0
  1  2  2  0
  2  3  1  0
  3  4  1  0
  4  5  1  0
  5  6  1  0
  6  7  1  0
  7  8  1  0
  8  9  1  0
  9 10  1  0
 10 11  1  0
 11 12  1  0
 12 13  1  0
  3 14  2  0
 14 15  1  0
 15 16  1  0
 16 17  2  0
 17 18  1  0
 18 19  2  0
 19 20  1  0
 20 21  2  0
 15 22  2  0
 22  1  1  0
 13  5  1  0
 21 16  1  0
 13  8  1  0
A    1
 C1 
A    2
 C2 
A    3
 C3 
A    4
 C4 
A    5
 N1 
A    6
 C5 
A    7
 C6 
A    8
 C7 
A    9
 C8 
A   10
 C9 
A   11
 C10
A   12
 C11
A   13
 C12
A   14
 C13
A   15
 C14
A   16
 C15
A   17
 C16
A   18
 C17
A   19
 N2 
A   20
 C18
A   21
 C19
A   22
 C20
M  END
>  <ref_url>  (88) 
https://github.com/stephwills/fragment_network_merges

>  <submitter_name>  (88) 
Steph Wills

>  <submitter_institution>  (88) 
University of Oxford

>  <submitter_email>  (88) 
stephanie.wills@balliol.ox.ac.uk

>  <generation_date>  (88) 
2023-07-04

>  <original SMILES>  (88) 
CC(=O)NC12CCCCC1N(C(=O)Cc1ccc(=O)[nH]c1)CC2

>  <ref_mols>  (88) 
x0771_0A,x1052_1A

>  <SuCOS_score>  (88) 
0.40987820792103763

>  <cmpd_id>  (88) 
CHEMSPACE-BB:CSMB00016689782

>  <method>  (88) 
fragnetv2_named

>  <ref_pdb>  (88) 
x0771_0A

$$$$
x0771-0A-x1052-1A-1782_p
     RDKit          3D

 16 18  0  0  0  0  0  0  0  0999 V2000
   -6.8990   -3.7010   -3.7970 O   0  0  0  0  0  0  0  0  0  0  0  0
   -7.0760   -4.8930   -3.6670 C   0  0  0  0  0  0  0  0  0  0  0  0
   -6.6330   -5.5890   -2.4350 C   0  0  0  0  0  0  0  0  0  0  0  0
   -5.2520   -6.2190   -2.2670 C   0  0  0  0  0  0  0  0  0  0  0  0
   -5.1570   -6.9400   -0.7270 S   0  0  0  0  0  0  0  0  0  0  0  0
   -6.7650   -6.4410   -0.3790 C   0  0  0  0  0  0  0  0  0  0  0  0
   -7.4240   -5.7610   -1.3010 N   0  0  0  0  0  0  0  0  0  0  0  0
   -7.7640   -5.7750   -4.7370 C   0  0  0  0  0  0  0  0  0  0  0  0
   -7.8380   -5.2910   -6.2120 C   0  0  0  0  0  0  0  0  0  0  0  0
   -7.3130   -6.3520   -7.1960 C   0  0  0  0  0  0  0  0  0  0  0  0
   -7.8640   -7.7440   -6.8820 C   0  0  0  0  0  0  0  0  0  0  0  0
   -7.1620   -8.9070   -7.5440 C   0  0  0  0  0  0  0  0  0  0  0  0
   -7.6450  -10.0560   -6.6970 C   0  0  0  0  0  0  0  0  0  0  0  0
   -7.3830   -9.5230   -5.3670 N   0  0  0  0  0  0  0  0  0  0  0  0
   -7.8510   -8.1330   -5.4210 C   0  0  0  0  0  0  0  0  0  0  0  0
   -7.0520   -7.1240   -4.6640 C   0  0  0  0  0  0  0  0  0  0  0  0
  1  2  2  0
  2  3  1  0
  3  4  2  0
  4  5  1  0
  5  6  1  0
  6  7  2  0
  2  8  1  0
  8  9  1  0
  9 10  1  0
 10 11  1  0
 11 12  1  0
 12 13  1  0
 13 14  1  0
 14 15  1  0
 15 16  1  0
  7  3  1  0
 16  8  1  0
 15 11  1  0
A    1
 O1 
A    2
 C1 
A    3
 C2 
A    4
 C3 
A    5
 S1 
A    6
 C4 
A    7
 N1 
A    8
 C5 
A    9
 C6 
A   10
 C7 
A   11
 C8 
A   12
 C9 
A   13
 C10
A   14
 N2 
A   15
 C11
A   16
 C12
M  END
>  <ref_url>  (89) 
https://github.com/stephwills/fragment_network_merges

>  <submitter_name>  (89) 
Steph Wills

>  <submitter_institution>  (89) 
University of Oxford

>  <submitter_email>  (89) 
stephanie.wills@balliol.ox.ac.uk

>  <generation_date>  (89) 
2023-07-04

>  <original SMILES>  (89) 
CC(=O)NC12CCCCC1N(C(=O)Cc1ccc(=O)[nH]c1)CC2

>  <ref_mols>  (89) 
x0771_0A,x1052_1A

>  <SuCOS_score>  (89) 
0.4110462220516727

>  <cmpd_id>  (89) 
CHEMSPACE-BB:CSMB00016832642

>  <method>  (89) 
fragnetv2_named

>  <ref_pdb>  (89) 
x0771_0A

$$$$
x0771-0A-x1052-1A-1906_p
     RDKit          3D

 16 18  0  0  0  0  0  0  0  0999 V2000
   -6.4630   -3.8440   -3.9160 O   0  0  0  0  0  0  0  0  0  0  0  0
   -6.8120   -4.9950   -3.7400 C   0  0  0  0  0  0  0  0  0  0  0  0
   -6.5480   -5.6790   -2.4840 C   0  0  0  0  0  0  0  0  0  0  0  0
   -5.6770   -6.6690   -2.0440 C   0  0  0  0  0  0  0  0  0  0  0  0
   -5.9250   -6.9450   -0.6690 C   0  0  0  0  0  0  0  0  0  0  0  0
   -6.8870   -6.2450   -0.0890 N   0  0  0  0  0  0  0  0  0  0  0  0
   -7.5250   -5.2010   -1.1810 S   0  0  0  0  0  0  0  0  0  0  0  0
   -7.5950   -5.8260   -4.7830 C   0  0  0  0  0  0  0  0  0  0  0  0
   -7.7330   -5.3400   -6.2530 C   0  0  0  0  0  0  0  0  0  0  0  0
   -7.2870   -6.4170   -7.2540 C   0  0  0  0  0  0  0  0  0  0  0  0
   -7.8550   -7.7970   -6.9090 C   0  0  0  0  0  0  0  0  0  0  0  0
   -7.1620   -8.9690   -7.5500 C   0  0  0  0  0  0  0  0  0  0  0  0
   -7.6880  -10.1090   -6.7170 C   0  0  0  0  0  0  0  0  0  0  0  0
   -7.4600   -9.5950   -5.3660 N   0  0  0  0  0  0  0  0  0  0  0  0
   -7.8270   -8.1720   -5.4490 C   0  0  0  0  0  0  0  0  0  0  0  0
   -6.9480   -7.2050   -4.7370 C   0  0  0  0  0  0  0  0  0  0  0  0
  1  2  2  0
  2  3  1  0
  3  4  2  0
  4  5  1  0
  5  6  2  0
  6  7  1  0
  2  8  1  0
  8  9  1  0
  9 10  1  0
 10 11  1  0
 11 12  1  0
 12 13  1  0
 13 14  1  0
 14 15  1  0
 15 16  1  0
  7  3  1  0
 16  8  1  0
 15 11  1  0
A    1
 O1 
A    2
 C1 
A    3
 C2 
A    4
 C3 
A    5
 C4 
A    6
 N1 
A    7
 S1 
A    8
 C5 
A    9
 C6 
A   10
 C7 
A   11
 C8 
A   12
 C9 
A   13
 C10
A   14
 N2 
A   15
 C11
A   16
 C12
M  END
>  <ref_url>  (90) 
https://github.com/stephwills/fragment_network_merges

>  <submitter_name>  (90) 
Steph Wills

>  <submitter_institution>  (90) 
University of Oxford

>  <submitter_email>  (90) 
stephanie.wills@balliol.ox.ac.uk

>  <generation_date>  (90) 
2023-07-04

>  <original SMILES>  (90) 
CC(=O)NC12CCCCC1N(C(=O)Cc1ccc(=O)[nH]c1)CC2

>  <ref_mols>  (90) 
x0771_0A,x1052_1A

>  <SuCOS_score>  (90) 
0.41124843977977227

>  <cmpd_id>  (90) 
ENAMINE:Z3101586027

>  <method>  (90) 
fragnetv2_named

>  <ref_pdb>  (90) 
x0771_0A

$$$$
x0771-0A-x1052-1A-1031_p
     RDKit          3D

 21 23  0  0  0  0  0  0  0  0999 V2000
   -9.3380  -11.6370   -6.2390 O   0  0  0  0  0  0  0  0  0  0  0  0
   -8.7600  -10.8280   -5.5150 C   0  0  0  0  0  0  0  0  0  0  0  0
   -9.1800  -10.4450   -4.2320 N   0  0  0  0  0  0  0  0  0  0  0  0
   -8.4350  -10.6350   -3.0790 C   0  0  0  0  0  0  0  0  0  0  0  0
   -8.1800   -9.4780   -2.4000 C   0  0  0  0  0  0  0  0  0  0  0  0
   -8.9470   -9.0320   -1.2660 C   0  0  0  0  0  0  0  0  0  0  0  0
   -7.9650   -8.3570    0.1320 S   0  0  0  0  0  0  0  0  0  0  0  0
   -6.9290   -7.1690   -0.6420 C   0  0  0  0  0  0  0  0  0  0  0  0
   -7.2050   -5.8770   -0.6710 N   0  0  0  0  0  0  0  0  0  0  0  0
   -6.2080   -5.2160   -1.3660 C   0  0  0  0  0  0  0  0  0  0  0  0
   -5.1860   -6.0260   -1.8510 C   0  0  0  0  0  0  0  0  0  0  0  0
   -5.4800   -7.6490   -1.4190 S   0  0  0  0  0  0  0  0  0  0  0  0
   -7.4620  -10.1150   -5.9600 C   0  0  0  0  0  0  0  0  0  0  0  0
   -7.5140   -9.3930   -7.3100 C   0  0  0  0  0  0  0  0  0  0  0  0
   -7.0140   -8.0100   -6.9470 C   0  0  0  0  0  0  0  0  0  0  0  0
   -7.1590   -6.8180   -7.8760 C   0  0  0  0  0  0  0  0  0  0  0  0
   -8.2770   -5.9240   -7.3470 C   0  0  0  0  0  0  0  0  0  0  0  0
   -8.0920   -5.3490   -5.9440 C   0  0  0  0  0  0  0  0  0  0  0  0
   -7.5600   -6.4980   -5.0650 C   0  0  0  0  0  0  0  0  0  0  0  0
   -7.8160   -7.8500   -5.7050 C   0  0  0  0  0  0  0  0  0  0  0  0
   -7.2720   -9.0030   -5.0030 N   0  0  0  0  0  0  0  0  0  0  0  0
  1  2  2  0
  2  3  1  0
  3  4  1  0
  4  5  1  0
  5  6  1  0
  6  7  1  0
  7  8  1  0
  8  9  2  0
  9 10  1  0
 10 11  2  0
 11 12  1  0
  2 13  1  0
 13 14  1  0
 14 15  1  0
 15 16  1  0
 16 17  1  0
 17 18  1  0
 18 19  1  0
 19 20  1  0
 20 21  1  0
 12  8  1  0
 21 13  1  0
 20 15  1  0
A    1
 O1 
A    2
 C1 
A    3
 N1 
A    4
 C2 
A    5
 C3 
A    6
 C4 
A    7
 S1 
A    8
 C5 
A    9
 N2 
A   10
 C6 
A   11
 C7 
A   12
 S2 
A   13
 C8 
A   14
 C9 
A   15
 C10
A   16
 C11
A   17
 C12
A   18
 C13
A   19
 C14
A   20
 C15
A   21
 N3 
M  END
>  <ref_url>  (91) 
https://github.com/stephwills/fragment_network_merges

>  <submitter_name>  (91) 
Steph Wills

>  <submitter_institution>  (91) 
University of Oxford

>  <submitter_email>  (91) 
stephanie.wills@balliol.ox.ac.uk

>  <generation_date>  (91) 
2023-07-04

>  <original SMILES>  (91) 
CC(=O)NC12CCCCC1N(C(=O)Cc1ccc(=O)[nH]c1)CC2

>  <ref_mols>  (91) 
x0771_0A,x1052_1A

>  <SuCOS_score>  (91) 
0.4114852741018989

>  <cmpd_id>  (91) 
ENAMINE:Z977431644

>  <method>  (91) 
fragnetv2_named

>  <ref_pdb>  (91) 
x0771_0A

$$$$
x0771-0A-x1052-1A-343_p
     RDKit          3D

 24 27  0  0  0  0  0  0  0  0999 V2000
   -7.7710   -9.9610   -3.2540 O   0  0  0  0  0  0  0  0  0  0  0  0
   -7.1940  -10.2400   -4.3020 C   0  0  0  0  0  0  0  0  0  0  0  0
   -6.3680  -11.5270   -4.4480 C   0  0  0  0  0  0  0  0  0  0  0  0
   -4.8750  -11.3000   -4.2160 C   0  0  0  0  0  0  0  0  0  0  0  0
   -4.6960  -10.0140   -3.5360 C   0  0  0  0  0  0  0  0  0  0  0  0
   -5.5950   -9.3380   -2.9090 N   0  0  0  0  0  0  0  0  0  0  0  0
   -4.9150   -8.2420   -2.4870 C   0  0  0  0  0  0  0  0  0  0  0  0
   -5.6460   -7.2360   -1.7650 C   0  0  0  0  0  0  0  0  0  0  0  0
   -5.5390   -5.9050   -2.1460 C   0  0  0  0  0  0  0  0  0  0  0  0
   -6.2790   -4.9690   -1.4580 C   0  0  0  0  0  0  0  0  0  0  0  0
   -7.1000   -5.2790   -0.4360 N   0  0  0  0  0  0  0  0  0  0  0  0
   -7.1740   -6.5820   -0.0840 C   0  0  0  0  0  0  0  0  0  0  0  0
   -6.4750   -7.5840   -0.7090 C   0  0  0  0  0  0  0  0  0  0  0  0
   -3.6220   -8.2350   -2.8200 N   0  0  0  0  0  0  0  0  0  0  0  0
   -3.4680   -9.4250   -3.5370 O   0  0  0  0  0  0  0  0  0  0  0  0
   -7.2550   -9.4440   -5.4340 N   0  0  0  0  0  0  0  0  0  0  0  0
   -7.5840  -10.0480   -6.7020 C   0  0  0  0  0  0  0  0  0  0  0  0
   -7.1730   -8.9350   -7.5980 C   0  0  0  0  0  0  0  0  0  0  0  0
   -7.8750   -7.7530   -6.9660 C   0  0  0  0  0  0  0  0  0  0  0  0
   -7.2830   -6.4440   -7.4570 C   0  0  0  0  0  0  0  0  0  0  0  0
   -7.8740   -5.2770   -6.7310 C   0  0  0  0  0  0  0  0  0  0  0  0
   -7.7940   -5.5130   -5.2230 C   0  0  0  0  0  0  0  0  0  0  0  0
   -7.1380   -6.8560   -4.8110 C   0  0  0  0  0  0  0  0  0  0  0  0
   -7.8100   -8.0550   -5.4780 C   0  0  0  0  0  0  0  0  0  0  0  0
  1  2  2  0
  2  3  1  0
  3  4  1  0
  4  5  1  0
  5  6  2  0
  6  7  1  0
  7  8  1  0
  8  9  2  0
  9 10  1  0
 10 11  2  0
 11 12  1  0
 12 13  2  0
  7 14  2  0
 14 15  1  0
  2 16  1  0
 16 17  1  0
 17 18  1  0
 18 19  1  0
 19 20  1  0
 20 21  1  0
 21 22  1  0
 22 23  1  0
 23 24  1  0
 15  5  1  0
 24 16  1  0
 13  8  1  0
 24 19  1  0
A    1
 O1 
A    2
 C1 
A    3
 C2 
A    4
 C3 
A    5
 C4 
A    6
 N1 
A    7
 C5 
A    8
 C6 
A    9
 C7 
A   10
 C8 
A   11
 N2 
A   12
 C9 
A   13
 C10
A   14
 N3 
A   15
 O2 
A   16
 N4 
A   17
 C11
A   18
 C12
A   19
 C13
A   20
 C14
A   21
 C15
A   22
 C16
A   23
 C17
A   24
 C18
M  END
>  <ref_url>  (92) 
https://github.com/stephwills/fragment_network_merges

>  <submitter_name>  (92) 
Steph Wills

>  <submitter_institution>  (92) 
University of Oxford

>  <submitter_email>  (92) 
stephanie.wills@balliol.ox.ac.uk

>  <generation_date>  (92) 
2023-07-04

>  <original SMILES>  (92) 
CC(=O)NC12CCCCC1N(C(=O)Cc1ccc(=O)[nH]c1)CC2

>  <ref_mols>  (92) 
x0771_0A,x1052_1A

>  <SuCOS_score>  (92) 
0.4115002754804661

>  <cmpd_id>  (92) 
ENAMINE:Z1741163579

>  <method>  (92) 
fragnetv2_named

>  <ref_pdb>  (92) 
x0771_0A

$$$$
x0771-0A-x1052-1A-1489_p
     RDKit          3D

 26 29  0  0  0  0  0  0  0  0999 V2000
   -8.5720   -9.2420   -3.0720 O   0  0  0  0  0  0  0  0  0  0  0  0
   -7.5440   -9.4670   -3.7060 C   0  0  0  0  0  0  0  0  0  0  0  0
   -6.4540  -10.0960   -3.1540 N   0  0  0  0  0  0  0  0  0  0  0  0
   -6.0580   -9.8020   -1.7920 C   0  0  0  0  0  0  0  0  0  0  0  0
   -5.0480   -8.6490   -1.7080 C   0  0  0  0  0  0  0  0  0  0  0  0
   -5.7530   -7.3820   -1.3500 C   0  0  0  0  0  0  0  0  0  0  0  0
   -5.4150   -6.1630   -1.9400 C   0  0  0  0  0  0  0  0  0  0  0  0
   -6.1260   -5.0380   -1.5590 C   0  0  0  0  0  0  0  0  0  0  0  0
   -7.1230   -5.0580   -0.6510 N   0  0  0  0  0  0  0  0  0  0  0  0
   -7.4190   -6.2530   -0.1010 C   0  0  0  0  0  0  0  0  0  0  0  0
   -6.7750   -7.4210   -0.4110 C   0  0  0  0  0  0  0  0  0  0  0  0
   -7.3640   -9.1300   -5.0290 N   0  0  0  0  0  0  0  0  0  0  0  0
   -6.4360   -9.7960   -5.9540 C   0  0  0  0  0  0  0  0  0  0  0  0
   -7.1190   -9.5030   -7.2870 C   0  0  0  0  0  0  0  0  0  0  0  0
   -8.3070  -10.4550   -7.2990 C   0  0  0  0  0  0  0  0  0  0  0  0
   -8.3990  -11.5080   -8.2160 C   0  0  0  0  0  0  0  0  0  0  0  0
   -9.4840  -12.3850   -8.2060 C   0  0  0  0  0  0  0  0  0  0  0  0
  -10.5010  -12.2310   -7.2690 C   0  0  0  0  0  0  0  0  0  0  0  0
  -10.4310  -11.1970   -6.3420 C   0  0  0  0  0  0  0  0  0  0  0  0
   -9.3460  -10.3150   -6.3570 C   0  0  0  0  0  0  0  0  0  0  0  0
   -7.1090   -8.0020   -6.9400 C   0  0  0  0  0  0  0  0  0  0  0  0
   -7.2060   -6.8140   -7.8670 C   0  0  0  0  0  0  0  0  0  0  0  0
   -8.2830   -5.8230   -7.4140 C   0  0  0  0  0  0  0  0  0  0  0  0
   -8.1690   -5.4330   -5.9400 C   0  0  0  0  0  0  0  0  0  0  0  0
   -7.7340   -6.5790   -5.0110 C   0  0  0  0  0  0  0  0  0  0  0  0
   -7.9320   -7.9390   -5.6750 C   0  0  0  0  0  0  0  0  0  0  0  0
  1  2  2  0
  2  3  1  0
  3  4  1  0
  4  5  1  0
  5  6  1  0
  6  7  2  0
  7  8  1  0
  8  9  2  0
  9 10  1  0
 10 11  2  0
  2 12  1  0
 12 13  1  0
 13 14  1  0
 14 15  1  0
 15 16  2  0
 16 17  1  0
 17 18  2  0
 18 19  1  0
 19 20  2  0
 14 21  1  0
 21 22  1  0
 22 23  1  0
 23 24  1  0
 24 25  1  0
 25 26  1  0
 11  6  1  0
 26 12  1  0
 20 15  1  0
 26 21  1  0
A    1
 O1 
A    2
 C1 
A    3
 N1 
A    4
 C2 
A    5
 C3 
A    6
 C4 
A    7
 C5 
A    8
 C6 
A    9
 N2 
A   10
 C7 
A   11
 C8 
A   12
 N3 
A   13
 C9 
A   14
 C10
A   15
 C11
A   16
 C12
A   17
 C13
A   18
 C14
A   19
 C15
A   20
 C16
A   21
 C17
A   22
 C18
A   23
 C19
A   24
 C20
A   25
 C21
A   26
 C22
M  END
>  <ref_url>  (93) 
https://github.com/stephwills/fragment_network_merges

>  <submitter_name>  (93) 
Steph Wills

>  <submitter_institution>  (93) 
University of Oxford

>  <submitter_email>  (93) 
stephanie.wills@balliol.ox.ac.uk

>  <generation_date>  (93) 
2023-07-04

>  <original SMILES>  (93) 
CC(=O)NC12CCCCC1N(C(=O)Cc1ccc(=O)[nH]c1)CC2

>  <ref_mols>  (93) 
x0771_0A,x1052_1A

>  <SuCOS_score>  (93) 
0.41232906672385655

>  <cmpd_id>  (93) 
ENAMINE:Z4060516764

>  <method>  (93) 
fragnetv2_named

>  <ref_pdb>  (93) 
x0771_0A

$$$$
x0771-0A-x1052-1A-760_p
     RDKit          3D

 23 25  0  0  0  0  0  0  0  0999 V2000
   -9.2290  -10.8720   -5.4840 O   0  0  0  0  0  0  0  0  0  0  0  0
   -8.1110  -10.5780   -5.0620 C   0  0  0  0  0  0  0  0  0  0  0  0
   -7.6950  -10.8340   -3.7580 N   0  0  0  0  0  0  0  0  0  0  0  0
   -7.4760   -9.7950   -2.7460 C   0  0  0  0  0  0  0  0  0  0  0  0
   -6.2190  -10.0080   -1.8730 C   0  0  0  0  0  0  0  0  0  0  0  0
   -6.5710  -10.4850   -0.4540 C   0  0  0  0  0  0  0  0  0  0  0  0
   -5.6830   -9.9250    0.5090 O   0  0  0  0  0  0  0  0  0  0  0  0
   -5.2640   -8.7750   -1.8750 C   0  0  0  0  0  0  0  0  0  0  0  0
   -5.8490   -7.5740   -1.4660 C   0  0  0  0  0  0  0  0  0  0  0  0
   -5.4500   -6.3570   -2.0100 C   0  0  0  0  0  0  0  0  0  0  0  0
   -6.0840   -5.2020   -1.5580 C   0  0  0  0  0  0  0  0  0  0  0  0
   -7.0590   -5.1880   -0.6240 N   0  0  0  0  0  0  0  0  0  0  0  0
   -7.4190   -6.3830   -0.1150 C   0  0  0  0  0  0  0  0  0  0  0  0
   -6.8480   -7.5650   -0.5040 C   0  0  0  0  0  0  0  0  0  0  0  0
   -7.0400   -9.8930   -5.9460 C   0  0  0  0  0  0  0  0  0  0  0  0
   -7.5200   -9.3240   -7.2880 C   0  0  0  0  0  0  0  0  0  0  0  0
   -7.8710   -7.8650   -6.9460 C   0  0  0  0  0  0  0  0  0  0  0  0
   -7.0960   -6.8050   -7.7240 C   0  0  0  0  0  0  0  0  0  0  0  0
   -7.6890   -5.4430   -7.3960 C   0  0  0  0  0  0  0  0  0  0  0  0
   -8.0990   -5.3250   -5.9230 C   0  0  0  0  0  0  0  0  0  0  0  0
   -7.4670   -6.3620   -4.9800 C   0  0  0  0  0  0  0  0  0  0  0  0
   -7.6870   -7.7830   -5.4650 C   0  0  0  0  0  0  0  0  0  0  0  0
   -6.5670   -8.6810   -5.2720 N   0  0  0  0  0  0  0  0  0  0  0  0
  1  2  2  0
  2  3  1  0
  3  4  1  0
  4  5  1  0
  5  6  1  0
  6  7  1  0
  5  8  1  0
  8  9  1  0
  9 10  2  0
 10 11  1  0
 11 12  2  0
 12 13  1  0
 13 14  2  0
  2 15  1  0
 15 16  1  0
 16 17  1  0
 17 18  1  0
 18 19  1  0
 19 20  1  0
 20 21  1  0
 21 22  1  0
 22 23  1  0
 14  9  1  0
 23 15  1  0
 22 17  1  0
A    1
 O1 
A    2
 C1 
A    3
 N1 
A    4
 C2 
A    5
 C3 
A    6
 C4 
A    7
 O2 
A    8
 C5 
A    9
 C6 
A   10
 C7 
A   11
 C8 
A   12
 N2 
A   13
 C9 
A   14
 C10
A   15
 C11
A   16
 C12
A   17
 C13
A   18
 C14
A   19
 C15
A   20
 C16
A   21
 C17
A   22
 C18
A   23
 N3 
M  END
>  <ref_url>  (94) 
https://github.com/stephwills/fragment_network_merges

>  <submitter_name>  (94) 
Steph Wills

>  <submitter_institution>  (94) 
University of Oxford

>  <submitter_email>  (94) 
stephanie.wills@balliol.ox.ac.uk

>  <generation_date>  (94) 
2023-07-04

>  <original SMILES>  (94) 
CC(=O)NC12CCCCC1N(C(=O)Cc1ccc(=O)[nH]c1)CC2

>  <ref_mols>  (94) 
x0771_0A,x1052_1A

>  <SuCOS_score>  (94) 
0.4131052277392819

>  <cmpd_id>  (94) 
MOLPORT:028-276-815

>  <method>  (94) 
fragnetv2_named

>  <ref_pdb>  (94) 
x0771_0A

$$$$
x0771-0A-x1052-1A-585_p
     RDKit          3D

 21 23  0  0  0  0  0  0  0  0999 V2000
   -6.9100  -11.4010   -5.7960 C   0  0  0  0  0  0  0  0  0  0  0  0
   -7.7070  -10.0990   -5.9930 C   0  0  0  0  0  0  0  0  0  0  0  0
   -7.3910   -9.2620   -7.2080 C   0  0  0  0  0  0  0  0  0  0  0  0
   -7.8980   -7.8570   -6.9270 C   0  0  0  0  0  0  0  0  0  0  0  0
   -7.0920   -6.7510   -7.5900 C   0  0  0  0  0  0  0  0  0  0  0  0
   -7.6010   -5.3860   -7.1660 C   0  0  0  0  0  0  0  0  0  0  0  0
   -7.8810   -5.3400   -5.6590 C   0  0  0  0  0  0  0  0  0  0  0  0
   -7.3020   -6.5510   -4.9260 C   0  0  0  0  0  0  0  0  0  0  0  0
   -7.9900   -7.8050   -5.4270 C   0  0  0  0  0  0  0  0  0  0  0  0
   -7.4720   -9.0980   -4.9500 N   0  0  0  0  0  0  0  0  0  0  0  0
   -7.5070   -9.5390   -3.6410 C   0  0  0  0  0  0  0  0  0  0  0  0
   -8.5030   -9.3800   -2.9270 O   0  0  0  0  0  0  0  0  0  0  0  0
   -6.2630  -10.2420   -3.1400 C   0  0  0  0  0  0  0  0  0  0  0  0
   -6.0370  -10.1360   -1.3390 S   0  0  0  0  0  0  0  0  0  0  0  0
   -4.9830   -8.6610   -1.2820 C   0  0  0  0  0  0  0  0  0  0  0  0
   -5.7740   -7.3890   -1.0640 C   0  0  0  0  0  0  0  0  0  0  0  0
   -5.3640   -6.1510   -1.8300 C   0  0  0  0  0  0  0  0  0  0  0  0
   -6.1140   -5.0150   -1.6080 C   0  0  0  0  0  0  0  0  0  0  0  0
   -7.1680   -4.9830   -0.7540 N   0  0  0  0  0  0  0  0  0  0  0  0
   -7.5030   -6.1180   -0.0900 C   0  0  0  0  0  0  0  0  0  0  0  0
   -6.8520   -7.3240   -0.2030 C   0  0  0  0  0  0  0  0  0  0  0  0
  1  2  1  0
  2  3  1  0
  3  4  1  0
  4  5  1  0
  5  6  1  0
  6  7  1  0
  7  8  1  0
  8  9  1  0
  9 10  1  0
 10 11  1  0
 11 12  2  0
 11 13  1  0
 13 14  1  0
 14 15  1  0
 15 16  1  0
 16 17  2  0
 17 18  1  0
 18 19  2  0
 19 20  1  0
 20 21  2  0
 10  2  1  0
 21 16  1  0
  9  4  1  0
A    1
 C1 
A    2
 C2 
A    3
 C3 
A    4
 C4 
A    5
 C5 
A    6
 C6 
A    7
 C7 
A    8
 C8 
A    9
 C9 
A   10
 N1 
A   11
 C10
A   12
 O1 
A   13
 C11
A   14
 S1 
A   15
 C12
A   16
 C13
A   17
 C14
A   18
 C15
A   19
 N2 
A   20
 C16
A   21
 C17
M  END
>  <ref_url>  (95) 
https://github.com/stephwills/fragment_network_merges

>  <submitter_name>  (95) 
Steph Wills

>  <submitter_institution>  (95) 
University of Oxford

>  <submitter_email>  (95) 
stephanie.wills@balliol.ox.ac.uk

>  <generation_date>  (95) 
2023-07-04

>  <original SMILES>  (95) 
CC(=O)NC12CCCCC1N(C(=O)Cc1ccc(=O)[nH]c1)CC2

>  <ref_mols>  (95) 
x0771_0A,x1052_1A

>  <SuCOS_score>  (95) 
0.4135720078517828

>  <cmpd_id>  (95) 
MOLPORT:004-216-779

>  <method>  (95) 
fragnetv2_named

>  <ref_pdb>  (95) 
x0771_0A

$$$$
x1594-0A-x0789-0A-854_u
     RDKit          3D

 22 24  0  0  0  0  0  0  0  0999 V2000
  -13.5230   -6.4800   -2.5620 C   0  0  0  0  0  0  0  0  0  0  0  0
  -13.8160   -5.1910   -3.3140 C   0  0  0  0  0  0  0  0  0  0  0  0
  -12.6740   -4.3460   -3.3980 O   0  0  0  0  0  0  0  0  0  0  0  0
  -11.4360   -5.0520   -3.5700 C   0  0  0  0  0  0  0  0  0  0  0  0
  -11.5820   -6.2710   -4.2510 C   0  0  0  0  0  0  0  0  0  0  0  0
  -10.4710   -7.0890   -4.5070 C   0  0  0  0  0  0  0  0  0  0  0  0
   -9.1370   -6.6640   -4.0560 C   0  0  0  0  0  0  0  0  0  0  0  0
   -7.9380   -7.4720   -4.3000 C   0  0  0  0  0  0  0  0  0  0  0  0
   -7.6420   -8.3960   -3.5490 O   0  0  0  0  0  0  0  0  0  0  0  0
   -7.1960   -7.1270   -5.4100 N   0  0  0  0  0  0  0  0  0  0  0  0
   -7.7870   -7.2130   -6.7330 C   0  0  0  0  0  0  0  0  0  0  0  0
   -7.8210   -5.9130   -7.3100 C   0  0  0  0  0  0  0  0  0  0  0  0
   -6.8980   -5.3750   -8.1070 N   0  0  0  0  0  0  0  0  0  0  0  0
   -7.2950   -4.0990   -8.4570 N   0  0  0  0  0  0  0  0  0  0  0  0
   -8.4940   -3.9110   -7.8270 C   0  0  0  0  0  0  0  0  0  0  0  0
   -9.3690   -2.7290   -7.8370 C   0  0  0  0  0  0  0  0  0  0  0  0
  -10.5210   -2.7660   -7.1400 C   0  0  0  0  0  0  0  0  0  0  0  0
  -10.8940   -3.9610   -6.3910 C   0  0  0  0  0  0  0  0  0  0  0  0
  -10.0380   -5.0720   -6.3970 C   0  0  0  0  0  0  0  0  0  0  0  0
   -8.8510   -5.0170   -7.1150 N   0  0  0  0  0  0  0  0  0  0  0  0
   -9.0530   -5.4440   -3.3830 C   0  0  0  0  0  0  0  0  0  0  0  0
  -10.1730   -4.6420   -3.1360 C   0  0  0  0  0  0  0  0  0  0  0  0
  1  2  1  0
  2  3  1  0
  3  4  1  0
  4  5  2  0
  5  6  1  0
  6  7  2  0
  7  8  1  0
  8  9  2  0
  8 10  1  0
 10 11  1  0
 11 12  1  0
 12 13  2  0
 13 14  1  0
 14 15  2  0
 15 16  1  0
 16 17  2  0
 17 18  1  0
 18 19  2  0
 19 20  1  0
  7 21  1  0
 21 22  2  0
 22  4  1  0
 20 12  1  0
 20 15  1  0
A    1
 C1 
A    2
 C2 
A    3
 O1 
A    4
 C3 
A    5
 C4 
A    6
 C5 
A    7
 C6 
A    8
 C7 
A    9
 O2 
A   10
 N1 
A   11
 C8 
A   12
 C9 
A   13
 N2 
A   14
 N3 
A   15
 C10
A   16
 C11
A   17
 C12
A   18
 C13
A   19
 C14
A   20
 N4 
A   21
 C15
A   22
 C16
M  END
>  <ref_url>  (96) 
https://github.com/stephwills/fragment_network_merges

>  <submitter_name>  (96) 
Steph Wills

>  <submitter_institution>  (96) 
University of Oxford

>  <submitter_email>  (96) 
stephanie.wills@balliol.ox.ac.uk

>  <generation_date>  (96) 
2023-07-04

>  <original SMILES>  (96) 
CC(=O)NC12CCCCC1N(C(=O)Cc1ccc(=O)[nH]c1)CC2

>  <ref_mols>  (96) 
x1594_0A,x0789_0A

>  <SuCOS_score>  (96) 
0.6423837933665136

>  <cmpd_id>  (96) 
ENAMINE:Z736778440

>  <method>  (96) 
fragnetv2_named

>  <ref_pdb>  (96) 
x1594_0A

$$$$
x1594-0A-x0789-0A-2745_u
     RDKit          3D

 21 23  0  0  0  0  0  0  0  0999 V2000
  -13.8180   -5.9580   -2.8080 C   0  0  0  0  0  0  0  0  0  0  0  0
  -12.9940   -4.8400   -3.4210 C   0  0  0  0  0  0  0  0  0  0  0  0
  -11.5990   -5.1500   -3.3790 O   0  0  0  0  0  0  0  0  0  0  0  0
  -11.1380   -6.3020   -3.9710 C   0  0  0  0  0  0  0  0  0  0  0  0
  -11.8730   -7.4790   -4.1380 C   0  0  0  0  0  0  0  0  0  0  0  0
  -11.2980   -8.5950   -4.7550 C   0  0  0  0  0  0  0  0  0  0  0  0
   -9.9870   -8.5470   -5.2140 C   0  0  0  0  0  0  0  0  0  0  0  0
   -9.2380   -7.3820   -5.0600 C   0  0  0  0  0  0  0  0  0  0  0  0
   -7.8340   -7.3720   -5.5750 C   0  0  0  0  0  0  0  0  0  0  0  0
   -6.9220   -7.6500   -4.8010 O   0  0  0  0  0  0  0  0  0  0  0  0
   -7.7010   -7.0410   -6.9070 N   0  0  0  0  0  0  0  0  0  0  0  0
   -7.8630   -5.7650   -7.3970 C   0  0  0  0  0  0  0  0  0  0  0  0
   -6.9540   -5.2020   -8.1670 N   0  0  0  0  0  0  0  0  0  0  0  0
   -7.3820   -3.9350   -8.4910 N   0  0  0  0  0  0  0  0  0  0  0  0
   -8.5410   -3.7440   -7.9100 C   0  0  0  0  0  0  0  0  0  0  0  0
   -9.4300   -2.6410   -7.8750 C   0  0  0  0  0  0  0  0  0  0  0  0
  -10.6840   -2.7750   -7.1070 C   0  0  0  0  0  0  0  0  0  0  0  0
  -10.9820   -3.9110   -6.4620 C   0  0  0  0  0  0  0  0  0  0  0  0
  -10.1230   -4.9510   -6.5000 C   0  0  0  0  0  0  0  0  0  0  0  0
   -8.9150   -4.8770   -7.2050 N   0  0  0  0  0  0  0  0  0  0  0  0
   -9.8140   -6.2590   -4.4350 C   0  0  0  0  0  0  0  0  0  0  0  0
  1  2  1  0
  2  3  1  0
  3  4  1  0
  4  5  2  0
  5  6  1  0
  6  7  2  0
  7  8  1  0
  8  9  1  0
  9 10  2  0
  9 11  1  0
 11 12  1  0
 12 13  2  0
 13 14  1  0
 14 15  2  0
 15 16  1  0
 16 17  2  0
 17 18  1  0
 18 19  2  0
 19 20  1  0
  8 21  2  0
 21  4  1  0
 20 12  1  0
 20 15  1  0
A    1
 C1 
A    2
 C2 
A    3
 O1 
A    4
 C3 
A    5
 C4 
A    6
 C5 
A    7
 C6 
A    8
 C7 
A    9
 C8 
A   10
 O2 
A   11
 N1 
A   12
 C9 
A   13
 N2 
A   14
 N3 
A   15
 C10
A   16
 C11
A   17
 C12
A   18
 C13
A   19
 C14
A   20
 N4 
A   21
 C15
M  END
>  <ref_url>  (97) 
https://github.com/stephwills/fragment_network_merges

>  <submitter_name>  (97) 
Steph Wills

>  <submitter_institution>  (97) 
University of Oxford

>  <submitter_email>  (97) 
stephanie.wills@balliol.ox.ac.uk

>  <generation_date>  (97) 
2023-07-04

>  <original SMILES>  (97) 
CC(=O)NC12CCCCC1N(C(=O)Cc1ccc(=O)[nH]c1)CC2

>  <ref_mols>  (97) 
x1594_0A,x0789_0A

>  <SuCOS_score>  (97) 
0.6516241436193326

>  <cmpd_id>  (97) 
ENAMINE:PV-003631304047

>  <method>  (97) 
fragnetv2_named

>  <ref_pdb>  (97) 
x1594_0A

$$$$
x1594-0A-x0789-0A-4257_u
     RDKit          3D

 20 22  0  0  0  0  0  0  0  0999 V2000
   -6.7420   -6.9300   -4.7040 C   0  0  0  0  0  0  0  0  0  0  0  0
   -7.7230   -8.0880   -4.8670 C   0  0  0  0  0  0  0  0  0  0  0  0
   -8.9560   -7.7630   -5.7230 C   0  0  0  0  0  0  0  0  0  0  0  0
  -10.0920   -7.0610   -5.1250 N   0  0  0  0  0  0  0  0  0  0  0  0
  -10.9430   -7.6140   -4.1870 N   0  0  0  0  0  0  0  0  0  0  0  0
  -11.8080   -6.5950   -3.9510 C   0  0  0  0  0  0  0  0  0  0  0  0
  -12.9950   -6.6530   -2.9700 C   0  0  0  0  0  0  0  0  0  0  0  0
  -13.4040   -5.4380   -3.5060 C   0  0  0  0  0  0  0  0  0  0  0  0
  -12.3780   -4.4580   -3.3180 O   0  0  0  0  0  0  0  0  0  0  0  0
  -11.5710   -5.4660   -4.6490 N   0  0  0  0  0  0  0  0  0  0  0  0
  -10.4710   -5.7710   -5.4090 C   0  0  0  0  0  0  0  0  0  0  0  0
   -9.8770   -4.8270   -6.3310 C   0  0  0  0  0  0  0  0  0  0  0  0
  -10.6810   -3.6280   -6.3510 C   0  0  0  0  0  0  0  0  0  0  0  0
  -10.3230   -2.5170   -7.1710 C   0  0  0  0  0  0  0  0  0  0  0  0
   -9.2310   -2.5970   -7.9240 C   0  0  0  0  0  0  0  0  0  0  0  0
   -8.3940   -3.7560   -7.9690 C   0  0  0  0  0  0  0  0  0  0  0  0
   -7.2930   -3.9880   -8.6770 N   0  0  0  0  0  0  0  0  0  0  0  0
   -6.8180   -5.2450   -8.3980 N   0  0  0  0  0  0  0  0  0  0  0  0
   -7.7570   -5.7580   -7.4360 C   0  0  0  0  0  0  0  0  0  0  0  0
   -8.7380   -4.8550   -7.1610 N   0  0  0  0  0  0  0  0  0  0  0  0
  1  2  1  0
  2  3  1  0
  3  4  1  0
  4  5  1  0
  5  6  2  0
  6  7  1  0
  7  8  1  0
  8  9  1  0
  6 10  1  0
 10 11  2  0
 11 12  1  0
 12 13  2  0
 13 14  1  0
 14 15  2  0
 15 16  1  0
 16 17  2  0
 17 18  1  0
 18 19  2  0
 19 20  1  0
 11  4  1  0
 20 12  1  0
 20 16  1  0
A    1
 C1 
A    2
 C2 
A    3
 C3 
A    4
 N1 
A    5
 N2 
A    6
 C4 
A    7
 C5 
A    8
 C6 
A    9
 O1 
A   10
 N3 
A   11
 C7 
A   12
 C8 
A   13
 C9 
A   14
 C10
A   15
 C11
A   16
 C12
A   17
 N4 
A   18
 N5 
A   19
 C13
A   20
 N6 
M  END
>  <ref_url>  (98) 
https://github.com/stephwills/fragment_network_merges

>  <submitter_name>  (98) 
Steph Wills

>  <submitter_institution>  (98) 
University of Oxford

>  <submitter_email>  (98) 
stephanie.wills@balliol.ox.ac.uk

>  <generation_date>  (98) 
2023-07-04

>  <original SMILES>  (98) 
CC(=O)NC12CCCCC1N(C(=O)Cc1ccc(=O)[nH]c1)CC2

>  <ref_mols>  (98) 
x1594_0A,x0789_0A

>  <SuCOS_score>  (98) 
0.6770851191777809

>  <cmpd_id>  (98) 
ENAMINE:Z3174242048

>  <method>  (98) 
fragnetv2_named

>  <ref_pdb>  (98) 
x1594_0A

$$$$
x0771-0A-x1140-0A-234_p
     RDKit          3D

 23 25  0  0  0  0  0  0  0  0999 V2000
   -6.7360  -12.0630   -4.8210 O   0  0  0  0  0  0  0  0  0  0  0  0
   -7.0160  -11.4910   -5.8630 C   0  0  0  0  0  0  0  0  0  0  0  0
   -6.6220  -12.0180   -7.0390 O   0  0  0  0  0  0  0  0  0  0  0  0
   -7.8190  -10.1830   -5.9770 C   0  0  0  0  0  0  0  0  0  0  0  0
   -7.5090   -9.4950   -7.3070 C   0  0  0  0  0  0  0  0  0  0  0  0
   -7.8390   -8.0260   -6.9790 C   0  0  0  0  0  0  0  0  0  0  0  0
   -7.3160   -6.8460   -7.7880 C   0  0  0  0  0  0  0  0  0  0  0  0
   -8.0740   -5.5810   -7.4000 C   0  0  0  0  0  0  0  0  0  0  0  0
   -8.2300   -5.4040   -5.8760 C   0  0  0  0  0  0  0  0  0  0  0  0
   -8.3980   -6.7140   -5.0790 C   0  0  0  0  0  0  0  0  0  0  0  0
   -7.4560   -7.8160   -5.5590 C   0  0  0  0  0  0  0  0  0  0  0  0
   -7.5470   -9.1440   -4.9590 N   0  0  0  0  0  0  0  0  0  0  0  0
   -7.1230   -9.3550   -3.6560 C   0  0  0  0  0  0  0  0  0  0  0  0
   -7.8190   -9.9410   -2.8240 O   0  0  0  0  0  0  0  0  0  0  0  0
   -5.7390   -8.8210   -3.3030 C   0  0  0  0  0  0  0  0  0  0  0  0
   -5.7080   -7.5000   -2.5040 C   0  0  0  0  0  0  0  0  0  0  0  0
   -6.8110   -7.4100   -1.4420 C   0  0  0  0  0  0  0  0  0  0  0  0
   -6.5780   -6.1930   -0.5500 C   0  0  0  0  0  0  0  0  0  0  0  0
   -6.7940   -4.8760   -1.2600 C   0  0  0  0  0  0  0  0  0  0  0  0
   -7.0550   -5.1130   -2.9920 S   0  0  0  0  0  6  0  0  0  0  0  0
   -6.8140   -3.8530   -3.6690 O   0  0  0  0  0  0  0  0  0  0  0  0
   -8.3480   -5.7570   -3.1050 O   0  0  0  0  0  0  0  0  0  0  0  0
   -5.7880   -6.2920   -3.4360 C   0  0  0  0  0  0  0  0  0  0  0  0
  1  2  2  0
  2  3  1  0
  2  4  1  0
  4  5  1  0
  5  6  1  0
  6  7  1  0
  7  8  1  0
  8  9  1  0
  9 10  1  0
 10 11  1  0
 11 12  1  0
 12 13  1  0
 13 14  2  0
 13 15  1  0
 15 16  1  0
 16 17  1  0
 17 18  1  0
 18 19  1  0
 19 20  1  0
 20 21  2  0
 20 22  2  0
 20 23  1  0
 12  4  1  0
 23 16  1  0
 11  6  1  0
A    1
 O1 
A    2
 C1 
A    3
 O2 
A    4
 C2 
A    5
 C3 
A    6
 C4 
A    7
 C5 
A    8
 C6 
A    9
 C7 
A   10
 C8 
A   11
 C9 
A   12
 N1 
A   13
 C10
A   14
 O3 
A   15
 C11
A   16
 C12
A   17
 C13
A   18
 C14
A   19
 C15
A   20
 S1 
A   21
 O4 
A   22
 O5 
A   23
 C16
M  END
>  <ref_url>  (99) 
https://github.com/stephwills/fragment_network_merges

>  <submitter_name>  (99) 
Steph Wills

>  <submitter_institution>  (99) 
University of Oxford

>  <submitter_email>  (99) 
stephanie.wills@balliol.ox.ac.uk

>  <generation_date>  (99) 
2023-07-04

>  <original SMILES>  (99) 
CC(=O)NC12CCCCC1N(C(=O)Cc1ccc(=O)[nH]c1)CC2

>  <ref_mols>  (99) 
x0771_0A,x1140_0A

>  <SuCOS_score>  (99) 
0.4026302784654577

>  <cmpd_id>  (99) 
ENAMINE:Z3595356450

>  <method>  (99) 
fragnetv2_named

>  <ref_pdb>  (99) 
x0771_0A

$$$$
x0771-0A-x1140-0A-249_p
     RDKit          3D

 23 25  0  0  0  0  0  0  0  0999 V2000
   -5.9160   -9.5520   -1.5860 C   0  0  0  0  0  0  0  0  0  0  0  0
   -6.6730   -8.3100   -1.7750 N   0  0  0  0  0  0  0  0  0  0  0  0
   -7.7200   -8.5260   -2.8190 C   0  0  0  0  0  0  0  0  0  0  0  0
   -7.3040   -9.5670   -3.8830 C   0  0  0  0  0  0  0  0  0  0  0  0
   -6.8770  -10.6810   -3.5570 O   0  0  0  0  0  0  0  0  0  0  0  0
   -7.4260   -9.2550   -5.2400 N   0  0  0  0  0  0  0  0  0  0  0  0
   -7.1920  -10.1990   -6.3440 C   0  0  0  0  0  0  0  0  0  0  0  0
   -8.1640  -11.3810   -6.5410 C   0  0  0  0  0  0  0  0  0  0  0  0
   -8.3980  -11.6340   -7.9230 O   0  0  0  0  0  0  0  0  0  0  0  0
   -7.2290   -9.3440   -7.6190 C   0  0  0  0  0  0  0  0  0  0  0  0
   -7.5310   -7.9390   -7.1660 C   0  0  0  0  0  0  0  0  0  0  0  0
   -6.8770   -6.7920   -7.9060 C   0  0  0  0  0  0  0  0  0  0  0  0
   -7.6050   -5.5170   -7.4820 C   0  0  0  0  0  0  0  0  0  0  0  0
   -7.9810   -5.4510   -5.9810 C   0  0  0  0  0  0  0  0  0  0  0  0
   -8.1760   -6.8000   -5.2510 C   0  0  0  0  0  0  0  0  0  0  0  0
   -7.2000   -7.8810   -5.7240 C   0  0  0  0  0  0  0  0  0  0  0  0
   -5.7980   -7.1490   -2.0560 C   0  0  0  0  0  0  0  0  0  0  0  0
   -6.0070   -6.0460   -0.9780 C   0  0  0  0  0  0  0  0  0  0  0  0
   -7.2380   -5.2330   -1.3470 C   0  0  0  0  0  0  0  0  0  0  0  0
   -7.1710   -5.0980   -3.1180 S   0  0  0  0  0  6  0  0  0  0  0  0
   -8.4690   -5.4880   -3.6270 O   0  0  0  0  0  0  0  0  0  0  0  0
   -6.5600   -3.8310   -3.4750 O   0  0  0  0  0  0  0  0  0  0  0  0
   -5.9690   -6.3930   -3.3810 C   0  0  0  0  0  0  0  0  0  0  0  0
  1  2  1  0
  2  3  1  0
  3  4  1  0
  4  5  2  0
  4  6  1  0
  6  7  1  0
  7  8  1  0
  8  9  1  0
  7 10  1  0
 10 11  1  0
 11 12  1  0
 12 13  1  0
 13 14  1  0
 14 15  1  0
 15 16  1  0
  2 17  1  0
 17 18  1  0
 18 19  1  0
 19 20  1  0
 20 21  2  0
 20 22  2  0
 20 23  1  0
 16  6  1  0
 23 17  1  0
 16 11  1  0
A    1
 C1 
A    2
 N1 
A    3
 C2 
A    4
 C3 
A    5
 O1 
A    6
 N2 
A    7
 C4 
A    8
 C5 
A    9
 O2 
A   10
 C6 
A   11
 C7 
A   12
 C8 
A   13
 C9 
A   14
 C10
A   15
 C11
A   16
 C12
A   17
 C13
A   18
 C14
A   19
 C15
A   20
 S1 
A   21
 O3 
A   22
 O4 
A   23
 C16
M  END
>  <ref_url>  (100) 
https://github.com/stephwills/fragment_network_merges

>  <submitter_name>  (100) 
Steph Wills

>  <submitter_institution>  (100) 
University of Oxford

>  <submitter_email>  (100) 
stephanie.wills@balliol.ox.ac.uk

>  <generation_date>  (100) 
2023-07-04

>  <original SMILES>  (100) 
CC(=O)NC12CCCCC1N(C(=O)Cc1ccc(=O)[nH]c1)CC2

>  <ref_mols>  (100) 
x0771_0A,x1140_0A

>  <SuCOS_score>  (100) 
0.4398372529992723

>  <cmpd_id>  (100) 
MOLPORT:028-297-711

>  <method>  (100) 
fragnetv2_named

>  <ref_pdb>  (100) 
x0771_0A

$$$$
x0771-0A-x1140-0A-544_p
     RDKit          3D

 18 19  0  0  0  0  0  0  0  0999 V2000
   -7.2660   -5.3010   -0.5270 C   0  0  0  0  0  0  0  0  0  0  0  0
   -7.5900   -5.8140   -1.9210 C   0  0  0  0  0  0  0  0  0  0  0  0
   -6.2640   -5.2650   -2.9590 S   0  0  0  0  0  6  0  0  0  0  0  0
   -5.2400   -4.8850   -2.0330 O   0  0  0  0  0  0  0  0  0  0  0  0
   -6.8170   -4.3190   -3.9150 O   0  0  0  0  0  0  0  0  0  0  0  0
   -5.7350   -6.6620   -3.7680 N   0  0  0  0  0  0  0  0  0  0  0  0
   -5.7380   -7.9710   -3.0540 C   0  0  0  0  0  0  0  0  0  0  0  0
   -6.5590   -9.0530   -3.7880 C   0  0  0  0  0  0  0  0  0  0  0  0
   -6.7810   -8.7720   -5.2270 N   0  0  0  0  0  0  0  0  0  0  0  0
   -7.3170   -9.9230   -5.9930 C   0  0  0  0  0  0  0  0  0  0  0  0
   -6.3650  -11.1020   -6.0620 C   0  0  0  0  0  0  0  0  0  0  0  0
   -7.5640   -9.2810   -7.3550 C   0  0  0  0  0  0  0  0  0  0  0  0
   -7.9500   -7.8500   -6.9630 C   0  0  0  0  0  0  0  0  0  0  0  0
   -7.2460   -6.7000   -7.6820 C   0  0  0  0  0  0  0  0  0  0  0  0
   -7.9720   -5.3880   -7.4360 C   0  0  0  0  0  0  0  0  0  0  0  0
   -8.4010   -5.3180   -5.9780 C   0  0  0  0  0  0  0  0  0  0  0  0
   -7.6420   -6.3220   -5.0820 C   0  0  0  0  0  0  0  0  0  0  0  0
   -7.8250   -7.7820   -5.4750 C   0  0  0  0  0  0  0  0  0  0  0  0
  1  2  1  0
  2  3  1  0
  3  4  2  0
  3  5  2  0
  3  6  1  0
  6  7  1  0
  7  8  1  0
  8  9  1  0
  9 10  1  0
 10 11  1  0
 10 12  1  0
 12 13  1  0
 13 14  1  0
 14 15  1  0
 15 16  1  0
 16 17  1  0
 17 18  1  0
 18  9  1  0
 18 13  1  0
A    1
 C1 
A    2
 C2 
A    3
 S1 
A    4
 O1 
A    5
 O2 
A    6
 N1 
A    7
 C3 
A    8
 C4 
A    9
 N2 
A   10
 C5 
A   11
 C6 
A   12
 C7 
A   13
 C8 
A   14
 C9 
A   15
 C10
A   16
 C11
A   17
 C12
A   18
 C13
M  END
>  <ref_url>  (101) 
https://github.com/stephwills/fragment_network_merges

>  <submitter_name>  (101) 
Steph Wills

>  <submitter_institution>  (101) 
University of Oxford

>  <submitter_email>  (101) 
stephanie.wills@balliol.ox.ac.uk

>  <generation_date>  (101) 
2023-07-04

>  <original SMILES>  (101) 
CC(=O)NC12CCCCC1N(C(=O)Cc1ccc(=O)[nH]c1)CC2

>  <ref_mols>  (101) 
x0771_0A,x1140_0A

>  <SuCOS_score>  (101) 
0.44695811987075323

>  <cmpd_id>  (101) 
MOLPORT:046-101-488

>  <method>  (101) 
fragnetv2_named

>  <ref_pdb>  (101) 
x0771_0A

$$$$
x0771-0A-x1140-0A-145_p
     RDKit          3D

 25 28  0  0  0  0  0  0  0  0999 V2000
   -6.5780  -12.0540   -8.7540 C   0  0  0  0  0  0  0  0  0  0  0  0
   -7.6420  -11.1870   -8.3290 O   0  0  0  0  0  0  0  0  0  0  0  0
   -7.7930  -11.1570   -6.9570 C   0  0  0  0  0  0  0  0  0  0  0  0
   -8.3750  -11.9930   -6.2780 O   0  0  0  0  0  0  0  0  0  0  0  0
   -7.1060   -9.8910   -6.4560 C   0  0  0  0  0  0  0  0  0  0  0  0
   -7.1870   -8.9740   -7.6580 C   0  0  0  0  0  0  0  0  0  0  0  0
   -7.3570   -7.5860   -7.0180 C   0  0  0  0  0  0  0  0  0  0  0  0
   -7.6800   -6.3580   -7.8740 C   0  0  0  0  0  0  0  0  0  0  0  0
   -7.6860   -5.1370   -7.0250 C   0  0  0  0  0  0  0  0  0  0  0  0
   -8.5750   -5.3530   -5.7950 C   0  0  0  0  0  0  0  0  0  0  0  0
   -8.4230   -6.7020   -5.0410 C   0  0  0  0  0  0  0  0  0  0  0  0
   -8.3650   -7.9000   -5.9560 C   0  0  0  0  0  0  0  0  0  0  0  0
   -7.8140   -9.1410   -5.3880 N   0  0  0  0  0  0  0  0  0  0  0  0
   -7.4610   -9.4440   -4.0640 C   0  0  0  0  0  0  0  0  0  0  0  0
   -6.7580  -10.4250   -3.8340 O   0  0  0  0  0  0  0  0  0  0  0  0
   -7.9290   -8.6280   -2.8690 C   0  0  0  0  0  0  0  0  0  0  0  0
   -7.3990   -9.1300   -1.5420 C   0  0  0  0  0  0  0  0  0  0  0  0
   -6.9900   -7.7520   -2.0000 C   0  0  0  0  0  0  0  0  0  0  0  0
   -7.4690   -6.6420   -1.0280 C   0  0  0  0  0  0  0  0  0  0  0  0
   -6.9340   -5.2750   -1.3580 C   0  0  0  0  0  0  0  0  0  0  0  0
   -6.8900   -5.1580   -3.1150 S   0  0  0  0  0  6  0  0  0  0  0  0
   -6.4410   -3.8250   -3.4710 O   0  0  0  0  0  0  0  0  0  0  0  0
   -8.1770   -5.6510   -3.5470 O   0  0  0  0  0  0  0  0  0  0  0  0
   -5.6080   -6.3450   -3.5040 C   0  0  0  0  0  0  0  0  0  0  0  0
   -5.6160   -7.5480   -2.5890 C   0  0  0  0  0  0  0  0  0  0  0  0
  1  2  1  0
  2  3  1  0
  3  4  2  0
  3  5  1  0
  5  6  1  0
  6  7  1  0
  7  8  1  0
  8  9  1  0
  9 10  1  0
 10 11  1  0
 11 12  1  0
 12 13  1  0
 13 14  1  0
 14 15  2  0
 14 16  1  0
 16 17  1  0
 17 18  1  0
 18 19  1  0
 19 20  1  0
 20 21  1  0
 21 22  2  0
 21 23  2  0
 21 24  1  0
 24 25  1  0
 13  5  1  0
 18 16  1  0
 12  7  1  0
 25 18  1  0
A    1
 C1 
A    2
 O1 
A    3
 C2 
A    4
 O2 
A    5
 C3 
A    6
 C4 
A    7
 C5 
A    8
 C6 
A    9
 C7 
A   10
 C8 
A   11
 C9 
A   12
 C10
A   13
 N1 
A   14
 C11
A   15
 O3 
A   16
 C12
A   17
 C13
A   18
 C14
A   19
 C15
A   20
 C16
A   21
 S1 
A   22
 O4 
A   23
 O5 
A   24
 C17
A   25
 C18
M  END
>  <ref_url>  (102) 
https://github.com/stephwills/fragment_network_merges

>  <submitter_name>  (102) 
Steph Wills

>  <submitter_institution>  (102) 
University of Oxford

>  <submitter_email>  (102) 
stephanie.wills@balliol.ox.ac.uk

>  <generation_date>  (102) 
2023-07-04

>  <original SMILES>  (102) 
CC(=O)NC12CCCCC1N(C(=O)Cc1ccc(=O)[nH]c1)CC2

>  <ref_mols>  (102) 
x0771_0A,x1140_0A

>  <SuCOS_score>  (102) 
0.41924565146844717

>  <cmpd_id>  (102) 
ENAMINE:Z3595363691

>  <method>  (102) 
fragnetv2_named

>  <ref_pdb>  (102) 
x0771_0A

$$$$
x0771-0A-x1140-0A-1178_p
     RDKit          3D

 21 23  0  0  0  0  0  0  0  0999 V2000
   -6.6490  -10.2870   -3.1770 O   0  0  0  0  0  0  0  0  0  0  0  0
   -6.5250   -9.2370   -3.7980 C   0  0  0  0  0  0  0  0  0  0  0  0
   -5.5570   -8.1460   -3.3790 C   0  0  0  0  0  0  0  0  0  0  0  0
   -5.1650   -8.2550   -1.9560 C   0  0  0  0  0  0  0  0  0  0  0  0
   -5.9630   -8.9560   -0.9890 C   0  0  0  0  0  0  0  0  0  0  0  0
   -5.4360   -9.0590    0.4360 C   0  0  0  0  0  0  0  0  0  0  0  0
   -4.0730   -8.4070    0.7710 C   0  0  0  0  0  0  0  0  0  0  0  0
   -3.5440   -8.5300    1.8640 O   0  0  0  0  0  0  0  0  0  0  0  0
   -3.5330   -7.6900   -0.2560 N   0  0  0  0  0  0  0  0  0  0  0  0
   -4.0110   -7.6640   -1.5540 C   0  0  0  0  0  0  0  0  0  0  0  0
   -7.2660   -8.9390   -4.9350 N   0  0  0  0  0  0  0  0  0  0  0  0
   -7.6620   -9.8940   -5.9800 C   0  0  0  0  0  0  0  0  0  0  0  0
   -7.1110  -11.3170   -5.8140 C   0  0  0  0  0  0  0  0  0  0  0  0
   -8.0630  -12.1380   -5.1300 O   0  0  0  0  0  0  0  0  0  0  0  0
   -7.2740   -9.1650   -7.2750 C   0  0  0  0  0  0  0  0  0  0  0  0
   -6.7070   -7.7800   -6.8960 C   0  0  0  0  0  0  0  0  0  0  0  0
   -6.9410   -6.6730   -7.9350 C   0  0  0  0  0  0  0  0  0  0  0  0
   -7.9370   -5.5400   -7.5690 C   0  0  0  0  0  0  0  0  0  0  0  0
   -8.1840   -5.4070   -6.0720 C   0  0  0  0  0  0  0  0  0  0  0  0
   -8.4870   -6.7690   -5.4460 C   0  0  0  0  0  0  0  0  0  0  0  0
   -7.2250   -7.5800   -5.4850 C   0  0  0  0  0  0  0  0  0  0  0  0
  1  2  2  0
  2  3  1  0
  3  4  1  0
  4  5  1  0
  5  6  2  0
  6  7  1  0
  7  8  2  0
  7  9  1  0
  9 10  1  0
  2 11  1  0
 11 12  1  0
 12 13  1  0
 13 14  1  0
 12 15  1  0
 15 16  1  0
 16 17  1  0
 17 18  1  0
 18 19  1  0
 19 20  1  0
 20 21  1  0
 10  4  2  0
 21 11  1  0
 21 16  1  0
A    1
 O1 
A    2
 C1 
A    3
 C2 
A    4
 C3 
A    5
 C4 
A    6
 C5 
A    7
 C6 
A    8
 O2 
A    9
 N1 
A   10
 C7 
A   11
 N2 
A   12
 C8 
A   13
 C9 
A   14
 O3 
A   15
 C10
A   16
 C11
A   17
 C12
A   18
 C13
A   19
 C14
A   20
 C15
A   21
 C16
M  END
>  <ref_url>  (103) 
https://github.com/stephwills/fragment_network_merges

>  <submitter_name>  (103) 
Steph Wills

>  <submitter_institution>  (103) 
University of Oxford

>  <submitter_email>  (103) 
stephanie.wills@balliol.ox.ac.uk

>  <generation_date>  (103) 
2023-07-04

>  <original SMILES>  (103) 
CC(=O)NC12CCCCC1N(C(=O)Cc1ccc(=O)[nH]c1)CC2

>  <ref_mols>  (103) 
x0771_0A,x1140_0A

>  <SuCOS_score>  (103) 
0.4479991348276863

>  <cmpd_id>  (103) 
ENAMINE:Z3595363691

>  <method>  (103) 
fragnetv2_named

>  <ref_pdb>  (103) 
x0771_0A

$$$$
x0771-0A-x1140-0A-1178_p
     RDKit          3D

 21 23  0  0  0  0  0  0  0  0999 V2000
   -6.6490  -10.2870   -3.1770 O   0  0  0  0  0  0  0  0  0  0  0  0
   -6.5250   -9.2370   -3.7980 C   0  0  0  0  0  0  0  0  0  0  0  0
   -5.5570   -8.1460   -3.3790 C   0  0  0  0  0  0  0  0  0  0  0  0
   -5.1650   -8.2550   -1.9560 C   0  0  0  0  0  0  0  0  0  0  0  0
   -5.9630   -8.9560   -0.9890 C   0  0  0  0  0  0  0  0  0  0  0  0
   -5.4360   -9.0590    0.4360 C   0  0  0  0  0  0  0  0  0  0  0  0
   -4.0730   -8.4070    0.7710 C   0  0  0  0  0  0  0  0  0  0  0  0
   -3.5440   -8.5300    1.8640 O   0  0  0  0  0  0  0  0  0  0  0  0
   -3.5330   -7.6900   -0.2560 N   0  0  0  0  0  0  0  0  0  0  0  0
   -4.0110   -7.6640   -1.5540 C   0  0  0  0  0  0  0  0  0  0  0  0
   -7.2660   -8.9390   -4.9350 N   0  0  0  0  0  0  0  0  0  0  0  0
   -7.6620   -9.8940   -5.9800 C   0  0  0  0  0  0  0  0  0  0  0  0
   -7.1110  -11.3170   -5.8140 C   0  0  0  0  0  0  0  0  0  0  0  0
   -8.0630  -12.1380   -5.1300 O   0  0  0  0  0  0  0  0  0  0  0  0
   -7.2740   -9.1650   -7.2750 C   0  0  0  0  0  0  0  0  0  0  0  0
   -6.7070   -7.7800   -6.8960 C   0  0  0  0  0  0  0  0  0  0  0  0
   -6.9410   -6.6730   -7.9350 C   0  0  0  0  0  0  0  0  0  0  0  0
   -7.9370   -5.5400   -7.5690 C   0  0  0  0  0  0  0  0  0  0  0  0
   -8.1840   -5.4070   -6.0720 C   0  0  0  0  0  0  0  0  0  0  0  0
   -8.4870   -6.7690   -5.4460 C   0  0  0  0  0  0  0  0  0  0  0  0
   -7.2250   -7.5800   -5.4850 C   0  0  0  0  0  0  0  0  0  0  0  0
  1  2  2  0
  2  3  1  0
  3  4  1  0
  4  5  1  0
  5  6  2  0
  6  7  1  0
  7  8  2  0
  7  9  1  0
  9 10  1  0
  2 11  1  0
 11 12  1  0
 12 13  1  0
 13 14  1  0
 12 15  1  0
 15 16  1  0
 16 17  1  0
 17 18  1  0
 18 19  1  0
 19 20  1  0
 20 21  1  0
 10  4  2  0
 21 11  1  0
 21 16  1  0
A    1
 O1 
A    2
 C1 
A    3
 C2 
A    4
 C3 
A    5
 C4 
A    6
 C5 
A    7
 C6 
A    8
 O2 
A    9
 N1 
A   10
 C7 
A   11
 N2 
A   12
 C8 
A   13
 C9 
A   14
 O3 
A   15
 C10
A   16
 C11
A   17
 C12
A   18
 C13
A   19
 C14
A   20
 C15
A   21
 C16
M  END
>  <ref_url>  (104) 
https://github.com/stephwills/fragment_network_merges

>  <submitter_name>  (104) 
Steph Wills

>  <submitter_institution>  (104) 
University of Oxford

>  <submitter_email>  (104) 
stephanie.wills@balliol.ox.ac.uk

>  <generation_date>  (104) 
2023-07-04

>  <original SMILES>  (104) 
CC(=O)NC12CCCCC1N(C(=O)Cc1ccc(=O)[nH]c1)CC2

>  <ref_mols>  (104) 
x0771_0A,x1140_0A

>  <SuCOS_score>  (104) 
0.4479991348276863

>  <cmpd_id>  (104) 
ENAMINE:Z3681198146

>  <method>  (104) 
fragnetv2_named

>  <ref_pdb>  (104) 
x0771_0A

$$$$
x0771-0A-x1140-0A-250_p
     RDKit          3D

 24 26  0  0  0  0  0  0  0  0999 V2000
   -8.3920   -6.0760   -3.3960 C   0  0  0  0  0  0  0  0  0  0  0  0
   -6.9910   -5.6410   -2.9590 C   0  0  0  0  0  0  0  0  0  0  0  0
   -6.8940   -5.5880   -1.4310 C   0  0  0  0  0  0  0  0  0  0  0  0
   -6.7860   -4.2200   -3.4600 C   0  0  0  0  0  0  0  0  0  0  0  0
   -5.9840   -6.5560   -3.5890 N   0  0  0  0  0  0  0  0  0  0  0  0
   -5.6190   -8.0000   -2.8290 S   0  0  0  0  0  6  0  0  0  0  0  0
   -6.7700   -8.2820   -1.9930 O   0  0  0  0  0  0  0  0  0  0  0  0
   -4.3420   -7.8040   -2.2110 O   0  0  0  0  0  0  0  0  0  0  0  0
   -5.4620   -9.4020   -3.9860 C   0  0  0  0  0  0  0  0  0  0  0  0
   -6.5060   -9.4080   -4.9980 C   0  0  0  0  0  0  0  0  0  0  0  0
   -7.7410  -10.0390   -4.5570 N   0  0  0  0  0  0  0  0  0  0  0  0
   -8.8150   -9.7550   -5.3160 C   0  0  0  0  0  0  0  0  0  0  0  0
   -9.9610  -10.1540   -5.1200 O   0  0  0  0  0  0  0  0  0  0  0  0
   -8.4220   -8.9580   -6.3360 N   0  0  0  0  0  0  0  0  0  0  0  0
   -7.7440   -9.6760   -7.3890 C   0  0  0  0  0  0  0  0  0  0  0  0
   -6.9100   -8.6560   -8.1540 C   0  0  0  0  0  0  0  0  0  0  0  0
   -6.7570   -7.4550   -7.2390 C   0  0  0  0  0  0  0  0  0  0  0  0
   -6.7060   -6.1380   -8.0150 C   0  0  0  0  0  0  0  0  0  0  0  0
   -7.7300   -5.0620   -7.6690 C   0  0  0  0  0  0  0  0  0  0  0  0
   -8.2320   -5.1930   -6.2500 C   0  0  0  0  0  0  0  0  0  0  0  0
   -8.8790   -6.5450   -6.1070 C   0  0  0  0  0  0  0  0  0  0  0  0
   -7.8210   -7.6320   -6.1410 C   0  0  0  0  0  0  0  0  0  0  0  0
   -5.1760  -10.6950   -3.2910 C   0  0  0  0  0  0  0  0  0  0  0  0
   -4.0880  -10.0160   -4.0870 C   0  0  0  0  0  0  0  0  0  0  0  0
  1  2  1  0
  2  3  1  0
  2  4  1  0
  2  5  1  0
  5  6  1  0
  6  7  2  0
  6  8  2  0
  6  9  1  0
  9 10  1  0
 10 11  1  0
 11 12  1  0
 12 13  2  0
 12 14  1  0
 14 15  1  0
 15 16  1  0
 16 17  1  0
 17 18  1  0
 18 19  1  0
 19 20  1  0
 20 21  1  0
 21 22  1  0
  9 23  1  0
 23 24  1  0
 24  9  1  0
 22 14  1  0
 22 17  1  0
A    1
 C1 
A    2
 C2 
A    3
 C3 
A    4
 C4 
A    5
 N1 
A    6
 S1 
A    7
 O1 
A    8
 O2 
A    9
 C5 
A   10
 C6 
A   11
 N2 
A   12
 C7 
A   13
 O3 
A   14
 N3 
A   15
 C8 
A   16
 C9 
A   17
 C10
A   18
 C11
A   19
 C12
A   20
 C13
A   21
 C14
A   22
 C15
A   23
 C16
A   24
 C17
M  END
>  <ref_url>  (105) 
https://github.com/stephwills/fragment_network_merges

>  <submitter_name>  (105) 
Steph Wills

>  <submitter_institution>  (105) 
University of Oxford

>  <submitter_email>  (105) 
stephanie.wills@balliol.ox.ac.uk

>  <generation_date>  (105) 
2023-07-04

>  <original SMILES>  (105) 
CC(=O)NC12CCCCC1N(C(=O)Cc1ccc(=O)[nH]c1)CC2

>  <ref_mols>  (105) 
x0771_0A,x1140_0A

>  <SuCOS_score>  (105) 
0.40341476078615046

>  <cmpd_id>  (105) 
ENAMINE:Z4124742171

>  <method>  (105) 
fragnetv2_named

>  <ref_pdb>  (105) 
x0771_0A

$$$$
x0771-0A-x1140-0A-1062_p
     RDKit          3D

 23 26  0  0  0  0  0  0  0  0999 V2000
   -4.6150   -8.1540   -5.3040 O   0  0  0  0  0  0  0  0  0  0  0  0
   -5.4670   -8.2820   -4.4450 C   0  0  0  0  0  0  0  0  0  0  0  0
   -5.1610   -8.2760   -2.9050 C   0  0  0  0  0  0  0  0  0  0  0  0
   -6.3340   -8.8990   -2.2440 C   0  0  0  0  0  0  0  0  0  0  0  0
   -6.3590   -9.0510   -0.7620 C   0  0  0  0  0  0  0  0  0  0  0  0
   -5.1300   -8.5300   -0.0950 C   0  0  0  0  0  0  0  0  0  0  0  0
   -4.9770   -8.5770    1.1040 O   0  0  0  0  0  0  0  0  0  0  0  0
   -3.6380   -8.2550    1.2090 C   0  0  0  0  0  0  0  0  0  0  0  0
   -2.9790   -8.5430    2.1920 O   0  0  0  0  0  0  0  0  0  0  0  0
   -3.1190   -7.5900    0.1140 O   0  0  0  0  0  0  0  0  0  0  0  0
   -4.0620   -7.9550   -0.7580 C   0  0  0  0  0  0  0  0  0  0  0  0
   -4.0220   -7.8030   -2.1350 C   0  0  0  0  0  0  0  0  0  0  0  0
   -6.8240   -8.4430   -4.8490 N   0  0  0  0  0  0  0  0  0  0  0  0
   -7.3300   -9.5570   -5.6940 C   0  0  0  0  0  0  0  0  0  0  0  0
   -6.6910  -10.9120   -5.4500 C   0  0  0  0  0  0  0  0  0  0  0  0
   -7.2500  -11.9220   -6.2890 O   0  0  0  0  0  0  0  0  0  0  0  0
   -7.2140   -8.9690   -7.1220 C   0  0  0  0  0  0  0  0  0  0  0  0
   -7.0480   -7.4530   -6.8330 C   0  0  0  0  0  0  0  0  0  0  0  0
   -7.7410   -6.4460   -7.7350 C   0  0  0  0  0  0  0  0  0  0  0  0
   -7.6040   -5.0470   -7.2130 C   0  0  0  0  0  0  0  0  0  0  0  0
   -8.1370   -4.9720   -5.7790 C   0  0  0  0  0  0  0  0  0  0  0  0
   -7.5530   -6.0190   -4.8230 C   0  0  0  0  0  0  0  0  0  0  0  0
   -7.6250   -7.4000   -5.4320 C   0  0  0  0  0  0  0  0  0  0  0  0
  1  2  2  0
  2  3  1  0
  3  4  2  0
  4  5  1  0
  5  6  2  0
  6  7  1  0
  7  8  1  0
  8  9  2  0
  8 10  1  0
 10 11  1  0
 11 12  2  0
  2 13  1  0
 13 14  1  0
 14 15  1  0
 15 16  1  0
 14 17  1  0
 17 18  1  0
 18 19  1  0
 19 20  1  0
 20 21  1  0
 21 22  1  0
 22 23  1  0
 12  3  1  0
 23 13  1  0
 11  6  1  0
 23 18  1  0
A    1
 O1 
A    2
 C1 
A    3
 C2 
A    4
 C3 
A    5
 C4 
A    6
 C5 
A    7
 O2 
A    8
 C6 
A    9
 O3 
A   10
 O4 
A   11
 C7 
A   12
 C8 
A   13
 N1 
A   14
 C9 
A   15
 C10
A   16
 O5 
A   17
 C11
A   18
 C12
A   19
 C13
A   20
 C14
A   21
 C15
A   22
 C16
A   23
 C17
M  END
>  <ref_url>  (106) 
https://github.com/stephwills/fragment_network_merges

>  <submitter_name>  (106) 
Steph Wills

>  <submitter_institution>  (106) 
University of Oxford

>  <submitter_email>  (106) 
stephanie.wills@balliol.ox.ac.uk

>  <generation_date>  (106) 
2023-07-04

>  <original SMILES>  (106) 
CC(=O)NC12CCCCC1N(C(=O)Cc1ccc(=O)[nH]c1)CC2

>  <ref_mols>  (106) 
x0771_0A,x1140_0A

>  <SuCOS_score>  (106) 
0.4035698244967053

>  <cmpd_id>  (106) 
ENAMINE:Z978075150

>  <method>  (106) 
fragnetv2_named

>  <ref_pdb>  (106) 
x0771_0A

$$$$
x0771-0A-x1140-0A-258_p
     RDKit          3D

 19 21  0  0  0  0  0  0  0  0999 V2000
   -6.8880   -4.6050   -4.2030 O   0  0  0  0  0  0  0  0  0  0  0  0
   -6.6520   -5.2310   -3.1710 C   0  0  0  0  0  0  0  0  0  0  0  0
   -7.0490   -4.7860   -1.8060 C   0  0  0  0  0  0  0  0  0  0  0  0
   -5.9670   -5.4080   -0.9570 C   0  0  0  0  0  0  0  0  0  0  0  0
   -5.2130   -6.2910   -1.8980 C   0  0  0  0  0  0  0  0  0  0  0  0
   -4.1230   -6.8000   -1.6730 O   0  0  0  0  0  0  0  0  0  0  0  0
   -5.9850   -6.4230   -3.0040 N   0  0  0  0  0  0  0  0  0  0  0  0
   -6.6560   -7.7010   -3.1550 C   0  0  0  0  0  0  0  0  0  0  0  0
   -6.2960   -8.3580   -4.4860 C   0  0  0  0  0  0  0  0  0  0  0  0
   -5.1360   -8.5400   -4.8400 O   0  0  0  0  0  0  0  0  0  0  0  0
   -7.3570   -8.7400   -5.2750 N   0  0  0  0  0  0  0  0  0  0  0  0
   -7.1550   -9.7170   -6.3200 C   0  0  0  0  0  0  0  0  0  0  0  0
   -7.0880   -8.8580   -7.5900 C   0  0  0  0  0  0  0  0  0  0  0  0
   -7.2010   -7.4300   -7.0330 C   0  0  0  0  0  0  0  0  0  0  0  0
   -7.6370   -6.2490   -7.8870 C   0  0  0  0  0  0  0  0  0  0  0  0
   -7.7400   -5.0150   -7.0350 C   0  0  0  0  0  0  0  0  0  0  0  0
   -8.7700   -5.2260   -5.9340 C   0  0  0  0  0  0  0  0  0  0  0  0
   -8.4840   -6.4610   -5.0620 C   0  0  0  0  0  0  0  0  0  0  0  0
   -8.1610   -7.7100   -5.8840 C   0  0  0  0  0  0  0  0  0  0  0  0
  1  2  2  0
  2  3  1  0
  3  4  1  0
  4  5  1  0
  5  6  2  0
  5  7  1  0
  7  8  1  0
  8  9  1  0
  9 10  2  0
  9 11  1  0
 11 12  1  0
 12 13  1  0
 13 14  1  0
 14 15  1  0
 15 16  1  0
 16 17  1  0
 17 18  1  0
 18 19  1  0
  7  2  1  0
 19 11  1  0
 19 14  1  0
A    1
 O1 
A    2
 C1 
A    3
 C2 
A    4
 C3 
A    5
 C4 
A    6
 O2 
A    7
 N1 
A    8
 C5 
A    9
 C6 
A   10
 O3 
A   11
 N2 
A   12
 C7 
A   13
 C8 
A   14
 C9 
A   15
 C10
A   16
 C11
A   17
 C12
A   18
 C13
A   19
 C14
M  END
>  <ref_url>  (107) 
https://github.com/stephwills/fragment_network_merges

>  <submitter_name>  (107) 
Steph Wills

>  <submitter_institution>  (107) 
University of Oxford

>  <submitter_email>  (107) 
stephanie.wills@balliol.ox.ac.uk

>  <generation_date>  (107) 
2023-07-04

>  <original SMILES>  (107) 
CC(=O)NC12CCCCC1N(C(=O)Cc1ccc(=O)[nH]c1)CC2

>  <ref_mols>  (107) 
x0771_0A,x1140_0A

>  <SuCOS_score>  (107) 
0.40468386379010546

>  <cmpd_id>  (107) 
ENAMINE:Z2029084210

>  <method>  (107) 
fragnetv2_named

>  <ref_pdb>  (107) 
x0771_0A

$$$$
x0771-0A-x1140-0A-238_p
     RDKit          3D

 19 20  0  0  0  0  0  0  0  0999 V2000
   -7.4910   -4.8510   -0.6060 C   0  0  0  0  0  0  0  0  0  0  0  0
   -7.1580   -5.9580   -1.5730 C   0  0  0  0  0  0  0  0  0  0  0  0
   -6.2080   -5.4800   -2.6200 C   0  0  0  0  0  0  0  0  0  0  0  0
   -6.8160   -4.4070   -3.5400 C   0  0  0  0  0  0  0  0  0  0  0  0
   -8.2910   -4.1320   -3.3040 C   0  0  0  0  0  0  0  0  0  0  0  0
   -5.6280   -6.5970   -3.3650 N   0  0  0  0  0  0  0  0  0  0  0  0
   -6.0440   -7.9180   -3.2470 C   0  0  0  0  0  0  0  0  0  0  0  0
   -6.3500   -8.4860   -2.2050 O   0  0  0  0  0  0  0  0  0  0  0  0
   -6.0730   -8.5970   -4.6070 C   0  0  0  0  0  0  0  0  0  0  0  0
   -5.0060   -8.7490   -5.1690 O   0  0  0  0  0  0  0  0  0  0  0  0
   -7.2700   -8.9690   -5.1790 N   0  0  0  0  0  0  0  0  0  0  0  0
   -7.3230  -10.0710   -6.1560 C   0  0  0  0  0  0  0  0  0  0  0  0
   -7.4000   -9.3030   -7.4680 C   0  0  0  0  0  0  0  0  0  0  0  0
   -7.1060   -7.8780   -7.0420 C   0  0  0  0  0  0  0  0  0  0  0  0
   -7.2670   -6.6330   -7.8750 C   0  0  0  0  0  0  0  0  0  0  0  0
   -8.4550   -5.7370   -7.4900 C   0  0  0  0  0  0  0  0  0  0  0  0
   -8.4360   -5.3630   -6.0190 C   0  0  0  0  0  0  0  0  0  0  0  0
   -7.9020   -6.5000   -5.1320 C   0  0  0  0  0  0  0  0  0  0  0  0
   -7.9560   -7.8690   -5.8060 C   0  0  0  0  0  0  0  0  0  0  0  0
  1  2  1  0
  2  3  1  0
  3  4  1  0
  4  5  1  0
  3  6  1  0
  6  7  1  0
  7  8  2  0
  7  9  1  0
  9 10  2  0
  9 11  1  0
 11 12  1  0
 12 13  1  0
 13 14  1  0
 14 15  1  0
 15 16  1  0
 16 17  1  0
 17 18  1  0
 18 19  1  0
 19 11  1  0
 19 14  1  0
A    1
 C1 
A    2
 C2 
A    3
 C3 
A    4
 C4 
A    5
 C5 
A    6
 N1 
A    7
 C6 
A    8
 O1 
A    9
 C7 
A   10
 O2 
A   11
 N2 
A   12
 C8 
A   13
 C9 
A   14
 C10
A   15
 C11
A   16
 C12
A   17
 C13
A   18
 C14
A   19
 C15
M  END
>  <ref_url>  (108) 
https://github.com/stephwills/fragment_network_merges

>  <submitter_name>  (108) 
Steph Wills

>  <submitter_institution>  (108) 
University of Oxford

>  <submitter_email>  (108) 
stephanie.wills@balliol.ox.ac.uk

>  <generation_date>  (108) 
2023-07-04

>  <original SMILES>  (108) 
CC(=O)NC12CCCCC1N(C(=O)Cc1ccc(=O)[nH]c1)CC2

>  <ref_mols>  (108) 
x0771_0A,x1140_0A

>  <SuCOS_score>  (108) 
0.40564769971251274

>  <cmpd_id>  (108) 
MOLPORT:023-235-994

>  <method>  (108) 
fragnetv2_named

>  <ref_pdb>  (108) 
x0771_0A

$$$$
x0771-0A-x1140-0A-1850_p
     RDKit          3D

 19 20  0  0  0  0  0  0  0  0999 V2000
   -2.2800   -7.7720    1.5350 C   0  0  0  0  0  0  0  0  0  0  0  0
   -3.5670   -8.3870    1.6010 O   0  0  0  0  0  0  0  0  0  0  0  0
   -4.3020   -8.3260    0.3690 C   0  0  0  0  0  0  0  0  0  0  0  0
   -3.5280   -7.8060   -0.6510 C   0  0  0  0  0  0  0  0  0  0  0  0
   -4.2220   -7.3400   -1.8290 C   0  0  0  0  0  0  0  0  0  0  0  0
   -5.6600   -7.6400   -1.8520 N   0  0  0  0  0  0  0  0  0  0  0  0
   -6.1280   -8.8700   -2.2870 C   0  0  0  0  0  0  0  0  0  0  0  0
   -6.4970   -9.6930   -1.4390 O   0  0  0  0  0  0  0  0  0  0  0  0
   -6.0820   -9.0840   -3.8240 C   0  0  0  0  0  0  0  0  0  0  0  0
   -7.1700   -8.9670   -4.7480 N   0  0  0  0  0  0  0  0  0  0  0  0
   -7.4020   -9.9480   -5.8730 C   0  0  0  0  0  0  0  0  0  0  0  0
   -8.8230  -10.4970   -5.8600 C   0  0  0  0  0  0  0  0  0  0  0  0
   -7.1780   -9.1620   -7.1740 C   0  0  0  0  0  0  0  0  0  0  0  0
   -7.7680   -7.8570   -6.7820 C   0  0  0  0  0  0  0  0  0  0  0  0
   -7.2410   -6.7560   -7.6370 C   0  0  0  0  0  0  0  0  0  0  0  0
   -7.8510   -5.4210   -7.2490 C   0  0  0  0  0  0  0  0  0  0  0  0
   -8.0140   -5.1770   -5.7140 C   0  0  0  0  0  0  0  0  0  0  0  0
   -8.1540   -6.5010   -4.9050 C   0  0  0  0  0  0  0  0  0  0  0  0
   -7.2490   -7.6200   -5.3990 C   0  0  0  0  0  0  0  0  0  0  0  0
  1  2  1  0
  2  3  1  0
  3  4  1  0
  4  5  1  0
  5  6  1  0
  6  7  1  0
  7  8  2  0
  7  9  1  0
  9 10  1  0
 10 11  1  0
 11 12  1  0
 11 13  1  0
 13 14  1  0
 14 15  1  0
 15 16  1  0
 16 17  1  0
 17 18  1  0
 18 19  1  0
 19 10  1  0
 19 14  1  0
A    1
 C1 
A    2
 O1 
A    3
 C2 
A    4
 C3 
A    5
 C4 
A    6
 N1 
A    7
 C5 
A    8
 O2 
A    9
 C6 
A   10
 N2 
A   11
 C7 
A   12
 C8 
A   13
 C9 
A   14
 C10
A   15
 C11
A   16
 C12
A   17
 C13
A   18
 C14
A   19
 C15
M  END
>  <ref_url>  (109) 
https://github.com/stephwills/fragment_network_merges

>  <submitter_name>  (109) 
Steph Wills

>  <submitter_institution>  (109) 
University of Oxford

>  <submitter_email>  (109) 
stephanie.wills@balliol.ox.ac.uk

>  <generation_date>  (109) 
2023-07-04

>  <original SMILES>  (109) 
CC(=O)NC12CCCCC1N(C(=O)Cc1ccc(=O)[nH]c1)CC2

>  <ref_mols>  (109) 
x0771_0A,x1140_0A

>  <SuCOS_score>  (109) 
0.41412425789045954

>  <cmpd_id>  (109) 
ENAMINE:Z977431228

>  <method>  (109) 
fragnetv2_named

>  <ref_pdb>  (109) 
x0771_0A

$$$$
x0771-0A-x1140-0A-45_p
     RDKit          3D

 22 24  0  0  0  0  0  0  0  0999 V2000
   -6.7030   -4.8480   -1.0460 C   0  0  0  0  0  0  0  0  0  0  0  0
   -6.7060   -4.9390   -2.8230 S   0  0  0  0  0  6  0  0  0  0  0  0
   -7.9140   -5.6570   -3.1720 O   0  0  0  0  0  0  0  0  0  0  0  0
   -6.4430   -3.6240   -3.3640 O   0  0  0  0  0  0  0  0  0  0  0  0
   -5.4100   -5.9510   -3.1470 N   0  0  0  0  0  0  0  0  0  0  0  0
   -5.5400   -7.2490   -2.5590 C   0  0  0  0  0  0  0  0  0  0  0  0
   -6.3350   -8.0810   -3.1510 N   0  0  0  0  0  0  0  0  0  0  0  0
   -6.3530   -9.2700   -2.4650 C   0  0  0  0  0  0  0  0  0  0  0  0
   -7.2170  -10.3510   -3.0080 C   0  0  0  0  0  0  0  0  0  0  0  0
   -7.0540  -10.4770   -4.5210 C   0  0  0  0  0  0  0  0  0  0  0  0
   -6.3880  -11.4010   -5.0000 O   0  0  0  0  0  0  0  0  0  0  0  0
   -7.6740   -9.5630   -5.3710 N   0  0  0  0  0  0  0  0  0  0  0  0
   -7.9520  -10.1280   -6.6890 C   0  0  0  0  0  0  0  0  0  0  0  0
   -7.1330   -9.2090   -7.5430 C   0  0  0  0  0  0  0  0  0  0  0  0
   -7.6680   -7.9240   -7.0340 C   0  0  0  0  0  0  0  0  0  0  0  0
   -7.0830   -6.6570   -7.6020 C   0  0  0  0  0  0  0  0  0  0  0  0
   -7.8910   -5.5130   -7.0170 C   0  0  0  0  0  0  0  0  0  0  0  0
   -8.0990   -5.6330   -5.4900 C   0  0  0  0  0  0  0  0  0  0  0  0
   -8.3220   -7.0640   -4.9210 C   0  0  0  0  0  0  0  0  0  0  0  0
   -7.3980   -8.0950   -5.5690 C   0  0  0  0  0  0  0  0  0  0  0  0
   -5.5450   -9.2990   -1.3370 C   0  0  0  0  0  0  0  0  0  0  0  0
   -4.7470   -7.7910   -1.1520 S   0  0  0  0  0  0  0  0  0  0  0  0
  1  2  1  0
  2  3  2  0
  2  4  2  0
  2  5  1  0
  5  6  1  0
  6  7  2  0
  7  8  1  0
  8  9  1  0
  9 10  1  0
 10 11  2  0
 10 12  1  0
 12 13  1  0
 13 14  1  0
 14 15  1  0
 15 16  1  0
 16 17  1  0
 17 18  1  0
 18 19  1  0
 19 20  1  0
  8 21  2  0
 21 22  1  0
 22  6  1  0
 20 12  1  0
 20 15  1  0
A    1
 C1 
A    2
 S1 
A    3
 O1 
A    4
 O2 
A    5
 N1 
A    6
 C2 
A    7
 N2 
A    8
 C3 
A    9
 C4 
A   10
 C5 
A   11
 O3 
A   12
 N3 
A   13
 C6 
A   14
 C7 
A   15
 C8 
A   16
 C9 
A   17
 C10
A   18
 C11
A   19
 C12
A   20
 C13
A   21
 C14
A   22
 S2 
M  END
>  <ref_url>  (110) 
https://github.com/stephwills/fragment_network_merges

>  <submitter_name>  (110) 
Steph Wills

>  <submitter_institution>  (110) 
University of Oxford

>  <submitter_email>  (110) 
stephanie.wills@balliol.ox.ac.uk

>  <generation_date>  (110) 
2023-07-04

>  <method>  (110) 
fragnetv2_named

>  <original SMILES>  (110) 
CC(=O)NC12CCCCC1N(C(=O)Cc1ccc(=O)[nH]c1)CC2

>  <ref_mols>  (110) 
x0771_0A,x1140_0A

>  <ref_pdb>  (110) 
x0771_0A

>  <SuCOS_score>  (110) 
0.43350554244590694

>  <cmpd_id>  (110) 
ENAMINE:PV-003159714579

$$$$
