ver_1.2
     RDKit          2D

  0  0  0  0  0  0  0  0  0  0999 V2000
M  END
>  <ref_url>  (1) 
https://github.com/stephwills/fragment_network_merges

>  <submitter_name>  (1) 
Steph Wills

>  <submitter_institution>  (1) 
University of Oxford

>  <submitter_email>  (1) 
stephanie.wills@balliol.ox.ac.uk

>  <generation_date>  (1) 
2023-07-04

>  <method>  (1) 
fragnetv1

>  <original SMILES>  (1) 
smiles

>  <original_name>  (1) 
unique name given to mols

>  <ref_mols>  (1) 
inspirational fragments

>  <ref_pdb>  (1) 
ref pdb

>  <IFP_score>  (1) 
Score IFPscore_score

>  <SuCOS_score>  (1) 
Score SuCOS_score

>  <RMSD_score>  (1) 
Score RMSD_score

$$$$

     RDKit          3D

 18 19  0  0  0  0  0  0  0  0999 V2000
   -7.7670   -4.2280   -8.1970 C   0  0  0  0  0  0  0  0  0  0  0  0
   -8.3510   -5.3770   -7.4580 C   0  0  2  0  0  0  0  0  0  0  0  0
   -8.7750   -4.8590   -6.0870 C   0  0  0  0  0  0  0  0  0  0  0  0
   -7.3900   -6.5730   -7.1800 C   0  0  0  0  0  0  0  0  0  0  0  0
   -8.0160   -5.5090   -5.0170 C   0  0  0  0  0  0  0  0  0  0  0  0
   -7.3160   -6.6740   -5.6440 C   0  0  0  0  0  0  0  0  0  0  0  0
   -6.7160   -7.6340   -4.6000 C   0  0  0  0  0  0  0  0  0  0  0  0
   -6.8910   -7.1990   -3.1080 C   0  0  0  0  0  0  0  0  0  0  0  0
   -6.5930   -6.0500   -2.8110 O   0  0  0  0  0  0  0  0  0  0  0  0
   -7.4060   -8.1600   -2.1100 N   0  0  0  0  0  0  0  0  0  0  0  0
   -7.0170   -7.7820   -0.7390 C   0  0  0  0  0  0  0  0  0  0  0  0
   -5.5300   -7.3990   -0.7630 C   0  0  0  0  0  0  0  0  0  0  0  0
   -4.7280   -7.5570    0.4650 N   0  0  0  0  0  0  0  0  0  0  0  0
   -5.2290   -8.4350    1.5420 C   0  0  0  0  0  0  0  0  0  0  0  0
   -3.3330   -7.8110    0.1460 C   0  0  0  0  0  0  0  0  0  0  0  0
   -4.3740   -8.5040    2.5960 C   0  0  0  0  0  0  0  0  0  0  0  0
   -2.4550   -7.8170    1.3940 C   0  0  0  0  0  0  0  0  0  0  0  0
   -2.8690   -8.6760    2.3390 C   0  0  0  0  0  0  0  0  0  0  0  0
  2  1  1  1
  2  3  1  0
  2  4  1  0
  3  5  1  0
  4  6  1  0
  5  6  1  0
  6  7  2  3
  7  8  1  0
  8  9  2  0
  8 10  1  0
 10 11  1  0
 11 12  1  0
 12 13  1  0
 13 14  1  0
 13 15  1  0
 14 16  1  0
 15 17  1  0
 16 18  1  0
 17 18  1  0
M  END
>  <ref_url>  (2) 
https://github.com/stephwills/fragment_network_merges

>  <submitter_name>  (2) 
Steph Wills

>  <submitter_institution>  (2) 
University of Oxford

>  <submitter_email>  (2) 
stephanie.wills@balliol.ox.ac.uk

>  <generation_date>  (2) 
2023-07-04

>  <method>  (2) 
fragnetv1

>  <original SMILES>  (2) 
CC1CCC(=CC(=O)NCCN2CCCCC2)C1

>  <original_name>  (2) 
x0771-0A-x1083-0A_993

>  <ref_mols>  (2) 
x0771_0A,x1083_0A

>  <ref_pdb>  (2) 
x0771_0A

>  <IFP_score>  (2) 
0.0

>  <SuCOS_score>  (2) 
0.3188097757558169

>  <RMSD_score>  (2) 
0.7524919933128856

$$$$

     RDKit          3D

 21 22  0  0  0  0  0  0  0  0999 V2000
   -7.9160   -4.1190   -8.1940 C   0  0  0  0  0  0  0  0  0  0  0  0
   -7.5620   -5.2420   -7.2830 C   0  0  0  0  0  0  0  0  0  0  0  0
   -8.9260   -5.5580   -6.6670 C   0  0  0  0  0  0  0  0  0  0  0  0
   -6.8920   -6.4080   -8.0370 C   0  0  0  0  0  0  0  0  0  0  0  0
   -8.5420   -6.7520   -5.7990 C   0  0  0  0  0  0  0  0  0  0  0  0
   -6.6570   -7.6510   -7.1900 C   0  0  0  0  0  0  0  0  0  0  0  0
   -7.6290   -7.7850   -6.0690 C   0  0  0  0  0  0  0  0  0  0  0  0
   -7.7270   -8.8540   -5.2280 C   0  0  0  0  0  0  0  0  0  0  0  0
   -6.9890  -10.1310   -5.1050 C   0  0  0  0  0  0  0  0  0  0  0  0
   -7.1230  -11.2400   -6.0090 O   0  0  0  0  0  0  0  0  0  0  0  0
   -6.1690  -10.0770   -3.9930 N   0  0  0  0  0  0  0  0  0  0  0  0
   -6.4570   -9.1350   -2.8530 C   0  0  0  0  0  0  0  0  0  0  0  0
   -5.2200   -8.6680   -2.0730 C   0  0  0  0  0  0  0  0  0  0  0  0
   -5.3810   -7.4030   -1.1910 C   0  0  2  0  0  0  0  0  0  0  0  0
   -4.8960   -6.1390   -1.9280 C   0  0  0  0  0  0  0  0  0  0  0  0
   -4.6980   -7.5300    0.1240 N   0  0  0  0  0  0  0  0  0  0  0  0
   -3.2720   -7.7420   -0.0680 C   0  0  0  0  0  0  0  0  0  0  0  0
   -5.2780   -8.4170    1.1600 C   0  0  0  0  0  0  0  0  0  0  0  0
   -2.4090   -7.7760    1.2090 C   0  0  0  0  0  0  0  0  0  0  0  0
   -4.4730   -8.4230    2.4830 C   0  0  0  0  0  0  0  0  0  0  0  0
   -2.9810   -8.6870    2.2860 C   0  0  0  0  0  0  0  0  0  0  0  0
  1  2  1  0
  2  3  1  0
  2  4  1  0
  3  5  1  0
  4  6  1  0
  5  7  1  0
  6  7  1  0
  7  8  2  3
  8  9  1  0
  9 10  2  0
  9 11  1  0
 11 12  1  0
 12 13  1  0
 13 14  1  0
 14 15  1  6
 14 16  1  0
 16 17  1  0
 16 18  1  0
 17 19  1  0
 18 20  1  0
 19 21  1  0
 20 21  1  0
M  END
>  <ref_url>  (3) 
https://github.com/stephwills/fragment_network_merges

>  <submitter_name>  (3) 
Steph Wills

>  <submitter_institution>  (3) 
University of Oxford

>  <submitter_email>  (3) 
stephanie.wills@balliol.ox.ac.uk

>  <generation_date>  (3) 
2023-07-04

>  <method>  (3) 
fragnetv1

>  <original SMILES>  (3) 
CC1CCC(=CC(=O)NCCC(C)N2CCCCC2)CC1

>  <original_name>  (3) 
x0771-0A-x1083-0A_1021

>  <ref_mols>  (3) 
x0771_0A,x1083_0A

>  <ref_pdb>  (3) 
x0771_0A

>  <IFP_score>  (3) 
0.0

>  <SuCOS_score>  (3) 
0.3746596980851004

>  <RMSD_score>  (3) 
0.7463748144440323

$$$$

     RDKit          3D

 21 22  0  0  0  0  0  0  0  0999 V2000
   -7.7160   -4.1090   -8.1970 C   0  0  0  0  0  0  0  0  0  0  0  0
   -7.4200   -5.3090   -7.3500 C   0  0  2  0  0  0  0  0  0  0  0  0
   -7.0180   -6.5100   -7.9290 C   0  0  0  0  0  0  0  0  0  0  0  0
   -8.4710   -5.7590   -6.3040 C   0  0  0  0  0  0  0  0  0  0  0  0
   -7.3640   -7.6220   -7.1940 C   0  0  0  0  0  0  0  0  0  0  0  0
   -8.2770   -7.2710   -6.2910 C   0  0  0  0  0  0  0  0  0  0  0  0
   -8.8550   -8.4250   -5.4950 C   0  0  0  0  0  0  0  0  0  0  0  0
   -9.8990   -8.3280   -4.3850 C   0  0  0  0  0  0  0  0  0  0  0  0
  -11.0990   -8.3540   -4.6400 O   0  0  0  0  0  0  0  0  0  0  0  0
   -9.3430   -8.2150   -3.1500 O   0  0  0  0  0  0  0  0  0  0  0  0
   -7.9100   -8.3600   -3.0960 C   0  0  0  0  0  0  0  0  0  0  0  0
   -7.4720   -8.4900   -1.6350 C   0  0  0  0  0  0  0  0  0  0  0  0
   -5.9550   -8.2740   -1.4720 C   0  0  0  0  0  0  0  0  0  0  0  0
   -5.5250   -7.2220   -0.6530 C   0  0  0  0  0  0  0  0  0  0  0  0
   -5.8750   -6.0590   -0.8660 O   0  0  0  0  0  0  0  0  0  0  0  0
   -4.6190   -7.5780    0.4460 N   0  0  0  0  0  0  0  0  0  0  0  0
   -5.1660   -8.3770    1.5570 C   0  0  0  0  0  0  0  0  0  0  0  0
   -3.2050   -7.7890    0.1700 C   0  0  0  0  0  0  0  0  0  0  0  0
   -4.2320   -8.3670    2.7710 C   0  0  0  0  0  0  0  0  0  0  0  0
   -2.3220   -7.7680    1.4090 C   0  0  0  0  0  0  0  0  0  0  0  0
   -2.7790   -8.6450    2.3940 C   0  0  0  0  0  0  0  0  0  0  0  0
  2  1  1  6
  2  3  1  0
  2  4  1  0
  3  5  1  0
  4  6  1  0
  5  6  1  0
  6  7  2  3
  7  8  1  0
  8  9  2  0
  8 10  1  0
 10 11  1  0
 11 12  1  0
 12 13  1  0
 13 14  1  0
 14 15  2  0
 14 16  1  0
 16 17  1  0
 16 18  1  0
 17 19  1  0
 18 20  1  0
 19 21  1  0
 20 21  1  0
M  END
>  <ref_url>  (4) 
https://github.com/stephwills/fragment_network_merges

>  <submitter_name>  (4) 
Steph Wills

>  <submitter_institution>  (4) 
University of Oxford

>  <submitter_email>  (4) 
stephanie.wills@balliol.ox.ac.uk

>  <generation_date>  (4) 
2023-07-04

>  <method>  (4) 
fragnetv1

>  <original SMILES>  (4) 
CC1CCC(=CC(=O)OCCCC(=O)N2CCCCC2)C1

>  <original_name>  (4) 
x0771-0A-x1083-0A_1023

>  <ref_mols>  (4) 
x0771_0A,x1083_0A

>  <ref_pdb>  (4) 
x0771_0A

>  <IFP_score>  (4) 
0.0

>  <SuCOS_score>  (4) 
0.39893556493635746

>  <RMSD_score>  (4) 
0.7734296994556129

$$$$

     RDKit          3D

 22 24  0  0  0  0  0  0  0  0999 V2000
   -6.8100   -6.7580   -0.1580 O   0  0  0  0  0  0  0  0  0  0  0  0
   -5.7860   -7.4350   -0.2860 C   0  0  0  0  0  0  0  0  0  0  0  0
   -5.4950   -8.0520   -1.6000 C   0  0  0  0  0  0  0  0  0  0  0  0
   -4.8660   -7.6930    0.7250 N   0  0  0  0  0  0  0  0  0  0  0  0
   -6.2840   -9.6910   -1.5520 S   0  0  0  0  0  0  0  0  0  0  0  0
   -3.5170   -7.8400    0.1750 C   0  0  0  0  0  0  0  0  0  0  0  0
   -5.2350   -8.4930    1.8980 C   0  0  0  0  0  0  0  0  0  0  0  0
   -7.6600   -9.3390   -2.6830 C   0  0  0  0  0  0  0  0  0  0  0  0
   -2.4050   -7.7390    1.2180 C   0  0  0  0  0  0  0  0  0  0  0  0
   -4.0580   -8.9330    2.7530 C   0  0  0  0  0  0  0  0  0  0  0  0
   -7.3190   -9.9140   -4.0230 C   0  0  0  0  0  0  0  0  0  0  0  0
   -2.8680   -7.9980    2.6470 C   0  0  0  0  0  0  0  0  0  0  0  0
   -6.7540  -11.0130   -4.0300 O   0  0  0  0  0  0  0  0  0  0  0  0
   -7.6250   -9.2640   -5.3050 N   0  0  0  0  0  0  0  0  0  0  0  0
   -7.3310  -10.0740   -6.3770 C   0  0  0  0  0  0  0  0  0  0  0  0
   -7.5110   -7.8860   -5.5760 C   0  0  1  0  0  0  0  0  0  0  0  0
   -7.1170   -9.1570   -7.5340 C   0  0  0  0  0  0  0  0  0  0  0  0
   -6.7240   -7.8160   -6.9150 C   0  0  1  0  0  0  0  0  0  0  0  0
   -8.5560   -6.8920   -5.6070 C   0  0  0  0  0  0  0  0  0  0  0  0
   -6.9020   -6.6380   -7.9010 C   0  0  0  0  0  0  0  0  0  0  0  0
   -8.0850   -5.5010   -5.9780 C   0  0  0  0  0  0  0  0  0  0  0  0
   -7.6320   -5.3770   -7.4100 C   0  0  0  0  0  0  0  0  0  0  0  0
  1  2  2  0
  2  3  1  0
  2  4  1  0
  3  5  1  0
  4  6  1  0
  4  7  1  0
  5  8  1  0
  6  9  1  0
  7 10  1  0
  8 11  1  0
  9 12  1  0
 10 12  1  0
 11 13  2  0
 11 14  1  0
 14 15  1  0
 14 16  1  0
 15 17  1  0
 16 18  1  0
 18 17  1  6
 16 19  1  6
 18 20  1  0
 19 21  1  0
 20 22  1  0
 21 22  1  0
M  END
>  <ref_url>  (5) 
https://github.com/stephwills/fragment_network_merges

>  <submitter_name>  (5) 
Steph Wills

>  <submitter_institution>  (5) 
University of Oxford

>  <submitter_email>  (5) 
stephanie.wills@balliol.ox.ac.uk

>  <generation_date>  (5) 
2023-07-04

>  <method>  (5) 
fragnetv1

>  <original SMILES>  (5) 
O=C(CSCC(=O)N1CCC2CCCCC21)N1CCCCC1

>  <original_name>  (5) 
x0771-0A-x1083-0A_1032

>  <ref_mols>  (5) 
x0771_0A,x1083_0A

>  <ref_pdb>  (5) 
x0771_0A

>  <IFP_score>  (5) 
0.0

>  <SuCOS_score>  (5) 
0.456196029608667

>  <RMSD_score>  (5) 
0.6562122188670949

$$$$

     RDKit          3D

 23 25  0  0  0  0  0  0  0  0999 V2000
   -7.6370   -4.1980   -8.2670 C   0  0  0  0  0  0  0  0  0  0  0  0
   -8.0430   -5.3710   -7.6240 C   0  0  2  0  0  0  0  0  0  0  0  0
   -8.0920   -5.2360   -6.2340 C   0  0  0  0  0  0  0  0  0  0  0  0
   -7.0510   -6.5230   -7.9710 C   0  0  0  0  0  0  0  0  0  0  0  0
   -8.3640   -6.3370   -5.4290 C   0  0  0  0  0  0  0  0  0  0  0  0
   -7.4040   -7.7340   -7.1770 C   0  0  0  0  0  0  0  0  0  0  0  0
   -8.0380   -7.5920   -5.9500 C   0  0  0  0  0  0  0  0  0  0  0  0
   -7.1410   -9.4500   -7.5360 S   0  0  0  0  0  0  0  0  0  0  0  0
   -8.2740   -8.7810   -5.3570 N   0  0  0  0  0  0  0  0  0  0  0  0
   -7.2360   -9.6970   -5.7500 C   0  0  0  0  0  0  0  0  0  0  0  0
   -6.4960  -10.5010   -5.0240 N   0  0  0  0  0  0  0  0  0  0  0  0
   -6.8530  -10.3830   -3.6740 C   0  0  0  0  0  0  0  0  0  0  0  0
   -7.8970  -10.8440   -3.2150 O   0  0  0  0  0  0  0  0  0  0  0  0
   -5.8080   -9.6230   -2.7950 C   0  0  0  0  0  0  0  0  0  0  0  0
   -6.1450   -7.9230   -2.2410 S   0  0  0  0  0  0  0  0  0  0  0  0
   -6.0760   -7.8360   -0.4540 C   0  0  0  0  0  0  0  0  0  0  0  0
   -7.4050   -7.1610    0.3250 S   0  0  0  0  0  0  0  0  0  0  0  0
   -4.8790   -8.3500    0.2450 N   0  0  0  0  0  0  0  0  0  0  0  0
   -3.6910   -7.4870    0.1900 C   0  0  0  0  0  0  0  0  0  0  0  0
   -4.9800   -9.1600    1.4720 C   0  0  0  0  0  0  0  0  0  0  0  0
   -2.5190   -7.9150    1.0880 C   0  0  0  0  0  0  0  0  0  0  0  0
   -4.3610   -8.4950    2.7090 C   0  0  0  0  0  0  0  0  0  0  0  0
   -2.9170   -7.9950    2.5530 C   0  0  0  0  0  0  0  0  0  0  0  0
  2  1  1  6
  2  3  1  0
  2  4  1  0
  3  5  1  0
  4  6  1  0
  5  7  1  0
  6  7  2  0
  6  8  1  0
  7  9  1  0
  8 10  1  0
  9 10  1  0
 10 11  2  3
 11 12  1  0
 12 13  2  0
 12 14  1  0
 14 15  1  0
 15 16  1  0
 16 17  2  0
 16 18  1  0
 18 19  1  0
 18 20  1  0
 19 21  1  0
 20 22  1  0
 21 23  1  0
 22 23  1  0
M  END
>  <ref_url>  (6) 
https://github.com/stephwills/fragment_network_merges

>  <submitter_name>  (6) 
Steph Wills

>  <submitter_institution>  (6) 
University of Oxford

>  <submitter_email>  (6) 
stephanie.wills@balliol.ox.ac.uk

>  <generation_date>  (6) 
2023-07-04

>  <method>  (6) 
fragnetv1

>  <original SMILES>  (6) 
CC1CCc2[nH]c(=NC(=O)CSC(=S)N3CCCCC3)sc2C1

>  <original_name>  (6) 
x0771-0A-x1083-0A_1049

>  <ref_mols>  (6) 
x0771_0A,x1083_0A

>  <ref_pdb>  (6) 
x0771_0A

>  <IFP_score>  (6) 
0.0

>  <SuCOS_score>  (6) 
0.4335670543180693

>  <RMSD_score>  (6) 
0.6614639755187661

$$$$

     RDKit          3D

 21 23  0  0  0  0  0  0  0  0999 V2000
   -6.2820  -10.8680   -3.3670 O   0  0  0  0  0  0  0  0  0  0  0  0
   -6.5810   -9.7780   -3.8480 C   0  0  0  0  0  0  0  0  0  0  0  0
   -6.2920   -8.5050   -3.1180 N   0  0  0  0  0  0  0  0  0  0  0  0
   -7.3320   -9.7040   -5.2360 C   0  0  2  0  0  0  0  0  0  0  0  0
   -5.9300   -8.7560   -1.6840 C   0  0  0  0  0  0  0  0  0  0  0  0
   -6.5620   -9.0380   -6.3720 C   0  0  0  0  0  0  0  0  0  0  0  0
   -8.5290   -8.8530   -5.0470 N   0  0  0  0  0  0  0  0  0  0  0  0
   -5.5380   -7.4860   -0.8570 C   0  0  0  0  0  0  0  0  0  0  0  0
   -7.0020   -7.5810   -6.3890 C   0  0  2  0  0  0  0  0  0  0  0  0
   -8.4170   -7.6780   -5.9220 C   0  0  2  0  0  0  0  0  0  0  0  0
   -5.9070   -6.3550   -1.2010 O   0  0  0  0  0  0  0  0  0  0  0  0
   -4.7370   -7.6810    0.2870 N   0  0  0  0  0  0  0  0  0  0  0  0
   -6.9760   -6.8120   -7.6900 C   0  0  0  0  0  0  0  0  0  0  0  0
   -8.7650   -6.3290   -5.3250 C   0  0  0  0  0  0  0  0  0  0  0  0
   -5.2200   -8.4560    1.4530 C   0  0  0  0  0  0  0  0  0  0  0  0
   -3.3700   -7.7690    0.0030 C   0  0  0  0  0  0  0  0  0  0  0  0
   -7.7790   -5.4860   -7.6150 C   0  0  0  0  0  0  0  0  0  0  0  0
   -8.1540   -5.2130   -6.1500 C   0  0  0  0  0  0  0  0  0  0  0  0
   -4.3500   -8.5440    2.5640 C   0  0  0  0  0  0  0  0  0  0  0  0
   -2.4210   -7.6500    1.1980 C   0  0  0  0  0  0  0  0  0  0  0  0
   -3.0880   -7.9440    2.5290 C   0  0  0  0  0  0  0  0  0  0  0  0
  1  2  2  0
  2  3  1  0
  4  2  1  1
  3  5  1  0
  4  6  1  0
  4  7  1  0
  5  8  1  0
  9  6  1  6
  7 10  1  0
  9 10  1  0
  8 11  2  0
  8 12  1  0
  9 13  1  0
 10 14  1  1
 12 15  1  0
 12 16  1  0
 13 17  1  0
 14 18  1  0
 17 18  1  0
 15 19  1  0
 16 20  1  0
 19 21  1  0
 20 21  1  0
M  END
>  <ref_url>  (7) 
https://github.com/stephwills/fragment_network_merges

>  <submitter_name>  (7) 
Steph Wills

>  <submitter_institution>  (7) 
University of Oxford

>  <submitter_email>  (7) 
stephanie.wills@balliol.ox.ac.uk

>  <generation_date>  (7) 
2023-07-04

>  <method>  (7) 
fragnetv1

>  <original SMILES>  (7) 
O=C(NCC(=O)N1CCCCC1)C1CC2CCCCC2N1

>  <original_name>  (7) 
x0771-0A-x1083-0A_1053

>  <ref_mols>  (7) 
x0771_0A,x1083_0A

>  <ref_pdb>  (7) 
x0771_0A

>  <IFP_score>  (7) 
0.0

>  <SuCOS_score>  (7) 
0.388341416211102

>  <RMSD_score>  (7) 
0.8347867991289752

$$$$

     RDKit          3D

 24 26  0  0  0  0  0  0  0  0999 V2000
   -9.1520   -9.6620   -5.3420 C   0  0  0  0  0  0  0  0  0  0  0  0
   -7.9010   -9.1040   -5.4340 N   0  0  0  0  0  0  0  0  0  0  0  0
   -7.2080   -9.9350   -6.1580 C   0  0  0  0  0  0  0  0  0  0  0  0
   -7.8050   -7.8240   -5.9830 C   0  0  0  0  0  0  0  0  0  0  0  0
   -6.5740  -10.9370   -5.6220 N   0  0  0  0  0  0  0  0  0  0  0  0
   -7.2030   -9.5230   -7.8930 S   0  0  0  0  0  0  0  0  0  0  0  0
   -7.4220   -7.8330   -7.3310 C   0  0  0  0  0  0  0  0  0  0  0  0
   -8.0650   -6.4780   -5.2910 C   0  0  0  0  0  0  0  0  0  0  0  0
   -6.8320  -10.7820   -4.2820 C   0  0  0  0  0  0  0  0  0  0  0  0
   -7.2350   -6.5560   -8.1620 C   0  0  0  0  0  0  0  0  0  0  0  0
   -7.9140   -5.3070   -6.0230 C   0  0  0  0  0  0  0  0  0  0  0  0
   -7.7030  -11.4390   -3.7120 O   0  0  0  0  0  0  0  0  0  0  0  0
   -6.1040   -9.8670   -3.4930 C   0  0  0  0  0  0  0  0  0  0  0  0
   -7.4900   -5.3520   -7.4930 C   0  0  0  0  0  0  0  0  0  0  0  0
   -7.0770   -8.5390   -2.7250 S   0  0  0  0  0  0  0  0  0  0  0  0
   -6.4200   -8.6500   -1.0200 C   0  0  0  0  0  0  0  0  0  0  0  0
   -5.6440   -7.3860   -0.5590 C   0  0  0  0  0  0  0  0  0  0  0  0
   -5.8160   -6.2650   -1.0520 O   0  0  0  0  0  0  0  0  0  0  0  0
   -4.7080   -7.6020    0.4700 N   0  0  0  0  0  0  0  0  0  0  0  0
   -5.1160   -8.3220    1.5070 C   0  0  0  0  0  0  0  0  0  0  0  0
   -3.3000   -7.7830    0.1370 C   0  0  0  0  0  0  0  0  0  0  0  0
   -4.2450   -8.5730    2.7460 C   0  0  0  0  0  0  0  0  0  0  0  0
   -2.4940   -7.6200    1.2710 C   0  0  0  0  0  0  0  0  0  0  0  0
   -2.7700   -8.6660    2.3510 C   0  0  0  0  0  0  0  0  0  0  0  0
  1  2  1  0
  2  3  1  0
  2  4  1  0
  3  5  2  3
  3  6  1  0
  4  7  2  0
  6  7  1  0
  4  8  1  0
  5  9  1  0
  7 10  1  0
  8 11  2  0
  9 12  2  0
  9 13  1  0
 10 14  2  0
 11 14  1  0
 13 15  1  0
 15 16  1  0
 16 17  1  0
 17 18  2  0
 17 19  1  0
 19 20  1  0
 19 21  1  0
 20 22  1  0
 21 23  1  0
 22 24  1  0
 23 24  1  0
M  END
>  <ref_url>  (8) 
https://github.com/stephwills/fragment_network_merges

>  <submitter_name>  (8) 
Steph Wills

>  <submitter_institution>  (8) 
University of Oxford

>  <submitter_email>  (8) 
stephanie.wills@balliol.ox.ac.uk

>  <generation_date>  (8) 
2023-07-04

>  <method>  (8) 
fragnetv1

>  <original SMILES>  (8) 
Cn1c(=NC(=O)CSCC(=O)N2CCCCC2)sc2ccccc21

>  <original_name>  (8) 
x0771-0A-x1083-0A_1202

>  <ref_mols>  (8) 
x0771_0A,x1083_0A

>  <ref_pdb>  (8) 
x0771_0A

>  <IFP_score>  (8) 
0.0

>  <SuCOS_score>  (8) 
0.44968377205124116

>  <RMSD_score>  (8) 
0.3933560727890188

$$$$

     RDKit          3D

 20 21  0  0  0  0  0  0  0  0999 V2000
   -8.3750   -4.3020   -8.0430 C   0  0  0  0  0  0  0  0  0  0  0  0
   -8.5230   -5.6900   -7.3700 C   0  0  2  0  0  0  0  0  0  0  0  0
   -8.2870   -5.1040   -5.9270 C   0  0  0  0  0  0  0  0  0  0  0  0
   -7.3690   -6.6630   -7.5640 C   0  0  0  0  0  0  0  0  0  0  0  0
   -7.9290   -6.5180   -5.3400 C   0  0  0  0  0  0  0  0  0  0  0  0
   -7.4990   -7.4290   -6.2770 C   0  0  0  0  0  0  0  0  0  0  0  0
   -7.2260   -8.9130   -5.9730 C   0  0  0  0  0  0  0  0  0  0  0  0
   -7.3740   -9.5480   -4.5770 C   0  0  0  0  0  0  0  0  0  0  0  0
   -7.7770  -10.6830   -4.3690 O   0  0  0  0  0  0  0  0  0  0  0  0
   -6.9880   -8.6550   -3.6050 N   0  0  0  0  0  0  0  0  0  0  0  0
   -6.1070   -9.0320   -2.4990 C   0  0  0  0  0  0  0  0  0  0  0  0
   -6.5380   -8.4700   -1.1260 C   0  0  0  0  0  0  0  0  0  0  0  0
   -5.6750   -7.2780   -0.6570 C   0  0  0  0  0  0  0  0  0  0  0  0
   -5.7730   -6.1520   -1.1520 O   0  0  0  0  0  0  0  0  0  0  0  0
   -4.7220   -7.5870    0.4220 N   0  0  0  0  0  0  0  0  0  0  0  0
   -5.3170   -8.4040    1.4960 C   0  0  0  0  0  0  0  0  0  0  0  0
   -3.3160   -7.7930    0.1310 C   0  0  0  0  0  0  0  0  0  0  0  0
   -4.3090   -8.9040    2.5360 C   0  0  0  0  0  0  0  0  0  0  0  0
   -2.4010   -7.6840    1.3360 C   0  0  0  0  0  0  0  0  0  0  0  0
   -3.0740   -8.0170    2.6600 C   0  0  0  0  0  0  0  0  0  0  0  0
  2  1  1  6
  2  3  1  0
  2  4  1  0
  3  5  1  0
  4  6  1  0
  5  6  1  0
  6  7  2  3
  7  8  1  0
  8  9  2  0
  8 10  1  0
 10 11  1  0
 11 12  1  0
 12 13  1  0
 13 14  2  0
 13 15  1  0
 15 16  1  0
 15 17  1  0
 16 18  1  0
 17 19  1  0
 18 20  1  0
 19 20  1  0
M  END
>  <ref_url>  (9) 
https://github.com/stephwills/fragment_network_merges

>  <submitter_name>  (9) 
Steph Wills

>  <submitter_institution>  (9) 
University of Oxford

>  <submitter_email>  (9) 
stephanie.wills@balliol.ox.ac.uk

>  <generation_date>  (9) 
2023-07-04

>  <method>  (9) 
fragnetv1

>  <original SMILES>  (9) 
CC1CCC(=CC(=O)NCCC(=O)N2CCCCC2)C1

>  <original_name>  (9) 
x0771-0A-x1083-0A_1212

>  <ref_mols>  (9) 
x0771_0A,x1083_0A

>  <ref_pdb>  (9) 
x0771_0A

>  <IFP_score>  (9) 
0.0

>  <SuCOS_score>  (9) 
0.41431528517561705

>  <RMSD_score>  (9) 
0.7827452970155745

$$$$

     RDKit          3D

 22 24  0  0  0  0  0  0  0  0999 V2000
   -7.2460   -8.0040   -0.6230 C   0  0  0  0  0  0  0  0  0  0  0  0
   -5.9740   -8.8470   -0.5030 C   0  0  0  0  0  0  0  0  0  0  0  0
   -6.2990  -10.2820   -0.0480 C   0  0  0  0  0  0  0  0  0  0  0  0
   -5.3460   -8.9360   -1.9520 C   0  0  0  0  0  0  0  0  0  0  0  0
   -5.0360   -8.1970    0.4890 N   0  0  0  0  0  0  0  0  0  0  0  0
   -6.1040   -8.2880   -3.0050 N   0  0  0  0  0  0  0  0  0  0  0  0
   -3.6690   -7.8540    0.0330 C   0  0  0  0  0  0  0  0  0  0  0  0
   -5.2870   -8.5420    1.9110 C   0  0  0  0  0  0  0  0  0  0  0  0
   -5.9910   -8.6620   -4.4430 C   0  0  0  0  0  0  0  0  0  0  0  0
   -2.5900   -7.7270    1.0950 C   0  0  0  0  0  0  0  0  0  0  0  0
   -4.1450   -8.3340    2.9020 C   0  0  0  0  0  0  0  0  0  0  0  0
   -4.9160   -8.6960   -5.0120 O   0  0  0  0  0  0  0  0  0  0  0  0
   -7.1510   -8.9390   -5.1430 N   0  0  0  0  0  0  0  0  0  0  0  0
   -2.8130   -8.6480    2.2760 C   0  0  0  0  0  0  0  0  0  0  0  0
   -7.2040  -10.0000   -6.1670 C   0  0  0  0  0  0  0  0  0  0  0  0
   -7.7480   -7.7840   -5.8230 C   0  0  2  0  0  0  0  0  0  0  0  0
   -7.1670   -9.1770   -7.4630 C   0  0  0  0  0  0  0  0  0  0  0  0
   -6.8390   -7.7830   -7.0220 C   0  0  1  0  0  0  0  0  0  0  0  0
   -7.6980   -6.5580   -5.1890 C   0  0  0  0  0  0  0  0  0  0  0  0
   -6.9690   -6.6390   -8.0230 C   0  0  0  0  0  0  0  0  0  0  0  0
   -8.1510   -5.3600   -6.0210 C   0  0  0  0  0  0  0  0  0  0  0  0
   -7.6760   -5.3740   -7.4760 C   0  0  0  0  0  0  0  0  0  0  0  0
  1  2  1  0
  2  3  1  0
  2  4  1  0
  2  5  1  0
  4  6  1  0
  5  7  1  0
  5  8  1  0
  6  9  1  0
  7 10  1  0
  8 11  1  0
  9 12  2  0
  9 13  1  0
 10 14  1  0
 11 14  1  0
 13 15  1  0
 13 16  1  0
 15 17  1  0
 16 18  1  0
 18 17  1  6
 16 19  1  1
 18 20  1  0
 19 21  1  0
 20 22  1  0
 21 22  1  0
M  END
>  <ref_url>  (10) 
https://github.com/stephwills/fragment_network_merges

>  <submitter_name>  (10) 
Steph Wills

>  <submitter_institution>  (10) 
University of Oxford

>  <submitter_email>  (10) 
stephanie.wills@balliol.ox.ac.uk

>  <generation_date>  (10) 
2023-07-04

>  <method>  (10) 
fragnetv1

>  <original SMILES>  (10) 
CC(C)(CNC(=O)N1CCC2CCCCC21)N1CCCCC1

>  <original_name>  (10) 
x0771-0A-x1083-0A_1236

>  <ref_mols>  (10) 
x0771_0A,x1083_0A

>  <ref_pdb>  (10) 
x0771_0A

>  <IFP_score>  (10) 
0.0

>  <SuCOS_score>  (10) 
0.40493152257958115

>  <RMSD_score>  (10) 
0.7509936575525858

$$$$

     RDKit          3D

 20 21  0  0  0  0  0  0  0  0999 V2000
   -8.1480   -4.1420   -8.0520 C   0  0  0  0  0  0  0  0  0  0  0  0
   -8.4420   -5.5250   -7.5670 C   0  0  2  0  0  0  0  0  0  0  0  0
   -9.6470   -5.7600   -6.7000 C   0  0  0  0  0  0  0  0  0  0  0  0
   -7.3150   -6.2940   -6.8520 C   0  0  0  0  0  0  0  0  0  0  0  0
   -9.3870   -6.9860   -5.8910 C   0  0  0  0  0  0  0  0  0  0  0  0
   -7.9860   -6.6900   -5.5360 C   0  0  0  0  0  0  0  0  0  0  0  0
   -7.7830   -6.8500   -4.0180 C   0  0  0  0  0  0  0  0  0  0  0  0
   -6.4030   -6.5050   -3.4060 C   0  0  0  0  0  0  0  0  0  0  0  0
   -5.3670   -6.8900   -3.9210 O   0  0  0  0  0  0  0  0  0  0  0  0
   -6.4870   -5.7420   -2.2350 N   0  0  0  0  0  0  0  0  0  0  0  0
   -6.2740   -4.2980   -2.1860 C   0  0  0  0  0  0  0  0  0  0  0  0
   -6.6730   -6.4620   -0.9330 C   0  0  1  0  0  0  0  0  0  0  0  0
   -8.0180   -7.2270   -0.8280 C   0  0  0  0  0  0  0  0  0  0  0  0
   -5.4500   -7.3900   -0.7960 C   0  0  0  0  0  0  0  0  0  0  0  0
   -4.7060   -7.4530    0.4820 N   0  0  0  0  0  0  0  0  0  0  0  0
   -5.2760   -8.4290    1.4360 C   0  0  0  0  0  0  0  0  0  0  0  0
   -3.3380   -7.7860    0.1220 C   0  0  0  0  0  0  0  0  0  0  0  0
   -4.3200   -8.8780    2.5600 C   0  0  0  0  0  0  0  0  0  0  0  0
   -2.4300   -7.6920    1.3440 C   0  0  0  0  0  0  0  0  0  0  0  0
   -3.0750   -8.0080    2.6850 C   0  0  0  0  0  0  0  0  0  0  0  0
  2  1  1  1
  2  3  1  0
  2  4  1  0
  3  5  1  0
  4  6  1  0
  5  6  1  0
  6  7  2  3
  7  8  1  0
  8  9  2  0
  8 10  1  0
 10 11  1  0
 10 12  1  0
 12 13  1  6
 12 14  1  0
 14 15  1  0
 15 16  1  0
 15 17  1  0
 16 18  1  0
 17 19  1  0
 18 20  1  0
 19 20  1  0
M  END
>  <ref_url>  (11) 
https://github.com/stephwills/fragment_network_merges

>  <submitter_name>  (11) 
Steph Wills

>  <submitter_institution>  (11) 
University of Oxford

>  <submitter_email>  (11) 
stephanie.wills@balliol.ox.ac.uk

>  <generation_date>  (11) 
2023-07-04

>  <method>  (11) 
fragnetv1

>  <original SMILES>  (11) 
CC1CCC(=CC(=O)N(C)C(C)CN2CCCCC2)C1

>  <original_name>  (11) 
x0771-0A-x1083-0A_1281

>  <ref_mols>  (11) 
x0771_0A,x1083_0A

>  <ref_pdb>  (11) 
x0771_0A

>  <IFP_score>  (11) 
0.0

>  <SuCOS_score>  (11) 
0.2970055165764172

>  <RMSD_score>  (11) 
0.9322965729852277

$$$$

     RDKit          3D

 20 22  0  0  0  0  0  0  0  0999 V2000
   -6.3010   -9.9050   -2.9720 O   0  0  0  0  0  0  0  0  0  0  0  0
   -6.8830   -8.8870   -3.3460 C   0  0  0  0  0  0  0  0  0  0  0  0
   -7.4010   -7.8410   -2.3220 C   0  0  0  0  0  0  0  0  0  0  0  0
   -7.1110   -8.6400   -4.7220 N   0  0  0  0  0  0  0  0  0  0  0  0
   -6.9240   -7.8300   -0.8270 C   0  0  0  0  0  0  0  0  0  0  0  0
   -7.0410   -9.7060   -5.7170 C   0  0  0  0  0  0  0  0  0  0  0  0
   -7.9780   -7.5900   -5.3030 C   0  0  2  0  0  0  0  0  0  0  0  0
   -5.4720   -7.4190   -0.8260 C   0  0  0  0  0  0  0  0  0  0  0  0
   -7.5750   -9.2160   -7.0640 C   0  0  0  0  0  0  0  0  0  0  0  0
   -8.0300   -7.7660   -6.8390 C   0  0  2  0  0  0  0  0  0  0  0  0
   -7.6270   -6.1520   -4.9380 C   0  0  0  0  0  0  0  0  0  0  0  0
   -4.7650   -7.5440    0.3270 N   0  0  0  0  0  0  0  0  0  0  0  0
   -7.3210   -6.6060   -7.5800 C   0  0  0  0  0  0  0  0  0  0  0  0
   -8.3310   -5.1290   -5.8430 C   0  0  0  0  0  0  0  0  0  0  0  0
   -3.3680   -7.8380    0.0190 C   0  0  0  0  0  0  0  0  0  0  0  0
   -5.3280   -8.4510    1.3440 C   0  0  0  0  0  0  0  0  0  0  0  0
   -7.9350   -5.2540   -7.2960 C   0  0  0  0  0  0  0  0  0  0  0  0
   -2.5480   -7.7430    1.1590 C   0  0  0  0  0  0  0  0  0  0  0  0
   -4.4310   -8.7150    2.5710 C   0  0  0  0  0  0  0  0  0  0  0  0
   -3.1020   -7.9660    2.5510 C   0  0  0  0  0  0  0  0  0  0  0  0
  1  2  2  0
  2  3  1  0
  2  4  1  0
  3  5  1  0
  4  6  1  0
  4  7  1  0
  5  8  1  0
  6  9  1  0
  7 10  1  0
 10  9  1  1
  7 11  1  6
  8 12  1  0
 10 13  1  0
 11 14  1  0
 12 15  1  0
 12 16  1  0
 13 17  1  0
 14 17  1  0
 15 18  1  0
 16 19  1  0
 18 20  1  0
 19 20  1  0
M  END
>  <ref_url>  (12) 
https://github.com/stephwills/fragment_network_merges

>  <submitter_name>  (12) 
Steph Wills

>  <submitter_institution>  (12) 
University of Oxford

>  <submitter_email>  (12) 
stephanie.wills@balliol.ox.ac.uk

>  <generation_date>  (12) 
2023-07-04

>  <method>  (12) 
fragnetv1

>  <original SMILES>  (12) 
O=C(CCCN1CCCCC1)N1CCC2CCCCC21

>  <original_name>  (12) 
x0771-0A-x1083-0A_1384

>  <ref_mols>  (12) 
x0771_0A,x1083_0A

>  <ref_pdb>  (12) 
x0771_0A

>  <IFP_score>  (12) 
0.0

>  <SuCOS_score>  (12) 
0.3531860134415884

>  <RMSD_score>  (12) 
0.8800647961681829

$$$$

     RDKit          3D

 19 22  0  0  0  0  0  0  0  0999 V2000
   -6.7990  -12.2090   -5.5560 C   0  0  0  0  0  0  0  0  0  0  0  0
   -6.9450  -10.7280   -5.5240 C   0  0  0  0  0  0  0  0  0  0  0  0
   -7.1360   -9.9960   -6.5760 N   0  0  0  0  0  0  0  0  0  0  0  0
   -6.8620   -9.8810   -4.0320 S   0  0  0  0  0  0  0  0  0  0  0  0
   -7.2260   -8.6790   -6.2210 C   0  0  0  0  0  0  0  0  0  0  0  0
   -7.1060   -8.3950   -4.8660 C   0  0  0  0  0  0  0  0  0  0  0  0
   -7.4220   -7.6540   -7.1260 C   0  0  0  0  0  0  0  0  0  0  0  0
   -7.1810   -7.1040   -4.3660 C   0  0  0  0  0  0  0  0  0  0  0  0
   -7.5090   -6.3680   -6.6450 C   0  0  0  0  0  0  0  0  0  0  0  0
   -7.3890   -6.0970   -5.2930 C   0  0  0  0  0  0  0  0  0  0  0  0
   -7.7400   -5.2090   -7.4120 C   0  0  0  0  0  0  0  0  0  0  0  0
   -7.0650   -4.6600   -8.3910 N   0  0  0  0  0  0  0  0  0  0  0  0
   -8.8450   -4.4960   -7.1060 N   0  0  0  0  0  0  0  0  0  0  0  0
   -7.7630   -3.5240   -8.7290 N   0  0  0  0  0  0  0  0  0  0  0  0
   -8.8270   -3.4320   -7.9500 C   0  0  0  0  0  0  0  0  0  0  0  0
   -9.8240   -4.7360   -6.1480 C   0  0  0  0  0  0  0  0  0  0  0  0
   -9.8930   -2.5040   -7.8140 C   0  0  0  0  0  0  0  0  0  0  0  0
  -10.8310   -3.8730   -6.0240 C   0  0  0  0  0  0  0  0  0  0  0  0
  -10.8540   -2.7140   -6.8940 C   0  0  0  0  0  0  0  0  0  0  0  0
  1  2  1  0
  2  3  2  0
  2  4  1  0
  3  5  1  0
  4  6  1  0
  5  6  2  0
  5  7  1  0
  6  8  1  0
  7  9  2  0
  8 10  2  0
  9 10  1  0
  9 11  1  0
 11 12  2  0
 11 13  1  0
 12 14  1  0
 13 15  1  0
 14 15  2  0
 13 16  1  0
 15 17  1  0
 16 18  2  0
 17 19  2  0
 18 19  1  0
M  END
>  <ref_url>  (13) 
https://github.com/stephwills/fragment_network_merges

>  <submitter_name>  (13) 
Steph Wills

>  <submitter_institution>  (13) 
University of Oxford

>  <submitter_email>  (13) 
stephanie.wills@balliol.ox.ac.uk

>  <generation_date>  (13) 
2023-07-04

>  <method>  (13) 
fragnetv1

>  <original SMILES>  (13) 
Cc1nc2cc(-c3nnc4ccccn34)ccc2s1

>  <original_name>  (13) 
x0771-0A-x1594-0A_1

>  <ref_mols>  (13) 
x0771_0A,x1594_0A

>  <ref_pdb>  (13) 
x0771_0A

>  <IFP_score>  (13) 
0.816496580927726

>  <SuCOS_score>  (13) 
0.5959543966778772

>  <RMSD_score>  (13) 
0.9576885525244435

$$$$

     RDKit          3D

 16 18  0  0  0  0  0  0  0  0999 V2000
  -10.8020   -3.0360   -6.7490 C   0  0  0  0  0  0  0  0  0  0  0  0
  -10.8700   -4.3670   -6.1630 C   0  0  0  0  0  0  0  0  0  0  0  0
   -9.9100   -5.2620   -6.4530 C   0  0  0  0  0  0  0  0  0  0  0  0
   -9.8020   -2.6880   -7.5740 C   0  0  0  0  0  0  0  0  0  0  0  0
   -8.7900   -3.6270   -7.8770 C   0  0  0  0  0  0  0  0  0  0  0  0
   -8.8730   -4.8860   -7.3070 N   0  0  0  0  0  0  0  0  0  0  0  0
   -7.7230   -3.5490   -8.6300 N   0  0  0  0  0  0  0  0  0  0  0  0
   -7.7580   -5.5410   -7.7890 C   0  0  0  0  0  0  0  0  0  0  0  0
   -7.0750   -4.7430   -8.5770 N   0  0  0  0  0  0  0  0  0  0  0  0
   -7.3350   -6.9270   -7.4980 C   0  0  0  0  0  0  0  0  0  0  0  0
   -8.2650   -7.8290   -6.8380 N   0  0  0  0  0  0  0  0  0  0  0  0
   -8.2690   -7.5170   -5.4070 C   0  0  0  0  0  0  0  0  0  0  0  0
   -7.8630   -9.2380   -7.2010 C   0  0  0  0  0  0  0  0  0  0  0  0
   -7.1020   -8.1610   -4.6870 C   0  0  0  0  0  0  0  0  0  0  0  0
   -7.1910  -10.1330   -6.1410 C   0  0  0  0  0  0  0  0  0  0  0  0
   -7.1500   -9.6180   -4.7680 N   0  0  0  0  0  0  0  0  0  0  0  0
  1  2  1  0
  2  3  2  0
  1  4  2  0
  4  5  1  0
  3  6  1  0
  5  6  1  0
  5  7  2  0
  6  8  1  0
  7  9  1  0
  8  9  2  0
  8 10  1  0
 10 11  1  0
 11 12  1  0
 11 13  1  0
 12 14  1  0
 13 15  1  0
 14 16  1  0
 15 16  1  0
M  END
>  <ref_url>  (14) 
https://github.com/stephwills/fragment_network_merges

>  <submitter_name>  (14) 
Steph Wills

>  <submitter_institution>  (14) 
University of Oxford

>  <submitter_email>  (14) 
stephanie.wills@balliol.ox.ac.uk

>  <generation_date>  (14) 
2023-07-04

>  <method>  (14) 
fragnetv1

>  <original SMILES>  (14) 
c1ccn2c(CN3CCNCC3)nnc2c1

>  <original_name>  (14) 
x0771-0A-x1594-0A_2

>  <ref_mols>  (14) 
x0771_0A,x1594_0A

>  <ref_pdb>  (14) 
x0771_0A

>  <IFP_score>  (14) 
0.816496580927726

>  <SuCOS_score>  (14) 
0.6369545994825503

>  <RMSD_score>  (14) 
0.8720945528386869

$$$$

     RDKit          3D

 16 18  0  0  0  0  0  0  0  0999 V2000
   -5.5410   -8.6130   -4.7370 C   0  0  0  0  0  0  0  0  0  0  0  0
   -6.9590   -8.7290   -5.0650 N   0  0  0  0  0  0  0  0  0  0  0  0
   -7.1830   -9.8130   -6.0690 C   0  0  0  0  0  0  0  0  0  0  0  0
   -7.4890   -7.4000   -5.4610 C   0  0  0  0  0  0  0  0  0  0  0  0
   -7.3470   -9.3800   -7.5390 C   0  0  0  0  0  0  0  0  0  0  0  0
   -7.7250   -7.1990   -6.9740 C   0  0  2  0  0  0  0  0  0  0  0  0
   -6.8540   -8.0440   -7.8020 N   0  0  0  0  0  0  0  0  0  0  0  0
   -7.8260   -5.7830   -7.4620 C   0  0  0  0  0  0  0  0  0  0  0  0
   -6.9930   -5.1390   -8.2630 N   0  0  0  0  0  0  0  0  0  0  0  0
   -8.8680   -4.9560   -7.1180 N   0  0  0  0  0  0  0  0  0  0  0  0
   -7.4880   -3.8740   -8.4560 N   0  0  0  0  0  0  0  0  0  0  0  0
   -8.6070   -3.7670   -7.7720 C   0  0  0  0  0  0  0  0  0  0  0  0
   -9.9850   -5.1620   -6.3090 C   0  0  0  0  0  0  0  0  0  0  0  0
   -9.5390   -2.7100   -7.5970 C   0  0  0  0  0  0  0  0  0  0  0  0
  -10.8620   -4.1630   -6.1460 C   0  0  0  0  0  0  0  0  0  0  0  0
  -10.6210   -2.8960   -6.8170 C   0  0  0  0  0  0  0  0  0  0  0  0
  1  2  1  0
  2  3  1  0
  2  4  1  0
  3  5  1  0
  6  4  1  1
  5  7  1  0
  6  7  1  0
  6  8  1  0
  8  9  2  0
  8 10  1  0
  9 11  1  0
 10 12  1  0
 11 12  2  0
 10 13  1  0
 12 14  1  0
 13 15  2  0
 14 16  2  0
 15 16  1  0
M  END
>  <ref_url>  (15) 
https://github.com/stephwills/fragment_network_merges

>  <submitter_name>  (15) 
Steph Wills

>  <submitter_institution>  (15) 
University of Oxford

>  <submitter_email>  (15) 
stephanie.wills@balliol.ox.ac.uk

>  <generation_date>  (15) 
2023-07-04

>  <method>  (15) 
fragnetv1

>  <original SMILES>  (15) 
CN1CCNC(c2nnc3ccccn23)C1

>  <original_name>  (15) 
x0771-0A-x1594-0A_19

>  <ref_mols>  (15) 
x0771_0A,x1594_0A

>  <ref_pdb>  (15) 
x0771_0A

>  <IFP_score>  (15) 
0.816496580927726

>  <SuCOS_score>  (15) 
0.6456053049900029

>  <RMSD_score>  (15) 
0.9411354119553488

$$$$

     RDKit          3D

 16 18  0  0  0  0  0  0  0  0999 V2000
  -10.7290   -2.9600   -6.7730 C   0  0  0  0  0  0  0  0  0  0  0  0
  -10.7340   -4.2280   -6.0630 C   0  0  0  0  0  0  0  0  0  0  0  0
   -9.7460   -5.1080   -6.2930 C   0  0  0  0  0  0  0  0  0  0  0  0
   -9.7620   -2.6570   -7.6520 C   0  0  0  0  0  0  0  0  0  0  0  0
   -8.7210   -3.5870   -7.8970 C   0  0  0  0  0  0  0  0  0  0  0  0
   -8.7470   -4.7800   -7.2060 N   0  0  0  0  0  0  0  0  0  0  0  0
   -7.6730   -3.5570   -8.6830 N   0  0  0  0  0  0  0  0  0  0  0  0
   -7.6270   -5.4500   -7.6460 C   0  0  0  0  0  0  0  0  0  0  0  0
   -6.9830   -4.7240   -8.5300 N   0  0  0  0  0  0  0  0  0  0  0  0
   -7.1930   -6.7890   -7.2040 C   0  0  0  0  0  0  0  0  0  0  0  0
   -7.6610   -7.1960   -5.8110 C   0  0  1  0  0  0  0  0  0  0  0  0
   -8.8940   -8.1060   -5.7890 C   0  0  0  0  0  0  0  0  0  0  0  0
   -6.5800   -7.9360   -5.2650 O   0  0  0  0  0  0  0  0  0  0  0  0
   -8.5480   -9.5010   -5.4290 N   0  0  0  0  0  0  0  0  0  0  0  0
   -6.3160   -8.9900   -6.2050 C   0  0  0  0  0  0  0  0  0  0  0  0
   -7.4870   -9.9500   -6.3230 C   0  0  0  0  0  0  0  0  0  0  0  0
  1  2  1  0
  2  3  2  0
  1  4  2  0
  4  5  1  0
  3  6  1  0
  5  6  1  0
  5  7  2  0
  6  8  1  0
  7  9  1  0
  8  9  2  0
  8 10  1  0
 11 10  1  6
 11 12  1  0
 11 13  1  0
 12 14  1  0
 13 15  1  0
 14 16  1  0
 15 16  1  0
M  END
>  <ref_url>  (16) 
https://github.com/stephwills/fragment_network_merges

>  <submitter_name>  (16) 
Steph Wills

>  <submitter_institution>  (16) 
University of Oxford

>  <submitter_email>  (16) 
stephanie.wills@balliol.ox.ac.uk

>  <generation_date>  (16) 
2023-07-04

>  <method>  (16) 
fragnetv1

>  <original SMILES>  (16) 
c1ccn2c(CC3CNCCO3)nnc2c1

>  <original_name>  (16) 
x0771-0A-x1594-0A_29

>  <ref_mols>  (16) 
x0771_0A,x1594_0A

>  <ref_pdb>  (16) 
x0771_0A

>  <IFP_score>  (16) 
0.7071067811865476

>  <SuCOS_score>  (16) 
0.6373830824582528

>  <RMSD_score>  (16) 
0.8101439546603598

$$$$

     RDKit          3D

 16 18  0  0  0  0  0  0  0  0999 V2000
  -10.7610   -3.2330   -6.6880 C   0  0  0  0  0  0  0  0  0  0  0  0
  -10.5970   -4.4580   -5.9210 C   0  0  0  0  0  0  0  0  0  0  0  0
   -9.5300   -5.2490   -6.1540 C   0  0  0  0  0  0  0  0  0  0  0  0
   -9.8710   -2.8800   -7.6250 C   0  0  0  0  0  0  0  0  0  0  0  0
   -8.7520   -3.7140   -7.8720 C   0  0  0  0  0  0  0  0  0  0  0  0
   -8.6070   -4.8740   -7.1290 N   0  0  0  0  0  0  0  0  0  0  0  0
   -7.7590   -3.6070   -8.7080 N   0  0  0  0  0  0  0  0  0  0  0  0
   -7.4290   -5.4370   -7.6030 C   0  0  0  0  0  0  0  0  0  0  0  0
   -6.9400   -4.6770   -8.5430 N   0  0  0  0  0  0  0  0  0  0  0  0
   -6.7540   -6.6870   -7.1680 C   0  0  0  0  0  0  0  0  0  0  0  0
   -7.6280   -7.8260   -6.7020 C   0  0  0  0  0  0  0  0  0  0  0  0
   -7.5760   -7.8810   -5.1770 C   0  0  0  0  0  0  0  0  0  0  0  0
   -7.1460   -9.1350   -7.3140 C   0  0  0  0  0  0  0  0  0  0  0  0
   -7.1440   -9.2590   -4.6960 C   0  0  0  0  0  0  0  0  0  0  0  0
   -7.9120  -10.3210   -6.7780 C   0  0  0  0  0  0  0  0  0  0  0  0
   -7.9140  -10.3240   -5.3190 N   0  0  0  0  0  0  0  0  0  0  0  0
  1  2  1  0
  2  3  2  0
  1  4  2  0
  4  5  1  0
  3  6  1  0
  5  6  1  0
  5  7  2  0
  6  8  1  0
  7  9  1  0
  8  9  2  0
  8 10  1  0
 10 11  1  0
 11 12  1  0
 11 13  1  0
 12 14  1  0
 13 15  1  0
 14 16  1  0
 15 16  1  0
M  END
>  <ref_url>  (17) 
https://github.com/stephwills/fragment_network_merges

>  <submitter_name>  (17) 
Steph Wills

>  <submitter_institution>  (17) 
University of Oxford

>  <submitter_email>  (17) 
stephanie.wills@balliol.ox.ac.uk

>  <generation_date>  (17) 
2023-07-04

>  <method>  (17) 
fragnetv1

>  <original SMILES>  (17) 
c1ccn2c(CC3CCNCC3)nnc2c1

>  <original_name>  (17) 
x0771-0A-x1594-0A_41

>  <ref_mols>  (17) 
x0771_0A,x1594_0A

>  <ref_pdb>  (17) 
x0771_0A

>  <IFP_score>  (17) 
0.816496580927726

>  <SuCOS_score>  (17) 
0.658016770402028

>  <RMSD_score>  (17) 
0.8785306948639766

$$$$

     RDKit          3D

 16 18  0  0  0  0  0  0  0  0999 V2000
   -6.2690   -7.1730   -8.9050 C   0  0  0  0  0  0  0  0  0  0  0  0
   -7.1890   -7.6410   -7.9050 N   0  0  0  0  0  0  0  0  0  0  0  0
   -7.2070   -9.0710   -7.6360 C   0  0  0  0  0  0  0  0  0  0  0  0
   -7.1280   -6.8180   -6.7190 C   0  0  2  0  0  0  0  0  0  0  0  0
   -6.8120   -9.4840   -6.2060 C   0  0  0  0  0  0  0  0  0  0  0  0
   -7.9040   -7.4130   -5.4970 C   0  0  0  0  0  0  0  0  0  0  0  0
   -7.6100   -5.4930   -7.2570 C   0  0  0  0  0  0  0  0  0  0  0  0
   -7.6240   -8.8360   -5.1690 N   0  0  0  0  0  0  0  0  0  0  0  0
   -6.9800   -4.8120   -8.2010 N   0  0  0  0  0  0  0  0  0  0  0  0
   -8.7470   -4.7960   -6.8920 N   0  0  0  0  0  0  0  0  0  0  0  0
   -7.6780   -3.6770   -8.4720 N   0  0  0  0  0  0  0  0  0  0  0  0
   -8.7290   -3.6620   -7.6970 C   0  0  0  0  0  0  0  0  0  0  0  0
   -9.7650   -5.0390   -5.9690 C   0  0  0  0  0  0  0  0  0  0  0  0
   -9.7850   -2.7260   -7.5620 C   0  0  0  0  0  0  0  0  0  0  0  0
  -10.7680   -4.1530   -5.8490 C   0  0  0  0  0  0  0  0  0  0  0  0
  -10.7660   -2.9580   -6.6770 C   0  0  0  0  0  0  0  0  0  0  0  0
  1  2  1  0
  2  3  1  0
  2  4  1  0
  3  5  1  0
  4  6  1  1
  4  7  1  0
  5  8  1  0
  6  8  1  0
  7  9  2  0
  7 10  1  0
  9 11  1  0
 10 12  1  0
 11 12  2  0
 10 13  1  0
 12 14  1  0
 13 15  2  0
 14 16  2  0
 15 16  1  0
M  END
>  <ref_url>  (18) 
https://github.com/stephwills/fragment_network_merges

>  <submitter_name>  (18) 
Steph Wills

>  <submitter_institution>  (18) 
University of Oxford

>  <submitter_email>  (18) 
stephanie.wills@balliol.ox.ac.uk

>  <generation_date>  (18) 
2023-07-04

>  <method>  (18) 
fragnetv1

>  <original SMILES>  (18) 
CN1CCNCC1c1nnc2ccccn12

>  <original_name>  (18) 
x0771-0A-x1594-0A_54

>  <ref_mols>  (18) 
x0771_0A,x1594_0A

>  <ref_pdb>  (18) 
x0771_0A

>  <IFP_score>  (18) 
0.816496580927726

>  <SuCOS_score>  (18) 
0.6663905238229282

>  <RMSD_score>  (18) 
0.9046768383340992

$$$$

     RDKit          3D

 16 18  0  0  0  0  0  0  0  0999 V2000
   -5.3700   -6.6130   -7.5470 C   0  0  0  0  0  0  0  0  0  0  0  0
   -6.7860   -6.6810   -6.9770 C   0  0  0  0  0  0  0  0  0  0  0  0
   -7.4790   -5.4470   -7.5250 C   0  0  0  0  0  0  0  0  0  0  0  0
   -7.1680   -8.0890   -7.4600 C   0  0  0  0  0  0  0  0  0  0  0  0
   -7.0060   -6.7140   -5.4400 C   0  0  0  0  0  0  0  0  0  0  0  0
   -6.9750   -4.7310   -8.5080 N   0  0  0  0  0  0  0  0  0  0  0  0
   -8.6700   -4.8560   -7.1110 N   0  0  0  0  0  0  0  0  0  0  0  0
   -8.2660   -8.7250   -6.6190 C   0  0  0  0  0  0  0  0  0  0  0  0
   -6.8000   -8.1100   -4.8310 C   0  0  0  0  0  0  0  0  0  0  0  0
   -7.7860   -3.6720   -8.7490 N   0  0  0  0  0  0  0  0  0  0  0  0
   -8.7940   -3.7340   -7.9210 C   0  0  0  0  0  0  0  0  0  0  0  0
   -9.6190   -5.1640   -6.1350 C   0  0  0  0  0  0  0  0  0  0  0  0
   -7.7180   -9.1230   -5.3380 N   0  0  0  0  0  0  0  0  0  0  0  0
   -9.9140   -2.8820   -7.7300 C   0  0  0  0  0  0  0  0  0  0  0  0
  -10.6800   -4.3580   -5.9600 C   0  0  0  0  0  0  0  0  0  0  0  0
  -10.8190   -3.1770   -6.7900 C   0  0  0  0  0  0  0  0  0  0  0  0
  1  2  1  0
  2  3  1  0
  2  4  1  0
  2  5  1  0
  3  6  2  0
  3  7  1  0
  4  8  1  0
  5  9  1  0
  6 10  1  0
  7 11  1  0
 10 11  2  0
  7 12  1  0
  8 13  1  0
  9 13  1  0
 11 14  1  0
 12 15  2  0
 14 16  2  0
 15 16  1  0
M  END
>  <ref_url>  (19) 
https://github.com/stephwills/fragment_network_merges

>  <submitter_name>  (19) 
Steph Wills

>  <submitter_institution>  (19) 
University of Oxford

>  <submitter_email>  (19) 
stephanie.wills@balliol.ox.ac.uk

>  <generation_date>  (19) 
2023-07-04

>  <method>  (19) 
fragnetv1

>  <original SMILES>  (19) 
CC1(c2nnc3ccccn23)CCNCC1

>  <original_name>  (19) 
x0771-0A-x1594-0A_55

>  <ref_mols>  (19) 
x0771_0A,x1594_0A

>  <ref_pdb>  (19) 
x0771_0A

>  <IFP_score>  (19) 
0.7071067811865476

>  <SuCOS_score>  (19) 
0.6760271999113238

>  <RMSD_score>  (19) 
0.7422792440789895

$$$$

     RDKit          3D

 20 21  0  0  0  0  0  0  0  0999 V2000
  -12.1950   -6.2260   -4.7270 C   0  0  0  0  0  0  0  0  0  0  0  0
  -12.2980   -4.9740   -3.8500 C   0  0  0  0  0  0  0  0  0  0  0  0
  -11.4920   -3.8290   -4.5150 C   0  0  0  0  0  0  0  0  0  0  0  0
  -13.7970   -4.7060   -3.4740 C   0  0  0  0  0  0  0  0  0  0  0  0
  -12.0180   -2.4640   -4.1570 C   0  0  0  0  0  0  0  0  0  0  0  0
  -14.2530   -3.2370   -3.4780 C   0  0  0  0  0  0  0  0  0  0  0  0
  -13.4550   -2.5320   -4.5180 C   0  0  0  0  0  0  0  0  0  0  0  0
  -13.8870   -2.0330   -5.6820 C   0  0  0  0  0  0  0  0  0  0  0  0
  -13.0260   -1.3900   -6.7000 C   0  0  0  0  0  0  0  0  0  0  0  0
  -13.5120   -1.0220   -7.7630 O   0  0  0  0  0  0  0  0  0  0  0  0
  -11.7100   -1.2690   -6.3080 N   0  0  0  0  0  0  0  0  0  0  0  0
  -10.8740   -2.4300   -6.3450 O   0  0  0  0  0  0  0  0  0  0  0  0
  -10.3170   -2.6900   -7.6250 C   0  0  2  0  0  0  0  0  0  0  0  0
  -11.5200   -3.2080   -8.3990 C   0  0  0  0  0  0  0  0  0  0  0  0
   -9.1530   -3.6680   -7.4770 C   0  0  0  0  0  0  0  0  0  0  0  0
   -8.0130   -3.5540   -8.2710 C   0  0  0  0  0  0  0  0  0  0  0  0
   -9.1720   -4.7080   -6.5490 C   0  0  0  0  0  0  0  0  0  0  0  0
   -7.0030   -4.4550   -8.1060 C   0  0  0  0  0  0  0  0  0  0  0  0
   -8.0890   -5.5580   -6.4610 C   0  0  0  0  0  0  0  0  0  0  0  0
   -7.0060   -5.4550   -7.2260 N   0  0  0  0  0  0  0  0  0  0  0  0
  1  2  1  0
  2  3  1  0
  2  4  1  0
  3  5  1  0
  4  6  1  0
  5  7  1  0
  6  7  1  0
  7  8  2  3
  8  9  1  0
  9 10  2  0
  9 11  1  0
 11 12  1  0
 12 13  1  0
 13 14  1  6
 13 15  1  0
 15 16  2  0
 15 17  1  0
 16 18  1  0
 17 19  2  0
 18 20  2  0
 19 20  1  0
M  END
>  <ref_url>  (20) 
https://github.com/stephwills/fragment_network_merges

>  <submitter_name>  (20) 
Steph Wills

>  <submitter_institution>  (20) 
University of Oxford

>  <submitter_email>  (20) 
stephanie.wills@balliol.ox.ac.uk

>  <generation_date>  (20) 
2023-07-04

>  <method>  (20) 
fragnetv1

>  <original SMILES>  (20) 
CC1CCC(=CC(=O)NOC(C)c2ccncc2)CC1

>  <original_name>  (20) 
x1537-0A-x0980-0B_29

>  <ref_mols>  (20) 
x1537_0A,x0980_0B

>  <ref_pdb>  (20) 
x1537_0A

>  <IFP_score>  (20) 
0.0

>  <SuCOS_score>  (20) 
0.5489610851435643

>  <RMSD_score>  (20) 
0.9531615097329328

$$$$

     RDKit          3D

 18 19  0  0  0  0  0  0  0  0999 V2000
   -5.8040   -7.9230   -3.6490 C   0  0  0  0  0  0  0  0  0  0  0  0
   -5.6330   -6.4670   -3.6290 N   0  0  0  0  0  0  0  0  0  0  0  0
   -6.9850   -5.4510   -3.5460 S   0  0  0  0  0  0  0  0  0  0  0  0
   -6.6540   -4.1740   -4.1170 O   0  0  0  0  0  0  0  0  0  0  0  0
   -8.1380   -6.1970   -3.9990 O   0  0  0  0  0  0  0  0  0  0  0  0
   -7.1260   -5.1540   -1.8080 C   0  0  0  0  0  0  0  0  0  0  0  0
   -6.0680   -5.6950   -1.1470 C   0  0  0  0  0  0  0  0  0  0  0  0
   -6.5610   -6.9190   -0.5830 N   0  0  0  0  0  0  0  0  0  0  0  0
   -7.7840   -7.3250   -0.9890 N   0  0  0  0  0  0  0  0  0  0  0  0
   -6.0650   -7.8340    0.3130 C   0  0  0  0  0  0  0  0  0  0  0  0
   -8.0260   -8.4550   -0.3600 N   0  0  0  0  0  0  0  0  0  0  0  0
   -6.9750   -8.7790    0.4460 N   0  0  0  0  0  0  0  0  0  0  0  0
   -4.8780   -7.7930    0.9600 N   0  0  0  0  0  0  0  0  0  0  0  0
   -3.6380   -7.9000    0.1620 C   0  0  0  0  0  0  0  0  0  0  0  0
   -4.9550   -8.5760    2.1990 C   0  0  0  0  0  0  0  0  0  0  0  0
   -2.4150   -7.8260    1.0770 C   0  0  0  0  0  0  0  0  0  0  0  0
   -3.7670   -8.3840    3.1200 C   0  0  0  0  0  0  0  0  0  0  0  0
   -2.4680   -8.5980    2.3710 C   0  0  0  0  0  0  0  0  0  0  0  0
  1  2  1  0
  3  2  1  0
  3  4  2  0
  3  5  2  0
  3  6  1  0
  6  7  1  0
  7  8  1  0
  8  9  1  0
  8 10  1  0
  9 11  2  0
 10 12  2  0
 11 12  1  0
 10 13  1  0
 13 14  1  0
 13 15  1  0
 14 16  1  0
 15 17  1  0
 16 18  1  0
 17 18  1  0
M  END
>  <ref_url>  (21) 
https://github.com/stephwills/fragment_network_merges

>  <submitter_name>  (21) 
Steph Wills

>  <submitter_institution>  (21) 
University of Oxford

>  <submitter_email>  (21) 
stephanie.wills@balliol.ox.ac.uk

>  <generation_date>  (21) 
2023-07-04

>  <method>  (21) 
fragnetv1

>  <original SMILES>  (21) 
CNS(=O)(=O)CCn1nnnc1N1CCCCC1

>  <original_name>  (21) 
x1140-0A-x1083-0A_353

>  <ref_mols>  (21) 
x1140_0A,x1083_0A

>  <ref_pdb>  (21) 
x1140_0A

>  <IFP_score>  (21) 
0.4472135954999579

>  <SuCOS_score>  (21) 
0.49432987697632963

>  <RMSD_score>  (21) 
0.9813702053761364

$$$$

     RDKit          3D

 19 21  0  0  0  0  0  0  0  0999 V2000
   -7.9400   -4.1040   -7.9400 C   0  0  0  0  0  0  0  0  0  0  0  0
   -7.4080   -5.3120   -7.2180 C   0  0  2  0  0  0  0  0  0  0  0  0
   -7.6450   -6.5150   -7.8000 C   0  0  0  0  0  0  0  0  0  0  0  0
   -7.7790   -5.4340   -5.7390 C   0  0  0  0  0  0  0  0  0  0  0  0
   -7.0810   -7.6790   -7.2800 C   0  0  0  0  0  0  0  0  0  0  0  0
   -7.1720   -6.6430   -5.0670 C   0  0  0  0  0  0  0  0  0  0  0  0
   -8.5190   -4.6530   -5.1460 O   0  0  0  0  0  0  0  0  0  0  0  0
   -7.1900   -7.8690   -5.9150 C   0  0  0  0  0  0  0  0  0  0  0  0
   -6.6040   -6.6710   -3.7580 C   0  0  0  0  0  0  0  0  0  0  0  0
   -6.0350   -7.7860   -3.1590 N   0  0  0  0  0  0  0  0  0  0  0  0
   -5.3680   -7.9770   -1.9220 C   0  0  0  0  0  0  0  0  0  0  0  0
   -6.0320   -8.6950   -0.9440 C   0  0  0  0  0  0  0  0  0  0  0  0
   -4.0840   -7.4870   -1.6350 C   0  0  0  0  0  0  0  0  0  0  0  0
   -5.4680   -8.9460    0.3160 C   0  0  0  0  0  0  0  0  0  0  0  0
   -3.5370   -7.7410   -0.3920 C   0  0  0  0  0  0  0  0  0  0  0  0
   -4.2140   -8.4520    0.5640 C   0  0  0  0  0  0  0  0  0  0  0  0
   -2.3150   -7.3470    0.0410 O   0  0  0  0  0  0  0  0  0  0  0  0
   -2.3390   -7.7950    1.4080 C   0  0  0  0  0  0  0  0  0  0  0  0
   -3.5050   -8.5880    1.7180 O   0  0  0  0  0  0  0  0  0  0  0  0
  2  1  1  6
  2  3  1  0
  2  4  1  0
  3  5  1  0
  4  6  1  0
  4  7  2  0
  5  8  1  0
  6  8  1  0
  6  9  2  3
  9 10  1  0
 10 11  1  0
 11 12  2  0
 11 13  1  0
 12 14  1  0
 13 15  2  0
 14 16  2  0
 15 16  1  0
 15 17  1  0
 17 18  1  0
 16 19  1  0
 18 19  1  0
M  END
>  <ref_url>  (22) 
https://github.com/stephwills/fragment_network_merges

>  <submitter_name>  (22) 
Steph Wills

>  <submitter_institution>  (22) 
University of Oxford

>  <submitter_email>  (22) 
stephanie.wills@balliol.ox.ac.uk

>  <generation_date>  (22) 
2023-07-04

>  <method>  (22) 
fragnetv1

>  <original SMILES>  (22) 
CC1CCCC(=CNc2ccc3c(c2)OCO3)C1=O

>  <original_name>  (22) 
x0771-0A-x1140-0A_143

>  <ref_mols>  (22) 
x0771_0A,x1140_0A

>  <ref_pdb>  (22) 
x0771_0A

>  <IFP_score>  (22) 
0.0

>  <SuCOS_score>  (22) 
0.45151497849517774

>  <RMSD_score>  (22) 
0.7492556573026325

$$$$

     RDKit          3D

 30 35  0  0  0  0  0  0  0  0999 V2000
   -7.6610   -4.4080   -7.4660 C   0  0  0  0  0  0  0  0  0  0  0  0
   -7.5010   -5.7860   -6.8270 C   0  0  0  0  0  0  0  0  0  0  0  0
   -7.5620   -6.8700   -7.6980 C   0  0  0  0  0  0  0  0  0  0  0  0
   -7.2930   -6.1180   -5.4350 C   0  0  0  0  0  0  0  0  0  0  0  0
   -7.4700   -8.1840   -7.2030 C   0  0  0  0  0  0  0  0  0  0  0  0
   -7.2230   -7.4660   -5.0130 C   0  0  0  0  0  0  0  0  0  0  0  0
   -7.1060   -5.1730   -4.2370 C   0  0  0  0  0  0  0  0  0  0  0  0
   -7.5400   -9.2530   -8.1390 O   0  0  0  0  0  0  0  0  0  0  0  0
   -7.3190   -8.4630   -5.8590 C   0  0  0  0  0  0  0  0  0  0  0  0
   -7.5680   -4.0590   -4.1730 O   0  0  0  0  0  0  0  0  0  0  0  0
   -6.2030   -5.7270   -3.1180 C   0  0  0  0  0  0  0  0  0  0  0  0
   -7.0460   -7.8030   -3.7010 O   0  0  0  0  0  0  0  0  0  0  0  0
   -7.3970  -10.5790   -7.7650 C   0  0  0  0  0  0  0  0  0  0  0  0
   -7.2660   -9.8590   -5.4130 C   0  0  0  0  0  0  0  0  0  0  0  0
   -5.8610   -7.1920   -3.2570 C   0  0  2  0  0  0  0  0  0  0  0  0
   -7.3340  -11.4640   -8.6060 O   0  0  0  0  0  0  0  0  0  0  0  0
   -7.3190  -10.8790   -6.3370 C   0  0  0  0  0  0  0  0  0  0  0  0
   -5.3490   -7.7280   -1.9270 C   0  0  0  0  0  0  0  0  0  0  0  0
   -7.1780  -10.2290   -3.9490 C   0  0  0  0  0  0  0  0  0  0  0  0
   -6.0900   -8.5980   -1.0870 C   0  0  0  0  0  0  0  0  0  0  0  0
   -4.0660   -7.3110   -1.5270 C   0  0  0  0  0  0  0  0  0  0  0  0
   -7.7220  -11.6260   -3.6180 C   0  0  0  0  0  0  0  0  0  0  0  0
   -7.3130  -12.3520   -6.0140 C   0  0  0  0  0  0  0  0  0  0  0  0
   -5.4870   -9.0490    0.2250 C   0  0  0  0  0  0  0  0  0  0  0  0
   -3.5350   -7.7340   -0.3240 C   0  0  0  0  0  0  0  0  0  0  0  0
   -7.1570  -12.7020   -4.5340 C   0  0  0  0  0  0  0  0  0  0  0  0
   -4.1970   -8.5680    0.5420 C   0  0  0  0  0  0  0  0  0  0  0  0
   -2.3140   -7.3850    0.1490 O   0  0  0  0  0  0  0  0  0  0  0  0
   -2.3830   -7.9060    1.4870 C   0  0  0  0  0  0  0  0  0  0  0  0
   -3.4730   -8.8380    1.6610 O   0  0  0  0  0  0  0  0  0  0  0  0
  1  2  1  0
  2  3  2  0
  2  4  1  0
  3  5  1  0
  4  6  2  0
  4  7  1  0
  5  8  1  0
  5  9  2  0
  6  9  1  0
  7 10  2  0
  7 11  1  0
  6 12  1  0
  8 13  1  0
  9 14  1  0
 15 11  1  1
 12 15  1  0
 13 16  2  0
 13 17  1  0
 14 17  2  0
 15 18  1  0
 14 19  1  0
 18 20  2  0
 18 21  1  0
 19 22  1  0
 17 23  1  0
 20 24  1  0
 21 25  2  0
 22 26  1  0
 23 26  1  0
 24 27  2  0
 25 27  1  0
 25 28  1  0
 28 29  1  0
 27 30  1  0
 29 30  1  0
M  END
>  <ref_url>  (23) 
https://github.com/stephwills/fragment_network_merges

>  <submitter_name>  (23) 
Steph Wills

>  <submitter_institution>  (23) 
University of Oxford

>  <submitter_email>  (23) 
stephanie.wills@balliol.ox.ac.uk

>  <generation_date>  (23) 
2023-07-04

>  <method>  (23) 
fragnetv1

>  <original SMILES>  (23) 
Cc1cc2oc(=O)c3c(c2c2c1C(=O)CC(c1ccc4c(c1)OCO4)O2)CCCC3

>  <original_name>  (23) 
x0771-0A-x1140-0A_206

>  <ref_mols>  (23) 
x0771_0A,x1140_0A

>  <ref_pdb>  (23) 
x0771_0A

>  <IFP_score>  (23) 
0.0

>  <SuCOS_score>  (23) 
0.5020904510980053

>  <RMSD_score>  (23) 
0.8227107866446984

$$$$

     RDKit          3D

 29 34  0  0  0  0  0  0  0  0999 V2000
   -7.6840   -4.4260   -7.5930 C   0  0  0  0  0  0  0  0  0  0  0  0
   -7.4810   -5.7100   -6.7920 C   0  0  0  0  0  0  0  0  0  0  0  0
   -7.5470   -6.8640   -7.7390 C   0  0  0  0  0  0  0  0  0  0  0  0
   -7.2470   -6.0380   -5.3880 C   0  0  0  0  0  0  0  0  0  0  0  0
   -7.4160   -8.2850   -7.2420 C   0  0  0  0  0  0  0  0  0  0  0  0
   -7.1420   -7.3830   -4.9720 C   0  0  0  0  0  0  0  0  0  0  0  0
   -7.0560   -5.1510   -4.1790 C   0  0  0  0  0  0  0  0  0  0  0  0
   -7.4810   -9.3670   -8.1640 O   0  0  0  0  0  0  0  0  0  0  0  0
   -7.2320   -8.5360   -5.9000 C   0  0  0  0  0  0  0  0  0  0  0  0
   -7.4890   -4.0250   -4.1220 O   0  0  0  0  0  0  0  0  0  0  0  0
   -6.2830   -5.6850   -3.0940 C   0  0  0  0  0  0  0  0  0  0  0  0
   -6.9350   -7.7430   -3.6600 O   0  0  0  0  0  0  0  0  0  0  0  0
   -7.2550  -10.6830   -7.7590 C   0  0  0  0  0  0  0  0  0  0  0  0
   -7.1190   -9.9050   -5.4610 C   0  0  0  0  0  0  0  0  0  0  0  0
   -5.8390   -7.0240   -3.1410 C   0  0  2  0  0  0  0  0  0  0  0  0
   -7.1720  -11.6050   -8.5580 O   0  0  0  0  0  0  0  0  0  0  0  0
   -7.1300  -10.8970   -6.3320 C   0  0  0  0  0  0  0  0  0  0  0  0
   -5.3590   -7.5620   -1.9510 C   0  0  0  0  0  0  0  0  0  0  0  0
   -6.9810  -10.4150   -4.0650 C   0  0  0  0  0  0  0  0  0  0  0  0
   -6.0940   -8.4320   -1.0920 C   0  0  0  0  0  0  0  0  0  0  0  0
   -4.0540   -7.2060   -1.5760 C   0  0  0  0  0  0  0  0  0  0  0  0
   -7.2290  -11.9200   -4.2270 C   0  0  0  0  0  0  0  0  0  0  0  0
   -7.0010  -12.2380   -5.7050 C   0  0  0  0  0  0  0  0  0  0  0  0
   -5.5350   -8.9130    0.1080 C   0  0  0  0  0  0  0  0  0  0  0  0
   -3.5390   -7.6910   -0.3980 C   0  0  0  0  0  0  0  0  0  0  0  0
   -4.2520   -8.5170    0.4280 C   0  0  0  0  0  0  0  0  0  0  0  0
   -2.3020   -7.4240    0.0890 O   0  0  0  0  0  0  0  0  0  0  0  0
   -2.4290   -7.9470    1.4210 C   0  0  0  0  0  0  0  0  0  0  0  0
   -3.5430   -8.8620    1.5400 O   0  0  0  0  0  0  0  0  0  0  0  0
  1  2  1  0
  2  3  2  0
  2  4  1  0
  3  5  1  0
  4  6  2  0
  4  7  1  0
  5  8  1  0
  5  9  2  0
  6  9  1  0
  7 10  2  0
  7 11  1  0
  6 12  1  0
  8 13  1  0
  9 14  1  0
 15 11  1  1
 12 15  1  0
 13 16  2  0
 13 17  1  0
 14 17  2  0
 15 18  1  0
 14 19  1  0
 18 20  2  0
 18 21  1  0
 19 22  1  0
 17 23  1  0
 22 23  1  0
 20 24  1  0
 21 25  2  0
 24 26  2  0
 25 26  1  0
 25 27  1  0
 27 28  1  0
 26 29  1  0
 28 29  1  0
M  END
>  <ref_url>  (24) 
https://github.com/stephwills/fragment_network_merges

>  <submitter_name>  (24) 
Steph Wills

>  <submitter_institution>  (24) 
University of Oxford

>  <submitter_email>  (24) 
stephanie.wills@balliol.ox.ac.uk

>  <generation_date>  (24) 
2023-07-04

>  <method>  (24) 
fragnetv1

>  <original SMILES>  (24) 
Cc1cc2oc(=O)c3c(c2c2c1C(=O)CC(c1ccc4c(c1)OCO4)O2)CCC3

>  <original_name>  (24) 
x0771-0A-x1140-0A_275

>  <ref_mols>  (24) 
x0771_0A,x1140_0A

>  <ref_pdb>  (24) 
x0771_0A

>  <IFP_score>  (24) 
0.0

>  <SuCOS_score>  (24) 
0.49728354596815116

>  <RMSD_score>  (24) 
0.8453432620948905

$$$$

     RDKit          3D

 24 28  0  0  0  0  0  0  0  0999 V2000
   -8.1130   -4.2700   -8.3730 C   0  0  0  0  0  0  0  0  0  0  0  0
   -7.7990   -5.3650   -7.3820 C   0  0  0  0  0  0  0  0  0  0  0  0
   -7.7850   -4.9690   -6.0680 C   0  0  0  0  0  0  0  0  0  0  0  0
   -7.5380   -6.7230   -7.7610 C   0  0  0  0  0  0  0  0  0  0  0  0
   -7.4380   -6.0020   -5.0780 C   0  0  0  0  0  0  0  0  0  0  0  0
   -7.2420   -7.7160   -6.7760 C   0  0  0  0  0  0  0  0  0  0  0  0
   -7.1660   -7.2870   -5.4790 C   0  0  0  0  0  0  0  0  0  0  0  0
   -6.9850   -9.1930   -6.7630 C   0  0  0  0  0  0  0  0  0  0  0  0
   -6.9790  -10.2700   -7.8140 C   0  0  0  0  0  0  0  0  0  0  0  0
   -6.7120   -9.5960   -5.4270 C   0  0  0  0  0  0  0  0  0  0  0  0
   -6.7080   -8.3550   -4.6190 C   0  0  0  0  0  0  0  0  0  0  0  0
   -6.7340  -11.6180   -7.4410 C   0  0  0  0  0  0  0  0  0  0  0  0
   -6.4830  -10.8870   -5.0550 C   0  0  0  0  0  0  0  0  0  0  0  0
   -6.3000   -7.9240   -3.3680 C   0  0  0  0  0  0  0  0  0  0  0  0
   -6.4940  -11.9770   -6.1090 C   0  0  0  0  0  0  0  0  0  0  0  0
   -5.6760   -8.3080   -2.0710 C   0  0  0  0  0  0  0  0  0  0  0  0
   -6.2310   -9.1830   -1.1140 C   0  0  0  0  0  0  0  0  0  0  0  0
   -4.4260   -7.6890   -1.7920 C   0  0  0  0  0  0  0  0  0  0  0  0
   -5.5580   -9.4250    0.1050 C   0  0  0  0  0  0  0  0  0  0  0  0
   -3.7950   -7.9490   -0.5900 C   0  0  0  0  0  0  0  0  0  0  0  0
   -4.3470   -8.7890    0.3390 C   0  0  0  0  0  0  0  0  0  0  0  0
   -2.6030   -7.4340   -0.1750 O   0  0  0  0  0  0  0  0  0  0  0  0
   -2.5500   -7.9130    1.1830 C   0  0  0  0  0  0  0  0  0  0  0  0
   -3.5720   -8.9000    1.4590 O   0  0  0  0  0  0  0  0  0  0  0  0
  1  2  1  0
  2  3  2  0
  2  4  1  0
  3  5  1  0
  4  6  2  0
  5  7  2  0
  6  7  1  0
  6  8  1  0
  8  9  2  0
  8 10  1  0
  7 11  1  0
 10 11  1  0
  9 12  1  0
 10 13  2  0
 11 14  2  3
 12 15  2  0
 13 15  1  0
 14 16  1  0
 16 17  2  0
 16 18  1  0
 17 19  1  0
 18 20  2  0
 19 21  2  0
 20 21  1  0
 20 22  1  0
 22 23  1  0
 21 24  1  0
 23 24  1  0
M  END
>  <ref_url>  (25) 
https://github.com/stephwills/fragment_network_merges

>  <submitter_name>  (25) 
Steph Wills

>  <submitter_institution>  (25) 
University of Oxford

>  <submitter_email>  (25) 
stephanie.wills@balliol.ox.ac.uk

>  <generation_date>  (25) 
2023-07-04

>  <method>  (25) 
fragnetv1

>  <original SMILES>  (25) 
Cc1ccc2c(c1)-c1ccccc1C2=Cc1ccc2c(c1)OCO2

>  <original_name>  (25) 
x0771-0A-x1140-0A_372

>  <ref_mols>  (25) 
x0771_0A,x1140_0A

>  <ref_pdb>  (25) 
x0771_0A

>  <IFP_score>  (25) 
0.0

>  <SuCOS_score>  (25) 
0.501490792764322

>  <RMSD_score>  (25) 
0.7275083905587162

$$$$

     RDKit          3D

 22 25  0  0  0  0  0  0  0  0999 V2000
   -9.2860   -9.4080   -5.2980 C   0  0  0  0  0  0  0  0  0  0  0  0
   -8.0140   -8.7350   -5.4150 N   0  0  0  0  0  0  0  0  0  0  0  0
   -6.9320   -9.3150   -5.9540 C   0  0  0  0  0  0  0  0  0  0  0  0
   -7.9430   -7.4910   -5.9800 C   0  0  0  0  0  0  0  0  0  0  0  0
   -5.9340   -9.7620   -5.3130 N   0  0  0  0  0  0  0  0  0  0  0  0
   -7.1510   -9.2290   -7.7220 S   0  0  0  0  0  0  0  0  0  0  0  0
   -7.4710   -7.5290   -7.3030 C   0  0  0  0  0  0  0  0  0  0  0  0
   -8.2750   -6.1480   -5.4020 C   0  0  0  0  0  0  0  0  0  0  0  0
   -5.9090   -9.6720   -3.9180 N   0  0  0  0  0  0  0  0  0  0  0  0
   -7.3150   -6.4070   -8.0720 C   0  0  0  0  0  0  0  0  0  0  0  0
   -8.1230   -5.0000   -6.1810 C   0  0  0  0  0  0  0  0  0  0  0  0
   -5.4040   -8.5600   -3.4460 C   0  0  0  0  0  0  0  0  0  0  0  0
   -7.6570   -5.0820   -7.4980 C   0  0  0  0  0  0  0  0  0  0  0  0
   -5.1590   -8.4830   -2.0700 C   0  0  0  0  0  0  0  0  0  0  0  0
   -6.0640   -8.9830   -1.1010 C   0  0  0  0  0  0  0  0  0  0  0  0
   -3.9230   -7.9030   -1.7150 C   0  0  0  0  0  0  0  0  0  0  0  0
   -5.5910   -8.8630    0.3390 C   0  0  0  0  0  0  0  0  0  0  0  0
   -3.5450   -7.8250   -0.3980 C   0  0  0  0  0  0  0  0  0  0  0  0
   -4.3320   -8.2870    0.6130 C   0  0  0  0  0  0  0  0  0  0  0  0
   -2.3790   -7.3090    0.0570 O   0  0  0  0  0  0  0  0  0  0  0  0
   -2.4370   -7.6880    1.4410 C   0  0  0  0  0  0  0  0  0  0  0  0
   -3.7570   -8.1220    1.8350 O   0  0  0  0  0  0  0  0  0  0  0  0
  1  2  1  0
  2  3  1  0
  2  4  1  0
  3  5  2  3
  3  6  1  0
  4  7  2  0
  6  7  1  0
  4  8  1  0
  5  9  1  0
  7 10  1  0
  8 11  2  0
  9 12  2  3
 10 13  2  0
 11 13  1  0
 12 14  1  0
 14 15  2  0
 14 16  1  0
 15 17  1  0
 16 18  2  0
 17 19  2  0
 18 19  1  0
 18 20  1  0
 20 21  1  0
 19 22  1  0
 21 22  1  0
M  END
>  <ref_url>  (26) 
https://github.com/stephwills/fragment_network_merges

>  <submitter_name>  (26) 
Steph Wills

>  <submitter_institution>  (26) 
University of Oxford

>  <submitter_email>  (26) 
stephanie.wills@balliol.ox.ac.uk

>  <generation_date>  (26) 
2023-07-04

>  <method>  (26) 
fragnetv1

>  <original SMILES>  (26) 
Cn1c(=NN=Cc2ccc3c(c2)OCO3)sc2ccccc21

>  <original_name>  (26) 
x0771-0A-x1140-0A_405

>  <ref_mols>  (26) 
x0771_0A,x1140_0A

>  <ref_pdb>  (26) 
x0771_0A

>  <IFP_score>  (26) 
0.0

>  <SuCOS_score>  (26) 
0.4725998135503445

>  <RMSD_score>  (26) 
0.8231493568219339

$$$$

     RDKit          3D

 23 26  0  0  0  0  0  0  0  0999 V2000
   -7.3730   -8.1130   -2.9870 C   0  0  0  0  0  0  0  0  0  0  0  0
   -5.9580   -8.6260   -3.0590 C   0  0  0  0  0  0  0  0  0  0  0  0
   -5.5970   -9.2050   -4.2660 N   0  0  0  0  0  0  0  0  0  0  0  0
   -5.1770   -8.4790   -1.8120 C   0  0  0  0  0  0  0  0  0  0  0  0
   -6.8140   -9.0620   -4.7780 N   0  0  0  0  0  0  0  0  0  0  0  0
   -5.8320   -9.0840   -0.7220 C   0  0  0  0  0  0  0  0  0  0  0  0
   -3.9430   -7.8340   -1.6510 C   0  0  0  0  0  0  0  0  0  0  0  0
   -7.3940   -9.0040   -5.9010 C   0  0  0  0  0  0  0  0  0  0  0  0
   -5.2920   -9.0710    0.5480 C   0  0  0  0  0  0  0  0  0  0  0  0
   -3.4180   -7.8390   -0.3700 C   0  0  0  0  0  0  0  0  0  0  0  0
   -6.8690   -9.0820   -7.6150 S   0  0  0  0  0  0  0  0  0  0  0  0
   -8.6560   -8.7120   -6.0200 N   0  0  0  0  0  0  0  0  0  0  0  0
   -4.0600   -8.4300    0.6980 C   0  0  0  0  0  0  0  0  0  0  0  0
   -2.2400   -7.2900    0.0110 O   0  0  0  0  0  0  0  0  0  0  0  0
   -7.3840   -7.4110   -7.4030 C   0  0  0  0  0  0  0  0  0  0  0  0
   -8.3950   -7.4130   -6.4140 C   0  0  0  0  0  0  0  0  0  0  0  0
   -9.6590   -9.0340   -5.0300 C   0  0  0  0  0  0  0  0  0  0  0  0
   -2.2000   -7.6370    1.4120 C   0  0  0  0  0  0  0  0  0  0  0  0
   -3.3810   -8.3210    1.8630 O   0  0  0  0  0  0  0  0  0  0  0  0
   -6.9670   -6.2400   -7.9930 C   0  0  0  0  0  0  0  0  0  0  0  0
   -8.9520   -6.2270   -5.9780 C   0  0  0  0  0  0  0  0  0  0  0  0
   -7.5690   -4.9920   -7.5630 C   0  0  0  0  0  0  0  0  0  0  0  0
   -8.5480   -5.0050   -6.5490 C   0  0  0  0  0  0  0  0  0  0  0  0
  1  2  1  0
  2  3  2  3
  2  4  1  0
  3  5  1  0
  4  6  2  0
  4  7  1  0
  5  8  2  3
  6  9  1  0
  7 10  2  0
  8 11  1  0
  8 12  1  0
  9 13  2  0
 10 13  1  0
 10 14  1  0
 11 15  1  0
 12 16  1  0
 15 16  2  0
 12 17  1  0
 14 18  1  0
 13 19  1  0
 18 19  1  0
 15 20  1  0
 16 21  1  0
 20 22  2  0
 21 23  2  0
 22 23  1  0
M  END
>  <ref_url>  (27) 
https://github.com/stephwills/fragment_network_merges

>  <submitter_name>  (27) 
Steph Wills

>  <submitter_institution>  (27) 
University of Oxford

>  <submitter_email>  (27) 
stephanie.wills@balliol.ox.ac.uk

>  <generation_date>  (27) 
2023-07-04

>  <method>  (27) 
fragnetv1

>  <original SMILES>  (27) 
CC(=NN=c1sc2ccccc2n1C)c1ccc2c(c1)OCO2

>  <original_name>  (26) 
x0771-0A-x1140-0A_462

>  <ref_mols>  (26) 
x0771_0A,x1140_0A

>  <ref_pdb>  (26) 
x0771_0A

>  <IFP_score>  (26) 
0.0

>  <SuCOS_score>  (26) 
0.46215555653610546

>  <RMSD_score>  (26) 
0.9610324467136182

$$$$
