ver_1.2
     RDKit          2D

 11 11  0  0  0  0  0  0  0  0999 V2000
    3.0000    0.0000    0.0000 C   0  0  0  0  0  0  0  0  0  0  0  0
    1.5000    0.0000    0.0000 C   0  0  0  0  0  0  0  0  0  0  0  0
    0.7500   -1.2990    0.0000 C   0  0  0  0  0  0  0  0  0  0  0  0
   -0.7500   -1.2990    0.0000 C   0  0  0  0  0  0  0  0  0  0  0  0
   -1.5000   -2.5981    0.0000 O   0  0  0  0  0  0  0  0  0  0  0  0
   -1.5000    0.0000    0.0000 C   0  0  0  0  0  0  0  0  0  0  0  0
   -0.7500    1.2990    0.0000 C   0  0  0  0  0  0  0  0  0  0  0  0
    0.7500    1.2990    0.0000 C   0  0  0  0  0  0  0  0  0  0  0  0
    0.4895    2.7762    0.0000 C   0  0  0  0  0  0  0  0  0  0  0  0
    2.1595    1.8121    0.0000 C   0  0  0  0  0  0  0  0  0  0  0  0
   -1.5000    2.5981    0.0000 C   0  0  0  0  0  0  0  0  0  0  0  0
  1  2  1  0
  2  3  2  0
  3  4  1  0
  4  5  2  0
  4  6  1  0
  6  7  2  0
  7  8  1  0
  8  9  1  0
  8 10  1  0
  7 11  1  0
  8  2  1  0
M  END
>  <ref_url>
https://discuss.postera.ai/c/covid/5

>  <ref_mols>


>  <ref_pdb>
6YB7

>  <submitter_name>
Garrett Morris

>  <submitter_email>
morris@stats.ox.ac.uk

>  <submitter_institution>
University of Oxford

>  <generation_date>
2021-05-24

>  <method>
Substrate modelling

>  <original SMILES>
C

>  <default_ref_mols>
x0107_0A

>  <ID>
A

$$$$
TSAVLQ-SGFRK
RDKit          3D

 84 84  0  0  0  0  0  0  0  0999 V2000
    8.9870   12.6570   25.2930 N   0  0  0  0  0  0  0  0  0  0  0  0
    8.9290   11.2270   25.6840 C   0  0  2  0  0  0  0  0  0  0  0  0
   10.3330   10.6530   25.6730 C   0  0  0  0  0  0  0  0  0  0  0  0
   11.2180   11.2950   25.1160 O   0  0  0  0  0  0  0  0  0  0  0  0
    8.0200   10.4580   24.7180 C   0  0  1  0  0  0  0  0  0  0  0  0
    7.4420    9.1710   25.3050 C   0  0  0  0  0  0  0  0  0  0  0  0
    6.9210   11.2920   24.4430 O   0  0  0  0  0  0  0  0  0  0  0  0
   10.5600    9.4750   26.2550 N   0  0  0  0  0  0  0  0  0  0  0  0
   11.6850    8.6170   25.8600 C   0  0  2  0  0  0  0  0  0  0  0  0
   11.4440    8.0340   24.4560 C   0  0  0  0  0  0  0  0  0  0  0  0
   10.3670    8.2090   23.8820 O   0  0  0  0  0  0  0  0  0  0  0  0
   11.8250    7.4840   26.8840 C   0  0  0  0  0  0  0  0  0  0  0  0
   10.6480    6.7020   26.9060 O   0  0  0  0  0  0  0  0  0  0  0  0
   12.4190    7.2970   23.9240 N   0  0  0  0  0  0  0  0  0  0  0  0
   12.1290    6.2550   22.9460 C   0  0  2  0  0  0  0  0  0  0  0  0
   11.3790    5.0830   23.6180 C   0  0  0  0  0  0  0  0  0  0  0  0
   11.4470    4.9090   24.8420 O   0  0  0  0  0  0  0  0  0  0  0  0
   13.4420    5.8270   22.2890 C   0  0  0  0  0  0  0  0  0  0  0  0
   10.6520    4.2920   22.8250 N   0  0  0  0  0  0  0  0  0  0  0  0
    9.6480    3.3170   23.2950 C   0  0  2  0  0  0  0  0  0  0  0  0
    9.6880    2.0330   22.4510 C   0  0  0  0  0  0  0  0  0  0  0  0
    9.8900    2.0900   21.2370 O   0  0  0  0  0  0  0  0  0  0  0  0
    8.2390    3.9610   23.2870 C   0  0  1  0  0  0  0  0  0  0  0  0
    7.1430    2.9980   23.7560 C   0  0  0  0  0  0  0  0  0  0  0  0
    8.1590    5.2000   24.1970 C   0  0  0  0  0  0  0  0  0  0  0  0
    9.4710    0.8780   23.0950 N   0  0  0  0  0  0  0  0  0  0  0  0
    9.2580   -0.4090   22.4220 C   0  0  2  0  0  0  0  0  0  0  0  0
    7.7810   -0.6840   22.1300 C   0  0  2  0  0  0  0  0  0  0  0  0
    6.8810   -0.3120   22.8820 O   0  0  0  0  0  0  0  0  0  0  0  0
    9.8230   -1.5860   23.2430 C   0  0  0  0  0  0  0  0  0  0  0  0
   11.3010   -1.9440   23.0310 C   0  0  1  0  0  0  0  0  0  0  0  0
   11.5550   -3.2630   23.7550 C   0  0  0  0  0  0  0  0  0  0  0  0
   11.6830   -2.1870   21.5740 C   0  0  0  0  0  0  0  0  0  0  0  0
    7.5570   -1.4570   21.0720 N   0  0  0  0  0  0  0  0  0  0  0  0
    6.2430   -1.8620   20.5770 C   0  0  2  0  0  0  0  0  0  0  0  0
    6.0740   -3.3930   20.6190 C   0  0  0  0  0  0  0  0  0  0  0  0
    5.4140   -4.0000   19.7760 O   0  0  0  0  0  0  0  0  0  0  0  0
    6.0030   -1.2050   19.2140 C   0  0  0  0  0  0  0  0  0  0  0  0
    5.8460    0.3250   19.3370 C   0  0  0  0  0  0  0  0  0  0  0  0
    5.8620    0.9970   17.9750 C   0  0  0  0  0  0  0  0  0  0  0  0
    5.4030    2.2140   17.8180 N   0  0  0  0  0  0  0  0  0  0  0  0
    6.3200    0.4450   16.9950 O   0  0  0  0  0  0  0  0  0  0  0  0
    6.6730   -4.0300   21.6280 N   0  0  0  0  0  0  0  0  0  0  0  0
    6.3840   -5.4010   22.0580 C   0  0  2  0  0  0  0  0  0  0  0  0
    5.0380   -5.4640   22.8020 C   0  0  0  0  0  0  0  0  0  0  0  0
    4.4080   -4.4350   23.0570 O   0  0  0  0  0  0  0  0  0  0  0  0
    7.5480   -5.9120   22.9210 C   0  0  0  0  0  0  0  0  0  0  0  0
    7.8290   -4.9980   23.9660 O   0  0  0  0  0  0  0  0  0  0  0  0
    4.5550   -6.6670   23.1080 N   0  0  0  0  0  0  0  0  0  0  0  0
    3.2550   -6.8850   23.7450 C   0  0  0  0  0  0  0  0  0  0  0  0
    3.0650   -8.3240   24.2280 C   0  0  0  0  0  0  0  0  0  0  0  0
    3.9740   -8.9110   24.8130 O   0  0  0  0  0  0  0  0  0  0  0  0
    1.8820   -8.8870   23.9710 N   0  0  0  0  0  0  0  0  0  0  0  0
    1.4170  -10.2000   24.4400 C   0  0  2  0  0  0  0  0  0  0  0  0
    0.6920  -10.9670   23.3120 C   0  0  0  0  0  0  0  0  0  0  0  0
    0.2560  -10.3560   22.3390 O   0  0  0  0  0  0  0  0  0  0  0  0
    0.5430  -10.0050   25.6920 C   0  0  0  0  0  0  0  0  0  0  0  0
   -0.0980  -11.2890   26.1800 C   0  0  2  0  0  0  0  0  0  0  0  0
    0.6740  -12.2310   26.8850 C   0  0  0  0  0  0  0  0  0  0  0  0
   -1.4360  -11.5840   25.8530 C   0  0  0  0  0  0  0  0  0  0  0  0
    0.1260  -13.4780   27.2310 C   0  0  0  0  0  0  0  0  0  0  0  0
   -1.9800  -12.8370   26.1880 C   0  0  0  0  0  0  0  0  0  0  0  0
   -1.1990  -13.7840   26.8720 C   0  0  0  0  0  0  0  0  0  0  0  0
    0.5570  -12.2950   23.4520 N   0  0  0  0  0  0  0  0  0  0  0  0
    0.0820  -13.2900   22.4620 C   0  0  2  0  0  0  0  0  0  0  0  0
   -1.3140  -13.0640   21.8400 C   0  0  0  0  0  0  0  0  0  0  0  0
   -1.5870  -13.6490   20.7910 O   0  0  0  0  0  0  0  0  0  0  0  0
    0.1100  -14.6640   23.1630 C   0  0  0  0  0  0  0  0  0  0  0  0
    0.0850  -15.8750   22.2080 C   0  0  0  0  0  0  0  0  0  0  0  0
   -1.0510  -16.8670   22.5060 C   0  0  0  0  0  0  0  0  0  0  0  0
   -2.3760  -16.3720   22.0820 N   0  0  0  0  0  0  0  0  0  0  0  0
   -3.0180  -16.6500   20.9590 C   0  0  0  0  0  0  0  0  0  0  0  0
   -2.4950  -17.3640   20.0060 N   0  0  0  0  0  0  0  0  0  0  0  0
   -4.2230  -16.2310   20.7270 N   0  0  0  0  0  0  0  0  0  0  0  0
   -2.1620  -12.2280   22.4570 N   0  0  0  0  0  0  0  0  0  0  0  0
   -3.6410  -12.2990   22.3650 C   0  0  2  0  0  0  0  0  0  0  0  0
   -4.1440  -13.6920   22.7790 C   0  0  1  0  0  0  0  0  0  0  0  0
   -5.1540  -14.1640   22.2210 O   0  0  0  0  0  0  0  0  0  0  0  0
   -4.1620  -11.8570   20.9740 C   0  0  0  0  0  0  0  0  0  0  0  0
   -3.8180  -10.4190   20.5540 C   0  0  0  0  0  0  0  0  0  0  0  0
   -4.2130  -10.1970   19.0830 C   0  0  0  0  0  0  0  0  0  0  0  0
   -3.9360   -8.7570   18.6200 C   0  0  0  0  0  0  0  0  0  0  0  0
   -3.4330   -8.7150   17.2250 N   0  0  0  0  0  0  0  0  0  0  0  0
   -3.4700  -14.3240   23.6190 O   0  0  0  0  0  0  0  0  0  0  0  0
  2  1  1  6
  3  2  1  0
  4  3  1  0
  5  2  1  0
  5  6  1  1
  7  5  1  0
  8  3  1  0
  9  8  1  0
 10  9  1  0
 11 10  1  0
  9 12  1  1
 13 12  1  0
 14 10  1  0
 15 14  1  0
 16 15  1  0
 17 16  1  0
 15 18  1  1
 19 16  1  0
 20 19  1  6
 21 20  1  0
 22 21  1  0
 23 20  1  0
 23 24  1  1
 25 23  1  0
 26 21  1  0
 27 26  1  0
 28 27  1  0
 28 29  1  1
 27 30  1  1
 31 30  1  0
 31 32  1  1
 33 31  1  0
 34 28  1  0
 35 34  1  0
 36 35  1  0
 37 36  1  0
 35 38  1  6
 39 38  1  0
 40 39  1  0
 41 40  1  0
 42 40  1  0
 43 36  1  0
 44 43  1  0
 45 44  1  0
 46 45  1  0
 44 47  1  1
 48 47  1  0
 49 45  1  0
 50 49  1  0
 51 50  1  0
 52 51  1  0
 53 51  1  0
 54 53  1  0
 55 54  1  0
 56 55  1  0
 54 57  1  1
 58 57  1  6
 59 58  1  0
 60 58  1  0
 61 59  1  0
 62 60  1  0
 63 62  1  0
 63 61  1  0
 64 55  1  0
 65 64  1  0
 66 65  1  0
 67 66  1  0
 65 68  1  1
 69 68  1  0
 70 69  1  0
 71 70  1  0
 72 71  1  0
 73 72  1  0
 74 72  1  0
 75 66  1  0
 76 75  1  0
 77 76  1  0
 77 78  1  6
 76 79  1  6
 80 79  1  0
 81 80  1  0
 82 81  1  0
 83 82  1  0
 84 77  1  0
M  END
>  <ref_mols>
x0107_0A

>  <ref_pdb>
6YB7_GM/TSAVLQ-SGFRK.pdb

>  <original SMILES>
CC(C)C[C@@H]([C@@H](N[C@@H](CC[C@@H](N)O)[C@@H](N[C@@H](CO)[C@H](NC[C@@H](N[C@@H](CC1CCCCC1)[C@@H](N[C@@H](CCCNC(N)N)[C@@H](N[C@@H](CCCCN)C(O)O)O)O)O)O)O)O)N[C@H]([C@H](C(C)C)N[C@@H]([C@H](C)N[C@H]([C@H](CO)N[C@H]([C@H]([C@@H](C)O)N)O)O)O)O

>  <ID>
TSAVLQ-SGFRK

$$$$
REPMLQ-SADAQ
     RDKit          3D

 86 86  0  0  0  0  0  0  0  0999 V2000
    7.3090   13.2270   26.2540 N   0  0  0  0  0  0  0  0  0  0  0  0
    7.4100   11.9070   25.5740 C   0  0  2  0  0  0  0  0  0  0  0  0
    8.7960   11.3210   25.8370 C   0  0  2  0  0  0  0  0  0  0  0  0
    9.6890   12.0750   26.1930 O   0  0  0  0  0  0  0  0  0  0  0  0
    7.1710   12.0120   24.0480 C   0  0  0  0  0  0  0  0  0  0  0  0
    5.6910   12.0630   23.6340 C   0  0  0  0  0  0  0  0  0  0  0  0
    5.5540   12.0550   22.1000 C   0  0  0  0  0  0  0  0  0  0  0  0
    4.1450   11.9940   21.6760 N   0  0  0  0  0  0  0  0  0  0  0  0
    3.6890   12.0330   20.4340 C   0  0  0  0  0  0  0  0  0  0  0  0
    4.4560   12.1460   19.3890 N   0  0  0  0  0  0  0  0  0  0  0  0
    2.4050   11.9620   20.2440 N   0  0  0  0  0  0  0  0  0  0  0  0
    8.9660   10.0250   25.6020 N   0  0  0  0  0  0  0  0  0  0  0  0
   10.2510    9.3490   25.3850 C   0  0  2  0  0  0  0  0  0  0  0  0
   10.0500    8.3480   24.2210 C   0  0  0  0  0  0  0  0  0  0  0  0
    8.9150    8.2450   23.7410 O   0  0  0  0  0  0  0  0  0  0  0  0
   10.7610    8.7140   26.6970 C   0  0  0  0  0  0  0  0  0  0  0  0
    9.9150    7.5320   27.2160 C   0  0  0  0  0  0  0  0  0  0  0  0
   10.6950    6.5710   28.1160 C   0  0  0  0  0  0  0  0  0  0  0  0
   11.8850    6.3050   28.0010 O   0  0  0  0  0  0  0  0  0  0  0  0
    9.9400    6.0090   29.0840 O   0  0  0  0  0  0  0  0  0  0  0  0
   11.0860    7.6410   23.7310 N   0  0  0  0  0  0  0  0  0  0  0  0
   10.9170    6.5250   22.8030 C   0  0  2  0  0  0  0  0  0  0  0  0
    9.9270    5.4640   23.3030 C   0  0  0  0  0  0  0  0  0  0  0  0
    9.7430    5.2920   24.5090 O   0  0  0  0  0  0  0  0  0  0  0  0
   12.3160    5.9270   22.6180 C   0  0  0  0  0  0  0  0  0  0  0  0
   13.2120    7.1360   22.8320 C   0  0  0  0  0  0  0  0  0  0  0  0
   12.5020    7.8700   23.9660 C   0  0  0  0  0  0  0  0  0  0  0  0
    9.3230    4.7170   22.3790 N   0  0  0  0  0  0  0  0  0  0  0  0
    8.2940    3.7200   22.6640 C   0  0  2  0  0  0  0  0  0  0  0  0
    8.7830    2.3230   22.2750 C   0  0  0  0  0  0  0  0  0  0  0  0
    9.1870    2.0670   21.1380 O   0  0  0  0  0  0  0  0  0  0  0  0
    6.9660    4.1320   22.0050 C   0  0  0  0  0  0  0  0  0  0  0  0
    5.7990    3.1870   22.3260 C   0  0  0  0  0  0  0  0  0  0  0  0
    4.3020    3.4210   21.3200 S   0  0  0  0  0  0  0  0  0  0  0  0
    3.9360    5.1690   21.6290 C   0  0  0  0  0  0  0  0  0  0  0  0
    8.7260    1.4120   23.2510 N   0  0  0  0  0  0  0  0  0  0  0  0
    8.8970   -0.0270   23.0540 C   0  0  2  0  0  0  0  0  0  0  0  0
    7.6190   -0.5830   22.4190 C   0  0  0  0  0  0  0  0  0  0  0  0
    6.5320   -0.2440   22.8830 O   0  0  0  0  0  0  0  0  0  0  0  0
    9.1310   -0.7270   24.4080 C   0  0  0  0  0  0  0  0  0  0  0  0
   10.2020   -0.1200   25.3310 C   0  0  1  0  0  0  0  0  0  0  0  0
   10.2820   -0.9610   26.6030 C   0  0  0  0  0  0  0  0  0  0  0  0
   11.5760   -0.0700   24.6690 C   0  0  0  0  0  0  0  0  0  0  0  0
    7.7220   -1.4540   21.4100 N   0  0  0  0  0  0  0  0  0  0  0  0
    6.5510   -1.9500   20.6620 C   0  0  2  0  0  0  0  0  0  0  0  0
    6.4670   -3.4820   20.5570 C   0  0  2  0  0  0  0  0  0  0  0  0
    5.7580   -4.0430   19.7180 O   0  0  0  0  0  0  0  0  0  0  0  0
    6.3840   -1.1780   19.3450 C   0  0  0  0  0  0  0  0  0  0  0  0
    5.9530    0.2690   19.6220 C   0  0  0  0  0  0  0  0  0  0  0  0
    5.7760    1.0740   18.3490 C   0  0  0  0  0  0  0  0  0  0  0  0
    5.0420    2.1540   18.4080 N   0  0  0  0  0  0  0  0  0  0  0  0
    6.3030    0.7600   17.2960 O   0  0  0  0  0  0  0  0  0  0  0  0
    7.1320   -4.1670   21.4880 N   0  0  0  0  0  0  0  0  0  0  0  0
    6.7140   -5.4820   21.9770 C   0  0  2  0  0  0  0  0  0  0  0  0
    5.3470   -5.4080   22.6890 C   0  0  0  0  0  0  0  0  0  0  0  0
    4.8060   -4.3250   22.9340 O   0  0  0  0  0  0  0  0  0  0  0  0
    7.8000   -6.0300   22.9170 C   0  0  0  0  0  0  0  0  0  0  0  0
    8.1410   -5.0650   23.8980 O   0  0  0  0  0  0  0  0  0  0  0  0
    4.7750   -6.5670   22.9940 N   0  0  0  0  0  0  0  0  0  0  0  0
    3.5920   -6.7450   23.8310 C   0  0  2  0  0  0  0  0  0  0  0  0
    3.6760   -8.1090   24.5460 C   0  0  0  0  0  0  0  0  0  0  0  0
    4.7430   -8.5000   25.0170 O   0  0  0  0  0  0  0  0  0  0  0  0
    2.3230   -6.5590   22.9790 C   0  0  0  0  0  0  0  0  0  0  0  0
    2.5580   -8.8250   24.6410 N   0  0  0  0  0  0  0  0  0  0  0  0
    2.3620  -10.0010   25.4880 C   0  0  2  0  0  0  0  0  0  0  0  0
    1.3420  -10.9610   24.8340 C   0  0  0  0  0  0  0  0  0  0  0  0
    0.6750  -10.5810   23.8640 O   0  0  0  0  0  0  0  0  0  0  0  0
    1.9180   -9.4950   26.8720 C   0  0  0  0  0  0  0  0  0  0  0  0
    2.0550  -10.5600   27.9530 C   0  0  0  0  0  0  0  0  0  0  0  0
    1.1240  -11.3790   28.0840 O   0  0  0  0  0  0  0  0  0  0  0  0
    3.0970  -10.5820   28.6400 O   0  0  0  0  0  0  0  0  0  0  0  0
    1.2260  -12.1910   25.3350 N   0  0  0  0  0  0  0  0  0  0  0  0
    0.2730  -13.2030   24.8640 C   0  0  2  0  0  0  0  0  0  0  0  0
   -0.3430  -14.0730   25.9830 C   0  0  0  0  0  0  0  0  0  0  0  0
   -1.1950  -14.9070   25.6760 O   0  0  0  0  0  0  0  0  0  0  0  0
    0.9730  -14.0590   23.7970 C   0  0  0  0  0  0  0  0  0  0  0  0
    0.0460  -13.8430   27.2470 N   0  0  0  0  0  0  0  0  0  0  0  0
   -0.1110  -14.7490   28.3990 C   0  0  2  0  0  0  0  0  0  0  0  0
    0.4710  -16.1510   28.1360 C   0  0  1  0  0  0  0  0  0  0  0  0
    1.6170  -16.1760   27.6290 O   0  0  0  0  0  0  0  0  0  0  0  0
   -1.5600  -14.7210   28.9310 C   0  0  0  0  0  0  0  0  0  0  0  0
   -2.0440  -13.3230   29.3580 C   0  0  0  0  0  0  0  0  0  0  0  0
   -1.3090  -12.7680   30.5820 C   0  0  0  0  0  0  0  0  0  0  0  0
   -0.1900  -12.0940   30.4250 N   0  0  0  0  0  0  0  0  0  0  0  0
   -1.7440  -12.9120   31.7150 O   0  0  0  0  0  0  0  0  0  0  0  0
   -0.1780  -17.1530   28.5050 O   0  0  0  0  0  0  0  0  0  0  0  0
  2  1  1  1
  3  2  1  0
  3  4  1  6
  5  2  1  0
  6  5  1  0
  7  6  1  0
  8  7  1  0
  9  8  1  0
 10  9  1  0
 11  9  1  0
 12  3  1  0
 13 12  1  0
 14 13  1  0
 15 14  1  0
 13 16  1  1
 17 16  1  0
 18 17  1  0
 19 18  1  0
 20 18  1  0
 21 14  1  0
 22 21  1  0
 22 23  1  1
 24 23  1  0
 25 22  1  0
 26 25  1  0
 27 26  1  0
 27 21  1  0
 28 23  1  0
 29 28  1  0
 30 29  1  0
 31 30  1  0
 29 32  1  6
 33 32  1  0
 34 33  1  0
 35 34  1  0
 36 30  1  0
 37 36  1  0
 38 37  1  0
 39 38  1  0
 37 40  1  1
 41 40  1  0
 41 42  1  1
 43 41  1  0
 44 38  1  0
 45 44  1  0
 46 45  1  0
 46 47  1  1
 45 48  1  6
 49 48  1  0
 50 49  1  0
 51 50  1  0
 52 50  1  0
 53 46  1  0
 54 53  1  0
 55 54  1  0
 56 55  1  0
 54 57  1  1
 58 57  1  0
 59 55  1  0
 60 59  1  0
 61 60  1  0
 62 61  1  0
 60 63  1  6
 64 61  1  0
 65 64  1  0
 66 65  1  0
 67 66  1  0
 65 68  1  1
 69 68  1  0
 70 69  1  0
 71 69  1  0
 72 66  1  0
 73 72  1  0
 74 73  1  0
 75 74  1  0
 73 76  1  6
 77 74  1  0
 78 77  1  0
 79 78  1  0
 79 80  1  1
 78 81  1  6
 82 81  1  0
 83 82  1  0
 84 83  1  0
 85 83  1  0
 86 79  1  0
M  END
>  <ref_mols>
x0107_0A

>  <ref_pdb>
6YB7_GM/REPMLQ-SADAQ.pdb

>  <original SMILES>
CC(C)C[C@@H]([C@@H](N[C@@H](CC[C@@H](N)O)[C@@H](N[C@@H](CO)[C@H](N[C@@H](C)[C@H](N[C@@H](CC(O)O)[C@H](N[C@@H](C)[C@@H](N[C@@H](CC[C@@H](N)O)C(O)O)O)O)O)O)O)O)N[C@H]([C@H](CCSC)N[C@H]([C@H](CCC1)N1[C@@H]([C@H](CCC(O)O)N[C@H]([C@H](CCCNC(N)N)N)O)O)O)O

>  <ID>
REPMLQ-SADAQ

$$$$
FYPKLQ-SSQAW
RDKit          3D

 97101  0  0  0  0  0  0  0  0999 V2000
    9.1060   11.8040   22.9590 N   0  0  0  0  0  0  0  0  0  0  0  0
    9.3470   10.5210   23.6550 C   0  0  2  0  0  0  0  0  0  0  0  0
   10.8490   10.2650   23.7650 C   0  0  0  0  0  0  0  0  0  0  0  0
   11.6290   11.0400   23.2230 O   0  0  0  0  0  0  0  0  0  0  0  0
    8.6420    9.3690   22.9190 C   0  0  0  0  0  0  0  0  0  0  0  0
    7.1650    9.6070   22.6930 C   0  0  0  0  0  0  0  0  0  0  0  0
    6.7000   10.0080   21.4250 C   0  0  0  0  0  0  0  0  0  0  0  0
    6.2580    9.4440   23.7560 C   0  0  0  0  0  0  0  0  0  0  0  0
    5.3310   10.2680   21.2300 C   0  0  0  0  0  0  0  0  0  0  0  0
    4.8900    9.7060   23.5590 C   0  0  0  0  0  0  0  0  0  0  0  0
    4.4280   10.1210   22.2980 C   0  0  0  0  0  0  0  0  0  0  0  0
   11.2510    9.1960   24.4430 N   0  0  0  0  0  0  0  0  0  0  0  0
   12.4610    8.4230   24.1350 C   0  0  2  0  0  0  0  0  0  0  0  0
   12.2330    7.5530   22.8730 C   0  0  0  0  0  0  0  0  0  0  0  0
   11.1410    7.5970   22.3050 O   0  0  0  0  0  0  0  0  0  0  0  0
   12.7600    7.5650   25.3810 C   0  0  0  0  0  0  0  0  0  0  0  0
   11.5570    7.0280   26.1500 C   0  0  0  0  0  0  0  0  0  0  0  0
   10.4910    6.3980   25.4720 C   0  0  0  0  0  0  0  0  0  0  0  0
   11.5030    7.1710   27.5530 C   0  0  0  0  0  0  0  0  0  0  0  0
    9.3820    5.9200   26.1940 C   0  0  0  0  0  0  0  0  0  0  0  0
   10.3990    6.6670   28.2720 C   0  0  0  0  0  0  0  0  0  0  0  0
    9.3430    6.0260   27.5960 C   0  0  0  0  0  0  0  0  0  0  0  0
    8.3630    5.4990   28.2370 O   0  0  0  0  0  0  0  0  0  0  0  0
   13.1950    6.7270   22.4260 N   0  0  0  0  0  0  0  0  0  0  0  0
   12.8940    5.5450   21.6230 C   0  0  2  0  0  0  0  0  0  0  0  0
   12.0710    4.5360   22.4390 C   0  0  0  0  0  0  0  0  0  0  0  0
   12.5910    3.7720   23.2530 O   0  0  0  0  0  0  0  0  0  0  0  0
   14.2490    5.0070   21.1460 C   0  0  0  0  0  0  0  0  0  0  0  0
   15.1070    6.2660   21.1520 C   0  0  0  0  0  0  0  0  0  0  0  0
   14.6250    6.9640   22.4280 C   0  0  0  0  0  0  0  0  0  0  0  0
   10.7590    4.5590   22.2120 N   0  0  0  0  0  0  0  0  0  0  0  0
    9.7360    3.7240   22.8460 C   0  0  2  0  0  0  0  0  0  0  0  0
    9.6240    2.3620   22.1500 C   0  0  2  0  0  0  0  0  0  0  0  0
    9.8620    2.2360   20.9500 O   0  0  0  0  0  0  0  0  0  0  0  0
    8.4160    4.5230   22.8250 C   0  0  0  0  0  0  0  0  0  0  0  0
    7.2340    3.7490   23.4160 C   0  0  0  0  0  0  0  0  0  0  0  0
    5.9100    4.5180   23.3220 C   0  0  0  0  0  0  0  0  0  0  0  0
    4.7140    3.5820   23.5510 C   0  0  0  0  0  0  0  0  0  0  0  0
    4.6310    2.5320   22.5030 N   0  0  0  0  0  0  0  0  0  0  0  0
    9.1980    1.3460   22.8980 N   0  0  0  0  0  0  0  0  0  0  0  0
    8.9610   -0.0160   22.4150 C   0  0  2  0  0  0  0  0  0  0  0  0
    7.4920   -0.2680   22.0400 C   0  0  0  0  0  0  0  0  0  0  0  0
    6.5640    0.4020   22.5050 O   0  0  0  0  0  0  0  0  0  0  0  0
    9.4460   -1.0030   23.4880 C   0  0  0  0  0  0  0  0  0  0  0  0
   10.9550   -0.8940   23.7670 C   0  0  1  0  0  0  0  0  0  0  0  0
   11.2630   -1.5370   25.1100 C   0  0  0  0  0  0  0  0  0  0  0  0
   11.7760   -1.5850   22.6760 C   0  0  0  0  0  0  0  0  0  0  0  0
    7.2850   -1.2820   21.2040 N   0  0  0  0  0  0  0  0  0  0  0  0
    5.9920   -1.6550   20.6180 C   0  0  2  0  0  0  0  0  0  0  0  0
    5.7490   -3.1780   20.6500 C   0  0  0  0  0  0  0  0  0  0  0  0
    5.0610   -3.7410   19.7980 O   0  0  0  0  0  0  0  0  0  0  0  0
    5.8450   -1.0190   19.2280 C   0  0  0  0  0  0  0  0  0  0  0  0
    5.7760    0.5150   19.3040 C   0  0  0  0  0  0  0  0  0  0  0  0
    5.5030    1.1130   17.9370 C   0  0  0  0  0  0  0  0  0  0  0  0
    4.6560    2.1060   17.8390 N   0  0  0  0  0  0  0  0  0  0  0  0
    6.0570    0.7010   16.9370 O   0  0  0  0  0  0  0  0  0  0  0  0
    6.3130   -3.8510   21.6530 N   0  0  0  0  0  0  0  0  0  0  0  0
    6.0810   -5.2580   21.9970 C   0  0  2  0  0  0  0  0  0  0  0  0
    4.7310   -5.4650   22.7150 C   0  0  0  0  0  0  0  0  0  0  0  0
    3.9430   -4.5280   22.8830 O   0  0  0  0  0  0  0  0  0  0  0  0
    7.2760   -5.7480   22.8330 C   0  0  0  0  0  0  0  0  0  0  0  0
    7.5820   -4.8140   23.8550 O   0  0  0  0  0  0  0  0  0  0  0  0
    4.4420   -6.7130   23.0900 N   0  0  0  0  0  0  0  0  0  0  0  0
    3.2370   -7.1750   23.7980 C   0  0  2  0  0  0  0  0  0  0  0  0
    3.6000   -8.4160   24.6470 C   0  0  0  0  0  0  0  0  0  0  0  0
    4.7770   -8.6390   24.9320 O   0  0  0  0  0  0  0  0  0  0  0  0
    2.1500   -7.4510   22.7410 C   0  0  0  0  0  0  0  0  0  0  0  0
    0.9210   -7.8510   23.3110 O   0  0  0  0  0  0  0  0  0  0  0  0
    2.6320   -9.2610   25.0120 N   0  0  0  0  0  0  0  0  0  0  0  0
    2.8680  -10.6340   25.4770 C   0  0  2  0  0  0  0  0  0  0  0  0
    1.9490  -11.6360   24.7580 C   0  0  0  0  0  0  0  0  0  0  0  0
    0.9410  -11.2460   24.1700 O   0  0  0  0  0  0  0  0  0  0  0  0
    2.8270  -10.7390   27.0110 C   0  0  0  0  0  0  0  0  0  0  0  0
    1.4560  -10.5340   27.6760 C   0  0  0  0  0  0  0  0  0  0  0  0
    1.4640  -10.9510   29.1490 C   0  0  0  0  0  0  0  0  0  0  0  0
    0.3440  -10.8590   29.8320 N   0  0  0  0  0  0  0  0  0  0  0  0
    2.4620  -11.3740   29.7190 O   0  0  0  0  0  0  0  0  0  0  0  0
    2.3080  -12.9220   24.7750 N   0  0  0  0  0  0  0  0  0  0  0  0
    1.4970  -13.9940   24.1770 C   0  0  2  0  0  0  0  0  0  0  0  0
    0.2140  -14.3030   24.9810 C   0  0  2  0  0  0  0  0  0  0  0  0
   -0.7150  -14.8950   24.4330 O   0  0  0  0  0  0  0  0  0  0  0  0
    2.3860  -15.2300   24.0090 C   0  0  0  0  0  0  0  0  0  0  0  0
    0.1790  -13.8170   26.2300 N   0  0  0  0  0  0  0  0  0  0  0  0
   -0.8190  -14.0630   27.2810 C   0  0  2  0  0  0  0  0  0  0  0  0
   -0.8920  -15.5290   27.7510 C   0  0  1  0  0  0  0  0  0  0  0  0
    0.1930  -16.1520   27.7570 O   0  0  0  0  0  0  0  0  0  0  0  0
   -2.1570  -13.3890   26.9200 C   0  0  0  0  0  0  0  0  0  0  0  0
   -2.8060  -12.6990   28.0770 C   0  0  1  0  0  0  0  0  0  0  0  0
   -3.5270  -13.3090   29.0410 C   0  0  0  0  0  0  0  0  0  0  0  0
   -2.7270  -11.2940   28.4660 C   0  0  0  0  0  0  0  0  0  0  0  0
   -3.4220  -11.1280   29.7020 C   0  0  0  0  0  0  0  0  0  0  0  0
   -2.1270  -10.1450   27.9050 C   0  0  0  0  0  0  0  0  0  0  0  0
   -3.9140  -12.3850   29.9920 N   0  0  0  0  0  0  0  0  0  0  0  0
   -3.4950   -9.8900   30.3600 C   0  0  0  0  0  0  0  0  0  0  0  0
   -2.1890   -8.8990   28.5600 C   0  0  0  0  0  0  0  0  0  0  0  0
   -2.8690   -8.7700   29.7860 C   0  0  0  0  0  0  0  0  0  0  0  0
   -1.9830  -15.9670   28.1800 O   0  0  0  0  0  0  0  0  0  0  0  0
  2  1  1  6
  3  2  1  0
  4  3  1  0
  5  2  1  0
  6  5  1  0
  7  6  1  0
  8  6  1  0
  9  7  1  0
 10  8  1  0
 11  9  1  0
 11 10  1  0
 12  3  1  0
 13 12  1  0
 14 13  1  0
 15 14  1  0
 13 16  1  1
 17 16  1  0
 18 17  1  0
 19 17  1  0
 20 18  1  0
 21 19  1  0
 22 20  1  0
 22 21  1  0
 23 22  1  0
 24 14  1  0
 25 24  1  0
 25 26  1  1
 27 26  1  0
 28 25  1  0
 29 28  1  0
 30 29  1  0
 30 24  1  0
 31 26  1  0
 32 31  1  0
 33 32  1  0
 33 34  1  6
 32 35  1  6
 36 35  1  0
 37 36  1  0
 38 37  1  0
 39 38  1  0
 40 33  1  0
 41 40  1  0
 42 41  1  0
 43 42  1  0
 41 44  1  1
 45 44  1  0
 45 46  1  1
 47 45  1  0
 48 42  1  0
 49 48  1  0
 50 49  1  0
 51 50  1  0
 49 52  1  6
 53 52  1  0
 54 53  1  0
 55 54  1  0
 56 54  1  0
 57 50  1  0
 58 57  1  0
 59 58  1  0
 60 59  1  0
 58 61  1  1
 62 61  1  0
 63 59  1  0
 64 63  1  0
 65 64  1  0
 66 65  1  0
 64 67  1  6
 68 67  1  0
 69 65  1  0
 70 69  1  0
 71 70  1  0
 72 71  1  0
 70 73  1  1
 74 73  1  0
 75 74  1  0
 76 75  1  0
 77 75  1  0
 78 71  1  0
 79 78  1  0
 80 79  1  0
 80 81  1  6
 79 82  1  1
 83 80  1  0
 84 83  1  0
 85 84  1  0
 85 86  1  1
 84 87  1  6
 88 87  1  1
 89 88  1  0
 90 88  1  0
 91 90  1  0
 92 90  1  0
 93 91  1  0
 93 89  1  0
 94 91  1  0
 95 92  1  0
 96 95  1  0
 96 94  1  0
 97 85  1  0
M  END
>  <ref_mols>
x0107_0A

>  <ref_pdb>
6YB7_GM/FYPKLQ-SSQAW.pdb

>  <original SMILES>
CC(C)C[C@@H]([C@@H](N[C@@H](CC[C@@H](N)O)[C@@H](N[C@@H](CO)[C@H](N[C@@H](CO)[C@@H](N[C@@H](CC[C@@H](N)O)[C@H](N[C@@H](C)[C@@H](N[C@@H](C[C@@H]1[C@H](CCCC2)[C@H]2NC1)C(O)O)O)O)O)O)O)O)N[C@H]([C@H](CCCCN)N[C@@H]([C@H](CCC1)N1[C@H]([C@H](C[C@H](CC1)CC[C@@H]1O)N[C@H]([C@H](CC1CCCCC1)N)O)O)O)O

>  <ID>
FYPKLQ-SSQAW

$$$$
PHTVLQ-AVGAC
     RDKit          3D

 76 77  0  0  0  0  0  0  0  0999 V2000
    6.5390   10.5000   22.3560 N   0  0  0  0  0  0  0  0  0  0  0  0
    6.9370    9.1980   22.9360 C   0  0  2  0  0  0  0  0  0  0  0  0
    8.2580    9.2700   23.7310 C   0  0  0  0  0  0  0  0  0  0  0  0
    8.8550   10.3380   23.8250 O   0  0  0  0  0  0  0  0  0  0  0  0
    6.9790    8.2240   21.7400 C   0  0  0  0  0  0  0  0  0  0  0  0
    6.1100    8.8800   20.6520 C   0  0  0  0  0  0  0  0  0  0  0  0
    5.5270   10.1000   21.3610 C   0  0  0  0  0  0  0  0  0  0  0  0
    8.7190    8.1430   24.2800 N   0  0  0  0  0  0  0  0  0  0  0  0
   10.1480    7.8800   24.5590 C   0  0  2  0  0  0  0  0  0  0  0  0
   10.7620    7.1590   23.3420 C   0  0  2  0  0  0  0  0  0  0  0  0
   10.1680    7.1930   22.2680 O   0  0  0  0  0  0  0  0  0  0  0  0
   10.2570    7.0280   25.8390 C   0  0  0  0  0  0  0  0  0  0  0  0
    9.6970    7.6250   27.1040 C   0  0  2  0  0  0  0  0  0  0  0  0
    9.4430    8.9430   27.3520 C   0  0  0  0  0  0  0  0  0  0  0  0
    9.4120    6.8860   28.2530 N   0  0  0  0  0  0  0  0  0  0  0  0
    8.9940    7.7730   29.1680 C   0  0  0  0  0  0  0  0  0  0  0  0
    8.9980    9.0150   28.6530 N   0  0  0  0  0  0  0  0  0  0  0  0
   11.8840    6.4500   23.4880 N   0  0  0  0  0  0  0  0  0  0  0  0
   12.1900    5.3100   22.6040 C   0  0  2  0  0  0  0  0  0  0  0  0
   11.4140    4.0600   23.0350 C   0  0  0  0  0  0  0  0  0  0  0  0
   11.8970    3.2450   23.8120 O   0  0  0  0  0  0  0  0  0  0  0  0
   13.6920    5.0630   22.4440 C   0  0  1  0  0  0  0  0  0  0  0  0
   14.2810    6.1770   21.5860 C   0  0  0  0  0  0  0  0  0  0  0  0
   14.3720    5.0560   23.6790 O   0  0  0  0  0  0  0  0  0  0  0  0
   10.1690    3.9320   22.5730 N   0  0  0  0  0  0  0  0  0  0  0  0
    9.1670    2.9890   23.1020 C   0  0  2  0  0  0  0  0  0  0  0  0
    9.2420    1.6200   22.4200 C   0  0  2  0  0  0  0  0  0  0  0  0
    9.3140    1.5410   21.1890 O   0  0  0  0  0  0  0  0  0  0  0  0
    7.7430    3.5800   22.9950 C   0  0  1  0  0  0  0  0  0  0  0  0
    6.6770    2.6690   23.6160 C   0  0  0  0  0  0  0  0  0  0  0  0
    7.6360    4.9320   23.7140 C   0  0  0  0  0  0  0  0  0  0  0  0
    9.1430    0.5430   23.2130 N   0  0  0  0  0  0  0  0  0  0  0  0
    8.8270   -0.7910   22.6920 C   0  0  2  0  0  0  0  0  0  0  0  0
    7.3450   -0.9160   22.3350 C   0  0  2  0  0  0  0  0  0  0  0  0
    6.4610   -0.8070   23.1840 O   0  0  0  0  0  0  0  0  0  0  0  0
    9.1610   -1.9200   23.6850 C   0  0  0  0  0  0  0  0  0  0  0  0
   10.6230   -2.3820   23.7810 C   0  0  1  0  0  0  0  0  0  0  0  0
   10.6320   -3.7270   24.5110 C   0  0  0  0  0  0  0  0  0  0  0  0
   11.2830   -2.5990   22.4210 C   0  0  0  0  0  0  0  0  0  0  0  0
    7.0900   -1.2960   21.0910 N   0  0  0  0  0  0  0  0  0  0  0  0
    5.7700   -1.6390   20.5690 C   0  0  2  0  0  0  0  0  0  0  0  0
    5.5330   -3.1640   20.6220 C   0  0  0  0  0  0  0  0  0  0  0  0
    4.9670   -3.7590   19.7040 O   0  0  0  0  0  0  0  0  0  0  0  0
    5.6060   -0.9840   19.1930 C   0  0  0  0  0  0  0  0  0  0  0  0
    5.5560    0.5540   19.3130 C   0  0  0  0  0  0  0  0  0  0  0  0
    5.5900    1.2260   17.9520 C   0  0  0  0  0  0  0  0  0  0  0  0
    4.9680    2.3650   17.7650 N   0  0  0  0  0  0  0  0  0  0  0  0
    6.2030    0.7500   17.0150 O   0  0  0  0  0  0  0  0  0  0  0  0
    5.9700   -3.8130   21.7030 N   0  0  0  0  0  0  0  0  0  0  0  0
    5.8040   -5.2460   21.9750 C   0  0  2  0  0  0  0  0  0  0  0  0
    4.4980   -5.5360   22.7530 C   0  0  0  0  0  0  0  0  0  0  0  0
    3.7190   -4.6190   23.0260 O   0  0  0  0  0  0  0  0  0  0  0  0
    7.0660   -5.7260   22.7090 C   0  0  0  0  0  0  0  0  0  0  0  0
    4.2510   -6.7980   23.1090 N   0  0  0  0  0  0  0  0  0  0  0  0
    3.1030   -7.2560   23.9190 C   0  0  2  0  0  0  0  0  0  0  0  0
    3.5560   -8.3480   24.9090 C   0  0  1  0  0  0  0  0  0  0  0  0
    4.7110   -8.7640   24.8680 O   0  0  0  0  0  0  0  0  0  0  0  0
    1.9250   -7.6400   22.9920 C   0  0  1  0  0  0  0  0  0  0  0  0
    2.1620   -8.9220   22.1910 C   0  0  0  0  0  0  0  0  0  0  0  0
    0.5800   -7.7520   23.7200 C   0  0  0  0  0  0  0  0  0  0  0  0
    2.6990   -8.7620   25.8470 N   0  0  0  0  0  0  0  0  0  0  0  0
    3.0430   -9.6850   26.9360 C   0  0  0  0  0  0  0  0  0  0  0  0
    3.0160  -11.1710   26.5500 C   0  0  0  0  0  0  0  0  0  0  0  0
    3.7810  -11.6370   25.7040 O   0  0  0  0  0  0  0  0  0  0  0  0
    2.1200  -11.9160   27.1890 N   0  0  0  0  0  0  0  0  0  0  0  0
    1.8790  -13.3480   27.0210 C   0  0  2  0  0  0  0  0  0  0  0  0
    0.4140  -13.6430   27.4120 C   0  0  0  0  0  0  0  0  0  0  0  0
    0.1440  -14.3920   28.3510 O   0  0  0  0  0  0  0  0  0  0  0  0
    2.9130  -14.1310   27.8470 C   0  0  0  0  0  0  0  0  0  0  0  0
   -0.5170  -13.0070   26.6870 N   0  0  0  0  0  0  0  0  0  0  0  0
   -1.6630  -12.2720   27.2600 C   0  0  2  0  0  0  0  0  0  0  0  0
   -1.2040  -11.0380   28.0660 C   0  0  0  0  0  0  0  0  0  0  0  0
   -0.1880  -10.4410   27.6370 O   0  0  0  0  0  0  0  0  0  0  0  0
   -2.6490  -13.2010   27.9940 C   0  0  0  0  0  0  0  0  0  0  0  0
   -3.1590  -14.5770   26.9250 S   0  0  0  0  0  0  0  0  0  0  0  0
   -1.8750  -10.6950   29.0610 O   0  0  0  0  0  0  0  0  0  0  0  0
  2  1  1  0
  2  3  1  6
  4  3  1  0
  5  2  1  0
  6  5  1  0
  7  6  1  0
  7  1  1  0
  8  3  1  0
  9  8  1  0
 10  9  1  0
 10 11  1  1
  9 12  1  1
 13 12  1  1
 14 13  1  0
 15 13  1  0
 16 15  1  0
 17 16  1  0
 17 14  1  0
 18 10  1  0
 19 18  1  1
 20 19  1  0
 21 20  1  0
 22 19  1  0
 22 23  1  6
 24 22  1  0
 25 20  1  0
 26 25  1  6
 27 26  1  0
 27 28  1  6
 29 26  1  0
 29 30  1  1
 31 29  1  0
 32 27  1  0
 33 32  1  0
 34 33  1  0
 34 35  1  1
 33 36  1  1
 37 36  1  0
 37 38  1  1
 39 37  1  0
 40 34  1  0
 41 40  1  0
 42 41  1  0
 43 42  1  0
 41 44  1  6
 45 44  1  0
 46 45  1  0
 47 46  1  0
 48 46  1  0
 49 42  1  0
 50 49  1  0
 51 50  1  0
 52 51  1  0
 50 53  1  1
 54 51  1  0
 55 54  1  6
 56 55  1  0
 56 57  1  1
 58 55  1  0
 58 59  1  1
 60 58  1  0
 61 56  1  0
 62 61  1  0
 63 62  1  0
 64 63  1  0
 65 63  1  0
 66 65  1  0
 67 66  1  0
 68 67  1  0
 66 69  1  1
 70 67  1  0
 71 70  1  0
 72 71  1  0
 73 72  1  0
 71 74  1  1
 75 74  1  0
 76 72  1  0
M  END
>  <ref_mols>
x0107_0A

>  <ref_pdb>
6YB7_GM/PHTVLQ-AVGAC.pdb

>  <original SMILES>
CC(C)C[C@@H]([C@@H](N[C@@H](CC[C@@H](N)O)[C@H](N[C@@H](C)[C@H](N[C@@H](C(C)C)[C@H](NC[C@H](N[C@@H](C)[C@H](N[C@@H](CS)C(O)O)O)O)O)O)O)O)N[C@H]([C@H](C(C)C)N[C@@H]([C@H]([C@@H](C)O)N[C@H]([C@H](C[C@H]1NCNC1)N[C@H]([C@H]1NCCC1)O)O)O)O

>  <ID>
PHTVLQ-AVGAC

$$$$
NVATLQ-AENVT
     RDKit          3D

 81 80  0  0  0  0  0  0  0  0999 V2000
    8.9450   13.4120   25.5020 N   0  0  0  0  0  0  0  0  0  0  0  0
    8.9380   12.1700   24.6920 C   0  0  2  0  0  0  0  0  0  0  0  0
   10.2450   11.4180   24.8980 C   0  0  0  0  0  0  0  0  0  0  0  0
   11.2260   12.0480   25.2720 O   0  0  0  0  0  0  0  0  0  0  0  0
    8.7040   12.4670   23.1940 C   0  0  0  0  0  0  0  0  0  0  0  0
    7.3990   13.2140   22.9460 C   0  0  0  0  0  0  0  0  0  0  0  0
    7.0450   13.4800   21.7090 N   0  0  0  0  0  0  0  0  0  0  0  0
    6.7170   13.5870   23.8860 O   0  0  0  0  0  0  0  0  0  0  0  0
   10.2580   10.1090   24.6440 N   0  0  0  0  0  0  0  0  0  0  0  0
   11.4290    9.2080   24.7040 C   0  0  2  0  0  0  0  0  0  0  0  0
   11.2910    8.1430   23.6090 C   0  0  0  0  0  0  0  0  0  0  0  0
   10.2140    8.0150   23.0250 O   0  0  0  0  0  0  0  0  0  0  0  0
   11.6070    8.5380   26.0890 C   0  0  1  0  0  0  0  0  0  0  0  0
   12.0940    9.5330   27.1460 C   0  0  0  0  0  0  0  0  0  0  0  0
   10.3420    7.8440   26.6050 C   0  0  0  0  0  0  0  0  0  0  0  0
   12.3560    7.3980   23.3120 N   0  0  0  0  0  0  0  0  0  0  0  0
   12.2590    6.2110   22.4680 C   0  0  2  0  0  0  0  0  0  0  0  0
   11.5910    5.0600   23.2440 C   0  0  0  0  0  0  0  0  0  0  0  0
   11.8010    4.9300   24.4520 O   0  0  0  0  0  0  0  0  0  0  0  0
   13.6540    5.8460   21.9530 C   0  0  0  0  0  0  0  0  0  0  0  0
   10.7920    4.2280   22.5690 N   0  0  0  0  0  0  0  0  0  0  0  0
    9.9130    3.2220   23.2000 C   0  0  2  0  0  0  0  0  0  0  0  0
    9.7370    1.9420   22.3780 C   0  0  0  0  0  0  0  0  0  0  0  0
    9.8670    1.9430   21.1480 O   0  0  0  0  0  0  0  0  0  0  0  0
    8.5190    3.7980   23.5140 C   0  0  1  0  0  0  0  0  0  0  0  0
    8.5230    4.8660   24.6040 C   0  0  0  0  0  0  0  0  0  0  0  0
    7.9650    4.3990   22.3690 O   0  0  0  0  0  0  0  0  0  0  0  0
    9.4260    0.8400   23.0750 N   0  0  0  0  0  0  0  0  0  0  0  0
    9.0410   -0.4260   22.4530 C   0  0  2  0  0  0  0  0  0  0  0  0
    7.5570   -0.4580   22.0820 C   0  0  2  0  0  0  0  0  0  0  0  0
    6.6740   -0.3450   22.9300 O   0  0  0  0  0  0  0  0  0  0  0  0
    9.3280   -1.6270   23.3740 C   0  0  0  0  0  0  0  0  0  0  0  0
   10.7820   -2.1030   23.5010 C   0  0  1  0  0  0  0  0  0  0  0  0
   10.7660   -3.4380   24.2510 C   0  0  0  0  0  0  0  0  0  0  0  0
   11.4530   -2.3520   22.1510 C   0  0  0  0  0  0  0  0  0  0  0  0
    7.2960   -0.8040   20.8280 N   0  0  0  0  0  0  0  0  0  0  0  0
    5.9920   -1.2320   20.3210 C   0  0  2  0  0  0  0  0  0  0  0  0
    5.8160   -2.7650   20.4430 C   0  0  0  0  0  0  0  0  0  0  0  0
    5.2030   -3.4160   19.5960 O   0  0  0  0  0  0  0  0  0  0  0  0
    5.8300   -0.6830   18.9020 C   0  0  0  0  0  0  0  0  0  0  0  0
    5.7230    0.8540   18.9010 C   0  0  0  0  0  0  0  0  0  0  0  0
    5.8050    1.4090   17.4910 C   0  0  0  0  0  0  0  0  0  0  0  0
    5.2180    2.5400   17.1970 N   0  0  0  0  0  0  0  0  0  0  0  0
    6.4290    0.8470   16.6140 O   0  0  0  0  0  0  0  0  0  0  0  0
    6.3840   -3.3550   21.5000 N   0  0  0  0  0  0  0  0  0  0  0  0
    6.3250   -4.7830   21.8100 C   0  0  2  0  0  0  0  0  0  0  0  0
    5.0060   -5.1620   22.5130 C   0  0  0  0  0  0  0  0  0  0  0  0
    4.0760   -4.3520   22.5950 O   0  0  0  0  0  0  0  0  0  0  0  0
    7.5820   -5.1490   22.6110 C   0  0  0  0  0  0  0  0  0  0  0  0
    4.9050   -6.4010   22.9890 N   0  0  0  0  0  0  0  0  0  0  0  0
    3.6440   -7.0550   23.3310 C   0  0  2  0  0  0  0  0  0  0  0  0
    3.7900   -7.9910   24.5440 C   0  0  0  0  0  0  0  0  0  0  0  0
    4.8950   -8.3000   24.9980 O   0  0  0  0  0  0  0  0  0  0  0  0
    3.1980   -7.8470   22.0920 C   0  0  0  0  0  0  0  0  0  0  0  0
    1.6900   -8.1010   21.9740 C   0  0  0  0  0  0  0  0  0  0  0  0
    1.4800   -9.4330   21.2610 C   0  0  2  0  0  0  0  0  0  0  0  0
    1.3010  -10.4390   21.9890 O   0  0  0  0  0  0  0  0  0  0  0  0
    1.5840   -9.4560   20.0120 O   0  0  0  0  0  0  0  0  0  0  0  0
    2.6600   -8.4870   25.0420 N   0  0  0  0  0  0  0  0  0  0  0  0
    2.5710   -9.5240   26.0600 C   0  0  2  0  0  0  0  0  0  0  0  0
    1.3380  -10.3880   25.7560 C   0  0  0  0  0  0  0  0  0  0  0  0
    0.2150   -9.9240   25.9560 O   0  0  0  0  0  0  0  0  0  0  0  0
    2.5160   -8.8470   27.4430 C   0  0  0  0  0  0  0  0  0  0  0  0
    2.2670   -9.8240   28.5800 C   0  0  0  0  0  0  0  0  0  0  0  0
    1.0490  -10.2870   28.7410 N   0  0  0  0  0  0  0  0  0  0  0  0
    3.1630  -10.1730   29.3290 O   0  0  0  0  0  0  0  0  0  0  0  0
    1.5430  -11.6350   25.3240 N   0  0  0  0  0  0  0  0  0  0  0  0
    0.4420  -12.5550   24.9740 C   0  0  2  0  0  0  0  0  0  0  0  0
   -0.2240  -13.1780   26.2110 C   0  0  2  0  0  0  0  0  0  0  0  0
   -1.3910  -13.5560   26.1580 O   0  0  0  0  0  0  0  0  0  0  0  0
    0.9250  -13.6060   23.9530 C   0  0  1  0  0  0  0  0  0  0  0  0
    1.8770  -14.6490   24.5510 C   0  0  0  0  0  0  0  0  0  0  0  0
   -0.2330  -14.3280   23.2600 C   0  0  0  0  0  0  0  0  0  0  0  0
    0.4810  -13.1610   27.3510 N   0  0  0  0  0  0  0  0  0  0  0  0
    0.2170  -13.9650   28.5670 C   0  0  2  0  0  0  0  0  0  0  0  0
    0.4840  -15.4510   28.3430 C   0  0  0  0  0  0  0  0  0  0  0  0
    1.6550  -15.7240   28.0030 O   0  0  0  0  0  0  0  0  0  0  0  0
   -1.1320  -13.6550   29.2360 C   0  0  1  0  0  0  0  0  0  0  0  0
   -1.1190  -13.9690   30.7320 C   0  0  0  0  0  0  0  0  0  0  0  0
   -1.4180  -12.2830   29.0920 O   0  0  0  0  0  0  0  0  0  0  0  0
   -0.4300  -16.2770   28.5500 O   0  0  0  0  0  0  0  0  0  0  0  0
  2  1  1  1
  3  2  1  0
  4  3  1  0
  5  2  1  0
  6  5  1  0
  7  6  1  0
  8  6  1  0
  9  3  1  0
 10  9  1  1
 11 10  1  0
 12 11  1  0
 13 10  1  0
 13 14  1  1
 15 13  1  0
 16 11  1  0
 17 16  1  0
 18 17  1  0
 19 18  1  0
 17 20  1  1
 21 18  1  0
 22 21  1  6
 23 22  1  0
 24 23  1  0
 25 22  1  0
 25 26  1  1
 27 25  1  0
 28 23  1  0
 29 28  1  0
 30 29  1  0
 30 31  1  1
 29 32  1  1
 33 32  1  0
 33 34  1  1
 35 33  1  0
 36 30  1  0
 37 36  1  0
 38 37  1  0
 39 38  1  0
 37 40  1  6
 41 40  1  0
 42 41  1  0
 43 42  1  0
 44 42  1  0
 45 38  1  0
 46 45  1  0
 47 46  1  0
 48 47  1  0
 46 49  1  1
 50 47  1  0
 51 50  1  0
 52 51  1  0
 53 52  1  0
 51 54  1  6
 55 54  1  0
 56 55  1  0
 56 57  1  1
 58 56  1  0
 59 52  1  0
 60 59  1  0
 61 60  1  0
 62 61  1  0
 60 63  1  1
 64 63  1  0
 65 64  1  0
 66 64  1  0
 67 61  1  0
 68 67  1  1
 69 68  1  0
 69 70  1  1
 71 68  1  0
 71 72  1  1
 73 71  1  0
 74 69  1  0
 75 74  1  6
 76 75  1  0
 77 76  1  0
 78 75  1  0
 78 79  1  1
 80 78  1  0
 81 76  1  0
M  END
>  <ref_mols>
x0107_0A

>  <ref_pdb>
6YB7_GM/NVATLQ-AENVT.pdb

>  <original SMILES>
CC(C)C[C@@H]([C@@H](N[C@@H](CC[C@@H](N)O)[C@H](N[C@@H](C)[C@H](N[C@@H](CCC(O)O)[C@@H](N[C@@H](C[C@H](N)O)[C@@H](N[C@@H](C(C)C)[C@@H](N[C@@H]([C@@H](C)O)C(O)O)O)O)O)O)O)O)N[C@H]([C@H]([C@@H](C)O)N[C@H]([C@H](C)N[C@@H]([C@H](C(C)C)N[C@H]([C@H](C[C@H](N)O)N)O)O)O)O

>  <ID>
NVATLQ-AENVT

$$$$
SAVKLQ-NNELS
    RDKit          3D

 84 83  0  0  0  0  0  0  0  0999 V2000
    9.4170   13.4490   23.0160 N   0  0  0  0  0  0  0  0  0  0  0  0
    9.1850   12.2930   23.9050 C   0  0  2  0  0  0  0  0  0  0  0  0
   10.4960   11.6140   24.2690 C   0  0  0  0  0  0  0  0  0  0  0  0
   11.5190   11.9550   23.6890 O   0  0  0  0  0  0  0  0  0  0  0  0
    8.2430   11.3010   23.2240 C   0  0  0  0  0  0  0  0  0  0  0  0
    7.0850   12.0260   22.8750 O   0  0  0  0  0  0  0  0  0  0  0  0
   10.4660   10.6590   25.2030 N   0  0  0  0  0  0  0  0  0  0  0  0
   11.4710    9.5930   25.2780 C   0  0  2  0  0  0  0  0  0  0  0  0
   11.2720    8.5890   24.1160 C   0  0  0  0  0  0  0  0  0  0  0  0
   10.4440    8.8360   23.2340 O   0  0  0  0  0  0  0  0  0  0  0  0
   11.3450    8.9410   26.6640 C   0  0  0  0  0  0  0  0  0  0  0  0
   11.9920    7.4600   24.1210 N   0  0  0  0  0  0  0  0  0  0  0  0
   11.9000    6.4060   23.0920 C   0  0  2  0  0  0  0  0  0  0  0  0
   11.6300    5.0240   23.6920 C   0  0  1  0  0  0  0  0  0  0  0  0
   11.9060    4.7750   24.8680 O   0  0  0  0  0  0  0  0  0  0  0  0
   13.1010    6.4060   22.1330 C   0  0  1  0  0  0  0  0  0  0  0  0
   13.3640    7.7950   21.5440 C   0  0  0  0  0  0  0  0  0  0  0  0
   14.3960    5.9010   22.7610 C   0  0  0  0  0  0  0  0  0  0  0  0
   11.0150    4.1430   22.8950 N   0  0  0  0  0  0  0  0  0  0  0  0
   10.0760    3.1300   23.4010 C   0  0  2  0  0  0  0  0  0  0  0  0
    9.9660    1.8900   22.4910 C   0  0  0  0  0  0  0  0  0  0  0  0
   10.1710    1.9850   21.2860 O   0  0  0  0  0  0  0  0  0  0  0  0
    8.7400    3.8920   23.5580 C   0  0  0  0  0  0  0  0  0  0  0  0
    7.5130    3.0120   23.7710 C   0  0  0  0  0  0  0  0  0  0  0  0
    6.2240    3.8410   23.8510 C   0  0  0  0  0  0  0  0  0  0  0  0
    4.9900    2.9330   23.7980 C   0  0  0  0  0  0  0  0  0  0  0  0
    4.9480    2.1620   22.5350 N   0  0  0  0  0  0  0  0  0  0  0  0
    9.5850    0.7430   23.0730 N   0  0  0  0  0  0  0  0  0  0  0  0
    9.2790   -0.5070   22.3550 C   0  0  2  0  0  0  0  0  0  0  0  0
    7.8280   -0.6050   21.8530 C   0  0  2  0  0  0  0  0  0  0  0  0
    6.9180    0.0660   22.3630 O   0  0  0  0  0  0  0  0  0  0  0  0
    9.5340   -1.7230   23.2650 C   0  0  0  0  0  0  0  0  0  0  0  0
   10.9540   -1.9300   23.8060 C   0  0  1  0  0  0  0  0  0  0  0  0
   10.9950   -3.3260   24.4260 C   0  0  0  0  0  0  0  0  0  0  0  0
   12.0130   -1.8140   22.7150 C   0  0  0  0  0  0  0  0  0  0  0  0
    7.5840   -1.5180   20.9100 N   0  0  0  0  0  0  0  0  0  0  0  0
    6.2630   -1.8180   20.3550 C   0  0  2  0  0  0  0  0  0  0  0  0
    5.9570   -3.3260   20.3120 C   0  0  2  0  0  0  0  0  0  0  0  0
    5.1220   -3.7830   19.5300 O   0  0  0  0  0  0  0  0  0  0  0  0
    6.0640   -1.0710   19.0310 C   0  0  0  0  0  0  0  0  0  0  0  0
    6.1050    0.4500   19.2520 C   0  0  0  0  0  0  0  0  0  0  0  0
    5.6920    1.1850   17.9960 C   0  0  0  0  0  0  0  0  0  0  0  0
    4.6960    2.0310   18.0430 N   0  0  0  0  0  0  0  0  0  0  0  0
    6.2610    1.0100   16.9400 O   0  0  0  0  0  0  0  0  0  0  0  0
    6.5350   -4.0890   21.2450 N   0  0  0  0  0  0  0  0  0  0  0  0
    6.0680   -5.4120   21.6670 C   0  0  2  0  0  0  0  0  0  0  0  0
    4.6890   -5.3230   22.3630 C   0  0  2  0  0  0  0  0  0  0  0  0
    4.1540   -4.2340   22.5780 O   0  0  0  0  0  0  0  0  0  0  0  0
    7.1360   -6.0040   22.6100 C   0  0  0  0  0  0  0  0  0  0  0  0
    7.1150   -5.3380   23.9770 C   0  0  2  0  0  0  0  0  0  0  0  0
    6.6040   -5.9940   24.9940 N   0  0  0  0  0  0  0  0  0  0  0  0
    7.4860   -4.1870   24.1270 O   0  0  0  0  0  0  0  0  0  0  0  0
    4.1290   -6.4560   22.7860 N   0  0  0  0  0  0  0  0  0  0  0  0
    2.9960   -6.5100   23.7180 C   0  0  2  0  0  0  0  0  0  0  0  0
    3.1480   -7.7150   24.6710 C   0  0  0  0  0  0  0  0  0  0  0  0
    4.1990   -8.3580   24.6930 O   0  0  0  0  0  0  0  0  0  0  0  0
    1.6830   -6.4950   22.8980 C   0  0  0  0  0  0  0  0  0  0  0  0
    0.5230   -5.8160   23.6140 C   0  0  0  0  0  0  0  0  0  0  0  0
   -0.3360   -5.1240   22.9030 N   0  0  0  0  0  0  0  0  0  0  0  0
    0.3890   -5.8690   24.8230 O   0  0  0  0  0  0  0  0  0  0  0  0
    2.1110   -8.0080   25.4500 N   0  0  0  0  0  0  0  0  0  0  0  0
    1.8510   -9.3160   26.0620 C   0  0  2  0  0  0  0  0  0  0  0  0
    1.1540  -10.2420   25.0380 C   0  0  0  0  0  0  0  0  0  0  0  0
    0.5560   -9.7680   24.0620 O   0  0  0  0  0  0  0  0  0  0  0  0
    1.0120   -9.0830   27.3370 C   0  0  0  0  0  0  0  0  0  0  0  0
    0.5680  -10.3220   28.1340 C   0  0  0  0  0  0  0  0  0  0  0  0
    1.7490  -11.1540   28.6470 C   0  0  0  0  0  0  0  0  0  0  0  0
    1.9780  -11.1730   29.8760 O   0  0  0  0  0  0  0  0  0  0  0  0
    2.4280  -11.7670   27.7940 O   0  0  0  0  0  0  0  0  0  0  0  0
    1.2140  -11.5600   25.2470 N   0  0  0  0  0  0  0  0  0  0  0  0
    0.6850  -12.5730   24.3240 C   0  0  2  0  0  0  0  0  0  0  0  0
   -0.8210  -12.4240   24.0370 C   0  0  2  0  0  0  0  0  0  0  0  0
   -1.2320  -12.5710   22.8810 O   0  0  0  0  0  0  0  0  0  0  0  0
    1.0210  -13.9610   24.8990 C   0  0  0  0  0  0  0  0  0  0  0  0
    0.6380  -15.1480   23.9930 C   0  0  1  0  0  0  0  0  0  0  0  0
    1.3220  -15.0910   22.6250 C   0  0  0  0  0  0  0  0  0  0  0  0
    1.0510  -16.4590   24.6660 C   0  0  0  0  0  0  0  0  0  0  0  0
   -1.5930  -12.0420   25.0650 N   0  0  0  0  0  0  0  0  0  0  0  0
   -3.0740  -12.0740   25.1140 C   0  0  2  0  0  0  0  0  0  0  0  0
   -3.6880  -13.4660   24.8900 C   0  0  1  0  0  0  0  0  0  0  0  0
   -2.9780  -14.4600   25.1590 O   0  0  0  0  0  0  0  0  0  0  0  0
   -3.6820  -11.0120   24.1930 C   0  0  0  0  0  0  0  0  0  0  0  0
   -3.0700   -9.7660   24.4690 O   0  0  0  0  0  0  0  0  0  0  0  0
   -4.8820  -13.5050   24.5210 O   0  0  0  0  0  0  0  0  0  0  0  0
  2  1  1  6
  3  2  1  0
  4  3  1  0
  5  2  1  0
  6  5  1  0
  7  3  1  0
  8  7  1  0
  9  8  1  0
 10  9  1  0
  8 11  1  1
 12  9  1  0
 13 12  1  1
 14 13  1  0
 14 15  1  1
 16 13  1  0
 16 17  1  1
 18 16  1  0
 19 14  1  0
 20 19  1  0
 21 20  1  0
 22 21  1  0
 20 23  1  6
 24 23  1  0
 25 24  1  0
 26 25  1  0
 27 26  1  0
 28 21  1  0
 29 28  1  0
 30 29  1  0
 30 31  1  1
 29 32  1  1
 33 32  1  0
 33 34  1  6
 35 33  1  0
 36 30  1  0
 37 36  1  0
 38 37  1  0
 38 39  1  1
 37 40  1  6
 41 40  1  0
 42 41  1  0
 43 42  1  0
 44 42  1  0
 45 38  1  0
 46 45  1  0
 47 46  1  0
 47 48  1  1
 46 49  1  1
 50 49  1  0
 50 51  1  6
 52 50  1  0
 53 47  1  0
 54 53  1  0
 55 54  1  0
 56 55  1  0
 54 57  1  6
 58 57  1  0
 59 58  1  0
 60 58  1  0
 61 55  1  0
 62 61  1  0
 63 62  1  0
 64 63  1  0
 62 65  1  1
 66 65  1  0
 67 66  1  0
 68 67  1  0
 69 67  1  0
 70 63  1  0
 71 70  1  0
 72 71  1  0
 72 73  1  6
 71 74  1  1
 75 74  1  0
 75 76  1  6
 77 75  1  0
 78 72  1  0
 79 78  1  0
 80 79  1  0
 80 81  1  1
 79 82  1  6
 83 82  1  0
 84 80  1  0
M  END
>  <ref_mols>
x0107_0A

>  <ref_pdb>
6YB7_GM/SAVKLQ-NNELS.pdb


>  <original SMILES>
CC(C)C[C@H]([C@H](N[C@H](CC[C@@H](N)O)[C@H](N[C@H](C[C@@H](N)O)[C@H](N[C@H](C[C@@H](N)O)[C@@H](N[C@H](CCC(O)O)[C@H](N[C@H](CC(C)C)[C@H](N[C@H](CO)C(O)O)O)O)O)O)O)O)N[C@@H]([C@@H](CCCCN)N[C@H]([C@@H](C(C)C)N[C@@H]([C@@H](C)N[C@@H]([C@@H](CO)N)O)O)O)O

>  <ID>
SAVKLQ-NNELS

$$$$
ATVRLQ-AGNAT
          RDKit          3D

 77 76  0  0  0  0  0  0  0  0999 V2000
   12.3310   14.1010   26.9140 N   0  0  0  0  0  0  0  0  0  0  0  0
   11.4310   13.1210   26.2670 C   0  0  2  0  0  0  0  0  0  0  0  0
   12.2090   11.8390   25.9750 C   0  0  0  0  0  0  0  0  0  0  0  0
   13.4260   11.8410   26.1370 O   0  0  0  0  0  0  0  0  0  0  0  0
   10.7990   13.7140   24.9990 C   0  0  0  0  0  0  0  0  0  0  0  0
   11.5330   10.7620   25.5830 N   0  0  0  0  0  0  0  0  0  0  0  0
   12.0820    9.3960   25.5560 C   0  0  2  0  0  0  0  0  0  0  0  0
   11.5280    8.5920   24.3800 C   0  0  0  0  0  0  0  0  0  0  0  0
   10.5000    8.9460   23.7990 O   0  0  0  0  0  0  0  0  0  0  0  0
   11.7820    8.6550   26.8750 C   0  0  1  0  0  0  0  0  0  0  0  0
   12.6690    9.1190   28.0270 C   0  0  0  0  0  0  0  0  0  0  0  0
   10.4500    8.8960   27.2790 O   0  0  0  0  0  0  0  0  0  0  0  0
   12.2330    7.5180   24.0150 N   0  0  0  0  0  0  0  0  0  0  0  0
   11.7550    6.5400   23.0240 C   0  0  2  0  0  0  0  0  0  0  0  0
   10.6340    5.6590   23.5930 C   0  0  0  0  0  0  0  0  0  0  0  0
   10.3180    5.6970   24.7860 O   0  0  0  0  0  0  0  0  0  0  0  0
   12.8970    5.6820   22.4390 C   0  0  1  0  0  0  0  0  0  0  0  0
   14.0070    6.5510   21.8500 C   0  0  0  0  0  0  0  0  0  0  0  0
   13.5120    4.7240   23.4570 C   0  0  0  0  0  0  0  0  0  0  0  0
   10.0360    4.8430   22.7240 N   0  0  0  0  0  0  0  0  0  0  0  0
    8.8280    4.0540   22.9750 C   0  0  2  0  0  0  0  0  0  0  0  0
    8.9760    2.6510   22.3790 C   0  0  0  0  0  0  0  0  0  0  0  0
    9.7410    2.4440   21.4340 O   0  0  0  0  0  0  0  0  0  0  0  0
    7.5680    4.7880   22.4560 C   0  0  0  0  0  0  0  0  0  0  0  0
    7.6930    6.3160   22.2560 C   0  0  0  0  0  0  0  0  0  0  0  0
    6.3650    6.9060   21.7780 C   0  0  0  0  0  0  0  0  0  0  0  0
    6.5170    8.2620   21.2030 N   0  0  0  0  0  0  0  0  0  0  0  0
    5.7640    8.7710   20.2400 C   0  0  0  0  0  0  0  0  0  0  0  0
    4.8740    8.0610   19.6150 N   0  0  0  0  0  0  0  0  0  0  0  0
    5.8700   10.0110   19.8640 N   0  0  0  0  0  0  0  0  0  0  0  0
    8.2230    1.7020   22.9340 N   0  0  0  0  0  0  0  0  0  0  0  0
    8.3310    0.2660   22.6690 C   0  0  2  0  0  0  0  0  0  0  0  0
    6.9630   -0.3290   22.3380 C   0  0  0  0  0  0  0  0  0  0  0  0
    5.9600   -0.0130   22.9740 O   0  0  0  0  0  0  0  0  0  0  0  0
    8.9700   -0.4430   23.8790 C   0  0  0  0  0  0  0  0  0  0  0  0
   10.5060   -0.4500   23.8530 C   0  0  1  0  0  0  0  0  0  0  0  0
   11.0440   -0.8780   25.2150 C   0  0  0  0  0  0  0  0  0  0  0  0
   11.0320   -1.4430   22.8130 C   0  0  0  0  0  0  0  0  0  0  0  0
    6.9400   -1.2130   21.3430 N   0  0  0  0  0  0  0  0  0  0  0  0
    5.7250   -1.6350   20.6410 C   0  0  2  0  0  0  0  0  0  0  0  0
    5.5860   -3.1710   20.6000 C   0  0  0  0  0  0  0  0  0  0  0  0
    4.9430   -3.7420   19.7190 O   0  0  0  0  0  0  0  0  0  0  0  0
    5.6660   -0.9270   19.2760 C   0  0  0  0  0  0  0  0  0  0  0  0
    5.4610    0.6000   19.4060 C   0  0  0  0  0  0  0  0  0  0  0  0
    5.6370    1.3270   18.0790 C   0  0  0  0  0  0  0  0  0  0  0  0
    5.3050    2.5910   17.9640 N   0  0  0  0  0  0  0  0  0  0  0  0
    6.1190    0.7840   17.1050 O   0  0  0  0  0  0  0  0  0  0  0  0
    6.1770   -3.8520   21.5850 N   0  0  0  0  0  0  0  0  0  0  0  0
    5.9330   -5.2630   21.8710 C   0  0  2  0  0  0  0  0  0  0  0  0
    4.5220   -5.4810   22.4550 C   0  0  0  0  0  0  0  0  0  0  0  0
    3.8120   -4.5240   22.7850 O   0  0  0  0  0  0  0  0  0  0  0  0
    7.0430   -5.7670   22.8040 C   0  0  0  0  0  0  0  0  0  0  0  0
    4.1150   -6.7440   22.5510 N   0  0  0  0  0  0  0  0  0  0  0  0
    2.8450   -7.2090   23.1020 C   0  0  0  0  0  0  0  0  0  0  0  0
    3.0340   -8.3860   24.0630 C   0  0  0  0  0  0  0  0  0  0  0  0
    4.0680   -8.5280   24.7190 O   0  0  0  0  0  0  0  0  0  0  0  0
    2.0130   -9.2380   24.1560 N   0  0  0  0  0  0  0  0  0  0  0  0
    1.8770  -10.2570   25.1970 C   0  0  2  0  0  0  0  0  0  0  0  0
    1.1740  -11.5210   24.6650 C   0  0  2  0  0  0  0  0  0  0  0  0
    0.3720  -11.4310   23.7320 O   0  0  0  0  0  0  0  0  0  0  0  0
    1.1170   -9.6120   26.3770 C   0  0  0  0  0  0  0  0  0  0  0  0
    0.8270  -10.5910   27.4970 C   0  0  1  0  0  0  0  0  0  0  0  0
   -0.4230  -10.9360   27.7140 N   0  0  0  0  0  0  0  0  0  0  0  0
    1.7300  -11.1010   28.1370 O   0  0  0  0  0  0  0  0  0  0  0  0
    1.4350  -12.6650   25.2990 N   0  0  0  0  0  0  0  0  0  0  0  0
    0.7060  -13.9290   25.1320 C   0  0  2  0  0  0  0  0  0  0  0  0
    0.0560  -14.4270   26.4450 C   0  0  2  0  0  0  0  0  0  0  0  0
   -0.8890  -15.2130   26.3920 O   0  0  0  0  0  0  0  0  0  0  0  0
    1.6510  -14.9620   24.5110 C   0  0  0  0  0  0  0  0  0  0  0  0
    0.4550  -13.8630   27.5950 N   0  0  0  0  0  0  0  0  0  0  0  0
    0.1860  -14.3540   28.9690 C   0  0  2  0  0  0  0  0  0  0  0  0
    0.9080  -15.6690   29.2850 C   0  0  2  0  0  0  0  0  0  0  0  0
    0.4380  -16.4000   30.1800 O   0  0  0  0  0  0  0  0  0  0  0  0
   -1.3050  -14.3600   29.3500 C   0  0  1  0  0  0  0  0  0  0  0  0
   -1.5400  -13.9240   30.7960 C   0  0  0  0  0  0  0  0  0  0  0  0
   -2.0190  -13.4660   28.5240 O   0  0  0  0  0  0  0  0  0  0  0  0
    1.9820  -15.8660   28.6740 O   0  0  0  0  0  0  0  0  0  0  0  0
  2  1  1  0
  3  2  1  0
  4  3  1  0
  2  5  1  6
  6  3  1  0
  7  6  1  1
  8  7  1  0
  9  8  1  0
 10  7  1  0
 10 11  1  1
 12 10  1  0
 13  8  1  0
 14 13  1  1
 15 14  1  0
 16 15  1  0
 17 14  1  0
 17 18  1  1
 19 17  1  0
 20 15  1  0
 21 20  1  0
 22 21  1  0
 23 22  1  0
 21 24  1  6
 25 24  1  0
 26 25  1  0
 27 26  1  0
 28 27  1  0
 29 28  1  0
 30 28  1  0
 31 22  1  0
 32 31  1  0
 33 32  1  0
 34 33  1  0
 32 35  1  1
 36 35  1  0
 36 37  1  1
 38 36  1  0
 39 33  1  0
 40 39  1  0
 41 40  1  0
 42 41  1  0
 40 43  1  6
 44 43  1  0
 45 44  1  0
 46 45  1  0
 47 45  1  0
 48 41  1  0
 49 48  1  0
 50 49  1  0
 51 50  1  0
 49 52  1  1
 53 50  1  0
 54 53  1  0
 55 54  1  0
 56 55  1  0
 57 55  1  0
 58 57  1  0
 59 58  1  0
 59 60  1  1
 58 61  1  1
 62 61  1  0
 62 63  1  6
 64 62  1  0
 65 59  1  0
 66 65  1  0
 67 66  1  0
 67 68  1  6
 66 69  1  1
 70 67  1  0
 71 70  1  6
 72 71  1  0
 72 73  1  1
 74 71  1  0
 74 75  1  1
 76 74  1  0
 77 72  1  0
M  END
>  <ref_mols>
x0107_0A

>  <ref_pdb>
6YB7_GM/ATVRLQ-AGNAT.pdb

>  <original SMILES>
CC(C)C[C@H]([C@H](N[C@H](CC[C@H](N)O)[C@H](N[C@H](C)[C@@H](NC[C@@H](N[C@H](C[C@H](N)O)[C@H](N[C@H](C)[C@H](N[C@H]([C@H](C)O)C(O)O)O)O)O)O)O)O)N[C@@H]([C@@H](CCCNC(N)N)N[C@@H]([C@@H](C(C)C)N[C@H]([C@@H]([C@H](C)O)N[C@H]([C@@H](C)N)O)O)O)O

>  <ID>
ATVRLQ-AGNAT

$$$$
TFTRLQ-SLENV
     RDKit          3D

 92 92  0  0  0  0  0  0  0  0999 V2000
   10.2440   12.5790   28.1230 N   0  0  0  0  0  0  0  0  0  0  0  0
    9.8310   11.5200   27.1710 C   0  0  2  0  0  0  0  0  0  0  0  0
   11.0150   10.6150   26.8840 C   0  0  0  0  0  0  0  0  0  0  0  0
   12.1340   11.0040   27.1990 O   0  0  0  0  0  0  0  0  0  0  0  0
    9.2870   12.1450   25.8820 C   0  0  1  0  0  0  0  0  0  0  0  0
    8.3410   11.2230   25.1140 C   0  0  0  0  0  0  0  0  0  0  0  0
    8.5330   13.2680   26.2540 O   0  0  0  0  0  0  0  0  0  0  0  0
   10.7910    9.4370   26.3060 N   0  0  0  0  0  0  0  0  0  0  0  0
   11.8130    8.4340   25.9840 C   0  0  2  0  0  0  0  0  0  0  0  0
   11.4660    7.7140   24.6730 C   0  0  0  0  0  0  0  0  0  0  0  0
   10.3430    7.8380   24.1730 O   0  0  0  0  0  0  0  0  0  0  0  0
   11.9690    7.4510   27.1650 C   0  0  0  0  0  0  0  0  0  0  0  0
   10.6840    6.9610   27.8240 C   0  0  0  0  0  0  0  0  0  0  0  0
    9.7100    6.2560   27.0880 C   0  0  0  0  0  0  0  0  0  0  0  0
   10.4630    7.2080   29.1930 C   0  0  0  0  0  0  0  0  0  0  0  0
    8.5200    5.8330   27.7050 C   0  0  0  0  0  0  0  0  0  0  0  0
    9.2760    6.7780   29.8120 C   0  0  0  0  0  0  0  0  0  0  0  0
    8.2980    6.0980   29.0660 C   0  0  0  0  0  0  0  0  0  0  0  0
   12.4140    6.9590   24.1210 N   0  0  0  0  0  0  0  0  0  0  0  0
   12.1660    5.9890   23.0500 C   0  0  2  0  0  0  0  0  0  0  0  0
   11.1950    4.9060   23.5030 C   0  0  0  0  0  0  0  0  0  0  0  0
   11.2310    4.4380   24.6420 O   0  0  0  0  0  0  0  0  0  0  0  0
   13.4660    5.3350   22.5620 C   0  0  1  0  0  0  0  0  0  0  0  0
   14.2220    6.3090   21.6700 C   0  0  0  0  0  0  0  0  0  0  0  0
   14.3100    4.9970   23.6440 O   0  0  0  0  0  0  0  0  0  0  0  0
   10.3080    4.5070   22.5960 N   0  0  0  0  0  0  0  0  0  0  0  0
    9.0750    3.7780   22.8890 C   0  0  2  0  0  0  0  0  0  0  0  0
    9.1760    2.3310   22.4160 C   0  0  0  0  0  0  0  0  0  0  0  0
    9.6000    2.0690   21.2880 O   0  0  0  0  0  0  0  0  0  0  0  0
    7.8860    4.4840   22.2150 C   0  0  0  0  0  0  0  0  0  0  0  0
    7.7470    5.9970   22.4770 C   0  0  0  0  0  0  0  0  0  0  0  0
    6.7510    6.5610   21.4590 C   0  0  0  0  0  0  0  0  0  0  0  0
    6.5410    8.0130   21.5850 N   0  0  0  0  0  0  0  0  0  0  0  0
    5.8610    8.7450   20.7200 C   0  0  0  0  0  0  0  0  0  0  0  0
    5.2550    8.2360   19.6870 N   0  0  0  0  0  0  0  0  0  0  0  0
    5.7780   10.0320   20.8580 N   0  0  0  0  0  0  0  0  0  0  0  0
    8.7380    1.4170   23.2780 N   0  0  0  0  0  0  0  0  0  0  0  0
    8.5500    0.0030   22.9640 C   0  0  2  0  0  0  0  0  0  0  0  0
    7.2690   -0.1860   22.1420 C   0  0  0  0  0  0  0  0  0  0  0  0
    6.2620    0.4630   22.4180 O   0  0  0  0  0  0  0  0  0  0  0  0
    8.4660   -0.8220   24.2650 C   0  0  0  0  0  0  0  0  0  0  0  0
    9.6330   -0.6390   25.2520 C   0  0  1  0  0  0  0  0  0  0  0  0
    9.3990   -1.5030   26.4910 C   0  0  0  0  0  0  0  0  0  0  0  0
   10.9740   -1.0240   24.6280 C   0  0  0  0  0  0  0  0  0  0  0  0
    7.3070   -1.0930   21.1640 N   0  0  0  0  0  0  0  0  0  0  0  0
    6.1410   -1.5040   20.3630 C   0  0  2  0  0  0  0  0  0  0  0  0
    6.0880   -3.0330   20.1460 C   0  0  0  0  0  0  0  0  0  0  0  0
    5.3790   -3.5540   19.2810 O   0  0  0  0  0  0  0  0  0  0  0  0
    6.0520   -0.6780   19.0680 C   0  0  0  0  0  0  0  0  0  0  0  0
    5.7550    0.8130   19.3120 C   0  0  0  0  0  0  0  0  0  0  0  0
    5.7380    1.6120   18.0190 C   0  0  0  0  0  0  0  0  0  0  0  0
    5.3390    2.8590   18.0190 N   0  0  0  0  0  0  0  0  0  0  0  0
    6.1250    1.1480   16.9630 O   0  0  0  0  0  0  0  0  0  0  0  0
    6.8150   -3.7750   20.9850 N   0  0  0  0  0  0  0  0  0  0  0  0
    6.4660   -5.1330   21.4200 C   0  0  2  0  0  0  0  0  0  0  0  0
    5.1300   -5.1180   22.1920 C   0  0  1  0  0  0  0  0  0  0  0  0
    4.4790   -4.0800   22.2740 O   0  0  0  0  0  0  0  0  0  0  0  0
    7.6300   -5.6980   22.2630 C   0  0  0  0  0  0  0  0  0  0  0  0
    8.3830   -4.6780   22.9070 O   0  0  0  0  0  0  0  0  0  0  0  0
    4.6800   -6.2670   22.6950 N   0  0  0  0  0  0  0  0  0  0  0  0
    3.4720   -6.4210   23.5080 C   0  0  2  0  0  0  0  0  0  0  0  0
    3.8360   -6.9670   24.8860 C   0  0  0  0  0  0  0  0  0  0  0  0
    4.5970   -7.9260   25.0160 O   0  0  0  0  0  0  0  0  0  0  0  0
    2.4460   -7.3190   22.7890 C   0  0  0  0  0  0  0  0  0  0  0  0
    1.1460   -7.5760   23.5770 C   0  0  1  0  0  0  0  0  0  0  0  0
    0.3120   -6.3020   23.7250 C   0  0  0  0  0  0  0  0  0  0  0  0
    0.2980   -8.6130   22.8440 C   0  0  0  0  0  0  0  0  0  0  0  0
    3.2290   -6.3700   25.9020 N   0  0  0  0  0  0  0  0  0  0  0  0
    3.4460   -6.5790   27.3310 C   0  0  2  0  0  0  0  0  0  0  0  0
    2.6280   -7.7960   27.8030 C   0  0  1  0  0  0  0  0  0  0  0  0
    1.6740   -7.6940   28.5680 O   0  0  0  0  0  0  0  0  0  0  0  0
    3.1170   -5.2610   28.0700 C   0  0  0  0  0  0  0  0  0  0  0  0
    3.9270   -4.0290   27.5980 C   0  0  0  0  0  0  0  0  0  0  0  0
    3.5980   -3.5190   26.1750 C   0  0  2  0  0  0  0  0  0  0  0  0
    2.4600   -3.7380   25.6990 O   0  0  0  0  0  0  0  0  0  0  0  0
    4.5040   -2.9600   25.5200 O   0  0  0  0  0  0  0  0  0  0  0  0
    2.9840   -8.9540   27.2410 N   0  0  0  0  0  0  0  0  0  0  0  0
    2.1790  -10.1730   27.1420 C   0  0  2  0  0  0  0  0  0  0  0  0
    1.7540  -10.8150   28.4760 C   0  0  0  0  0  0  0  0  0  0  0  0
    0.7280  -11.4950   28.4930 O   0  0  0  0  0  0  0  0  0  0  0  0
    3.0250  -11.1570   26.3150 C   0  0  0  0  0  0  0  0  0  0  0  0
    2.2630  -12.3760   25.8350 C   0  0  2  0  0  0  0  0  0  0  0  0
    2.2120  -13.4360   26.5970 N   0  0  0  0  0  0  0  0  0  0  0  0
    1.7600  -12.3960   24.7180 O   0  0  0  0  0  0  0  0  0  0  0  0
    2.5270  -10.5940   29.5520 N   0  0  0  0  0  0  0  0  0  0  0  0
    2.7150  -11.5390   30.6820 C   0  0  2  0  0  0  0  0  0  0  0  0
    3.4850  -12.7970   30.2730 C   0  0  2  0  0  0  0  0  0  0  0  0
    4.3300  -13.2090   31.0940 O   0  0  0  0  0  0  0  0  0  0  0  0
    1.4150  -11.8270   31.4610 C   0  0  1  0  0  0  0  0  0  0  0  0
    1.6980  -12.5960   32.7580 C   0  0  0  0  0  0  0  0  0  0  0  0
    0.7000  -10.5260   31.8550 C   0  0  0  0  0  0  0  0  0  0  0  0
    3.3110  -13.2660   29.1260 O   0  0  0  0  0  0  0  0  0  0  0  0
  2  1  1  1
  3  2  1  0
  4  3  1  0
  5  2  1  0
  5  6  1  1
  7  5  1  0
  8  3  1  0
  9  8  1  0
 10  9  1  0
 11 10  1  0
  9 12  1  1
 13 12  1  0
 14 13  1  0
 15 13  1  0
 16 14  1  0
 17 15  1  0
 18 17  1  0
 18 16  1  0
 19 10  1  0
 20 19  1  1
 21 20  1  0
 22 21  1  0
 23 20  1  0
 23 24  1  6
 25 23  1  0
 26 21  1  0
 27 26  1  0
 28 27  1  0
 29 28  1  0
 27 30  1  6
 31 30  1  0
 32 31  1  0
 33 32  1  0
 34 33  1  0
 35 34  1  0
 36 34  1  0
 37 28  1  0
 38 37  1  0
 39 38  1  0
 40 39  1  0
 38 41  1  1
 42 41  1  0
 42 43  1  1
 44 42  1  0
 45 39  1  0
 46 45  1  0
 47 46  1  0
 48 47  1  0
 46 49  1  6
 50 49  1  0
 51 50  1  0
 52 51  1  0
 53 51  1  0
 54 47  1  0
 55 54  1  0
 56 55  1  0
 56 57  1  6
 55 58  1  1
 59 58  1  0
 60 56  1  0
 61 60  1  0
 62 61  1  0
 63 62  1  0
 61 64  1  6
 65 64  1  0
 65 66  1  6
 67 65  1  0
 68 62  1  0
 69 68  1  0
 70 69  1  0
 70 71  1  6
 69 72  1  1
 73 72  1  0
 74 73  1  0
 74 75  1  6
 76 74  1  0
 77 70  1  0
 78 77  1  0
 79 78  1  0
 80 79  1  0
 78 81  1  1
 82 81  1  0
 82 83  1  6
 84 82  1  0
 85 79  1  0
 86 85  1  6
 87 86  1  0
 87 88  1  6
 89 86  1  0
 89 90  1  1
 91 89  1  0
 92 87  1  0
M  END
>  <ref_mols>
x0107_0A

>  <ref_pdb>
6YB7_GM/TFTRLQ-SLENV.pdb

>  <original SMILES>
CC(C)C[C@H]([C@H](N[C@H](CC[C@H](N)O)[C@H](N[C@H](CO)[C@@H](N[C@H](CC(C)C)[C@H](N[C@H](CCC(O)O)[C@@H](N[C@H](C[C@@H](N)O)[C@H](N[C@H](C(C)C)C(O)O)O)O)O)O)O)O)N[C@@H]([C@@H](CCCNC(N)N)N[C@H]([C@@H]([C@H](C)O)N[C@@H]([C@@H](CC1CCCCC1)N[C@H]([C@@H]([C@H](C)O)N)O)O)O)O

>  <ID>
TFTRLQ-SLENV

$$$$
KVATVQ-SKMSD
     RDKit          3D

 82 81  0  0  0  0  0  0  0  0999 V2000
    6.2740   11.2550   22.5460 N   0  0  0  0  0  0  0  0  0  0  0  0
    6.4760   10.0660   23.4150 C   0  0  2  0  0  0  0  0  0  0  0  0
    7.8930   10.1070   24.0020 C   0  0  0  0  0  0  0  0  0  0  0  0
    8.5860   11.0960   23.7990 O   0  0  0  0  0  0  0  0  0  0  0  0
    6.2390    8.7540   22.6290 C   0  0  0  0  0  0  0  0  0  0  0  0
    4.8080    8.5910   22.0910 C   0  0  0  0  0  0  0  0  0  0  0  0
    4.6270    7.1830   21.5030 C   0  0  0  0  0  0  0  0  0  0  0  0
    3.2630    7.0160   20.8200 C   0  0  0  0  0  0  0  0  0  0  0  0
    3.1830    5.6900   20.1660 N   0  0  0  0  0  0  0  0  0  0  0  0
    8.3340    9.0460   24.6820 N   0  0  0  0  0  0  0  0  0  0  0  0
    9.7620    8.6680   24.7830 C   0  0  2  0  0  0  0  0  0  0  0  0
   10.0420    7.5300   23.7870 C   0  0  0  0  0  0  0  0  0  0  0  0
    9.1030    7.0640   23.1310 O   0  0  0  0  0  0  0  0  0  0  0  0
   10.1540    8.2920   26.2280 C   0  0  1  0  0  0  0  0  0  0  0  0
   10.0690    9.5150   27.1490 C   0  0  0  0  0  0  0  0  0  0  0  0
    9.2940    7.1640   26.8130 C   0  0  0  0  0  0  0  0  0  0  0  0
   11.2850    7.0580   23.6490 N   0  0  0  0  0  0  0  0  0  0  0  0
   11.5310    5.8550   22.8530 C   0  0  2  0  0  0  0  0  0  0  0  0
   10.7410    4.6700   23.4380 C   0  0  0  0  0  0  0  0  0  0  0  0
   10.6650    4.5040   24.6590 O   0  0  0  0  0  0  0  0  0  0  0  0
   13.0300    5.5660   22.7320 C   0  0  0  0  0  0  0  0  0  0  0  0
   10.1130    3.8750   22.5770 N   0  0  0  0  0  0  0  0  0  0  0  0
    9.0120    2.9770   22.9490 C   0  0  2  0  0  0  0  0  0  0  0  0
    9.1990    1.5950   22.3330 C   0  0  0  0  0  0  0  0  0  0  0  0
    9.4280    1.4410   21.1300 O   0  0  0  0  0  0  0  0  0  0  0  0
    7.6460    3.6070   22.6080 C   0  0  1  0  0  0  0  0  0  0  0  0
    6.4620    2.6900   22.9210 C   0  0  0  0  0  0  0  0  0  0  0  0
    7.4480    4.7700   23.3870 O   0  0  0  0  0  0  0  0  0  0  0  0
    9.0840    0.5840   23.1980 N   0  0  0  0  0  0  0  0  0  0  0  0
    9.3070   -0.8320   22.9020 C   0  0  2  0  0  0  0  0  0  0  0  0
    7.9500   -1.4750   22.6310 C   0  0  0  0  0  0  0  0  0  0  0  0
    7.3170   -2.0180   23.5350 O   0  0  0  0  0  0  0  0  0  0  0  0
   10.0640   -1.5150   24.0630 C   0  0  1  0  0  0  0  0  0  0  0  0
   10.4230   -2.9620   23.7050 C   0  0  0  0  0  0  0  0  0  0  0  0
   11.3630   -0.7810   24.4220 C   0  0  0  0  0  0  0  0  0  0  0  0
    7.4930   -1.3800   21.3800 N   0  0  0  0  0  0  0  0  0  0  0  0
    6.1580   -1.7610   20.8860 C   0  0  2  0  0  0  0  0  0  0  0  0
    5.9210   -3.2940   20.8230 C   0  0  0  0  0  0  0  0  0  0  0  0
    5.3440   -3.8340   19.8760 O   0  0  0  0  0  0  0  0  0  0  0  0
    5.9210   -1.0790   19.5290 C   0  0  0  0  0  0  0  0  0  0  0  0
    5.9970    0.4610   19.5700 C   0  0  0  0  0  0  0  0  0  0  0  0
    5.9060    1.0410   18.1660 C   0  0  0  0  0  0  0  0  0  0  0  0
    5.2680    2.1680   17.9630 N   0  0  0  0  0  0  0  0  0  0  0  0
    6.4240    0.4870   17.2120 O   0  0  0  0  0  0  0  0  0  0  0  0
    6.3800   -3.9970   21.8530 N   0  0  0  0  0  0  0  0  0  0  0  0
    6.0750   -5.3860   22.2000 C   0  0  2  0  0  0  0  0  0  0  0  0
    4.6880   -5.5050   22.8580 C   0  0  0  0  0  0  0  0  0  0  0  0
    3.9620   -4.5120   22.9810 O   0  0  0  0  0  0  0  0  0  0  0  0
    7.1780   -5.8930   23.1430 C   0  0  0  0  0  0  0  0  0  0  0  0
    7.1570   -5.1960   24.3780 O   0  0  0  0  0  0  0  0  0  0  0  0
    4.3060   -6.7120   23.2830 N   0  0  0  0  0  0  0  0  0  0  0  0
    3.1090   -6.9800   24.0960 C   0  0  2  0  0  0  0  0  0  0  0  0
    3.3580   -8.1740   25.0380 C   0  0  0  0  0  0  0  0  0  0  0  0
    4.3860   -8.8490   24.9620 O   0  0  0  0  0  0  0  0  0  0  0  0
    1.9030   -7.2160   23.1550 C   0  0  0  0  0  0  0  0  0  0  0  0
    0.5380   -6.8470   23.7750 C   0  0  0  0  0  0  0  0  0  0  0  0
   -0.6140   -7.7320   23.2780 C   0  0  0  0  0  0  0  0  0  0  0  0
   -0.9250   -7.5550   21.7860 C   0  0  0  0  0  0  0  0  0  0  0  0
   -1.9410   -8.5420   21.3670 N   0  0  0  0  0  0  0  0  0  0  0  0
    2.3880   -8.4480   25.9070 N   0  0  0  0  0  0  0  0  0  0  0  0
    2.1730   -9.7760   26.4940 C   0  0  2  0  0  0  0  0  0  0  0  0
    1.8430  -10.8010   25.3880 C   0  0  2  0  0  0  0  0  0  0  0  0
    1.5710  -10.4210   24.2500 O   0  0  0  0  0  0  0  0  0  0  0  0
    1.0170   -9.6430   27.5110 C   0  0  0  0  0  0  0  0  0  0  0  0
    0.8480  -10.8140   28.4900 C   0  0  0  0  0  0  0  0  0  0  0  0
    2.3150  -11.2250   29.4790 S   0  0  0  0  0  0  0  0  0  0  0  0
    2.5060   -9.7270   30.4830 C   0  0  0  0  0  0  0  0  0  0  0  0
    1.7930  -12.0860   25.7320 N   0  0  0  0  0  0  0  0  0  0  0  0
    1.2510  -13.1780   24.9040 C   0  0  2  0  0  0  0  0  0  0  0  0
   -0.2230  -13.0280   24.4970 C   0  0  0  0  0  0  0  0  0  0  0  0
   -0.6980  -13.8280   23.6910 O   0  0  0  0  0  0  0  0  0  0  0  0
    1.3810  -14.4820   25.7050 C   0  0  0  0  0  0  0  0  0  0  0  0
    0.9110  -14.3180   27.0370 O   0  0  0  0  0  0  0  0  0  0  0  0
   -0.9140  -12.0410   25.0840 N   0  0  0  0  0  0  0  0  0  0  0  0
   -2.3410  -12.1070   25.4430 C   0  0  2  0  0  0  0  0  0  0  0  0
   -2.6400  -13.2950   26.3920 C   0  0  1  0  0  0  0  0  0  0  0  0
   -1.6600  -13.7700   27.0280 O   0  0  0  0  0  0  0  0  0  0  0  0
   -3.2310  -11.9900   24.1820 C   0  0  0  0  0  0  0  0  0  0  0  0
   -2.8310  -10.8270   23.2580 C   0  0  0  0  0  0  0  0  0  0  0  0
   -3.3630   -9.6940   23.3780 O   0  0  0  0  0  0  0  0  0  0  0  0
   -1.9690  -11.0040   22.3600 O   0  0  0  0  0  0  0  0  0  0  0  0
   -3.8250  -13.6570   26.5420 O   0  0  0  0  0  0  0  0  0  0  0  0
  2  1  1  6
  3  2  1  0
  4  3  1  0
  5  2  1  0
  6  5  1  0
  7  6  1  0
  8  7  1  0
  9  8  1  0
 10  3  1  0
 11 10  1  1
 12 11  1  0
 13 12  1  0
 14 11  1  0
 14 15  1  1
 16 14  1  0
 17 12  1  0
 18 17  1  0
 19 18  1  0
 20 19  1  0
 18 21  1  1
 22 19  1  0
 23 22  1  6
 24 23  1  0
 25 24  1  0
 26 23  1  0
 26 27  1  1
 28 26  1  0
 29 24  1  0
 30 29  1  1
 31 30  1  0
 32 31  1  0
 33 30  1  0
 33 34  1  6
 35 33  1  0
 36 31  1  0
 37 36  1  0
 38 37  1  0
 39 38  1  0
 37 40  1  6
 41 40  1  0
 42 41  1  0
 43 42  1  0
 44 42  1  0
 45 38  1  0
 46 45  1  0
 47 46  1  0
 48 47  1  0
 46 49  1  1
 50 49  1  0
 51 47  1  0
 52 51  1  0
 53 52  1  0
 54 53  1  0
 52 55  1  6
 56 55  1  0
 57 56  1  0
 58 57  1  0
 59 58  1  0
 60 53  1  0
 61 60  1  0
 62 61  1  0
 62 63  1  1
 61 64  1  1
 65 64  1  0
 66 65  1  0
 67 66  1  0
 68 62  1  0
 69 68  1  0
 70 69  1  0
 71 70  1  0
 69 72  1  1
 73 72  1  0
 74 70  1  0
 75 74  1  0
 76 75  1  0
 76 77  1  1
 75 78  1  6
 79 78  1  0
 80 79  1  0
 81 79  1  0
 82 76  1  0
M  END
>  <ref_mols>
x0107_0A

>  <ref_pdb>
6YB7_GM/KVATVQ-SKMSD.pdb

>  <original SMILES>
CC(C)[C@@H]([C@@H](N[C@@H](C)[C@H](N[C@@H]([C@@H](C)O)[C@@H](N[C@@H](C(C)C)[C@H](N[C@@H](CC[C@@H](N)O)[C@H](N[C@@H](CO)[C@H](N[C@@H](CCCCN)[C@@H](N[C@@H](CCSC)[C@@H](N[C@@H](CO)[C@H](N[C@@H](CC(O)O)C(O)O)O)O)O)O)O)O)O)O)O)N[C@H]([C@H](CCCCN)N)O

>  <ID>
KVATVQ-SKMSD

$$$$
SGVTFQ-SAVKR
     RDKit          3D

 83 83  0  0  0  0  0  0  0  0999 V2000
    6.6050   11.3700   18.6910 N   0  0  0  0  0  0  0  0  0  0  0  0
    6.1850   10.3790   19.7330 C   0  0  2  0  0  0  0  0  0  0  0  0
    6.9710   10.5200   21.0730 C   0  0  0  0  0  0  0  0  0  0  0  0
    7.4300   11.6140   21.4060 O   0  0  0  0  0  0  0  0  0  0  0  0
    6.2890    8.9530   19.1590 C   0  0  0  0  0  0  0  0  0  0  0  0
    5.5210    8.0490   19.9500 O   0  0  0  0  0  0  0  0  0  0  0  0
    7.1190    9.4360   21.8450 N   0  0  0  0  0  0  0  0  0  0  0  0
    8.0920    9.3050   22.9350 C   0  0  0  0  0  0  0  0  0  0  0  0
    9.3910    8.6350   22.4660 C   0  0  0  0  0  0  0  0  0  0  0  0
    9.9040    8.9340   21.3910 O   0  0  0  0  0  0  0  0  0  0  0  0
    9.9000    7.7000   23.2700 N   0  0  0  0  0  0  0  0  0  0  0  0
   10.9520    6.7450   22.8850 C   0  0  2  0  0  0  0  0  0  0  0  0
   10.4550    5.3660   23.3010 C   0  0  1  0  0  0  0  0  0  0  0  0
   10.1570    5.1550   24.4780 O   0  0  0  0  0  0  0  0  0  0  0  0
   12.3230    7.0740   23.5100 C   0  0  1  0  0  0  0  0  0  0  0  0
   13.3920    6.0660   23.0730 C   0  0  0  0  0  0  0  0  0  0  0  0
   12.8150    8.4690   23.1140 C   0  0  0  0  0  0  0  0  0  0  0  0
   10.2940    4.4570   22.3360 N   0  0  0  0  0  0  0  0  0  0  0  0
    9.2800    3.3920   22.4490 C   0  0  2  0  0  0  0  0  0  0  0  0
    9.6930    2.1060   21.7310 C   0  0  2  0  0  0  0  0  0  0  0  0
   10.4490    2.1440   20.7640 O   0  0  0  0  0  0  0  0  0  0  0  0
    7.9000    3.8420   21.8950 C   0  0  1  0  0  0  0  0  0  0  0  0
    6.7510    3.3850   22.7920 C   0  0  0  0  0  0  0  0  0  0  0  0
    7.7680    5.2440   21.7780 O   0  0  0  0  0  0  0  0  0  0  0  0
    9.1330    0.9780   22.1750 N   0  0  0  0  0  0  0  0  0  0  0  0
    9.0720   -0.2900   21.4350 C   0  0  2  0  0  0  0  0  0  0  0  0
    7.6090   -0.6040   21.1080 C   0  0  2  0  0  0  0  0  0  0  0  0
    6.7040   -0.2000   21.8450 O   0  0  0  0  0  0  0  0  0  0  0  0
    9.6320   -1.4620   22.2620 C   0  0  0  0  0  0  0  0  0  0  0  0
   11.0980   -1.5000   22.6530 C   0  0  0  0  0  0  0  0  0  0  0  0
   12.0600   -0.6350   22.0950 C   0  0  0  0  0  0  0  0  0  0  0  0
   11.5020   -2.4750   23.5850 C   0  0  0  0  0  0  0  0  0  0  0  0
   13.4080   -0.7410   22.4750 C   0  0  0  0  0  0  0  0  0  0  0  0
   12.8510   -2.5900   23.9530 C   0  0  0  0  0  0  0  0  0  0  0  0
   13.8030   -1.7260   23.3940 C   0  0  0  0  0  0  0  0  0  0  0  0
    7.3800   -1.4160   20.0820 N   0  0  0  0  0  0  0  0  0  0  0  0
    6.0760   -1.9530   19.7050 C   0  0  2  0  0  0  0  0  0  0  0  0
    5.9520   -3.4630   19.9940 C   0  0  2  0  0  0  0  0  0  0  0  0
    5.0740   -4.1340   19.4510 O   0  0  0  0  0  0  0  0  0  0  0  0
    5.7240   -1.5300   18.2670 C   0  0  0  0  0  0  0  0  0  0  0  0
    5.1090   -0.1230   18.1900 C   0  0  0  0  0  0  0  0  0  0  0  0
    6.0580    1.0540   17.9830 C   0  0  0  0  0  0  0  0  0  0  0  0
    5.4990    2.2030   17.6770 N   0  0  0  0  0  0  0  0  0  0  0  0
    7.2740    0.9650   18.0460 O   0  0  0  0  0  0  0  0  0  0  0  0
    6.7600   -4.0080   20.9100 N   0  0  0  0  0  0  0  0  0  0  0  0
    6.5900   -5.3520   21.4820 C   0  0  2  0  0  0  0  0  0  0  0  0
    5.4280   -5.4170   22.4940 C   0  0  1  0  0  0  0  0  0  0  0  0
    4.8050   -4.4000   22.8150 O   0  0  0  0  0  0  0  0  0  0  0  0
    7.9250   -5.8450   22.0550 C   0  0  0  0  0  0  0  0  0  0  0  0
    8.5630   -4.8690   22.8570 O   0  0  0  0  0  0  0  0  0  0  0  0
    5.0760   -6.6230   22.9450 N   0  0  0  0  0  0  0  0  0  0  0  0
    3.8940   -6.9070   23.7610 C   0  0  2  0  0  0  0  0  0  0  0  0
    4.1020   -8.1440   24.6650 C   0  0  0  0  0  0  0  0  0  0  0  0
    5.2280   -8.5450   24.9590 O   0  0  0  0  0  0  0  0  0  0  0  0
    2.6950   -7.0590   22.8070 C   0  0  0  0  0  0  0  0  0  0  0  0
    3.0090   -8.7590   25.1270 N   0  0  0  0  0  0  0  0  0  0  0  0
    2.9930   -9.8790   26.0790 C   0  0  2  0  0  0  0  0  0  0  0  0
    1.8690  -10.8530   25.7040 C   0  0  0  0  0  0  0  0  0  0  0  0
    0.7980  -10.4130   25.2850 O   0  0  0  0  0  0  0  0  0  0  0  0
    2.8930   -9.3310   27.5190 C   0  0  1  0  0  0  0  0  0  0  0  0
    1.5280   -8.7170   27.8530 C   0  0  0  0  0  0  0  0  0  0  0  0
    3.2280  -10.3960   28.5620 C   0  0  0  0  0  0  0  0  0  0  0  0
    2.1170  -12.1670   25.7920 N   0  0  0  0  0  0  0  0  0  0  0  0
    1.2090  -13.2010   25.2460 C   0  0  2  0  0  0  0  0  0  0  0  0
    1.3150  -14.5740   25.9300 C   0  0  0  0  0  0  0  0  0  0  0  0
    0.2740  -15.1830   26.1650 O   0  0  0  0  0  0  0  0  0  0  0  0
    1.4980  -13.3190   23.7370 C   0  0  0  0  0  0  0  0  0  0  0  0
    0.4940  -14.1450   22.9050 C   0  0  0  0  0  0  0  0  0  0  0  0
    1.2120  -15.1580   21.9950 C   0  0  0  0  0  0  0  0  0  0  0  0
    1.7890  -16.2660   22.8770 C   0  0  0  0  0  0  0  0  0  0  0  0
    2.8670  -17.0620   22.2510 N   0  0  0  0  0  0  0  0  0  0  0  0
    2.5430  -15.0250   26.2530 N   0  0  0  0  0  0  0  0  0  0  0  0
    2.9150  -16.4120   26.6440 C   0  0  2  0  0  0  0  0  0  0  0  0
    2.5990  -17.4540   25.5640 C   0  0  2  0  0  0  0  0  0  0  0  0
    3.5280  -17.8010   24.8080 O   0  0  0  0  0  0  0  0  0  0  0  0
    2.4050  -16.7230   28.0670 C   0  0  0  0  0  0  0  0  0  0  0  0
    2.6890  -18.1520   28.5740 C   0  0  0  0  0  0  0  0  0  0  0  0
    1.6200  -19.2160   28.2530 C   0  0  0  0  0  0  0  0  0  0  0  0
    0.3050  -18.9120   28.8590 N   0  0  0  0  0  0  0  0  0  0  0  0
   -0.7100  -18.2830   28.2930 C   0  0  0  0  0  0  0  0  0  0  0  0
   -0.7100  -17.8610   27.0680 N   0  0  0  0  0  0  0  0  0  0  0  0
   -1.7900  -18.0460   28.9830 N   0  0  0  0  0  0  0  0  0  0  0  0
    1.4220  -17.8320   25.4120 O   0  0  0  0  0  0  0  0  0  0  0  0
  2  1  1  6
  3  2  1  0
  4  3  1  0
  5  2  1  0
  6  5  1  0
  7  3  1  0
  8  7  1  0
  9  8  1  0
 10  9  1  0
 11  9  1  0
 12 11  1  1
 13 12  1  0
 13 14  1  6
 15 12  1  0
 15 16  1  6
 17 15  1  0
 18 13  1  0
 19 18  1  6
 20 19  1  0
 20 21  1  6
 22 19  1  0
 22 23  1  1
 24 22  1  0
 25 20  1  0
 26 25  1  0
 27 26  1  0
 27 28  1  1
 26 29  1  1
 30 29  1  0
 31 30  1  0
 32 30  1  0
 33 31  1  0
 34 32  1  0
 35 34  1  0
 35 33  1  0
 36 27  1  0
 37 36  1  0
 38 37  1  0
 38 39  1  1
 37 40  1  6
 41 40  1  0
 42 41  1  0
 43 42  1  0
 44 42  1  0
 45 38  1  0
 46 45  1  0
 47 46  1  0
 47 48  1  6
 46 49  1  1
 50 49  1  0
 51 47  1  0
 52 51  1  0
 53 52  1  0
 54 53  1  0
 52 55  1  6
 56 53  1  0
 57 56  1  6
 58 57  1  0
 59 58  1  0
 60 57  1  0
 60 61  1  1
 62 60  1  0
 63 58  1  0
 64 63  1  0
 65 64  1  0
 66 65  1  0
 64 67  1  6
 68 67  1  0
 69 68  1  0
 70 69  1  0
 71 70  1  0
 72 65  1  0
 73 72  1  0
 74 73  1  0
 74 75  1  6
 73 76  1  1
 77 76  1  0
 78 77  1  0
 79 78  1  0
 80 79  1  0
 81 80  1  0
 82 80  1  0
 83 74  1  0
M  END
>  <ref_mols>
x0107_0A

>  <ref_pdb>
6YB7_GM/SGVTFQ-SAVKR.pdb

>  <original SMILES>
CC(C)[C@@H]([C@H](N[C@@H]([C@@H](C)O)[C@@H](N[C@@H](CC1CCCCC1)[C@@H](N[C@@H](CC[C@H](N)O)[C@@H](N[C@@H](CO)[C@H](N[C@@H](C)[C@H](N[C@@H](C(C)C)[C@H](N[C@@H](CCCCN)[C@@H](N[C@@H](CCCNC(N)N)C(O)O)O)O)O)O)O)O)O)O)N[C@H](CN[C@@H]([C@H](CO)N)O)O

>  <ID>
SGVTFQ-SAVKR

$$$$
NRATLQ-AIASE
     RDKit          3D

 82 81  0  0  0  0  0  0  0  0999 V2000
   10.1200   12.7270   26.9580 N   0  0  0  0  0  0  0  0  0  0  0  0
   10.6240   12.3350   25.6160 C   0  0  2  0  0  0  0  0  0  0  0  0
   11.6360   11.1590   25.6790 C   0  0  0  0  0  0  0  0  0  0  0  0
   12.8340   11.3510   25.9010 O   0  0  0  0  0  0  0  0  0  0  0  0
   11.2100   13.5570   24.8970 C   0  0  0  0  0  0  0  0  0  0  0  0
   10.1330   14.5890   24.5980 C   0  0  0  0  0  0  0  0  0  0  0  0
    9.6670   14.7210   23.3690 N   0  0  0  0  0  0  0  0  0  0  0  0
    9.6680   15.2800   25.4880 O   0  0  0  0  0  0  0  0  0  0  0  0
   11.1460    9.9290   25.4610 N   0  0  0  0  0  0  0  0  0  0  0  0
   11.9410    8.6900   25.4370 C   0  0  2  0  0  0  0  0  0  0  0  0
   11.6690    7.8570   24.1890 C   0  0  0  0  0  0  0  0  0  0  0  0
   10.5860    7.9190   23.6040 O   0  0  0  0  0  0  0  0  0  0  0  0
   11.6970    7.8500   26.7050 C   0  0  0  0  0  0  0  0  0  0  0  0
   12.3390    8.4400   27.9670 C   0  0  0  0  0  0  0  0  0  0  0  0
   12.2950    7.4060   29.1010 C   0  0  0  0  0  0  0  0  0  0  0  0
   13.2170    7.7560   30.2020 N   0  0  0  0  0  0  0  0  0  0  0  0
   13.8280    6.8940   31.0000 C   0  0  0  0  0  0  0  0  0  0  0  0
   13.5900    5.6180   30.9630 N   0  0  0  0  0  0  0  0  0  0  0  0
   14.7210    7.3010   31.8580 N   0  0  0  0  0  0  0  0  0  0  0  0
   12.6500    7.0410   23.8190 N   0  0  0  0  0  0  0  0  0  0  0  0
   12.4400    5.9440   22.8890 C   0  0  2  0  0  0  0  0  0  0  0  0
   11.3580    5.0000   23.4340 C   0  0  0  0  0  0  0  0  0  0  0  0
   11.3380    4.6780   24.6230 O   0  0  0  0  0  0  0  0  0  0  0  0
   13.7580    5.2120   22.6580 C   0  0  0  0  0  0  0  0  0  0  0  0
   10.4660    4.5660   22.5510 N   0  0  0  0  0  0  0  0  0  0  0  0
    9.1670    3.9690   22.8810 C   0  0  2  0  0  0  0  0  0  0  0  0
    9.0330    2.5950   22.2140 C   0  0  1  0  0  0  0  0  0  0  0  0
    9.7250    2.2940   21.2390 O   0  0  0  0  0  0  0  0  0  0  0  0
    8.0490    4.9830   22.5580 C   0  0  1  0  0  0  0  0  0  0  0  0
    6.6280    4.4460   22.7070 C   0  0  0  0  0  0  0  0  0  0  0  0
    8.1480    6.0640   23.4650 O   0  0  0  0  0  0  0  0  0  0  0  0
    8.1940    1.7260   22.7870 N   0  0  0  0  0  0  0  0  0  0  0  0
    8.2110    0.2770   22.5670 C   0  0  2  0  0  0  0  0  0  0  0  0
    6.8180   -0.2720   22.2710 C   0  0  0  0  0  0  0  0  0  0  0  0
    5.8380    0.0640   22.9320 O   0  0  0  0  0  0  0  0  0  0  0  0
    8.8300   -0.4270   23.7890 C   0  0  0  0  0  0  0  0  0  0  0  0
   10.3560   -0.5830   23.7000 C   0  0  1  0  0  0  0  0  0  0  0  0
   10.9160   -0.9230   25.0810 C   0  0  0  0  0  0  0  0  0  0  0  0
   10.7330   -1.7140   22.7400 C   0  0  0  0  0  0  0  0  0  0  0  0
    6.7620   -1.1670   21.2890 N   0  0  0  0  0  0  0  0  0  0  0  0
    5.5390   -1.5530   20.5850 C   0  0  2  0  0  0  0  0  0  0  0  0
    5.3590   -3.0840   20.5650 C   0  0  0  0  0  0  0  0  0  0  0  0
    4.7430   -3.6530   19.6660 O   0  0  0  0  0  0  0  0  0  0  0  0
    5.5420   -0.8830   19.2010 C   0  0  0  0  0  0  0  0  0  0  0  0
    5.4540    0.6580   19.2760 C   0  0  0  0  0  0  0  0  0  0  0  0
    5.7200    1.3170   17.9310 C   0  0  0  0  0  0  0  0  0  0  0  0
    5.3500    2.5550   17.7340 N   0  0  0  0  0  0  0  0  0  0  0  0
    6.3000    0.7340   17.0310 O   0  0  0  0  0  0  0  0  0  0  0  0
    5.8900   -3.7690   21.5790 N   0  0  0  0  0  0  0  0  0  0  0  0
    5.6110   -5.1750   21.8730 C   0  0  2  0  0  0  0  0  0  0  0  0
    4.2270   -5.3440   22.5400 C   0  0  0  0  0  0  0  0  0  0  0  0
    3.5220   -4.3610   22.7910 O   0  0  0  0  0  0  0  0  0  0  0  0
    6.7600   -5.7060   22.7440 C   0  0  0  0  0  0  0  0  0  0  0  0
    3.8450   -6.5860   22.8290 N   0  0  0  0  0  0  0  0  0  0  0  0
    2.6500   -6.9810   23.5910 C   0  0  2  0  0  0  0  0  0  0  0  0
    3.0380   -8.1220   24.5550 C   0  0  0  0  0  0  0  0  0  0  0  0
    4.2240   -8.3030   24.8320 O   0  0  0  0  0  0  0  0  0  0  0  0
    1.4830   -7.2650   22.6050 C   0  0  2  0  0  0  0  0  0  0  0  0
    0.0590   -7.3140   23.2010 C   0  0  0  0  0  0  0  0  0  0  0  0
    1.7080   -8.5300   21.7580 C   0  0  0  0  0  0  0  0  0  0  0  0
   -0.2910   -6.1210   24.0980 C   0  0  0  0  0  0  0  0  0  0  0  0
    2.0800   -8.8740   25.0880 N   0  0  0  0  0  0  0  0  0  0  0  0
    2.2900   -9.9730   26.0300 C   0  0  2  0  0  0  0  0  0  0  0  0
    1.2530  -11.0860   25.8080 C   0  0  2  0  0  0  0  0  0  0  0  0
    0.2210  -10.8660   25.1720 O   0  0  0  0  0  0  0  0  0  0  0  0
    2.2220   -9.4060   27.4550 C   0  0  0  0  0  0  0  0  0  0  0  0
    1.5050  -12.2570   26.3880 N   0  0  0  0  0  0  0  0  0  0  0  0
    0.6610  -13.4600   26.3400 C   0  0  2  0  0  0  0  0  0  0  0  0
   -0.1190  -13.6930   27.6450 C   0  0  0  0  0  0  0  0  0  0  0  0
   -0.5950  -14.7990   27.8930 O   0  0  0  0  0  0  0  0  0  0  0  0
    1.5310  -14.6710   25.9680 C   0  0  0  0  0  0  0  0  0  0  0  0
    2.7080  -14.7660   26.7520 O   0  0  0  0  0  0  0  0  0  0  0  0
   -0.2520  -12.6390   28.4610 N   0  0  0  0  0  0  0  0  0  0  0  0
    0.3650  -12.5880   29.8080 C   0  0  2  0  0  0  0  0  0  0  0  0
    1.9080  -12.5930   29.7660 C   0  0  2  0  0  0  0  0  0  0  0  0
    2.4910  -11.7870   30.5190 O   0  0  0  0  0  0  0  0  0  0  0  0
   -0.2780  -13.5990   30.7820 C   0  0  0  0  0  0  0  0  0  0  0  0
    0.0800  -13.3180   32.2530 C   0  0  0  0  0  0  0  0  0  0  0  0
   -0.8340  -14.0830   33.2310 C   0  0  0  0  0  0  0  0  0  0  0  0
   -0.4630  -15.2070   33.6460 O   0  0  0  0  0  0  0  0  0  0  0  0
   -1.9010  -13.5270   33.5880 O   0  0  0  0  0  0  0  0  0  0  0  0
    2.4950  -13.2800   28.8980 O   0  0  0  0  0  0  0  0  0  0  0  0
  2  1  1  1
  3  2  1  0
  4  3  1  0
  5  2  1  0
  6  5  1  0
  7  6  1  0
  8  6  1  0
  9  3  1  0
 10  9  1  0
 11 10  1  0
 12 11  1  0
 10 13  1  1
 14 13  1  0
 15 14  1  0
 16 15  1  0
 17 16  1  0
 18 17  1  0
 19 17  1  0
 20 11  1  0
 21 20  1  0
 22 21  1  0
 23 22  1  0
 21 24  1  1
 25 22  1  0
 26 25  1  6
 27 26  1  0
 27 28  1  1
 29 26  1  0
 29 30  1  1
 31 29  1  0
 32 27  1  0
 33 32  1  0
 34 33  1  0
 35 34  1  0
 33 36  1  1
 37 36  1  0
 37 38  1  1
 39 37  1  0
 40 34  1  0
 41 40  1  0
 42 41  1  0
 43 42  1  0
 41 44  1  6
 45 44  1  0
 46 45  1  0
 47 46  1  0
 48 46  1  0
 49 42  1  0
 50 49  1  0
 51 50  1  0
 52 51  1  0
 50 53  1  1
 54 51  1  0
 55 54  1  6
 56 55  1  0
 57 56  1  0
 58 55  1  0
 59 58  1  0
 58 60  1  1
 61 59  1  0
 62 56  1  0
 63 62  1  0
 64 63  1  0
 64 65  1  1
 63 66  1  1
 67 64  1  0
 68 67  1  0
 69 68  1  0
 70 69  1  0
 68 71  1  1
 72 71  1  0
 73 69  1  0
 74 73  1  0
 75 74  1  0
 75 76  1  6
 74 77  1  1
 78 77  1  0
 79 78  1  0
 80 79  1  0
 81 79  1  0
 82 75  1  0
M  END
>  <ref_mols>
x0107_0A

>  <ref_pdb>
6YB7_GM/NRATLQ-AIASE.pdb

>  <original SMILES>
CC[C@@H](C)[C@H]([C@@H](N[C@H](C)[C@H](N[C@H](CO)[C@H](N[C@H](CCC(O)O)C(O)O)O)O)O)N[C@@H]([C@@H](C)N[C@@H]([C@@H](CC[C@H](N)O)N[C@@H]([C@@H](CC(C)C)N[C@H]([C@@H]([C@H](C)O)N[C@@H]([C@@H](C)N[C@@H]([C@@H](CCCNC(N)N)N[C@@H]([C@@H](C[C@H](N)O)N)O)O)O)O)O)O)O

>  <ID>
NRATLQ-AIASE

$$$$
