ver_1.2
     RDKit          2D

  0  0  0  0  0  0  0  0  0  0999 V2000
M  END
>  <ref_url>  (1) 
https://github.com/stephwills/fragment_network_merges

>  <submitter_name>  (1) 
Steph Wills

>  <submitter_institution>  (1) 
University of Oxford

>  <submitter_email>  (1) 
stephanie.wills@balliol.ox.ac.uk

>  <generation_date>  (1) 
2023-09-06

>  <method>  (1) 
fragNetMergingIt3

>  <original SMILES>  (1) 
smiles

>  <original_name>  (1) 
unique name given to mols

>  <ref_mols>  (1) 
inspirational fragments

>  <ref_pdb>  (1) 
ref pdb

>  <sucos>  (1) 
Score SuCOS_score

$$$$
x1071-0A-x0980-0B-138
     RDKit          3D

 22 23  0  0  0  0  0  0  0  0999 V2000
   -7.7460    0.0190   -1.1630 C   0  0  0  0  0  0  0  0  0  0  0  0
   -6.2530   -0.9540   -1.0960 S   0  0  0  0  0  6  0  0  0  0  0  0
   -5.1900   -0.1510   -1.6580 O   0  0  0  0  0  0  0  0  0  0  0  0
   -6.1700   -1.5660    0.2150 O   0  0  0  0  0  0  0  0  0  0  0  0
   -6.5300   -2.2160   -2.1970 N   0  0  0  0  0  0  0  0  0  0  0  0
   -6.5240   -3.6320   -1.7890 C   0  0  0  0  0  0  0  0  0  0  0  0
   -6.7060   -4.4380   -2.8930 C   0  0  0  0  0  0  0  0  0  0  0  0
   -6.9610   -3.9560   -3.9880 O   0  0  0  0  0  0  0  0  0  0  0  0
   -6.6010   -5.8080   -2.7680 N   0  0  0  0  0  0  0  0  0  0  0  0
   -5.4120   -6.3730   -2.1380 C   0  0  0  0  0  0  0  0  0  0  0  0
   -5.3020   -7.7460   -2.6980 C   0  0  0  0  0  0  0  0  0  0  0  0
   -6.0830   -7.6950   -3.9640 C   0  0  0  0  0  0  0  0  0  0  0  0
   -7.2030   -6.7380   -3.7300 C   0  0  2  0  0  0  0  0  0  0  0  0
   -7.7660   -6.0830   -4.9120 C   0  0  0  0  0  0  0  0  0  0  0  0
   -8.1270   -6.9100   -6.0200 N   0  0  0  0  0  0  0  0  0  0  0  0
   -7.6970   -6.6950   -7.3250 C   0  0  0  0  0  0  0  0  0  0  0  0
   -7.2850   -7.5860   -8.0510 O   0  0  0  0  0  0  0  0  0  0  0  0
   -7.8080   -5.3030   -7.7810 C   0  0  0  0  0  0  0  0  0  0  0  0
   -8.8680   -4.4730   -7.4970 C   0  0  0  0  0  0  0  0  0  0  0  0
   -8.5390   -3.3190   -8.1020 C   0  0  0  0  0  0  0  0  0  0  0  0
   -7.3320   -3.4590   -8.7260 O   0  0  0  0  0  0  0  0  0  0  0  0
   -6.8290   -4.7000   -8.5540 N   0  0  0  0  0  0  0  0  0  0  0  0
  1  2  1  0
  2  3  2  0
  2  4  2  0
  2  5  1  0
  5  6  1  0
  6  7  1  0
  7  8  2  0
  7  9  1  0
  9 10  1  0
 10 11  1  0
 11 12  1  0
 12 13  1  0
 13 14  1  6
 14 15  1  0
 15 16  1  0
 16 17  2  0
 16 18  1  0
 18 19  1  0
 19 20  2  0
 20 21  1  0
 21 22  1  0
 13  9  1  0
 22 18  2  0
M  END
>  <pair>  (2) 
x1071_0A-x0980_0B

>  <sucos>  (2) 
0.44580598077415834

>  <ref_mols>  (2) 
x1071_0A,x0980_0B

>  <original SMILES>  (2) 
CS(=O)(=O)NCC(=O)N1CCCC1CNC(=O)c1ccon1

>  <cmpd_ids>  (2) 
ENAMINE:PV-002861761906

>  <ref_url>  (2) 
https://github.com/stephwills/fragment_network_merges

>  <submitter_name>  (2) 
Steph Wills

>  <submitter_institution>  (2) 
University of Oxford

>  <submitter_email>  (2) 
stephanie.wills@balliol.ox.ac.uk

>  <generation_date>  (2) 
2023-09-06

>  <method>  (2) 
fragNetMergingIt3

>  <ref_pdb>  (2) 
x1071_0A,x0980_0B

$$$$
x1052-1A-x1498-0A-97
     RDKit          3D

 22 23  0  0  0  0  0  0  0  0999 V2000
   -6.3730   -3.4400   -1.6350 C   0  0  0  0  0  0  0  0  0  0  0  0
   -6.3500   -4.9570   -1.4190 C   0  0  0  0  0  0  0  0  0  0  0  0
   -5.4040   -5.8030   -2.2520 C   0  0  0  0  0  0  0  0  0  0  0  0
   -5.6800   -7.0720   -1.7980 C   0  0  0  0  0  0  0  0  0  0  0  0
   -5.1370   -8.4310   -2.1910 C   0  0  0  0  0  0  0  0  0  0  0  0
   -3.9700   -8.6310   -2.5080 O   0  0  0  0  0  0  0  0  0  0  0  0
   -6.0510   -9.4750   -2.2050 N   0  0  0  0  0  0  0  0  0  0  0  0
   -6.0970  -10.3990   -3.3280 C   0  0  0  0  0  0  0  0  0  0  0  0
   -5.6660   -9.8130   -4.5470 C   0  0  0  0  0  0  0  0  0  0  0  0
   -6.7560   -9.7880   -5.3860 C   0  0  2  0  0  0  0  0  0  0  0  0
   -6.6730  -10.9630   -6.3690 C   0  0  0  0  0  0  0  0  0  0  0  0
   -6.8560   -8.5170   -6.1080 N   0  0  0  0  0  0  0  0  0  0  0  0
   -8.0910   -7.9500   -6.3690 C   0  0  0  0  0  0  0  0  0  0  0  0
   -9.1360   -8.5700   -6.1870 O   0  0  0  0  0  0  0  0  0  0  0  0
   -8.1790   -6.5310   -6.9020 C   0  0  0  0  0  0  0  0  0  0  0  0
   -7.3260   -6.0040   -7.8710 C   0  0  0  0  0  0  0  0  0  0  0  0
   -7.5090   -4.6950   -8.2920 C   0  0  0  0  0  0  0  0  0  0  0  0
   -8.4730   -3.8830   -7.8190 N   0  0  0  0  0  0  0  0  0  0  0  0
   -9.2830   -4.3990   -6.8840 C   0  0  0  0  0  0  0  0  0  0  0  0
   -9.1810   -5.6910   -6.4020 C   0  0  0  0  0  0  0  0  0  0  0  0
   -6.6540   -6.9930   -0.8090 O   0  0  0  0  0  0  0  0  0  0  0  0
   -7.0750   -5.6800   -0.5780 N   0  0  0  0  0  0  0  0  0  0  0  0
  1  2  1  0
  2  3  1  0
  3  4  2  0
  4  5  1  0
  5  6  2  0
  5  7  1  0
  7  8  1  0
  8  9  1  0
  9 10  1  0
 10 11  1  6
 10 12  1  0
 12 13  1  0
 13 14  2  0
 13 15  1  0
 15 16  2  0
 16 17  1  0
 17 18  2  0
 18 19  1  0
 19 20  2  0
  4 21  1  0
 21 22  1  0
 22  2  2  0
 20 15  1  0
M  END
>  <pair>  (3) 
x1052_1A-x1498_0A

>  <sucos>  (3) 
0.5072693981616699

>  <ref_mols>  (3) 
x1052_1A,x1498_0A

>  <original SMILES>  (3) 
Cc1cc(C(=O)NCCC(C)NC(=O)c2ccncc2)on1

>  <cmpd_ids>  (3) 
ENAMINE:PV-001424899780,ENAMINE:PV-001774285263

>  <ref_url>  (3) 
https://github.com/stephwills/fragment_network_merges

>  <submitter_name>  (3) 
Steph Wills

>  <submitter_institution>  (3) 
University of Oxford

>  <submitter_email>  (3) 
stephanie.wills@balliol.ox.ac.uk

>  <generation_date>  (3) 
2023-09-06

>  <method>  (3) 
fragNetMergingIt3

>  <ref_pdb>  (3) 
x1052_1A,x1498_0A

$$$$
x1071-0A-x0980-0B-143
     RDKit          3D

 22 23  0  0  0  0  0  0  0  0999 V2000
   -5.3280   -7.8110   -5.6570 C   0  0  0  0  0  0  0  0  0  0  0  0
   -6.5820   -7.0960   -5.7820 N   0  0  0  0  0  0  0  0  0  0  0  0
   -6.9920   -6.9420   -7.2130 C   0  0  0  0  0  0  0  0  0  0  0  0
   -6.8630   -7.8450   -8.0470 O   0  0  0  0  0  0  0  0  0  0  0  0
   -7.5900   -5.5730   -7.6210 C   0  0  0  0  0  0  0  0  0  0  0  0
   -8.8130   -5.0160   -7.1890 C   0  0  0  0  0  0  0  0  0  0  0  0
   -8.8680   -3.6960   -7.9130 C   0  0  0  0  0  0  0  0  0  0  0  0
   -7.7440   -3.5840   -8.6670 O   0  0  0  0  0  0  0  0  0  0  0  0
   -6.9380   -4.7140   -8.5140 N   0  0  0  0  0  0  0  0  0  0  0  0
   -7.4530   -7.3060   -4.5780 C   0  0  2  0  0  0  0  0  0  0  0  0
   -8.8300   -6.6270   -4.4720 C   0  0  0  0  0  0  0  0  0  0  0  0
   -8.8470   -5.9050   -3.1220 C   0  0  0  0  0  0  0  0  0  0  0  0
   -7.4680   -5.6450   -2.7770 N   0  0  0  0  0  0  0  0  0  0  0  0
   -6.9850   -4.4220   -3.1990 C   0  0  0  0  0  0  0  0  0  0  0  0
   -7.1150   -4.1190   -4.3700 O   0  0  0  0  0  0  0  0  0  0  0  0
   -6.3100   -3.4970   -2.1970 C   0  0  0  0  0  0  0  0  0  0  0  0
   -7.1220   -2.3770   -1.7400 N   0  0  0  0  0  0  0  0  0  0  0  0
   -6.3850   -1.0140   -1.1020 S   0  0  0  0  0  6  0  0  0  0  0  0
   -7.7840    0.0560   -0.8510 C   0  0  0  0  0  0  0  0  0  0  0  0
   -5.5370   -0.4050   -2.1060 O   0  0  0  0  0  0  0  0  0  0  0  0
   -5.8740   -1.3950    0.1950 O   0  0  0  0  0  0  0  0  0  0  0  0
   -6.7460   -6.8340   -3.2600 C   0  0  0  0  0  0  0  0  0  0  0  0
  1  2  1  0
  2  3  1  0
  3  4  2  0
  3  5  1  0
  5  6  1  0
  6  7  2  0
  7  8  1  0
  8  9  1  0
 10  2  1  6
 10 11  1  0
 11 12  1  0
 12 13  1  0
 13 14  1  0
 14 15  2  0
 14 16  1  0
 16 17  1  0
 17 18  1  0
 18 19  1  0
 18 20  2  0
 18 21  2  0
 13 22  1  0
  9  5  2  0
 22 10  1  0
M  END
>  <pair>  (4) 
x1071_0A-x0980_0B

>  <sucos>  (4) 
0.4174046885613006

>  <ref_mols>  (4) 
x1071_0A,x0980_0B

>  <original SMILES>  (4) 
CN(C(=O)c1ccon1)C1CCN(C(=O)CNS(C)(=O)=O)C1

>  <cmpd_ids>  (4) 
ENAMINE:PV-003461820455

>  <ref_url>  (4) 
https://github.com/stephwills/fragment_network_merges

>  <submitter_name>  (4) 
Steph Wills

>  <submitter_institution>  (4) 
University of Oxford

>  <submitter_email>  (4) 
stephanie.wills@balliol.ox.ac.uk

>  <generation_date>  (4) 
2023-09-06

>  <method>  (4) 
fragNetMergingIt3

>  <ref_pdb>  (4) 
x1071_0A,x0980_0B

$$$$
x1071-0A-x1498-0A-153
     RDKit          3D

 22 23  0  0  0  0  0  0  0  0999 V2000
   -7.7190    0.2850   -0.8910 C   0  0  0  0  0  0  0  0  0  0  0  0
   -6.3650   -0.8650   -1.0250 S   0  0  0  0  0  6  0  0  0  0  0  0
   -5.3220   -0.2120   -1.7860 O   0  0  0  0  0  0  0  0  0  0  0  0
   -6.1390   -1.4470    0.2820 O   0  0  0  0  0  0  0  0  0  0  0  0
   -6.9940   -2.0490   -2.0080 N   0  0  0  0  0  0  0  0  0  0  0  0
   -6.2620   -3.3060   -2.1460 C   0  0  0  0  0  0  0  0  0  0  0  0
   -7.1050   -4.2950   -2.9230 C   0  0  0  0  0  0  0  0  0  0  0  0
   -7.0020   -4.3580   -4.1500 O   0  0  0  0  0  0  0  0  0  0  0  0
   -7.9820   -5.0920   -2.2260 N   0  0  0  0  0  0  0  0  0  0  0  0
   -8.3560   -6.3760   -2.7680 C   0  0  0  0  0  0  0  0  0  0  0  0
   -9.8590   -6.2620   -3.0510 C   0  0  0  0  0  0  0  0  0  0  0  0
  -10.2960   -4.9180   -2.4370 C   0  0  2  0  0  0  0  0  0  0  0  0
  -10.4460   -3.8170   -3.4970 C   0  0  0  0  0  0  0  0  0  0  0  0
  -10.9190   -4.3070   -4.7770 N   0  0  0  0  0  0  0  0  0  0  0  0
  -10.5560   -3.6960   -5.9660 C   0  0  0  0  0  0  0  0  0  0  0  0
  -11.0830   -2.6660   -6.3880 O   0  0  0  0  0  0  0  0  0  0  0  0
   -9.4670   -4.3920   -6.7000 C   0  0  0  0  0  0  0  0  0  0  0  0
   -9.0320   -5.7030   -6.5280 C   0  0  0  0  0  0  0  0  0  0  0  0
   -7.9930   -6.0110   -7.3880 C   0  0  0  0  0  0  0  0  0  0  0  0
   -7.6240   -4.6660   -8.3570 S   0  0  0  0  0  0  0  0  0  0  0  0
   -8.7710   -3.7050   -7.6810 N   0  0  0  0  0  0  0  0  0  0  0  0
   -9.1340   -4.6100   -1.4770 C   0  0  0  0  0  0  0  0  0  0  0  0
  1  2  1  0
  2  3  2  0
  2  4  2  0
  2  5  1  0
  5  6  1  0
  6  7  1  0
  7  8  2  0
  7  9  1  0
  9 10  1  0
 10 11  1  0
 11 12  1  0
 12 13  1  6
 13 14  1  0
 14 15  1  0
 15 16  2  0
 15 17  1  0
 17 18  1  0
 18 19  2  0
 19 20  1  0
 20 21  1  0
 12 22  1  0
 22  9  1  0
 21 17  2  0
M  END
>  <pair>  (5) 
x1071_0A-x1498_0A

>  <sucos>  (5) 
0.6048555082317835

>  <ref_mols>  (5) 
x1071_0A,x1498_0A

>  <original SMILES>  (5) 
CS(=O)(=O)NCC(=O)N1CCC(CNC(=O)c2ccsn2)C1

>  <cmpd_ids>  (5) 
ENAMINE:PV-002919380066

>  <ref_url>  (5) 
https://github.com/stephwills/fragment_network_merges

>  <submitter_name>  (5) 
Steph Wills

>  <submitter_institution>  (5) 
University of Oxford

>  <submitter_email>  (5) 
stephanie.wills@balliol.ox.ac.uk

>  <generation_date>  (5) 
2023-09-06

>  <method>  (5) 
fragNetMergingIt3

>  <ref_pdb>  (5) 
x1071_0A,x1498_0A

$$$$
x1052-1A-x1140-0A-190
     RDKit          3D

 21 23  0  0  0  0  0  0  0  0999 V2000
   -4.4500   -7.0470    0.3820 C   0  0  0  0  0  0  0  0  0  0  0  0
   -5.4800   -6.4760   -0.4850 C   0  0  0  0  0  0  0  0  0  0  0  0
   -5.5930   -6.0140   -1.8200 C   0  0  0  0  0  0  0  0  0  0  0  0
   -6.8160   -5.6010   -2.1190 C   0  0  0  0  0  0  0  0  0  0  0  0
   -7.2280   -5.1570   -3.3340 N   0  0  0  0  0  0  0  0  0  0  0  0
   -7.0840   -6.0610   -4.3690 C   0  0  0  0  0  0  0  0  0  0  0  0
   -7.8450   -6.2570   -5.3110 O   0  0  0  0  0  0  0  0  0  0  0  0
   -5.8030   -6.8350   -4.2140 C   0  0  0  0  0  0  0  0  0  0  0  0
   -5.9490   -8.1570   -3.4710 C   0  0  0  0  0  0  0  0  0  0  0  0
   -5.2700   -8.3430   -2.1320 C   0  0  0  0  0  0  0  0  0  0  0  0
   -5.9160   -9.0910   -1.1450 C   0  0  0  0  0  0  0  0  0  0  0  0
   -5.3930   -9.3300    0.1270 C   0  0  0  0  0  0  0  0  0  0  0  0
   -4.1540   -8.8060    0.4770 C   0  0  0  0  0  0  0  0  0  0  0  0
   -3.4140   -8.0410   -0.4170 C   0  0  0  0  0  0  0  0  0  0  0  0
   -4.0040   -7.7980   -1.8040 C   0  0  0  0  0  0  0  0  0  0  0  0
   -2.1900   -7.5070   -0.0850 O   0  0  0  0  0  0  0  0  0  0  0  0
   -1.7640   -7.8530    1.2500 C   0  0  0  0  0  0  0  0  0  0  0  0
   -2.9080   -8.0630    2.2300 C   0  0  0  0  0  0  0  0  0  0  0  0
   -3.7590   -9.1080    1.7470 O   0  0  0  0  0  0  0  0  0  0  0  0
   -7.5810   -5.7300   -1.0140 N   0  0  0  0  0  0  0  0  0  0  0  0
   -6.7530   -6.2800   -0.0050 O   0  0  0  0  0  0  0  0  0  0  0  0
  1  2  1  0
  2  3  2  0
  3  4  1  0
  4  5  1  0
  5  6  1  0
  6  7  2  0
  6  8  1  0
  8  9  1  0
  9 10  1  0
 10 11  2  0
 11 12  1  0
 12 13  2  0
 13 14  1  0
 14 15  2  0
 14 16  1  0
 16 17  1  0
 17 18  1  0
 18 19  1  0
  4 20  2  0
 20 21  1  0
 21  2  1  0
 15 10  1  0
 19 13  1  0
M  END
>  <pair>  (6) 
x1052_1A-x1140_0A

>  <sucos>  (6) 
0.46339144303292473

>  <ref_mols>  (6) 
x1052_1A,x1140_0A

>  <original SMILES>  (6) 
Cc1cc(NC(=O)CCc2ccc3c(c2)OCCO3)no1

>  <cmpd_ids>  (6) 
ENAMINE:Z200518516

>  <ref_url>  (6) 
https://github.com/stephwills/fragment_network_merges

>  <submitter_name>  (6) 
Steph Wills

>  <submitter_institution>  (6) 
University of Oxford

>  <submitter_email>  (6) 
stephanie.wills@balliol.ox.ac.uk

>  <generation_date>  (6) 
2023-09-06

>  <method>  (6) 
fragNetMergingIt3

>  <ref_pdb>  (6) 
x1052_1A,x1140_0A

$$$$
x1140-0A-x0980-0B-193
     RDKit          3D

 27 30  0  0  0  0  0  0  0  0999 V2000
   -9.4200   -6.5060   -5.3840 C   0  0  0  0  0  0  0  0  0  0  0  0
   -9.6800   -5.5910   -4.3190 C   0  0  1  0  0  0  0  0  0  0  0  0
   -8.5970   -5.4510   -3.3400 N   0  0  0  0  0  0  0  0  0  0  0  0
   -7.2660   -5.4810   -3.6360 C   0  0  0  0  0  0  0  0  0  0  0  0
   -6.5520   -4.4960   -3.8350 O   0  0  0  0  0  0  0  0  0  0  0  0
   -6.8380   -6.7920   -3.6810 N   0  0  0  0  0  0  0  0  0  0  0  0
   -5.4360   -7.1250   -3.5880 C   0  0  0  0  0  0  0  0  0  0  0  0
   -5.1370   -7.7000   -2.3830 C   0  0  0  0  0  0  0  0  0  0  0  0
   -5.8590   -8.7280   -1.6450 C   0  0  0  0  0  0  0  0  0  0  0  0
   -5.3730   -9.1900   -0.3620 C   0  0  0  0  0  0  0  0  0  0  0  0
   -4.1960   -8.6260    0.1460 C   0  0  0  0  0  0  0  0  0  0  0  0
   -3.5250   -7.6700   -0.5640 C   0  0  0  0  0  0  0  0  0  0  0  0
   -3.9570   -7.2030   -1.7890 C   0  0  0  0  0  0  0  0  0  0  0  0
   -2.4090   -7.2580    0.0860 O   0  0  0  0  0  0  0  0  0  0  0  0
   -2.5800   -7.8990    1.3600 C   0  0  0  0  0  0  0  0  0  0  0  0
   -3.5940   -8.9240    1.3280 O   0  0  0  0  0  0  0  0  0  0  0  0
  -10.1770   -4.2340   -4.8130 C   0  0  0  0  0  0  0  0  0  0  0  0
  -11.1240   -3.5890   -4.0210 C   0  0  0  0  0  0  0  0  0  0  0  0
  -11.6960   -2.3260   -4.3400 C   0  0  0  0  0  0  0  0  0  0  0  0
  -11.2860   -1.7010   -5.5090 C   0  0  0  0  0  0  0  0  0  0  0  0
  -10.3410   -2.3490   -6.2900 C   0  0  0  0  0  0  0  0  0  0  0  0
   -9.7710   -3.5900   -5.9860 C   0  0  0  0  0  0  0  0  0  0  0  0
   -8.8140   -4.1100   -6.9200 N   0  0  0  0  0  0  0  0  0  0  0  0
   -8.8430   -3.8820   -8.2370 C   0  0  0  0  0  0  0  0  0  0  0  0
   -7.7930   -4.5600   -8.7740 C   0  0  0  0  0  0  0  0  0  0  0  0
   -7.1640   -5.1750   -7.7280 C   0  0  0  0  0  0  0  0  0  0  0  0
   -7.7680   -4.9070   -6.6010 N   0  0  0  0  0  0  0  0  0  0  0  0
  2  1  1  6
  2  3  1  0
  3  4  1  0
  4  5  2  0
  4  6  1  0
  6  7  1  0
  7  8  1  0
  8  9  2  0
  9 10  1  0
 10 11  2  0
 11 12  1  0
 12 13  2  0
 12 14  1  0
 14 15  1  0
 15 16  1  0
  2 17  1  0
 17 18  2  0
 18 19  1  0
 19 20  2  0
 20 21  1  0
 21 22  2  0
 22 23  1  0
 23 24  1  0
 24 25  2  0
 25 26  1  0
 26 27  2  0
 13  8  1  0
 22 17  1  0
 27 23  1  0
 16 11  1  0
M  END
>  <pair>  (7) 
x1140_0A-x0980_0B

>  <sucos>  (7) 
0.43355357410850165

>  <ref_mols>  (7) 
x1140_0A,x0980_0B

>  <original SMILES>  (7) 
CC(NC(=O)NCc1ccc2c(c1)OCO2)c1ccccc1-n1cccn1

>  <cmpd_ids>  (7) 
ENAMINE:Z1416375518

>  <ref_url>  (7) 
https://github.com/stephwills/fragment_network_merges

>  <submitter_name>  (7) 
Steph Wills

>  <submitter_institution>  (7) 
University of Oxford

>  <submitter_email>  (7) 
stephanie.wills@balliol.ox.ac.uk

>  <generation_date>  (7) 
2023-09-06

>  <method>  (7) 
fragNetMergingIt3

>  <ref_pdb>  (7) 
x1140_0A,x0980_0B

$$$$
x1052-1A-x1140-0A-82
     RDKit          3D

 22 24  0  0  0  0  0  0  0  0999 V2000
   -4.4690   -6.7680    0.0230 C   0  0  0  0  0  0  0  0  0  0  0  0
   -5.7220   -6.2970   -0.6970 C   0  0  0  0  0  0  0  0  0  0  0  0
   -5.6860   -6.1250   -2.1780 C   0  0  0  0  0  0  0  0  0  0  0  0
   -7.0600   -5.7190   -2.3730 C   0  0  0  0  0  0  0  0  0  0  0  0
   -7.5450   -5.4650   -3.6540 C   0  0  0  0  0  0  0  0  0  0  0  0
   -7.3320   -6.6830   -4.4670 N   0  0  0  0  0  0  0  0  0  0  0  0
   -7.8540   -6.5860   -5.8290 C   0  0  0  0  0  0  0  0  0  0  0  0
   -6.2030   -7.4680   -4.1530 C   0  0  0  0  0  0  0  0  0  0  0  0
   -5.1790   -7.2490   -4.7410 O   0  0  0  0  0  0  0  0  0  0  0  0
   -6.3160   -8.4600   -3.1950 N   0  0  0  0  0  0  0  0  0  0  0  0
   -5.6040   -8.6170   -1.9610 C   0  0  0  0  0  0  0  0  0  0  0  0
   -6.1600   -9.3090   -0.8810 C   0  0  0  0  0  0  0  0  0  0  0  0
   -5.4630   -9.4570    0.3290 C   0  0  0  0  0  0  0  0  0  0  0  0
   -4.1900   -8.9120    0.4870 C   0  0  0  0  0  0  0  0  0  0  0  0
   -3.6050   -8.2150   -0.5760 C   0  0  0  0  0  0  0  0  0  0  0  0
   -4.3030   -8.0660   -1.8030 C   0  0  0  0  0  0  0  0  0  0  0  0
   -2.3520   -7.6590   -0.4650 O   0  0  0  0  0  0  0  0  0  0  0  0
   -1.9910   -7.4430    0.9100 C   0  0  0  0  0  0  0  0  0  0  0  0
   -2.2100   -8.6960    1.7340 C   0  0  0  0  0  0  0  0  0  0  0  0
   -3.5870   -9.1080    1.7080 O   0  0  0  0  0  0  0  0  0  0  0  0
   -7.7800   -5.6350   -1.2180 N   0  0  0  0  0  0  0  0  0  0  0  0
   -6.9310   -6.0050   -0.1660 O   0  0  0  0  0  0  0  0  0  0  0  0
  1  2  1  0
  2  3  2  0
  3  4  1  0
  4  5  1  0
  5  6  1  0
  6  7  1  0
  6  8  1  0
  8  9  2  0
  8 10  1  0
 10 11  1  0
 11 12  2  0
 12 13  1  0
 13 14  2  0
 14 15  1  0
 15 16  2  0
 15 17  1  0
 17 18  1  0
 18 19  1  0
 19 20  1  0
  4 21  2  0
 21 22  1  0
 22  2  1  0
 16 11  1  0
 20 14  1  0
M  END
>  <pair>  (8) 
x1052_1A-x1140_0A

>  <sucos>  (8) 
0.42407996982829776

>  <ref_mols>  (8) 
x1052_1A,x1140_0A

>  <original SMILES>  (8) 
Cc1cc(CN(C)C(=O)Nc2ccc3c(c2)OCCO3)no1

>  <cmpd_ids>  (8) 
ENAMINE:Z369937052

>  <ref_url>  (8) 
https://github.com/stephwills/fragment_network_merges

>  <submitter_name>  (8) 
Steph Wills

>  <submitter_institution>  (8) 
University of Oxford

>  <submitter_email>  (8) 
stephanie.wills@balliol.ox.ac.uk

>  <generation_date>  (8) 
2023-09-06

>  <method>  (8) 
fragNetMergingIt3

>  <ref_pdb>  (8) 
x1052_1A,x1140_0A

$$$$
x1052-1A-x1498-0A-195
     RDKit          3D

 23 24  0  0  0  0  0  0  0  0999 V2000
   -2.7340   -7.4480    0.3530 C   0  0  0  0  0  0  0  0  0  0  0  0
   -3.0650   -7.4330   -1.0320 O   0  0  0  0  0  0  0  0  0  0  0  0
   -4.3780   -7.9630   -1.2820 C   0  0  0  0  0  0  0  0  0  0  0  0
   -5.3040   -6.9430   -1.2210 C   0  0  0  0  0  0  0  0  0  0  0  0
   -5.4790   -5.7400   -1.9210 C   0  0  0  0  0  0  0  0  0  0  0  0
   -6.5710   -5.0480   -1.4830 C   0  0  0  0  0  0  0  0  0  0  0  0
   -7.1630   -3.8520   -1.8220 C   0  0  0  0  0  0  0  0  0  0  0  0
   -6.5470   -2.7880   -1.8350 O   0  0  0  0  0  0  0  0  0  0  0  0
   -8.5080   -3.9790   -2.1330 N   0  0  0  0  0  0  0  0  0  0  0  0
   -9.4490   -2.8740   -2.1260 C   0  0  0  0  0  0  0  0  0  0  0  0
  -10.7460   -3.2720   -2.7010 C   0  0  0  0  0  0  0  0  0  0  0  0
  -11.1350   -2.8310   -3.9760 C   0  0  1  0  0  0  0  0  0  0  0  0
  -11.4480   -1.4870   -4.1260 C   0  0  0  0  0  0  0  0  0  0  0  0
  -10.0880   -3.1640   -4.9400 N   0  0  0  0  0  0  0  0  0  0  0  0
  -10.4060   -3.7890   -6.1420 C   0  0  0  0  0  0  0  0  0  0  0  0
  -11.5500   -3.8180   -6.5940 O   0  0  0  0  0  0  0  0  0  0  0  0
   -9.2810   -4.4210   -6.8390 C   0  0  0  0  0  0  0  0  0  0  0  0
   -8.7750   -5.6910   -6.5940 C   0  0  0  0  0  0  0  0  0  0  0  0
   -7.4590   -6.0330   -7.6360 S   0  0  0  0  0  0  0  0  0  0  0  0
   -7.6370   -4.5010   -8.3430 C   0  0  0  0  0  0  0  0  0  0  0  0
   -8.6010   -3.7540   -7.8590 N   0  0  0  0  0  0  0  0  0  0  0  0
   -7.1190   -5.8210   -0.4800 N   0  0  0  0  0  0  0  0  0  0  0  0
   -6.3330   -6.9780   -0.3300 O   0  0  0  0  0  0  0  0  0  0  0  0
  1  2  1  0
  2  3  1  0
  3  4  1  0
  4  5  2  0
  5  6  1  0
  6  7  1  0
  7  8  2  0
  7  9  1  0
  9 10  1  0
 10 11  1  0
 11 12  1  0
 12 13  1  1
 12 14  1  0
 14 15  1  0
 15 16  2  0
 15 17  1  0
 17 18  2  0
 18 19  1  0
 19 20  1  0
 20 21  2  0
  6 22  2  0
 22 23  1  0
 23  4  1  0
 21 17  1  0
M  END
>  <pair>  (9) 
x1052_1A-x1498_0A

>  <sucos>  (9) 
0.5173194791758541

>  <ref_mols>  (9) 
x1052_1A,x1498_0A

>  <original SMILES>  (9) 
COCc1cc(C(=O)NCCC(C)NC(=O)c2cscn2)no1

>  <cmpd_ids>  (9) 
ENAMINE:PV-001426105151,ENAMINE:PV-001775501807

>  <ref_url>  (9) 
https://github.com/stephwills/fragment_network_merges

>  <submitter_name>  (9) 
Steph Wills

>  <submitter_institution>  (9) 
University of Oxford

>  <submitter_email>  (9) 
stephanie.wills@balliol.ox.ac.uk

>  <generation_date>  (9) 
2023-09-06

>  <method>  (9) 
fragNetMergingIt3

>  <ref_pdb>  (9) 
x1052_1A,x1498_0A

$$$$
x1052-1A-x1140-0A-80
     RDKit          3D

 21 23  0  0  0  0  0  0  0  0999 V2000
   -5.5320   -3.6620   -1.7860 C   0  0  0  0  0  0  0  0  0  0  0  0
   -6.2420   -4.9360   -1.6740 C   0  0  0  0  0  0  0  0  0  0  0  0
   -6.4690   -5.9090   -2.5700 C   0  0  0  0  0  0  0  0  0  0  0  0
   -7.2420   -6.8370   -1.8710 C   0  0  0  0  0  0  0  0  0  0  0  0
   -7.6750   -7.9760   -2.5280 N   0  0  0  0  0  0  0  0  0  0  0  0
   -6.9280   -8.4900   -3.5720 C   0  0  0  0  0  0  0  0  0  0  0  0
   -7.3420   -8.9150   -4.6460 O   0  0  0  0  0  0  0  0  0  0  0  0
   -5.6150   -8.4250   -3.1580 N   0  0  0  0  0  0  0  0  0  0  0  0
   -5.2510   -8.5490   -1.8060 C   0  0  0  0  0  0  0  0  0  0  0  0
   -6.1270   -9.0710   -0.8670 C   0  0  0  0  0  0  0  0  0  0  0  0
   -5.6940   -9.1890    0.5790 C   0  0  0  0  0  0  0  0  0  0  0  0
   -4.4320   -8.7790    0.9360 C   0  0  0  0  0  0  0  0  0  0  0  0
   -3.5800   -8.2620   -0.0400 C   0  0  0  0  0  0  0  0  0  0  0  0
   -3.9810   -8.1440   -1.3840 C   0  0  0  0  0  0  0  0  0  0  0  0
   -2.3180   -7.8530    0.2440 O   0  0  0  0  0  0  0  0  0  0  0  0
   -2.0640   -7.6260    1.6330 C   0  0  0  0  0  0  0  0  0  0  0  0
   -1.7630   -8.8070    2.2830 C   0  0  0  0  0  0  0  0  0  0  0  0
   -2.9540   -9.6970    2.5080 C   0  0  0  0  0  0  0  0  0  0  0  0
   -4.1230   -8.9250    2.2600 O   0  0  0  0  0  0  0  0  0  0  0  0
   -7.4580   -6.4610   -0.6010 N   0  0  0  0  0  0  0  0  0  0  0  0
   -6.8180   -5.2560   -0.4830 O   0  0  0  0  0  0  0  0  0  0  0  0
  1  2  1  0
  2  3  2  0
  3  4  1  0
  4  5  1  0
  5  6  1  0
  6  7  2  0
  6  8  1  0
  8  9  1  0
  9 10  2  0
 10 11  1  0
 11 12  2  0
 12 13  1  0
 13 14  2  0
 13 15  1  0
 15 16  1  0
 16 17  1  0
 17 18  1  0
 18 19  1  0
  4 20  2  0
 20 21  1  0
 21  2  1  0
 14  9  1  0
 19 12  1  0
M  END
>  <pair>  (10) 
x1052_1A-x1140_0A

>  <sucos>  (10) 
0.4053866477606668

>  <ref_mols>  (10) 
x1052_1A,x1140_0A

>  <original SMILES>  (10) 
Cc1cc(NC(=O)Nc2ccc3c(c2)OCCCO3)no1

>  <cmpd_ids>  (10) 
ENAMINE:Z166685748

>  <ref_url>  (10) 
https://github.com/stephwills/fragment_network_merges

>  <submitter_name>  (10) 
Steph Wills

>  <submitter_institution>  (10) 
University of Oxford

>  <submitter_email>  (10) 
stephanie.wills@balliol.ox.ac.uk

>  <generation_date>  (10) 
2023-09-06

>  <method>  (10) 
fragNetMergingIt3

>  <ref_pdb>  (10) 
x1052_1A,x1140_0A

$$$$
x1071-0A-x0980-0B-66
     RDKit          3D

 23 24  0  0  0  0  0  0  0  0999 V2000
   -7.7130    0.3030   -0.8870 C   0  0  0  0  0  0  0  0  0  0  0  0
   -6.3870   -0.8720   -1.0590 S   0  0  0  0  0  6  0  0  0  0  0  0
   -5.3370   -0.2410   -1.8300 O   0  0  0  0  0  0  0  0  0  0  0  0
   -6.1520   -1.4500    0.2520 O   0  0  0  0  0  0  0  0  0  0  0  0
   -7.0660   -2.0880   -1.9950 N   0  0  0  0  0  0  0  0  0  0  0  0
   -6.3520   -3.2630   -2.1590 C   0  0  0  0  0  0  0  0  0  0  0  0
   -7.0080   -4.3740   -2.9500 C   0  0  0  0  0  0  0  0  0  0  0  0
   -7.0120   -4.3460   -4.1810 O   0  0  0  0  0  0  0  0  0  0  0  0
   -7.5940   -5.4040   -2.2410 N   0  0  0  0  0  0  0  0  0  0  0  0
   -7.2780   -5.7420   -0.8590 C   0  0  0  0  0  0  0  0  0  0  0  0
   -8.5350   -6.3820   -0.4440 C   0  0  0  0  0  0  0  0  0  0  0  0
   -9.5580   -6.5310   -1.3910 C   0  0  0  0  0  0  0  0  0  0  0  0
   -8.8550   -6.0540   -2.6870 C   0  0  1  0  0  0  0  0  0  0  0  0
   -9.7650   -5.1340   -3.5240 C   0  0  0  0  0  0  0  0  0  0  0  0
  -10.2850   -5.7990   -4.8090 C   0  0  0  0  0  0  0  0  0  0  0  0
  -10.6390   -4.8030   -5.8050 N   0  0  0  0  0  0  0  0  0  0  0  0
  -10.4920   -5.0410   -7.1590 C   0  0  0  0  0  0  0  0  0  0  0  0
  -11.4130   -5.4750   -7.8510 O   0  0  0  0  0  0  0  0  0  0  0  0
   -9.1790   -4.7470   -7.7290 C   0  0  0  0  0  0  0  0  0  0  0  0
   -8.0280   -5.7040   -8.0500 C   0  0  0  0  0  0  0  0  0  0  0  0
   -6.8520   -5.0700   -8.6230 N   0  0  0  0  0  0  0  0  0  0  0  0
   -7.2270   -3.5120   -8.7090 S   0  0  0  0  0  0  0  0  0  0  0  0
   -8.8050   -3.4880   -8.0650 C   0  0  0  0  0  0  0  0  0  0  0  0
  1  2  1  0
  2  3  2  0
  2  4  2  0
  2  5  1  0
  5  6  1  0
  6  7  1  0
  7  8  2  0
  7  9  1  0
  9 10  1  0
 10 11  1  0
 11 12  1  0
 12 13  1  0
 13 14  1  1
 14 15  1  0
 15 16  1  0
 16 17  1  0
 17 18  2  0
 17 19  1  0
 19 20  1  0
 20 21  2  0
 21 22  1  0
 22 23  1  0
 13  9  1  0
 23 19  2  0
M  END
>  <pair>  (11) 
x1071_0A-x0980_0B

>  <sucos>  (11) 
0.4798750548816478

>  <ref_mols>  (11) 
x1071_0A,x0980_0B

>  <original SMILES>  (11) 
CS(=O)(=O)NCC(=O)N1CCCC1CCNC(=O)c1cnsc1

>  <cmpd_ids>  (11) 
ENAMINE:PV-003914200955

>  <ref_url>  (11) 
https://github.com/stephwills/fragment_network_merges

>  <submitter_name>  (11) 
Steph Wills

>  <submitter_institution>  (11) 
University of Oxford

>  <submitter_email>  (11) 
stephanie.wills@balliol.ox.ac.uk

>  <generation_date>  (11) 
2023-09-06

>  <method>  (11) 
fragNetMergingIt3

>  <ref_pdb>  (11) 
x1071_0A,x0980_0B

$$$$
x1052-1A-x0980-0B-197
     RDKit          3D

 22 23  0  0  0  0  0  0  0  0999 V2000
  -10.5550   -2.6680   -5.9490 C   0  0  0  0  0  0  0  0  0  0  0  0
  -10.8600   -3.8960   -5.0730 C   0  0  2  0  0  0  0  0  0  0  0  0
  -10.1970   -3.6880   -3.6880 C   0  0  0  0  0  0  0  0  0  0  0  0
   -8.9390   -4.3000   -3.5590 C   0  0  0  0  0  0  0  0  0  0  0  0
   -8.2600   -3.7960   -2.3820 N   0  0  0  0  0  0  0  0  0  0  0  0
   -6.8860   -3.8990   -2.2420 C   0  0  0  0  0  0  0  0  0  0  0  0
   -6.1030   -3.0230   -2.5870 O   0  0  0  0  0  0  0  0  0  0  0  0
   -6.4740   -5.1030   -1.6480 C   0  0  0  0  0  0  0  0  0  0  0  0
   -5.3650   -5.9190   -1.9970 C   0  0  0  0  0  0  0  0  0  0  0  0
   -5.5160   -7.0320   -0.9680 C   0  0  0  0  0  0  0  0  0  0  0  0
   -4.5970   -8.1890   -0.8700 C   0  0  0  0  0  0  0  0  0  0  0  0
   -4.7630   -8.9930    0.2220 O   0  0  0  0  0  0  0  0  0  0  0  0
   -6.5810   -6.8140   -0.1800 O   0  0  0  0  0  0  0  0  0  0  0  0
   -7.1740   -5.6250   -0.5970 N   0  0  0  0  0  0  0  0  0  0  0  0
  -10.3840   -5.1410   -5.7080 N   0  0  0  0  0  0  0  0  0  0  0  0
  -10.2730   -5.2930   -7.0840 C   0  0  0  0  0  0  0  0  0  0  0  0
  -11.2460   -5.6490   -7.7670 O   0  0  0  0  0  0  0  0  0  0  0  0
   -9.0210   -5.0130   -7.6140 C   0  0  0  0  0  0  0  0  0  0  0  0
   -7.8430   -5.8150   -7.9360 C   0  0  0  0  0  0  0  0  0  0  0  0
   -6.7950   -5.1100   -8.4750 N   0  0  0  0  0  0  0  0  0  0  0  0
   -7.1480   -3.8690   -8.5450 C   0  0  0  0  0  0  0  0  0  0  0  0
   -8.6980   -3.4020   -8.0170 S   0  0  0  0  0  0  0  0  0  0  0  0
  2  1  1  6
  2  3  1  0
  3  4  1  0
  4  5  1  0
  5  6  1  0
  6  7  2  0
  6  8  1  0
  8  9  1  0
  9 10  2  0
 10 11  1  0
 11 12  1  0
 10 13  1  0
 13 14  1  0
  2 15  1  0
 15 16  1  0
 16 17  2  0
 16 18  1  0
 18 19  2  0
 19 20  1  0
 20 21  2  0
 21 22  1  0
 14  8  2  0
 22 18  1  0
M  END
>  <pair>  (12) 
x1052_1A-x0980_0B

>  <sucos>  (12) 
0.4056659679260608

>  <ref_mols>  (12) 
x1052_1A,x0980_0B

>  <original SMILES>  (12) 
CC(CCNC(=O)c1cc(CO)on1)NC(=O)c1cncs1

>  <cmpd_ids>  (12) 
ENAMINE:PV-002828451785

>  <ref_url>  (12) 
https://github.com/stephwills/fragment_network_merges

>  <submitter_name>  (12) 
Steph Wills

>  <submitter_institution>  (12) 
University of Oxford

>  <submitter_email>  (12) 
stephanie.wills@balliol.ox.ac.uk

>  <generation_date>  (12) 
2023-09-06

>  <method>  (12) 
fragNetMergingIt3

>  <ref_pdb>  (12) 
x1052_1A,x0980_0B

$$$$
x1071-0A-x0980-0B-40
     RDKit          3D

 23 24  0  0  0  0  0  0  0  0999 V2000
   -9.3060   -7.8720   -5.7660 C   0  0  0  0  0  0  0  0  0  0  0  0
   -9.3860   -6.4190   -5.7400 N   0  0  0  0  0  0  0  0  0  0  0  0
   -8.5100   -5.7640   -4.7550 C   0  0  0  0  0  0  0  0  0  0  0  0
   -8.4980   -6.2450   -3.2670 C   0  0  2  0  0  0  0  0  0  0  0  0
   -9.8420   -6.2510   -2.5400 C   0  0  0  0  0  0  0  0  0  0  0  0
   -9.4480   -6.2220   -1.0650 C   0  0  0  0  0  0  0  0  0  0  0  0
   -8.1570   -5.4110   -1.0370 C   0  0  0  0  0  0  0  0  0  0  0  0
   -7.6830   -5.3830   -2.4120 N   0  0  0  0  0  0  0  0  0  0  0  0
   -6.9870   -4.3540   -3.0120 C   0  0  0  0  0  0  0  0  0  0  0  0
   -6.9560   -4.2600   -4.2320 O   0  0  0  0  0  0  0  0  0  0  0  0
   -6.2550   -3.3310   -2.1570 C   0  0  0  0  0  0  0  0  0  0  0  0
   -7.0710   -2.1280   -1.9550 N   0  0  0  0  0  0  0  0  0  0  0  0
   -6.3900   -0.8590   -1.0990 S   0  0  0  0  0  6  0  0  0  0  0  0
   -7.7920    0.1880   -0.7610 C   0  0  0  0  0  0  0  0  0  0  0  0
   -5.5010   -0.1410   -1.9870 O   0  0  0  0  0  0  0  0  0  0  0  0
   -5.9180   -1.3960    0.1630 O   0  0  0  0  0  0  0  0  0  0  0  0
   -9.6970   -5.6510   -6.8810 C   0  0  0  0  0  0  0  0  0  0  0  0
  -10.8670   -5.5070   -7.2470 O   0  0  0  0  0  0  0  0  0  0  0  0
   -8.6220   -5.0550   -7.6080 C   0  0  0  0  0  0  0  0  0  0  0  0
   -7.3820   -5.4680   -8.0520 C   0  0  0  0  0  0  0  0  0  0  0  0
   -6.7570   -4.4550   -8.7150 N   0  0  0  0  0  0  0  0  0  0  0  0
   -7.6330   -3.4850   -8.6420 C   0  0  0  0  0  0  0  0  0  0  0  0
   -8.7780   -3.7580   -7.9980 O   0  0  0  0  0  0  0  0  0  0  0  0
  1  2  1  0
  2  3  1  0
  4  3  1  6
  4  5  1  0
  5  6  1  0
  6  7  1  0
  7  8  1  0
  8  9  1  0
  9 10  2  0
  9 11  1  0
 11 12  1  0
 12 13  1  0
 13 14  1  0
 13 15  2  0
 13 16  2  0
  2 17  1  0
 17 18  2  0
 17 19  1  0
 19 20  2  0
 20 21  1  0
 21 22  2  0
 22 23  1  0
  8  4  1  0
 23 19  1  0
M  END
>  <pair>  (13) 
x1071_0A-x0980_0B

>  <sucos>  (13) 
0.45569586281823143

>  <ref_mols>  (13) 
x1071_0A,x0980_0B

>  <original SMILES>  (13) 
CN(CC1CCCN1C(=O)CNS(C)(=O)=O)C(=O)c1cnco1

>  <cmpd_ids>  (13) 
ENAMINE:PV-002781037523

>  <ref_url>  (13) 
https://github.com/stephwills/fragment_network_merges

>  <submitter_name>  (13) 
Steph Wills

>  <submitter_institution>  (13) 
University of Oxford

>  <submitter_email>  (13) 
stephanie.wills@balliol.ox.ac.uk

>  <generation_date>  (13) 
2023-09-06

>  <method>  (13) 
fragNetMergingIt3

>  <ref_pdb>  (13) 
x1071_0A,x0980_0B

$$$$
x1140-0A-x1604-0A-53
     RDKit          3D

 26 29  0  0  0  0  0  0  0  0999 V2000
   -7.0410   -3.8940   -3.7570 O   0  0  0  0  0  0  0  0  0  0  0  0
   -7.7990   -4.8570   -3.6130 C   0  0  0  0  0  0  0  0  0  0  0  0
   -9.2140   -4.9470   -4.2830 C   0  0  0  0  0  0  0  0  0  0  0  0
  -10.0880   -3.6440   -4.4710 C   0  0  0  0  0  0  0  0  0  0  0  0
  -10.5880   -3.4470   -5.8790 N   0  0  0  0  0  0  0  0  0  0  0  0
  -11.8320   -4.0140   -6.0880 C   0  0  0  0  0  0  0  0  0  0  0  0
  -12.8670   -3.3990   -6.2990 O   0  0  0  0  0  0  0  0  0  0  0  0
  -11.8030   -5.4160   -6.0440 C   0  0  0  0  0  0  0  0  0  0  0  0
  -10.5330   -6.0420   -6.0630 O   0  0  0  0  0  0  0  0  0  0  0  0
   -9.6260   -5.3090   -6.7820 C   0  0  0  0  0  0  0  0  0  0  0  0
   -8.7060   -5.9990   -7.5290 C   0  0  0  0  0  0  0  0  0  0  0  0
   -7.7780   -5.3160   -8.3000 C   0  0  0  0  0  0  0  0  0  0  0  0
   -7.7980   -3.9320   -8.3090 C   0  0  0  0  0  0  0  0  0  0  0  0
   -8.7310   -3.2360   -7.5330 C   0  0  0  0  0  0  0  0  0  0  0  0
   -9.6350   -3.9420   -6.7540 C   0  0  0  0  0  0  0  0  0  0  0  0
   -7.4150   -5.9890   -2.8510 N   0  0  0  0  0  0  0  0  0  0  0  0
   -6.1660   -6.7390   -3.1130 C   0  0  0  0  0  0  0  0  0  0  0  0
   -5.5610   -7.3390   -1.9420 C   0  0  0  0  0  0  0  0  0  0  0  0
   -6.2890   -8.1970   -1.0950 C   0  0  0  0  0  0  0  0  0  0  0  0
   -5.6840   -8.7500    0.0240 C   0  0  0  0  0  0  0  0  0  0  0  0
   -4.3710   -8.4630    0.3130 C   0  0  0  0  0  0  0  0  0  0  0  0
   -3.6460   -7.6380   -0.5010 C   0  0  0  0  0  0  0  0  0  0  0  0
   -4.2050   -7.0640   -1.6330 C   0  0  0  0  0  0  0  0  0  0  0  0
   -2.3720   -7.4820   -0.0480 O   0  0  0  0  0  0  0  0  0  0  0  0
   -2.5040   -8.0380    1.2720 C   0  0  0  0  0  0  0  0  0  0  0  0
   -3.6460   -8.9210    1.3750 O   0  0  0  0  0  0  0  0  0  0  0  0
  1  2  2  0
  2  3  1  0
  3  4  1  0
  4  5  1  0
  5  6  1  0
  6  7  2  0
  6  8  1  0
  8  9  1  0
  9 10  1  0
 10 11  2  0
 11 12  1  0
 12 13  2  0
 13 14  1  0
 14 15  2  0
  2 16  1  0
 16 17  1  0
 17 18  1  0
 18 19  2  0
 19 20  1  0
 20 21  2  0
 21 22  1  0
 22 23  2  0
 22 24  1  0
 24 25  1  0
 25 26  1  0
 15  5  1  0
 23 18  1  0
 15 10  1  0
 26 21  1  0
M  END
>  <pair>  (14) 
x1140_0A-x1604_0A

>  <sucos>  (14) 
0.5113488113987038

>  <ref_mols>  (14) 
x1140_0A,x1604_0A

>  <original SMILES>  (14) 
O=C(CCN1C(=O)COc2ccccc21)NCc1ccc2c(c1)OCO2

>  <cmpd_ids>  (14) 
ENAMINE:Z90704746

>  <ref_url>  (14) 
https://github.com/stephwills/fragment_network_merges

>  <submitter_name>  (14) 
Steph Wills

>  <submitter_institution>  (14) 
University of Oxford

>  <submitter_email>  (14) 
stephanie.wills@balliol.ox.ac.uk

>  <generation_date>  (14) 
2023-09-06

>  <method>  (14) 
fragNetMergingIt3

>  <ref_pdb>  (14) 
x1140_0A,x1604_0A

$$$$
x1071-0A-x0980-0B-147
     RDKit          3D

 23 24  0  0  0  0  0  0  0  0999 V2000
   -7.7690    0.1330   -1.0500 C   0  0  0  0  0  0  0  0  0  0  0  0
   -6.3080   -0.8860   -1.0560 S   0  0  0  0  0  6  0  0  0  0  0  0
   -5.2710   -0.1340   -1.7250 O   0  0  0  0  0  0  0  0  0  0  0  0
   -6.1550   -1.4560    0.2670 O   0  0  0  0  0  0  0  0  0  0  0  0
   -6.7360   -2.1690   -2.0410 N   0  0  0  0  0  0  0  0  0  0  0  0
   -5.8640   -3.3560   -2.0580 C   0  0  0  0  0  0  0  0  0  0  0  0
   -6.5210   -4.4480   -2.9150 C   0  0  0  0  0  0  0  0  0  0  0  0
   -6.9070   -4.1980   -4.0600 O   0  0  0  0  0  0  0  0  0  0  0  0
   -6.6450   -5.7200   -2.3780 N   0  0  0  0  0  0  0  0  0  0  0  0
   -5.6970   -6.7800   -2.7070 C   0  0  0  0  0  0  0  0  0  0  0  0
   -6.2590   -7.4560   -3.9590 C   0  0  0  0  0  0  0  0  0  0  0  0
   -7.6730   -8.0120   -3.8400 C   0  0  0  0  0  0  0  0  0  0  0  0
   -8.6660   -6.9450   -3.3180 C   0  0  2  0  0  0  0  0  0  0  0  0
   -9.0970   -6.0080   -4.4730 C   0  0  0  0  0  0  0  0  0  0  0  0
   -9.4300   -6.6890   -5.7160 N   0  0  0  0  0  0  0  0  0  0  0  0
   -8.5310   -6.7080   -6.7750 C   0  0  0  0  0  0  0  0  0  0  0  0
   -8.0150   -7.7820   -7.0910 O   0  0  0  0  0  0  0  0  0  0  0  0
   -8.1930   -5.4800   -7.4840 C   0  0  0  0  0  0  0  0  0  0  0  0
   -7.1100   -5.3330   -8.3300 C   0  0  0  0  0  0  0  0  0  0  0  0
   -6.9520   -4.1140   -8.8830 N   0  0  0  0  0  0  0  0  0  0  0  0
   -7.9390   -3.3880   -8.4270 C   0  0  0  0  0  0  0  0  0  0  0  0
   -9.0810   -4.0520   -7.3650 S   0  0  0  0  0  0  0  0  0  0  0  0
   -8.0220   -6.1690   -2.1500 C   0  0  0  0  0  0  0  0  0  0  0  0
  1  2  1  0
  2  3  2  0
  2  4  2  0
  2  5  1  0
  5  6  1  0
  6  7  1  0
  7  8  2  0
  7  9  1  0
  9 10  1  0
 10 11  1  0
 11 12  1  0
 12 13  1  0
 13 14  1  6
 14 15  1  0
 15 16  1  0
 16 17  2  0
 16 18  1  0
 18 19  2  0
 19 20  1  0
 20 21  2  0
 21 22  1  0
 13 23  1  0
 23  9  1  0
 22 18  1  0
M  END
>  <pair>  (15) 
x1071_0A-x0980_0B

>  <sucos>  (15) 
0.4746210424205002

>  <ref_mols>  (15) 
x1071_0A,x0980_0B

>  <original SMILES>  (15) 
CS(=O)(=O)NCC(=O)N1CCCC(CNC(=O)c2cncs2)C1

>  <cmpd_ids>  (15) 
ENAMINE:PV-004079207122,ENAMINE:PV-004079207124

>  <ref_url>  (15) 
https://github.com/stephwills/fragment_network_merges

>  <submitter_name>  (15) 
Steph Wills

>  <submitter_institution>  (15) 
University of Oxford

>  <submitter_email>  (15) 
stephanie.wills@balliol.ox.ac.uk

>  <generation_date>  (15) 
2023-09-06

>  <method>  (15) 
fragNetMergingIt3

>  <ref_pdb>  (15) 
x1071_0A,x0980_0B

$$$$
x1052-1A-x1140-0A-31
     RDKit          3D

 23 25  0  0  0  0  0  0  0  0999 V2000
   -4.0010   -5.6650   -0.6660 C   0  0  0  0  0  0  0  0  0  0  0  0
   -5.3030   -6.0000   -1.1780 C   0  0  0  0  0  0  0  0  0  0  0  0
   -5.6970   -6.4780   -2.3580 C   0  0  0  0  0  0  0  0  0  0  0  0
   -7.0780   -6.5890   -2.2190 C   0  0  0  0  0  0  0  0  0  0  0  0
   -7.9170   -7.1030   -3.2590 C   0  0  0  0  0  0  0  0  0  0  0  0
   -9.0770   -6.7560   -3.4590 O   0  0  0  0  0  0  0  0  0  0  0  0
   -7.2160   -8.0330   -3.9890 N   0  0  0  0  0  0  0  0  0  0  0  0
   -6.3000   -9.0570   -3.4420 C   0  0  1  0  0  0  0  0  0  0  0  0
   -5.6870   -8.8720   -2.0150 C   0  0  0  0  0  0  0  0  0  0  0  0
   -6.3740   -9.2930   -0.8650 C   0  0  0  0  0  0  0  0  0  0  0  0
   -5.8220   -9.1670    0.4180 C   0  0  0  0  0  0  0  0  0  0  0  0
   -4.5630   -8.6190    0.5990 C   0  0  0  0  0  0  0  0  0  0  0  0
   -3.8430   -8.1800   -0.4980 C   0  0  0  0  0  0  0  0  0  0  0  0
   -4.3950   -8.2950   -1.7990 C   0  0  0  0  0  0  0  0  0  0  0  0
   -2.5840   -7.6360   -0.3680 O   0  0  0  0  0  0  0  0  0  0  0  0
   -2.0980   -7.5370    0.9890 C   0  0  0  0  0  0  0  0  0  0  0  0
   -2.6730   -8.5920    1.9120 C   0  0  0  0  0  0  0  0  0  0  0  0
   -4.0970   -8.5460    1.8840 O   0  0  0  0  0  0  0  0  0  0  0  0
   -6.9570  -10.4660   -3.6390 C   0  0  0  0  0  0  0  0  0  0  0  0
   -6.6920  -11.1300   -4.9930 C   0  0  0  0  0  0  0  0  0  0  0  0
   -6.6140  -11.4380   -2.5040 C   0  0  0  0  0  0  0  0  0  0  0  0
   -7.5180   -6.1810   -1.0150 N   0  0  0  0  0  0  0  0  0  0  0  0
   -6.3730   -5.8120   -0.3580 O   0  0  0  0  0  0  0  0  0  0  0  0
  1  2  1  0
  2  3  2  0
  3  4  1  0
  4  5  1  0
  5  6  2  0
  5  7  1  0
  8  7  1  1
  8  9  1  0
  9 10  2  0
 10 11  1  0
 11 12  2  0
 12 13  1  0
 13 14  2  0
 13 15  1  0
 15 16  1  0
 16 17  1  0
 17 18  1  0
  8 19  1  0
 19 20  1  0
 19 21  1  0
  4 22  2  0
 22 23  1  0
 23  2  1  0
 14  9  1  0
 18 12  1  0
M  END
>  <pair>  (16) 
x1052_1A-x1140_0A

>  <sucos>  (16) 
0.41597969950538927

>  <ref_mols>  (16) 
x1052_1A,x1140_0A

>  <original SMILES>  (16) 
Cc1cc(C(=O)NC(c2ccc3c(c2)OCCO3)C(C)C)no1

>  <cmpd_ids>  (16) 
ENAMINE:Z90985889

>  <ref_url>  (16) 
https://github.com/stephwills/fragment_network_merges

>  <submitter_name>  (16) 
Steph Wills

>  <submitter_institution>  (16) 
University of Oxford

>  <submitter_email>  (16) 
stephanie.wills@balliol.ox.ac.uk

>  <generation_date>  (16) 
2023-09-06

>  <method>  (16) 
fragNetMergingIt3

>  <ref_pdb>  (16) 
x1052_1A,x1140_0A

$$$$
x1071-0A-x0980-0B-69
     RDKit          3D

 23 24  0  0  0  0  0  0  0  0999 V2000
   -7.2520   -7.0730   -7.7990 C   0  0  0  0  0  0  0  0  0  0  0  0
   -8.4040   -6.4320   -7.0630 C   0  0  1  0  0  0  0  0  0  0  0  0
   -8.3580   -6.6140   -5.5480 C   0  0  0  0  0  0  0  0  0  0  0  0
   -9.2750   -6.2580   -4.8130 O   0  0  0  0  0  0  0  0  0  0  0  0
   -7.2080   -7.2290   -5.0660 N   0  0  0  0  0  0  0  0  0  0  0  0
   -7.1230   -7.7690   -3.7140 C   0  0  1  0  0  0  0  0  0  0  0  0
   -5.6880   -7.9790   -3.2400 C   0  0  0  0  0  0  0  0  0  0  0  0
   -5.3450   -6.7080   -2.4610 C   0  0  0  0  0  0  0  0  0  0  0  0
   -6.5690   -5.9220   -2.4100 N   0  0  0  0  0  0  0  0  0  0  0  0
   -6.7130   -4.5240   -2.8510 C   0  0  0  0  0  0  0  0  0  0  0  0
   -6.8330   -4.2410   -4.0430 O   0  0  0  0  0  0  0  0  0  0  0  0
   -6.7330   -3.4420   -1.7450 C   0  0  0  0  0  0  0  0  0  0  0  0
   -6.3880   -2.1100   -2.2160 N   0  0  0  0  0  0  0  0  0  0  0  0
   -6.2260   -0.8400   -1.1320 S   0  0  0  0  0  6  0  0  0  0  0  0
   -7.8440   -0.0920   -1.0740 C   0  0  0  0  0  0  0  0  0  0  0  0
   -5.3320    0.1180   -1.7400 O   0  0  0  0  0  0  0  0  0  0  0  0
   -5.9560   -1.4090    0.1740 O   0  0  0  0  0  0  0  0  0  0  0  0
   -7.6710   -6.8340   -2.6340 C   0  0  0  0  0  0  0  0  0  0  0  0
   -8.5170   -5.0760   -7.4630 N   0  0  0  0  0  0  0  0  0  0  0  0
   -9.5300   -4.2080   -7.2200 C   0  0  0  0  0  0  0  0  0  0  0  0
   -9.1380   -3.0230   -7.8380 C   0  0  0  0  0  0  0  0  0  0  0  0
   -7.9270   -3.3250   -8.3820 C   0  0  0  0  0  0  0  0  0  0  0  0
   -7.5070   -4.5570   -8.1830 N   0  0  0  0  0  0  0  0  0  0  0  0
  2  1  1  6
  2  3  1  0
  3  4  2  0
  3  5  1  0
  6  5  1  6
  6  7  1  0
  7  8  1  0
  8  9  1  0
  9 10  1  0
 10 11  2  0
 10 12  1  0
 12 13  1  0
 13 14  1  0
 14 15  1  0
 14 16  2  0
 14 17  2  0
  9 18  1  0
  2 19  1  0
 19 20  1  0
 20 21  2  0
 21 22  1  0
 22 23  2  0
 18  6  1  0
 23 19  1  0
M  END
>  <pair>  (17) 
x1071_0A-x0980_0B

>  <sucos>  (17) 
0.41007939758348216

>  <ref_mols>  (17) 
x1071_0A,x0980_0B

>  <original SMILES>  (17) 
CC(C(=O)NC1CCN(C(=O)CNS(C)(=O)=O)C1)n1cccn1

>  <cmpd_ids>  (17) 
ENAMINE:PV-002850020211

>  <ref_url>  (17) 
https://github.com/stephwills/fragment_network_merges

>  <submitter_name>  (17) 
Steph Wills

>  <submitter_institution>  (17) 
University of Oxford

>  <submitter_email>  (17) 
stephanie.wills@balliol.ox.ac.uk

>  <generation_date>  (17) 
2023-09-06

>  <method>  (17) 
fragNetMergingIt3

>  <ref_pdb>  (17) 
x1071_0A,x0980_0B

$$$$
x1140-0A-x1052-1A-135
     RDKit          3D

 25 28  0  0  0  0  0  0  0  0999 V2000
   -9.0800   -7.7380   -4.0620 O   0  0  0  0  0  0  0  0  0  0  0  0
   -7.9470   -7.6810   -3.5960 C   0  0  0  0  0  0  0  0  0  0  0  0
   -7.6050   -6.6770   -2.5250 C   0  0  0  0  0  0  0  0  0  0  0  0
   -8.4050   -6.8560   -1.2580 C   0  0  0  0  0  0  0  0  0  0  0  0
   -8.0540   -5.8350   -0.2280 C   0  0  0  0  0  0  0  0  0  0  0  0
   -7.1310   -4.8800   -0.4310 N   0  0  0  0  0  0  0  0  0  0  0  0
   -6.4670   -4.8250   -1.6060 C   0  0  0  0  0  0  0  0  0  0  0  0
   -6.6510   -5.6760   -2.6700 C   0  0  0  0  0  0  0  0  0  0  0  0
   -6.8820   -8.4870   -3.9700 N   0  0  0  0  0  0  0  0  0  0  0  0
   -5.5240   -8.0210   -3.6080 C   0  0  0  0  0  0  0  0  0  0  0  0
   -5.1060   -8.2030   -2.1640 C   0  0  0  0  0  0  0  0  0  0  0  0
   -5.8770   -8.9460   -1.2620 C   0  0  0  0  0  0  0  0  0  0  0  0
   -5.4660   -9.1150    0.0620 C   0  0  0  0  0  0  0  0  0  0  0  0
   -4.2790   -8.5350    0.4620 C   0  0  0  0  0  0  0  0  0  0  0  0
   -3.5210   -7.8030   -0.4060 C   0  0  0  0  0  0  0  0  0  0  0  0
   -3.9020   -7.6120   -1.7190 C   0  0  0  0  0  0  0  0  0  0  0  0
   -2.3970   -7.3230    0.1760 O   0  0  0  0  0  0  0  0  0  0  0  0
   -2.4930   -7.9020    1.4920 C   0  0  0  0  0  0  0  0  0  0  0  0
   -3.7290   -8.6120    1.7060 O   0  0  0  0  0  0  0  0  0  0  0  0
   -7.0610   -9.6290   -4.8570 C   0  0  0  0  0  0  0  0  0  0  0  0
   -7.7070   -9.4820   -6.0830 C   0  0  0  0  0  0  0  0  0  0  0  0
   -7.8600  -10.5780   -6.9090 C   0  0  0  0  0  0  0  0  0  0  0  0
   -7.3850  -11.8120   -6.5450 C   0  0  0  0  0  0  0  0  0  0  0  0
   -6.7490  -11.9710   -5.3360 C   0  0  0  0  0  0  0  0  0  0  0  0
   -6.5820  -10.8970   -4.4900 C   0  0  0  0  0  0  0  0  0  0  0  0
  1  2  2  0
  2  3  1  0
  3  4  2  0
  4  5  1  0
  5  6  2  0
  6  7  1  0
  7  8  2  0
  2  9  1  0
  9 10  1  0
 10 11  1  0
 11 12  2  0
 12 13  1  0
 13 14  2  0
 14 15  1  0
 15 16  2  0
 15 17  1  0
 17 18  1  0
 18 19  1  0
  9 20  1  0
 20 21  2  0
 21 22  1  0
 22 23  2  0
 23 24  1  0
 24 25  2  0
  8  3  1  0
 16 11  1  0
 25 20  1  0
 19 14  1  0
M  END
>  <pair>  (18) 
x1140_0A-x1052_1A

>  <sucos>  (18) 
0.41228741259691026

>  <ref_mols>  (18) 
x1140_0A,x1052_1A

>  <original SMILES>  (18) 
O=C(c1ccncc1)N(Cc1ccc2c(c1)OCO2)c1ccccc1

>  <cmpd_ids>  (18) 
ENAMINE:Z1137286681

>  <ref_url>  (18) 
https://github.com/stephwills/fragment_network_merges

>  <submitter_name>  (18) 
Steph Wills

>  <submitter_institution>  (18) 
University of Oxford

>  <submitter_email>  (18) 
stephanie.wills@balliol.ox.ac.uk

>  <generation_date>  (18) 
2023-09-06

>  <method>  (18) 
fragNetMergingIt3

>  <ref_pdb>  (18) 
x1140_0A,x1052_1A

$$$$
x1071-0A-x0980-0B-113
     RDKit          3D

 22 23  0  0  0  0  0  0  0  0999 V2000
   -7.7620    0.1340   -1.0400 C   0  0  0  0  0  0  0  0  0  0  0  0
   -6.2960   -0.8820   -1.0640 S   0  0  0  0  0  6  0  0  0  0  0  0
   -5.2470   -0.1180   -1.6980 O   0  0  0  0  0  0  0  0  0  0  0  0
   -6.1530   -1.4670    0.2550 O   0  0  0  0  0  0  0  0  0  0  0  0
   -6.7160   -2.1510   -2.0740 N   0  0  0  0  0  0  0  0  0  0  0  0
   -5.9110   -3.3750   -2.0850 C   0  0  0  0  0  0  0  0  0  0  0  0
   -6.5320   -4.4910   -2.9710 C   0  0  0  0  0  0  0  0  0  0  0  0
   -6.9300   -4.2240   -4.1070 O   0  0  0  0  0  0  0  0  0  0  0  0
   -6.6290   -5.7910   -2.4910 N   0  0  0  0  0  0  0  0  0  0  0  0
   -7.8180   -6.0950   -1.6910 C   0  0  0  0  0  0  0  0  0  0  0  0
   -9.0810   -6.1590   -2.5250 C   0  0  0  0  0  0  0  0  0  0  0  0
   -8.9770   -7.1670   -3.6800 C   0  0  0  0  0  0  0  0  0  0  0  0
   -8.0660   -6.7610   -4.7660 N   0  0  0  0  0  0  0  0  0  0  0  0
   -8.5210   -6.7720   -6.1090 C   0  0  0  0  0  0  0  0  0  0  0  0
   -9.1970   -7.7050   -6.5310 O   0  0  0  0  0  0  0  0  0  0  0  0
   -8.1890   -5.6630   -7.0040 C   0  0  0  0  0  0  0  0  0  0  0  0
   -7.0900   -5.5950   -7.8500 C   0  0  0  0  0  0  0  0  0  0  0  0
   -6.9270   -4.5150   -8.6020 N   0  0  0  0  0  0  0  0  0  0  0  0
   -8.1980   -3.5030   -8.2640 S   0  0  0  0  0  0  0  0  0  0  0  0
   -8.9470   -4.5150   -7.1230 C   0  0  0  0  0  0  0  0  0  0  0  0
   -6.6770   -7.2380   -4.5880 C   0  0  0  0  0  0  0  0  0  0  0  0
   -6.0380   -6.9380   -3.2020 C   0  0  0  0  0  0  0  0  0  0  0  0
  1  2  1  0
  2  3  2  0
  2  4  2  0
  2  5  1  0
  5  6  1  0
  6  7  1  0
  7  8  2  0
  7  9  1  0
  9 10  1  0
 10 11  1  0
 11 12  1  0
 12 13  1  0
 13 14  1  0
 14 15  2  0
 14 16  1  0
 16 17  1  0
 17 18  2  0
 18 19  1  0
 19 20  1  0
 13 21  1  0
 21 22  1  0
 22  9  1  0
 20 16  2  0
M  END
>  <pair>  (19) 
x1071_0A-x0980_0B

>  <sucos>  (19) 
0.4356148876673281

>  <ref_mols>  (19) 
x1071_0A,x0980_0B

>  <original SMILES>  (19) 
CS(=O)(=O)NCC(=O)N1CCCN(C(=O)c2cnsc2)CC1

>  <cmpd_ids>  (19) 
ENAMINE:PV-002830571529

>  <ref_url>  (19) 
https://github.com/stephwills/fragment_network_merges

>  <submitter_name>  (19) 
Steph Wills

>  <submitter_institution>  (19) 
University of Oxford

>  <submitter_email>  (19) 
stephanie.wills@balliol.ox.ac.uk

>  <generation_date>  (19) 
2023-09-06

>  <method>  (19) 
fragNetMergingIt3

>  <ref_pdb>  (19) 
x1071_0A,x0980_0B

$$$$
x1071-0A-x0980-0B-199
     RDKit          3D

 24 26  0  0  0  0  0  0  0  0999 V2000
   -7.7740    0.2060   -0.9580 C   0  0  0  0  0  0  0  0  0  0  0  0
   -6.4230   -0.9470   -1.0850 S   0  0  0  0  0  6  0  0  0  0  0  0
   -5.3800   -0.2950   -1.8470 O   0  0  0  0  0  0  0  0  0  0  0  0
   -6.2010   -1.5240    0.2260 O   0  0  0  0  0  0  0  0  0  0  0  0
   -7.0770   -2.1720   -2.0280 N   0  0  0  0  0  0  0  0  0  0  0  0
   -6.2450   -3.3620   -2.2210 C   0  0  0  0  0  0  0  0  0  0  0  0
   -6.8990   -4.3930   -3.1450 C   0  0  0  0  0  0  0  0  0  0  0  0
   -7.2800   -4.0620   -4.2600 O   0  0  0  0  0  0  0  0  0  0  0  0
   -7.0190   -5.7020   -2.7330 N   0  0  0  0  0  0  0  0  0  0  0  0
   -5.8640   -6.5990   -2.8090 C   0  0  0  0  0  0  0  0  0  0  0  0
   -6.2040   -7.3960   -4.0570 C   0  0  0  0  0  0  0  0  0  0  0  0
   -7.6630   -7.1860   -4.3880 C   0  0  2  0  0  0  0  0  0  0  0  0
   -7.8780   -6.5060   -5.6590 N   0  0  0  0  0  0  0  0  0  0  0  0
   -7.7530   -7.2320   -6.8290 C   0  0  0  0  0  0  0  0  0  0  0  0
   -8.0470   -8.4260   -6.9080 O   0  0  0  0  0  0  0  0  0  0  0  0
   -7.2060   -6.4390   -8.0320 C   0  0  0  0  0  0  0  0  0  0  0  0
   -7.6950   -5.0260   -8.1560 C   0  0  0  0  0  0  0  0  0  0  0  0
   -8.9380   -4.5330   -7.6780 C   0  0  0  0  0  0  0  0  0  0  0  0
   -8.9860   -3.2470   -7.9670 C   0  0  0  0  0  0  0  0  0  0  0  0
   -7.8000   -2.9450   -8.6180 O   0  0  0  0  0  0  0  0  0  0  0  0
   -6.9990   -4.0590   -8.7350 N   0  0  0  0  0  0  0  0  0  0  0  0
   -8.0660   -6.4310   -3.1010 C   0  0  0  0  0  0  0  0  0  0  0  0
   -8.9860   -7.0390   -2.0590 C   0  0  0  0  0  0  0  0  0  0  0  0
   -9.5040   -5.9700   -2.9790 C   0  0  0  0  0  0  0  0  0  0  0  0
  1  2  1  0
  2  3  2  0
  2  4  2  0
  2  5  1  0
  5  6  1  0
  6  7  1  0
  7  8  2  0
  7  9  1  0
  9 10  1  0
 10 11  1  0
 11 12  1  0
 12 13  1  6
 13 14  1  0
 14 15  2  0
 14 16  1  0
 16 17  1  0
 17 18  1  0
 18 19  2  0
 19 20  1  0
 20 21  1  0
 12 22  1  0
 22 23  1  0
 23 24  1  0
 22  9  1  0
 21 17  2  0
 24 22  1  0
M  END
>  <pair>  (20) 
x1071_0A-x0980_0B

>  <sucos>  (20) 
0.4534969499201027

>  <ref_mols>  (20) 
x1071_0A,x0980_0B

>  <original SMILES>  (20) 
CS(=O)(=O)NCC(=O)N1CCC(NC(=O)Cc2ccon2)C12CC2

>  <cmpd_ids>  (20) 
ENAMINE:PV-003131955717

>  <ref_url>  (20) 
https://github.com/stephwills/fragment_network_merges

>  <submitter_name>  (20) 
Steph Wills

>  <submitter_institution>  (20) 
University of Oxford

>  <submitter_email>  (20) 
stephanie.wills@balliol.ox.ac.uk

>  <generation_date>  (20) 
2023-09-06

>  <method>  (20) 
fragNetMergingIt3

>  <ref_pdb>  (20) 
x1071_0A,x0980_0B

$$$$
x1052-1A-x1594-0A-152
     RDKit          3D

 19 21  0  0  0  0  0  0  0  0999 V2000
   -4.1240   -7.1540    0.0020 C   0  0  0  0  0  0  0  0  0  0  0  0
   -5.1910   -6.7110   -0.9170 C   0  0  0  0  0  0  0  0  0  0  0  0
   -5.2770   -6.6360   -2.2750 C   0  0  0  0  0  0  0  0  0  0  0  0
   -6.5740   -6.1410   -2.5420 C   0  0  0  0  0  0  0  0  0  0  0  0
   -7.1370   -5.9230   -3.8050 N   0  0  0  0  0  0  0  0  0  0  0  0
   -6.7690   -6.7470   -4.8740 C   0  0  0  0  0  0  0  0  0  0  0  0
   -5.7490   -7.4140   -4.8410 O   0  0  0  0  0  0  0  0  0  0  0  0
   -7.6780   -6.8570   -6.1120 C   0  0  0  0  0  0  0  0  0  0  0  0
   -7.8070   -5.6540   -6.9130 N   0  0  0  0  0  0  0  0  0  0  0  0
   -6.9240   -5.2930   -7.8490 N   0  0  0  0  0  0  0  0  0  0  0  0
   -7.3520   -4.1260   -8.3810 N   0  0  0  0  0  0  0  0  0  0  0  0
   -8.5130   -3.8280   -7.7150 C   0  0  0  0  0  0  0  0  0  0  0  0
   -9.4080   -2.7600   -7.7940 C   0  0  0  0  0  0  0  0  0  0  0  0
  -10.5420   -2.7220   -6.9800 C   0  0  0  0  0  0  0  0  0  0  0  0
  -10.8200   -3.7370   -6.0600 C   0  0  0  0  0  0  0  0  0  0  0  0
   -9.9240   -4.8000   -5.9690 C   0  0  0  0  0  0  0  0  0  0  0  0
   -8.8100   -4.7970   -6.7960 C   0  0  0  0  0  0  0  0  0  0  0  0
   -7.2350   -5.9130   -1.3830 N   0  0  0  0  0  0  0  0  0  0  0  0
   -6.3610   -6.2790   -0.3710 O   0  0  0  0  0  0  0  0  0  0  0  0
  1  2  1  0
  2  3  2  0
  3  4  1  0
  4  5  1  0
  5  6  1  0
  6  7  2  0
  6  8  1  0
  8  9  1  0
  9 10  1  0
 10 11  2  0
 11 12  1  0
 12 13  2  0
 13 14  1  0
 14 15  2  0
 15 16  1  0
 16 17  2  0
  4 18  2  0
 18 19  1  0
 19  2  1  0
 17  9  1  0
 17 12  1  0
M  END
>  <pair>  (21) 
x1052_1A-x1594_0A

>  <sucos>  (21) 
0.4058463107110113

>  <ref_mols>  (21) 
x1052_1A,x1594_0A

>  <original SMILES>  (21) 
Cc1cc(NC(=O)Cn2nnc3ccccc32)no1

>  <cmpd_ids>  (21) 
ENAMINE:Z91645125

>  <ref_url>  (21) 
https://github.com/stephwills/fragment_network_merges

>  <submitter_name>  (21) 
Steph Wills

>  <submitter_institution>  (21) 
University of Oxford

>  <submitter_email>  (21) 
stephanie.wills@balliol.ox.ac.uk

>  <generation_date>  (21) 
2023-09-06

>  <method>  (21) 
fragNetMergingIt3

>  <ref_pdb>  (21) 
x1052_1A,x1594_0A

$$$$
x1140-0A-x0980-0B-53
     RDKit          3D

 23 26  0  0  0  0  0  0  0  0999 V2000
   -7.6260   -8.5190   -7.2150 O   0  0  0  0  0  0  0  0  0  0  0  0
   -8.0640   -7.7740   -6.3500 C   0  0  0  0  0  0  0  0  0  0  0  0
   -9.3280   -7.2290   -6.3760 N   0  0  0  0  0  0  0  0  0  0  0  0
   -9.6050   -5.8130   -6.3940 C   0  0  0  0  0  0  0  0  0  0  0  0
   -8.6730   -5.0810   -7.2980 C   0  0  0  0  0  0  0  0  0  0  0  0
   -8.8430   -3.7780   -7.7280 C   0  0  0  0  0  0  0  0  0  0  0  0
   -7.8190   -3.3870   -8.5380 C   0  0  0  0  0  0  0  0  0  0  0  0
   -6.8730   -4.2720   -8.7810 N   0  0  0  0  0  0  0  0  0  0  0  0
   -7.2260   -5.6810   -7.9780 S   0  0  0  0  0  0  0  0  0  0  0  0
   -7.2850   -7.4260   -5.1740 C   0  0  0  0  0  0  0  0  0  0  0  0
   -6.6280   -8.3340   -4.3270 C   0  0  0  0  0  0  0  0  0  0  0  0
   -6.0650   -7.5600   -3.3570 C   0  0  0  0  0  0  0  0  0  0  0  0
   -5.3020   -7.8720   -2.1700 C   0  0  0  0  0  0  0  0  0  0  0  0
   -5.9200   -8.8450   -1.3680 C   0  0  0  0  0  0  0  0  0  0  0  0
   -5.3220   -9.3120   -0.0610 C   0  0  0  0  0  0  0  0  0  0  0  0
   -4.0260   -8.6280    0.2560 C   0  0  0  0  0  0  0  0  0  0  0  0
   -3.4790   -7.6930   -0.5870 C   0  0  0  0  0  0  0  0  0  0  0  0
   -4.0710   -7.2930   -1.7860 C   0  0  0  0  0  0  0  0  0  0  0  0
   -2.3030   -7.2300   -0.0830 O   0  0  0  0  0  0  0  0  0  0  0  0
   -2.3550   -7.7520    1.2540 C   0  0  0  0  0  0  0  0  0  0  0  0
   -3.2810   -8.8470    1.3640 O   0  0  0  0  0  0  0  0  0  0  0  0
   -6.3460   -6.2490   -3.6140 O   0  0  0  0  0  0  0  0  0  0  0  0
   -7.1190   -6.1620   -4.7580 N   0  0  0  0  0  0  0  0  0  0  0  0
  1  2  2  0
  2  3  1  0
  3  4  1  0
  4  5  1  0
  5  6  2  0
  6  7  1  0
  7  8  2  0
  8  9  1  0
  2 10  1  0
 10 11  1  0
 11 12  2  0
 12 13  1  0
 13 14  2  0
 14 15  1  0
 15 16  2  0
 16 17  1  0
 17 18  2  0
 17 19  1  0
 19 20  1  0
 20 21  1  0
 12 22  1  0
 22 23  1  0
  9  5  1  0
 23 10  2  0
 18 13  1  0
 21 16  1  0
M  END
>  <pair>  (22) 
x1140_0A-x0980_0B

>  <sucos>  (22) 
0.4145587463938072

>  <ref_mols>  (22) 
x1140_0A,x0980_0B

>  <original SMILES>  (22) 
O=C(NCc1ccns1)c1cc(-c2ccc3c(c2)OCO3)on1

>  <cmpd_ids>  (22) 
ENAMINE:PV-002997727613

>  <ref_url>  (22) 
https://github.com/stephwills/fragment_network_merges

>  <submitter_name>  (22) 
Steph Wills

>  <submitter_institution>  (22) 
University of Oxford

>  <submitter_email>  (22) 
stephanie.wills@balliol.ox.ac.uk

>  <generation_date>  (22) 
2023-09-06

>  <method>  (22) 
fragNetMergingIt3

>  <ref_pdb>  (22) 
x1140_0A,x0980_0B

$$$$
x1020-0A-x0130-0A-98
     RDKit          3D

 21 22  0  0  0  0  0  0  0  0999 V2000
   -8.5620  -12.1670    3.5120 C   0  0  0  0  0  0  0  0  0  0  0  0
   -7.1730  -12.7230    3.8300 C   0  0  0  0  0  0  0  0  0  0  0  0
   -6.0710  -11.6650    3.8430 C   0  0  0  0  0  0  0  0  0  0  0  0
   -5.3630  -11.4780    4.8270 O   0  0  0  0  0  0  0  0  0  0  0  0
   -6.0140  -10.9950    2.6260 N   0  0  0  0  0  0  0  0  0  0  0  0
   -4.9530  -10.2160    2.1120 C   0  0  0  0  0  0  0  0  0  0  0  0
   -5.1180   -9.1860    0.9790 C   0  0  0  0  0  0  0  0  0  0  0  0
   -3.9250   -8.5070    0.6250 C   0  0  0  0  0  0  0  0  0  0  0  0
   -2.6970   -8.7510    1.2520 C   0  0  0  0  0  0  0  0  0  0  0  0
   -2.5900   -9.6970    2.2740 C   0  0  0  0  0  0  0  0  0  0  0  0
   -1.2480   -9.8390    2.8570 C   0  0  0  0  0  0  0  0  0  0  0  0
   -0.4920   -8.7740    2.9710 N   0  0  0  0  0  0  0  0  0  0  0  0
    0.6230   -9.2840    3.5710 O   0  0  0  0  0  0  0  0  0  0  0  0
    0.4360  -10.6260    3.7540 C   0  0  0  0  0  0  0  0  0  0  0  0
    1.5620  -11.3920    4.4020 C   0  0  2  0  0  0  0  0  0  0  0  0
    1.3610  -12.8400    4.2180 N   0  0  0  0  0  0  0  0  0  0  0  0
    1.9210  -11.1420    5.7260 C   0  0  0  0  0  0  0  0  0  0  0  0
    3.0950  -11.7340    6.2010 C   0  0  0  0  0  0  0  0  0  0  0  0
    1.9910   -9.6310    5.9820 C   0  0  0  0  0  0  0  0  0  0  0  0
   -0.7250  -11.0240    3.3180 N   0  0  0  0  0  0  0  0  0  0  0  0
   -3.7030  -10.4210    2.6980 C   0  0  0  0  0  0  0  0  0  0  0  0
  1  2  1  0
  2  3  1  0
  3  4  2  0
  3  5  1  0
  5  6  1  0
  6  7  2  0
  7  8  1  0
  8  9  2  0
  9 10  1  0
 10 11  1  0
 11 12  2  0
 12 13  1  0
 13 14  1  0
 14 15  1  0
 15 16  1  1
 15 17  1  0
 17 18  1  0
 17 19  1  0
 14 20  2  0
 10 21  2  0
 21  6  1  0
 20 11  1  0
M  END
>  <pair>  (23) 
x1020_0A-x0130_0A

>  <sucos>  (23) 
0.42660197822114093

>  <ref_mols>  (23) 
x1020_0A,x0130_0A

>  <original SMILES>  (23) 
CCC(=O)Nc1cccc(-c2noc(C(N)C(C)C)n2)c1

>  <cmpd_ids>  (23) 
ENAMINE:Z4519267326

>  <ref_url>  (23) 
https://github.com/stephwills/fragment_network_merges

>  <submitter_name>  (23) 
Steph Wills

>  <submitter_institution>  (23) 
University of Oxford

>  <submitter_email>  (23) 
stephanie.wills@balliol.ox.ac.uk

>  <generation_date>  (23) 
2023-09-06

>  <method>  (23) 
fragNetMergingIt3

>  <ref_pdb>  (23) 
x1020_0A,x0130_0A

$$$$
x1052-1A-x1594-0A-199
     RDKit          3D

 25 27  0  0  0  0  0  0  0  0999 V2000
   -4.2120   -7.4790    0.5870 C   0  0  0  0  0  0  0  0  0  0  0  0
   -5.1020   -6.8500   -0.3990 C   0  0  0  0  0  0  0  0  0  0  0  0
   -4.9350   -6.4930   -1.6850 C   0  0  0  0  0  0  0  0  0  0  0  0
   -6.1640   -5.9480   -2.0600 C   0  0  0  0  0  0  0  0  0  0  0  0
   -6.4290   -5.4620   -3.4040 C   0  0  0  0  0  0  0  0  0  0  0  0
   -6.9590   -4.3870   -3.7110 O   0  0  0  0  0  0  0  0  0  0  0  0
   -5.9320   -6.4330   -4.2570 N   0  0  0  0  0  0  0  0  0  0  0  0
   -6.5250   -7.6820   -4.4660 C   0  0  2  0  0  0  0  0  0  0  0  0
   -6.2810   -8.5890   -3.4510 C   0  0  0  0  0  0  0  0  0  0  0  0
   -6.0020   -8.2260   -5.8120 C   0  0  0  0  0  0  0  0  0  0  0  0
   -6.9000   -8.1500   -6.8410 N   0  0  0  0  0  0  0  0  0  0  0  0
   -6.6750   -7.3390   -7.9520 C   0  0  0  0  0  0  0  0  0  0  0  0
   -5.9820   -7.6790   -8.8990 O   0  0  0  0  0  0  0  0  0  0  0  0
   -7.2860   -6.1470   -7.9470 C   0  0  0  0  0  0  0  0  0  0  0  0
   -8.3530   -6.1730   -7.1360 C   0  0  0  0  0  0  0  0  0  0  0  0
   -9.1000   -5.0210   -7.0250 C   0  0  0  0  0  0  0  0  0  0  0  0
  -10.2200   -4.9890   -6.2000 C   0  0  0  0  0  0  0  0  0  0  0  0
  -10.9690   -3.8300   -6.0920 C   0  0  0  0  0  0  0  0  0  0  0  0
  -10.6010   -2.6980   -6.8100 C   0  0  0  0  0  0  0  0  0  0  0  0
   -9.4780   -2.7330   -7.6370 C   0  0  0  0  0  0  0  0  0  0  0  0
   -8.7110   -3.8830   -7.7600 C   0  0  0  0  0  0  0  0  0  0  0  0
   -7.6260   -3.9240   -8.5540 N   0  0  0  0  0  0  0  0  0  0  0  0
   -6.8930   -5.0830   -8.6530 N   0  0  0  0  0  0  0  0  0  0  0  0
   -7.0560   -5.9460   -1.0610 N   0  0  0  0  0  0  0  0  0  0  0  0
   -6.3740   -6.5300   -0.0100 O   0  0  0  0  0  0  0  0  0  0  0  0
  1  2  1  0
  2  3  2  0
  3  4  1  0
  4  5  1  0
  5  6  2  0
  5  7  1  0
  7  8  1  0
  8  9  1  1
  8 10  1  0
 10 11  1  0
 11 12  1  0
 12 13  2  0
 12 14  1  0
 14 15  2  0
 15 16  1  0
 16 17  2  0
 17 18  1  0
 18 19  2  0
 19 20  1  0
 20 21  2  0
 21 22  1  0
 22 23  2  0
  4 24  2  0
 24 25  1  0
 25  2  1  0
 23 14  1  0
 21 16  1  0
M  END
>  <pair>  (24) 
x1052_1A-x1594_0A

>  <sucos>  (24) 
0.49866913039406335

>  <ref_mols>  (24) 
x1052_1A,x1594_0A

>  <original SMILES>  (24) 
Cc1cc(C(=O)NC(C)CNC(=O)c2cc3ccccc3nn2)no1

>  <cmpd_ids>  (24) 
ENAMINE:PV-001412952141,ENAMINE:PV-001621414136,ENAMINE:PV-001630117739

>  <ref_url>  (24) 
https://github.com/stephwills/fragment_network_merges

>  <submitter_name>  (24) 
Steph Wills

>  <submitter_institution>  (24) 
University of Oxford

>  <submitter_email>  (24) 
stephanie.wills@balliol.ox.ac.uk

>  <generation_date>  (24) 
2023-09-06

>  <method>  (24) 
fragNetMergingIt3

>  <ref_pdb>  (24) 
x1052_1A,x1594_0A

$$$$
x1071-0A-x0980-0B-28
     RDKit          3D

 24 25  0  0  0  0  0  0  0  0999 V2000
  -10.8430   -6.6130   -5.5640 C   0  0  0  0  0  0  0  0  0  0  0  0
  -10.6780   -5.3540   -4.8400 N   0  0  0  0  0  0  0  0  0  0  0  0
  -11.1460   -4.1300   -5.3350 C   0  0  0  0  0  0  0  0  0  0  0  0
  -11.4910   -3.2070   -4.5970 O   0  0  0  0  0  0  0  0  0  0  0  0
  -11.2280   -3.9640   -6.8500 C   0  0  0  0  0  0  0  0  0  0  0  0
  -10.1380   -3.0400   -7.3980 C   0  0  0  0  0  0  0  0  0  0  0  0
   -8.9220   -3.7930   -7.8020 C   0  0  0  0  0  0  0  0  0  0  0  0
   -7.8200   -3.3460   -8.5450 C   0  0  0  0  0  0  0  0  0  0  0  0
   -6.8830   -4.2710   -8.7340 N   0  0  0  0  0  0  0  0  0  0  0  0
   -7.3820   -5.3910   -8.0930 O   0  0  0  0  0  0  0  0  0  0  0  0
   -8.5940   -5.0910   -7.5440 C   0  0  0  0  0  0  0  0  0  0  0  0
  -10.3700   -5.5220   -3.3960 C   0  0  1  0  0  0  0  0  0  0  0  0
   -9.5260   -6.7660   -3.0590 C   0  0  0  0  0  0  0  0  0  0  0  0
   -8.3680   -6.2800   -2.1930 C   0  0  0  0  0  0  0  0  0  0  0  0
   -8.2940   -4.8550   -2.4270 N   0  0  0  0  0  0  0  0  0  0  0  0
   -7.2380   -4.2040   -3.0200 C   0  0  0  0  0  0  0  0  0  0  0  0
   -7.0060   -4.3450   -4.2190 O   0  0  0  0  0  0  0  0  0  0  0  0
   -6.3790   -3.2950   -2.1520 C   0  0  0  0  0  0  0  0  0  0  0  0
   -7.0530   -2.0080   -1.9930 N   0  0  0  0  0  0  0  0  0  0  0  0
   -6.3440   -0.8270   -1.0630 S   0  0  0  0  0  6  0  0  0  0  0  0
   -7.7420    0.2310   -0.7540 C   0  0  0  0  0  0  0  0  0  0  0  0
   -5.4400   -0.1040   -1.9290 O   0  0  0  0  0  0  0  0  0  0  0  0
   -5.9030   -1.3970    0.1930 O   0  0  0  0  0  0  0  0  0  0  0  0
   -9.6260   -4.3560   -2.7210 C   0  0  0  0  0  0  0  0  0  0  0  0
  1  2  1  0
  2  3  1  0
  3  4  2  0
  3  5  1  0
  5  6  1  0
  6  7  1  0
  7  8  1  0
  8  9  2  0
  9 10  1  0
 10 11  1  0
 12  2  1  6
 12 13  1  0
 13 14  1  0
 14 15  1  0
 15 16  1  0
 16 17  2  0
 16 18  1  0
 18 19  1  0
 19 20  1  0
 20 21  1  0
 20 22  2  0
 20 23  2  0
 15 24  1  0
 11  7  2  0
 24 12  1  0
M  END
>  <pair>  (25) 
x1071_0A-x0980_0B

>  <sucos>  (25) 
0.5103534229506311

>  <ref_mols>  (25) 
x1071_0A,x0980_0B

>  <original SMILES>  (25) 
CN(C(=O)CCc1cnoc1)C1CCN(C(=O)CNS(C)(=O)=O)C1

>  <cmpd_ids>  (25) 
ENAMINE:PV-003249970991

>  <ref_url>  (25) 
https://github.com/stephwills/fragment_network_merges

>  <submitter_name>  (25) 
Steph Wills

>  <submitter_institution>  (25) 
University of Oxford

>  <submitter_email>  (25) 
stephanie.wills@balliol.ox.ac.uk

>  <generation_date>  (25) 
2023-09-06

>  <method>  (25) 
fragNetMergingIt3

>  <ref_pdb>  (25) 
x1071_0A,x0980_0B

$$$$
x1020-0A-x1052-1A-46
     RDKit          3D

 21 22  0  0  0  0  0  0  0  0999 V2000
   -8.5350  -11.9310    3.4420 C   0  0  0  0  0  0  0  0  0  0  0  0
   -7.3350  -12.7320    3.9160 C   0  0  1  0  0  0  0  0  0  0  0  0
   -7.0330  -13.7160    2.9310 O   0  0  0  0  0  0  0  0  0  0  0  0
   -6.1270  -11.8200    4.2080 C   0  0  0  0  0  0  0  0  0  0  0  0
   -5.3890  -12.0430    5.1640 O   0  0  0  0  0  0  0  0  0  0  0  0
   -5.9160  -10.7600    3.3600 N   0  0  0  0  0  0  0  0  0  0  0  0
   -4.8130   -9.8340    3.6750 C   0  0  1  0  0  0  0  0  0  0  0  0
   -3.5140  -10.0810    2.8700 C   0  0  0  0  0  0  0  0  0  0  0  0
   -4.0140   -9.0180    1.8670 C   0  0  1  0  0  0  0  0  0  0  0  0
   -4.7740   -9.5530    0.7320 N   0  0  0  0  0  0  0  0  0  0  0  0
   -4.6410   -8.9810   -0.5090 C   0  0  0  0  0  0  0  0  0  0  0  0
   -3.7730   -8.1550   -0.7650 O   0  0  0  0  0  0  0  0  0  0  0  0
   -5.6510   -9.4650   -1.5260 C   0  0  0  0  0  0  0  0  0  0  0  0
   -5.7390   -8.4190   -2.6130 C   0  0  0  0  0  0  0  0  0  0  0  0
   -6.1950   -7.1650   -1.9470 C   0  0  0  0  0  0  0  0  0  0  0  0
   -5.7610   -5.9100   -2.3580 C   0  0  0  0  0  0  0  0  0  0  0  0
   -6.2500   -4.8050   -1.6830 C   0  0  0  0  0  0  0  0  0  0  0  0
   -7.1160   -4.8750   -0.6510 N   0  0  0  0  0  0  0  0  0  0  0  0
   -7.5070   -6.1050   -0.2740 C   0  0  0  0  0  0  0  0  0  0  0  0
   -7.0850   -7.2590   -0.8800 C   0  0  0  0  0  0  0  0  0  0  0  0
   -4.8870   -8.4440    3.0050 C   0  0  0  0  0  0  0  0  0  0  0  0
  2  1  1  6
  2  3  1  0
  2  4  1  0
  4  5  2  0
  4  6  1  0
  7  6  1  6
  7  8  1  0
  8  9  1  0
  9 10  1  6
 10 11  1  0
 11 12  2  0
 11 13  1  0
 13 14  1  0
 14 15  1  0
 15 16  2  0
 16 17  1  0
 17 18  2  0
 18 19  1  0
 19 20  2  0
  9 21  1  0
 21  7  1  0
 20 15  1  0
M  END
>  <pair>  (26) 
x1020_0A-x1052_1A

>  <sucos>  (26) 
0.4047636897061411

>  <ref_mols>  (26) 
x1020_0A,x1052_1A

>  <original SMILES>  (26) 
CC(O)C(=O)NC1CC(NC(=O)CCc2ccncc2)C1

>  <cmpd_ids>  (26) 
ENAMINE:PV-002950374302

>  <ref_url>  (26) 
https://github.com/stephwills/fragment_network_merges

>  <submitter_name>  (26) 
Steph Wills

>  <submitter_institution>  (26) 
University of Oxford

>  <submitter_email>  (26) 
stephanie.wills@balliol.ox.ac.uk

>  <generation_date>  (26) 
2023-09-06

>  <method>  (26) 
fragNetMergingIt3

>  <ref_pdb>  (26) 
x1020_0A,x1052_1A

$$$$
x1140-0A-x1052-1A-36
     RDKit          3D

 24 27  0  0  0  0  0  0  0  0999 V2000
   -6.6720  -11.0280   -5.8170 O   0  0  0  0  0  0  0  0  0  0  0  0
   -6.9520   -9.9190   -5.3750 C   0  0  0  0  0  0  0  0  0  0  0  0
   -6.6930   -9.5730   -3.8940 C   0  0  0  0  0  0  0  0  0  0  0  0
   -5.6590   -8.4480   -3.6270 C   0  0  0  0  0  0  0  0  0  0  0  0
   -5.1600   -8.4580   -2.1860 C   0  0  0  0  0  0  0  0  0  0  0  0
   -5.9160   -9.1330   -1.2010 C   0  0  0  0  0  0  0  0  0  0  0  0
   -5.4940   -9.1920    0.1300 C   0  0  0  0  0  0  0  0  0  0  0  0
   -4.3130   -8.5750    0.4580 C   0  0  0  0  0  0  0  0  0  0  0  0
   -3.5680   -7.9090   -0.4810 C   0  0  0  0  0  0  0  0  0  0  0  0
   -3.9570   -7.8220   -1.8060 C   0  0  0  0  0  0  0  0  0  0  0  0
   -2.4470   -7.3810    0.0500 O   0  0  0  0  0  0  0  0  0  0  0  0
   -2.4990   -7.8830    1.3970 C   0  0  0  0  0  0  0  0  0  0  0  0
   -3.7470   -8.5460    1.6970 O   0  0  0  0  0  0  0  0  0  0  0  0
   -7.5240   -8.8770   -6.0970 N   0  0  0  0  0  0  0  0  0  0  0  0
   -7.5230   -7.5890   -5.6600 C   0  0  0  0  0  0  0  0  0  0  0  0
   -7.2450   -7.4300   -4.4260 N   0  0  0  0  0  0  0  0  0  0  0  0
   -7.2540   -6.1250   -4.0770 C   0  0  0  0  0  0  0  0  0  0  0  0
   -6.9230   -5.8420   -2.5940 C   0  0  0  0  0  0  0  0  0  0  0  0
   -6.9510   -4.6700   -1.8970 C   0  0  0  0  0  0  0  0  0  0  0  0
   -6.6100   -4.9020   -0.6000 N   0  0  0  0  0  0  0  0  0  0  0  0
   -6.3800   -6.2000   -0.5670 C   0  0  0  0  0  0  0  0  0  0  0  0
   -6.5460   -6.8310   -1.7310 O   0  0  0  0  0  0  0  0  0  0  0  0
   -7.5650   -5.2520   -5.0990 C   0  0  0  0  0  0  0  0  0  0  0  0
   -7.8380   -6.1640   -6.5440 S   0  0  0  0  0  0  0  0  0  0  0  0
  1  2  2  0
  2  3  1  0
  3  4  1  0
  4  5  1  0
  5  6  2  0
  6  7  1  0
  7  8  2  0
  8  9  1  0
  9 10  2  0
  9 11  1  0
 11 12  1  0
 12 13  1  0
  2 14  1  0
 14 15  1  0
 15 16  2  0
 16 17  1  0
 17 18  1  0
 18 19  2  0
 19 20  1  0
 20 21  2  0
 21 22  1  0
 17 23  2  0
 23 24  1  0
 10  5  1  0
 24 15  1  0
 13  8  1  0
 22 18  1  0
M  END
>  <pair>  (27) 
x1140_0A-x1052_1A

>  <sucos>  (27) 
0.43847367916051605

>  <ref_mols>  (27) 
x1140_0A,x1052_1A

>  <original SMILES>  (27) 
O=C(CCc1ccc2c(c1)OCO2)Nc1nc(-c2cnco2)cs1

>  <cmpd_ids>  (27) 
ENAMINE:PV-003077989492

>  <ref_url>  (27) 
https://github.com/stephwills/fragment_network_merges

>  <submitter_name>  (27) 
Steph Wills

>  <submitter_institution>  (27) 
University of Oxford

>  <submitter_email>  (27) 
stephanie.wills@balliol.ox.ac.uk

>  <generation_date>  (27) 
2023-09-06

>  <method>  (27) 
fragNetMergingIt3

>  <ref_pdb>  (27) 
x1140_0A,x1052_1A

$$$$
x1052-1A-x1140-0A-194
     RDKit          3D

 22 24  0  0  0  0  0  0  0  0999 V2000
   -4.6850   -7.2120    0.3570 C   0  0  0  0  0  0  0  0  0  0  0  0
   -5.6530   -6.4500   -0.4210 C   0  0  0  0  0  0  0  0  0  0  0  0
   -5.5860   -5.7970   -1.5970 C   0  0  0  0  0  0  0  0  0  0  0  0
   -6.8760   -5.2920   -1.7700 C   0  0  0  0  0  0  0  0  0  0  0  0
   -7.2970   -4.5980   -2.8330 N   0  0  0  0  0  0  0  0  0  0  0  0
   -7.2600   -5.3160   -3.9760 C   0  0  0  0  0  0  0  0  0  0  0  0
   -7.2450   -4.8400   -5.1030 O   0  0  0  0  0  0  0  0  0  0  0  0
   -7.2400   -6.6890   -3.6490 N   0  0  0  0  0  0  0  0  0  0  0  0
   -6.0780   -7.6160   -3.7440 C   0  0  2  0  0  0  0  0  0  0  0  0
   -6.5310   -8.8820   -4.4450 C   0  0  0  0  0  0  0  0  0  0  0  0
   -5.4360   -8.0270   -2.3940 C   0  0  0  0  0  0  0  0  0  0  0  0
   -6.1390   -8.9010   -1.5380 C   0  0  0  0  0  0  0  0  0  0  0  0
   -5.6090   -9.3110   -0.3080 C   0  0  0  0  0  0  0  0  0  0  0  0
   -4.3500   -8.8550    0.1090 C   0  0  0  0  0  0  0  0  0  0  0  0
   -3.6310   -7.9920   -0.7180 C   0  0  0  0  0  0  0  0  0  0  0  0
   -4.1590   -7.5800   -1.9570 C   0  0  0  0  0  0  0  0  0  0  0  0
   -2.3990   -7.5210   -0.3560 O   0  0  0  0  0  0  0  0  0  0  0  0
   -2.2950   -7.4360    1.0760 C   0  0  0  0  0  0  0  0  0  0  0  0
   -2.6080   -8.7710    1.7290 C   0  0  0  0  0  0  0  0  0  0  0  0
   -3.8930   -9.3000    1.3380 O   0  0  0  0  0  0  0  0  0  0  0  0
   -7.6900   -5.5970   -0.7510 N   0  0  0  0  0  0  0  0  0  0  0  0
   -6.9080   -6.3390    0.1020 O   0  0  0  0  0  0  0  0  0  0  0  0
  1  2  1  0
  2  3  2  0
  3  4  1  0
  4  5  1  0
  5  6  1  0
  6  7  2  0
  6  8  1  0
  8  9  1  0
  9 10  1  1
  9 11  1  0
 11 12  2  0
 12 13  1  0
 13 14  2  0
 14 15  1  0
 15 16  2  0
 15 17  1  0
 17 18  1  0
 18 19  1  0
 19 20  1  0
  4 21  2  0
 21 22  1  0
 22  2  1  0
 16 11  1  0
 20 14  1  0
M  END
>  <pair>  (28) 
x1052_1A-x1140_0A

>  <sucos>  (28) 
0.45496457755679837

>  <ref_mols>  (28) 
x1052_1A,x1140_0A

>  <original SMILES>  (28) 
Cc1cc(NC(=O)NC(C)c2ccc3c(c2)OCCO3)no1

>  <cmpd_ids>  (28) 
ENAMINE:Z166730466

>  <ref_url>  (28) 
https://github.com/stephwills/fragment_network_merges

>  <submitter_name>  (28) 
Steph Wills

>  <submitter_institution>  (28) 
University of Oxford

>  <submitter_email>  (28) 
stephanie.wills@balliol.ox.ac.uk

>  <generation_date>  (28) 
2023-09-06

>  <method>  (28) 
fragNetMergingIt3

>  <ref_pdb>  (28) 
x1052_1A,x1140_0A

$$$$
x1052-1A-x1140-0A-60
     RDKit          3D

 24 26  0  0  0  0  0  0  0  0999 V2000
   -4.5920   -7.0250    0.1710 C   0  0  0  0  0  0  0  0  0  0  0  0
   -5.5870   -6.3360   -0.6430 C   0  0  0  0  0  0  0  0  0  0  0  0
   -5.6600   -5.7140   -1.9500 C   0  0  0  0  0  0  0  0  0  0  0  0
   -6.9360   -5.2240   -2.1090 C   0  0  0  0  0  0  0  0  0  0  0  0
   -7.1930   -4.5960   -3.2950 C   0  0  0  0  0  0  0  0  0  0  0  0
   -6.5550   -3.6180   -3.6550 O   0  0  0  0  0  0  0  0  0  0  0  0
   -8.2230   -5.1450   -4.0560 N   0  0  0  0  0  0  0  0  0  0  0  0
   -8.6690   -6.5140   -3.8080 C   0  0  0  0  0  0  0  0  0  0  0  0
   -7.8680   -7.4790   -4.4060 C   0  0  1  0  0  0  0  0  0  0  0  0
   -6.8280   -6.8080   -5.0790 C   0  0  0  0  0  0  0  0  0  0  0  0
   -7.2400   -8.4240   -3.4660 N   0  0  0  0  0  0  0  0  0  0  0  0
   -5.7720   -8.3580   -3.4340 C   0  0  0  0  0  0  0  0  0  0  0  0
   -5.2330   -8.5110   -2.0290 C   0  0  0  0  0  0  0  0  0  0  0  0
   -5.9360   -9.2710   -1.0810 C   0  0  0  0  0  0  0  0  0  0  0  0
   -5.4410   -9.4220    0.2170 C   0  0  0  0  0  0  0  0  0  0  0  0
   -4.2420   -8.8140    0.5770 C   0  0  0  0  0  0  0  0  0  0  0  0
   -3.5270   -8.0520   -0.3500 C   0  0  0  0  0  0  0  0  0  0  0  0
   -4.0190   -7.8960   -1.6570 C   0  0  0  0  0  0  0  0  0  0  0  0
   -2.3400   -7.4330   -0.0420 O   0  0  0  0  0  0  0  0  0  0  0  0
   -1.9490   -7.5440    1.3440 C   0  0  0  0  0  0  0  0  0  0  0  0
   -3.0920   -7.8520    2.2920 C   0  0  0  0  0  0  0  0  0  0  0  0
   -3.8140   -9.0000    1.8560 O   0  0  0  0  0  0  0  0  0  0  0  0
   -7.6860   -5.4770   -1.0150 N   0  0  0  0  0  0  0  0  0  0  0  0
   -6.8460   -6.1700   -0.1190 O   0  0  0  0  0  0  0  0  0  0  0  0
  1  2  1  0
  2  3  2  0
  3  4  1  0
  4  5  1  0
  5  6  2  0
  5  7  1  0
  7  8  1  0
  8  9  1  0
  9 10  1  1
  9 11  1  0
 11 12  1  0
 12 13  1  0
 13 14  2  0
 14 15  1  0
 15 16  2  0
 16 17  1  0
 17 18  2  0
 17 19  1  0
 19 20  1  0
 20 21  1  0
 21 22  1  0
  4 23  2  0
 23 24  1  0
 24  2  1  0
 18 13  1  0
 22 16  1  0
M  END
>  <pair>  (29) 
x1052_1A-x1140_0A

>  <sucos>  (29) 
0.5429735672811404

>  <ref_mols>  (29) 
x1052_1A,x1140_0A

>  <original SMILES>  (29) 
Cc1cc(C(=O)NCC(C)NCc2ccc3c(c2)OCCO3)no1

>  <cmpd_ids>  (29) 
ENAMINE:PV-000782634208

>  <ref_url>  (29) 
https://github.com/stephwills/fragment_network_merges

>  <submitter_name>  (29) 
Steph Wills

>  <submitter_institution>  (29) 
University of Oxford

>  <submitter_email>  (29) 
stephanie.wills@balliol.ox.ac.uk

>  <generation_date>  (29) 
2023-09-06

>  <method>  (29) 
fragNetMergingIt3

>  <ref_pdb>  (29) 
x1052_1A,x1140_0A

$$$$
x1052-1A-x1140-0A-186
     RDKit          3D

 26 28  0  0  0  0  0  0  0  0999 V2000
   -4.7030   -7.1270    0.2030 C   0  0  0  0  0  0  0  0  0  0  0  0
   -5.6100   -6.3440   -0.6270 C   0  0  0  0  0  0  0  0  0  0  0  0
   -5.5130   -5.7360   -1.8400 C   0  0  0  0  0  0  0  0  0  0  0  0
   -6.7820   -5.1470   -2.0160 C   0  0  0  0  0  0  0  0  0  0  0  0
   -7.2800   -4.3460   -3.1720 C   0  0  0  0  0  0  0  0  0  0  0  0
   -8.2290   -5.0790   -4.0490 N   0  0  0  0  0  0  0  0  0  0  0  0
   -8.9760   -6.0620   -3.2410 C   0  0  0  0  0  0  0  0  0  0  0  0
   -7.6440   -5.7280   -5.2620 C   0  0  0  0  0  0  0  0  0  0  0  0
   -7.6030   -5.1720   -6.3630 O   0  0  0  0  0  0  0  0  0  0  0  0
   -7.1300   -7.1640   -5.0470 C   0  0  0  0  0  0  0  0  0  0  0  0
   -5.9900   -7.2740   -4.2410 C   0  0  0  0  0  0  0  0  0  0  0  0
   -5.8040   -8.4730   -3.5570 C   0  0  0  0  0  0  0  0  0  0  0  0
   -6.1540   -9.5410   -4.0730 O   0  0  0  0  0  0  0  0  0  0  0  0
   -5.2760   -8.5320   -2.2540 C   0  0  0  0  0  0  0  0  0  0  0  0
   -6.0170   -9.3140   -1.3680 C   0  0  0  0  0  0  0  0  0  0  0  0
   -5.6550   -9.4980   -0.0470 C   0  0  0  0  0  0  0  0  0  0  0  0
   -4.4170   -8.8460    0.5100 C   0  0  0  0  0  0  0  0  0  0  0  0
   -3.6250   -8.0370   -0.3370 C   0  0  0  0  0  0  0  0  0  0  0  0
   -4.0910   -7.8780   -1.8020 C   0  0  0  0  0  0  0  0  0  0  0  0
   -2.4700   -7.3480   -0.0200 O   0  0  0  0  0  0  0  0  0  0  0  0
   -1.6650   -7.8230    1.0550 C   0  0  0  0  0  0  0  0  0  0  0  0
   -2.3720   -7.9690    2.3600 C   0  0  0  0  0  0  0  0  0  0  0  0
   -3.0290   -9.3120    2.4010 C   0  0  0  0  0  0  0  0  0  0  0  0
   -4.3130   -9.1990    1.8360 O   0  0  0  0  0  0  0  0  0  0  0  0
   -7.5880   -5.3890   -0.9690 N   0  0  0  0  0  0  0  0  0  0  0  0
   -6.8440   -6.1480   -0.1030 O   0  0  0  0  0  0  0  0  0  0  0  0
  1  2  1  0
  2  3  2  0
  3  4  1  0
  4  5  1  0
  5  6  1  0
  6  7  1  0
  6  8  1  0
  8  9  2  0
  8 10  1  0
 10 11  1  0
 11 12  1  0
 12 13  2  0
 12 14  1  0
 14 15  2  0
 15 16  1  0
 16 17  2  0
 17 18  1  0
 18 19  2  0
 18 20  1  0
 20 21  1  0
 21 22  1  0
 22 23  1  0
 23 24  1  0
  4 25  2  0
 25 26  1  0
 26  2  1  0
 19 14  1  0
 24 17  1  0
M  END
>  <pair>  (30) 
x1052_1A-x1140_0A

>  <sucos>  (30) 
0.46122219945945464

>  <ref_mols>  (30) 
x1052_1A,x1140_0A

>  <original SMILES>  (30) 
Cc1cc(CN(C)C(=O)CCC(=O)c2ccc3c(c2)OCCCO3)no1

>  <cmpd_ids>  (30) 
ENAMINE:Z375689820

>  <ref_url>  (30) 
https://github.com/stephwills/fragment_network_merges

>  <submitter_name>  (30) 
Steph Wills

>  <submitter_institution>  (30) 
University of Oxford

>  <submitter_email>  (30) 
stephanie.wills@balliol.ox.ac.uk

>  <generation_date>  (30) 
2023-09-06

>  <method>  (30) 
fragNetMergingIt3

>  <ref_pdb>  (30) 
x1052_1A,x1140_0A

$$$$
x1052-1A-x1498-0A-152
     RDKit          3D

 17 18  0  0  0  0  0  0  0  0999 V2000
   -7.9230   -8.7900   -3.1560 C   0  0  0  0  0  0  0  0  0  0  0  0
   -6.7250   -7.9110   -3.5040 C   0  0  0  0  0  0  0  0  0  0  0  0
   -5.4880   -8.7000   -3.8700 C   0  0  0  0  0  0  0  0  0  0  0  0
   -7.0640   -6.8980   -4.6280 C   0  0  0  0  0  0  0  0  0  0  0  0
   -6.8960   -5.7000   -4.4210 O   0  0  0  0  0  0  0  0  0  0  0  0
   -7.5890   -7.3380   -5.8910 N   0  0  0  0  0  0  0  0  0  0  0  0
   -7.9910   -6.2620   -6.6410 C   0  0  0  0  0  0  0  0  0  0  0  0
   -7.2090   -5.7680   -7.7250 C   0  0  0  0  0  0  0  0  0  0  0  0
   -7.6450   -4.6190   -8.4660 C   0  0  0  0  0  0  0  0  0  0  0  0
   -8.7870   -3.9570   -8.1930 N   0  0  0  0  0  0  0  0  0  0  0  0
   -9.5750   -4.4840   -7.0850 C   0  0  0  0  0  0  0  0  0  0  0  0
   -9.1780   -5.5960   -6.3470 C   0  0  0  0  0  0  0  0  0  0  0  0
   -6.4410   -6.9560   -2.3810 C   0  0  0  0  0  0  0  0  0  0  0  0
   -5.4940   -5.9080   -2.1820 C   0  0  0  0  0  0  0  0  0  0  0  0
   -5.7070   -5.3280   -0.9920 C   0  0  0  0  0  0  0  0  0  0  0  0
   -6.7400   -5.9400   -0.3810 N   0  0  0  0  0  0  0  0  0  0  0  0
   -7.1920   -6.9570   -1.2340 O   0  0  0  0  0  0  0  0  0  0  0  0
  1  2  1  0
  2  3  1  0
  2  4  1  0
  4  5  2  0
  4  6  1  0
  6  7  1  0
  7  8  2  0
  8  9  1  0
  9 10  2  0
 10 11  1  0
 11 12  2  0
  2 13  1  0
 13 14  2  0
 14 15  1  0
 15 16  2  0
 16 17  1  0
 12  7  1  0
 17 13  1  0
M  END
>  <pair>  (31) 
x1052_1A-x1498_0A

>  <sucos>  (31) 
0.4274940389947775

>  <ref_mols>  (31) 
x1052_1A,x1498_0A

>  <original SMILES>  (31) 
CC(C)(C(=O)Nc1ccncc1)c1ccno1

>  <cmpd_ids>  (31) 
ENAMINE:Z4280292837

>  <ref_url>  (31) 
https://github.com/stephwills/fragment_network_merges

>  <submitter_name>  (31) 
Steph Wills

>  <submitter_institution>  (31) 
University of Oxford

>  <submitter_email>  (31) 
stephanie.wills@balliol.ox.ac.uk

>  <generation_date>  (31) 
2023-09-06

>  <method>  (31) 
fragNetMergingIt3

>  <ref_pdb>  (31) 
x1052_1A,x1498_0A

$$$$
x1052-1A-x1594-0A-39
     RDKit          3D

 25 27  0  0  0  0  0  0  0  0999 V2000
   -3.9840   -7.4490   -0.8820 C   0  0  0  0  0  0  0  0  0  0  0  0
   -5.1810   -6.6550   -1.2180 C   0  0  0  0  0  0  0  0  0  0  0  0
   -5.5420   -5.9050   -2.3030 C   0  0  0  0  0  0  0  0  0  0  0  0
   -6.8360   -5.3910   -1.9920 C   0  0  0  0  0  0  0  0  0  0  0  0
   -7.7190   -4.5200   -2.8010 C   0  0  0  0  0  0  0  0  0  0  0  0
   -7.3150   -3.8810   -3.7730 O   0  0  0  0  0  0  0  0  0  0  0  0
   -9.0630   -4.4710   -2.3900 N   0  0  0  0  0  0  0  0  0  0  0  0
  -10.1810   -4.2840   -3.3320 C   0  0  0  0  0  0  0  0  0  0  0  0
   -9.9800   -3.1200   -4.3250 C   0  0  0  0  0  0  0  0  0  0  0  0
  -11.1270   -2.7110   -5.1620 N   0  0  0  0  0  0  0  0  0  0  0  0
  -12.1370   -1.9510   -4.4400 C   0  0  0  0  0  0  0  0  0  0  0  0
  -10.8780   -2.4880   -6.5300 C   0  0  0  0  0  0  0  0  0  0  0  0
  -11.5560   -1.7400   -7.2260 O   0  0  0  0  0  0  0  0  0  0  0  0
   -9.7570   -3.1810   -7.1780 C   0  0  0  0  0  0  0  0  0  0  0  0
   -8.9780   -2.5380   -8.0610 C   0  0  0  0  0  0  0  0  0  0  0  0
   -7.9290   -3.1280   -8.6850 N   0  0  0  0  0  0  0  0  0  0  0  0
   -7.6020   -4.4000   -8.4400 N   0  0  0  0  0  0  0  0  0  0  0  0
   -8.3470   -5.0570   -7.5810 C   0  0  0  0  0  0  0  0  0  0  0  0
   -8.0050   -6.3450   -7.3430 C   0  0  0  0  0  0  0  0  0  0  0  0
   -8.7420   -7.0950   -6.4600 C   0  0  0  0  0  0  0  0  0  0  0  0
   -9.8380   -6.5550   -5.8020 C   0  0  0  0  0  0  0  0  0  0  0  0
  -10.2040   -5.2500   -6.0240 C   0  0  0  0  0  0  0  0  0  0  0  0
   -9.4620   -4.4840   -6.9130 C   0  0  0  0  0  0  0  0  0  0  0  0
   -7.2130   -5.8230   -0.7720 N   0  0  0  0  0  0  0  0  0  0  0  0
   -6.1830   -6.6110   -0.2980 O   0  0  0  0  0  0  0  0  0  0  0  0
  1  2  1  0
  2  3  2  0
  3  4  1  0
  4  5  1  0
  5  6  2  0
  5  7  1  0
  7  8  1  0
  8  9  1  0
  9 10  1  0
 10 11  1  0
 10 12  1  0
 12 13  2  0
 12 14  1  0
 14 15  2  0
 15 16  1  0
 16 17  2  0
 17 18  1  0
 18 19  2  0
 19 20  1  0
 20 21  2  0
 21 22  1  0
 22 23  2  0
  4 24  2  0
 24 25  1  0
 25  2  1  0
 23 14  1  0
 23 18  1  0
M  END
>  <pair>  (32) 
x1052_1A-x1594_0A

>  <sucos>  (32) 
0.4367606481773404

>  <ref_mols>  (32) 
x1052_1A,x1594_0A

>  <original SMILES>  (32) 
Cc1cc(C(=O)NCCN(C)C(=O)c2cnnc3ccccc23)no1

>  <cmpd_ids>  (32) 
ENAMINE:PV-001433122153

>  <ref_url>  (32) 
https://github.com/stephwills/fragment_network_merges

>  <submitter_name>  (32) 
Steph Wills

>  <submitter_institution>  (32) 
University of Oxford

>  <submitter_email>  (32) 
stephanie.wills@balliol.ox.ac.uk

>  <generation_date>  (32) 
2023-09-06

>  <method>  (32) 
fragNetMergingIt3

>  <ref_pdb>  (32) 
x1052_1A,x1594_0A

$$$$
x1594-0A-x1052-1A-140
     RDKit          3D

 23 26  0  0  0  0  0  0  0  0999 V2000
   -5.7210   -9.6080   -3.1080 O   0  0  0  0  0  0  0  0  0  0  0  0
   -6.5480   -8.7170   -3.2120 C   0  0  0  0  0  0  0  0  0  0  0  0
   -6.5170   -7.4360   -2.3450 C   0  0  0  0  0  0  0  0  0  0  0  0
   -7.2360   -7.6460   -1.0220 C   0  0  0  0  0  0  0  0  0  0  0  0
   -7.3760   -6.6790   -0.0890 C   0  0  0  0  0  0  0  0  0  0  0  0
   -6.7690   -5.4160   -0.4990 N   0  0  0  0  0  0  0  0  0  0  0  0
   -6.1220   -5.2330   -1.6830 C   0  0  0  0  0  0  0  0  0  0  0  0
   -5.9550   -6.2090   -2.6520 C   0  0  0  0  0  0  0  0  0  0  0  0
   -7.6250   -8.7630   -4.0960 N   0  0  0  0  0  0  0  0  0  0  0  0
   -7.5260   -9.1130   -5.5050 C   0  0  0  0  0  0  0  0  0  0  0  0
   -7.3970   -7.9970   -6.2630 C   0  0  0  0  0  0  0  0  0  0  0  0
   -8.4320   -7.0640   -6.2240 C   0  0  0  0  0  0  0  0  0  0  0  0
   -8.1520   -5.8250   -7.0520 C   0  0  0  0  0  0  0  0  0  0  0  0
   -7.1650   -5.4940   -7.8930 N   0  0  0  0  0  0  0  0  0  0  0  0
   -7.4180   -4.2160   -8.3740 N   0  0  0  0  0  0  0  0  0  0  0  0
   -8.6080   -3.8050   -7.7700 C   0  0  0  0  0  0  0  0  0  0  0  0
   -9.3770   -2.6980   -7.7990 C   0  0  0  0  0  0  0  0  0  0  0  0
  -10.5530   -2.6210   -7.0420 C   0  0  0  0  0  0  0  0  0  0  0  0
  -10.9530   -3.6450   -6.2670 C   0  0  0  0  0  0  0  0  0  0  0  0
  -10.2120   -4.7480   -6.2150 C   0  0  0  0  0  0  0  0  0  0  0  0
   -9.0500   -4.8150   -6.9610 N   0  0  0  0  0  0  0  0  0  0  0  0
   -8.7720   -6.6820   -4.7620 C   0  0  0  0  0  0  0  0  0  0  0  0
   -8.7470   -7.8750   -3.8060 C   0  0  0  0  0  0  0  0  0  0  0  0
  1  2  2  0
  2  3  1  0
  3  4  2  0
  4  5  1  0
  5  6  2  0
  6  7  1  0
  7  8  2  0
  2  9  1  0
  9 10  1  0
 10 11  1  0
 11 12  1  0
 12 13  1  0
 13 14  2  0
 14 15  1  0
 15 16  2  0
 16 17  1  0
 17 18  2  0
 18 19  1  0
 19 20  2  0
 20 21  1  0
 12 22  1  0
 22 23  1  0
  8  3  1  0
 23  9  1  0
 21 13  1  0
 21 16  1  0
M  END
>  <pair>  (33) 
x1594_0A-x1052_1A

>  <sucos>  (33) 
0.4397997868270236

>  <ref_mols>  (33) 
x1594_0A,x1052_1A

>  <original SMILES>  (33) 
O=C(c1ccncc1)N1CCC(c2nnc3ccccn23)CC1

>  <cmpd_ids>  (33) 
ENAMINE:Z95869594

>  <ref_url>  (33) 
https://github.com/stephwills/fragment_network_merges

>  <submitter_name>  (33) 
Steph Wills

>  <submitter_institution>  (33) 
University of Oxford

>  <submitter_email>  (33) 
stephanie.wills@balliol.ox.ac.uk

>  <generation_date>  (33) 
2023-09-06

>  <method>  (33) 
fragNetMergingIt3

>  <ref_pdb>  (33) 
x1594_0A,x1052_1A

$$$$
x1594-0A-x1919-0A-187
     RDKit          3D

 22 24  0  0  0  0  0  0  0  0999 V2000
   -6.5110   -4.1950   -3.7300 O   0  0  0  0  0  0  0  0  0  0  0  0
   -6.5500   -4.9700   -2.7740 C   0  0  0  0  0  0  0  0  0  0  0  0
   -6.6640   -4.5190   -1.3190 C   0  0  0  0  0  0  0  0  0  0  0  0
   -7.2980   -3.1300   -1.2050 C   0  0  0  0  0  0  0  0  0  0  0  0
   -6.3960   -2.2820   -0.6320 F   0  0  0  0  0  0  0  0  0  0  0  0
   -6.4800   -6.3420   -2.8850 N   0  0  0  0  0  0  0  0  0  0  0  0
   -7.2820   -7.1430   -3.7800 C   0  0  0  0  0  0  0  0  0  0  0  0
   -8.7370   -7.2750   -3.2660 C   0  0  0  0  0  0  0  0  0  0  0  0
   -9.4220   -5.9390   -2.9530 C   0  0  0  0  0  0  0  0  0  0  0  0
  -10.4810   -6.2790   -3.9030 N   0  0  0  0  0  0  0  0  0  0  0  0
  -11.2480   -5.3960   -4.7920 C   0  0  0  0  0  0  0  0  0  0  0  0
  -12.4570   -5.1930   -4.6950 O   0  0  0  0  0  0  0  0  0  0  0  0
  -10.4150   -4.7230   -5.8830 C   0  0  0  0  0  0  0  0  0  0  0  0
  -10.6380   -3.3620   -6.4590 C   0  0  0  0  0  0  0  0  0  0  0  0
   -9.6780   -2.8850   -7.5090 C   0  0  0  0  0  0  0  0  0  0  0  0
   -8.5870   -3.7920   -7.8960 C   0  0  0  0  0  0  0  0  0  0  0  0
   -7.6010   -3.7040   -8.7460 N   0  0  0  0  0  0  0  0  0  0  0  0
   -6.8890   -4.8760   -8.6860 N   0  0  0  0  0  0  0  0  0  0  0  0
   -7.4460   -5.6480   -7.8070 C   0  0  0  0  0  0  0  0  0  0  0  0
   -8.5260   -5.0220   -7.2710 N   0  0  0  0  0  0  0  0  0  0  0  0
   -9.3920   -5.4760   -6.3110 C   0  0  0  0  0  0  0  0  0  0  0  0
   -9.8840   -7.5750   -4.2640 C   0  0  0  0  0  0  0  0  0  0  0  0
  1  2  2  0
  2  3  1  0
  3  4  1  0
  4  5  1  0
  2  6  1  0
  6  7  1  0
  7  8  1  0
  8  9  1  0
  9 10  1  0
 10 11  1  0
 11 12  2  0
 11 13  1  0
 13 14  1  0
 14 15  2  0
 15 16  1  0
 16 17  2  0
 17 18  1  0
 18 19  2  0
 19 20  1  0
 20 21  1  0
 10 22  1  0
 22  8  1  0
 21 13  2  0
 20 16  1  0
M  END
>  <pair>  (34) 
x1594_0A-x1919_0A

>  <sucos>  (34) 
0.5281251192114516

>  <ref_mols>  (34) 
x1594_0A,x1919_0A

>  <original SMILES>  (34) 
O=C(CCF)NCC1CN(C(=O)c2ccc3nncn3c2)C1

>  <cmpd_ids>  (34) 
ENAMINE:PV-002878574606

>  <ref_url>  (34) 
https://github.com/stephwills/fragment_network_merges

>  <submitter_name>  (34) 
Steph Wills

>  <submitter_institution>  (34) 
University of Oxford

>  <submitter_email>  (34) 
stephanie.wills@balliol.ox.ac.uk

>  <generation_date>  (34) 
2023-09-06

>  <method>  (34) 
fragNetMergingIt3

>  <ref_pdb>  (34) 
x1594_0A,x1919_0A

$$$$
x1140-0A-x1594-0A-31
     RDKit          3D

 22 25  0  0  0  0  0  0  0  0999 V2000
   -9.0630   -7.6530   -4.7600 O   0  0  0  0  0  0  0  0  0  0  0  0
   -8.4380   -6.5980   -4.6730 C   0  0  0  0  0  0  0  0  0  0  0  0
   -7.3790   -6.4640   -3.7260 N   0  0  0  0  0  0  0  0  0  0  0  0
   -6.2330   -7.4210   -3.6440 C   0  0  0  0  0  0  0  0  0  0  0  0
   -5.6090   -7.7570   -2.2510 C   0  0  0  0  0  0  0  0  0  0  0  0
   -6.3220   -8.4920   -1.2550 C   0  0  0  0  0  0  0  0  0  0  0  0
   -5.7530   -8.8050    0.0010 C   0  0  0  0  0  0  0  0  0  0  0  0
   -4.4650   -8.3850    0.2650 C   0  0  0  0  0  0  0  0  0  0  0  0
   -3.7520   -7.6810   -0.6690 C   0  0  0  0  0  0  0  0  0  0  0  0
   -4.2830   -7.3520   -1.9170 C   0  0  0  0  0  0  0  0  0  0  0  0
   -2.5060   -7.3690   -0.2180 O   0  0  0  0  0  0  0  0  0  0  0  0
   -2.5670   -7.8270    1.1470 C   0  0  0  0  0  0  0  0  0  0  0  0
   -3.7610   -8.5950    1.4200 O   0  0  0  0  0  0  0  0  0  0  0  0
   -8.8200   -5.4220   -5.6170 C   0  0  0  0  0  0  0  0  0  0  0  0
   -9.8500   -4.5850   -5.2760 C   0  0  0  0  0  0  0  0  0  0  0  0
  -10.2570   -3.4430   -6.1120 C   0  0  0  0  0  0  0  0  0  0  0  0
   -9.5970   -3.2030   -7.2520 C   0  0  0  0  0  0  0  0  0  0  0  0
   -8.5620   -4.0450   -7.6210 N   0  0  0  0  0  0  0  0  0  0  0  0
   -7.7930   -3.9780   -8.7230 N   0  0  0  0  0  0  0  0  0  0  0  0
   -6.9410   -4.9780   -8.7040 N   0  0  0  0  0  0  0  0  0  0  0  0
   -7.1430   -5.6990   -7.5810 C   0  0  0  0  0  0  0  0  0  0  0  0
   -8.1560   -5.1490   -6.8530 C   0  0  0  0  0  0  0  0  0  0  0  0
  1  2  2  0
  2  3  1  0
  3  4  1  0
  4  5  1  0
  5  6  2  0
  6  7  1  0
  7  8  2  0
  8  9  1  0
  9 10  2  0
  9 11  1  0
 11 12  1  0
 12 13  1  0
  2 14  1  0
 14 15  2  0
 15 16  1  0
 16 17  2  0
 17 18  1  0
 18 19  1  0
 19 20  2  0
 20 21  1  0
 21 22  2  0
 10  5  1  0
 22 14  1  0
 13  8  1  0
 22 18  1  0
M  END
>  <pair>  (35) 
x1140_0A-x1594_0A

>  <sucos>  (35) 
0.6023699396618615

>  <ref_mols>  (35) 
x1140_0A,x1594_0A

>  <original SMILES>  (35) 
O=C(NCc1ccc2c(c1)OCO2)c1cccn2nncc12

>  <cmpd_ids>  (35) 
ENAMINE:PV-002726024832

>  <ref_url>  (35) 
https://github.com/stephwills/fragment_network_merges

>  <submitter_name>  (35) 
Steph Wills

>  <submitter_institution>  (35) 
University of Oxford

>  <submitter_email>  (35) 
stephanie.wills@balliol.ox.ac.uk

>  <generation_date>  (35) 
2023-09-06

>  <method>  (35) 
fragNetMergingIt3

>  <ref_pdb>  (35) 
x1140_0A,x1594_0A

$$$$
x1071-0A-x0980-0B-82
     RDKit          3D

 23 25  0  0  0  0  0  0  0  0999 V2000
   -7.6520    0.2850   -0.9090 C   0  0  0  0  0  0  0  0  0  0  0  0
   -6.2980   -0.8660   -1.0310 S   0  0  0  0  0  6  0  0  0  0  0  0
   -5.2400   -0.2130   -1.7720 O   0  0  0  0  0  0  0  0  0  0  0  0
   -6.1070   -1.4330    0.2890 O   0  0  0  0  0  0  0  0  0  0  0  0
   -6.9210   -2.0990   -1.9730 N   0  0  0  0  0  0  0  0  0  0  0  0
   -6.2320   -3.3970   -2.0400 C   0  0  0  0  0  0  0  0  0  0  0  0
   -7.0910   -4.4310   -2.7460 C   0  0  0  0  0  0  0  0  0  0  0  0
   -6.6340   -5.0740   -3.6890 O   0  0  0  0  0  0  0  0  0  0  0  0
   -8.4010   -4.6020   -2.3350 N   0  0  0  0  0  0  0  0  0  0  0  0
   -9.2250   -5.7290   -2.7410 C   0  0  0  0  0  0  0  0  0  0  0  0
   -9.6780   -5.3390   -4.1630 C   0  0  2  0  0  0  0  0  0  0  0  0
   -9.3170   -3.9540   -4.1400 C   0  0  2  0  0  0  0  0  0  0  0  0
   -9.2410   -3.5180   -2.6940 C   0  0  0  0  0  0  0  0  0  0  0  0
  -10.6530   -4.0410   -4.6430 C   0  0  1  0  0  0  0  0  0  0  0  0
  -10.1260   -2.9380   -5.4380 N   0  0  0  0  0  0  0  0  0  0  0  0
  -10.5320   -2.4440   -6.6410 C   0  0  0  0  0  0  0  0  0  0  0  0
  -11.5900   -1.8170   -6.7500 O   0  0  0  0  0  0  0  0  0  0  0  0
   -9.6450   -2.6730   -7.8600 C   0  0  0  0  0  0  0  0  0  0  0  0
   -8.8640   -3.8960   -7.8590 N   0  0  0  0  0  0  0  0  0  0  0  0
   -9.1820   -4.9500   -7.0820 C   0  0  0  0  0  0  0  0  0  0  0  0
   -8.2580   -5.9180   -7.3430 C   0  0  0  0  0  0  0  0  0  0  0  0
   -7.4150   -5.3590   -8.3000 C   0  0  0  0  0  0  0  0  0  0  0  0
   -7.7630   -4.1070   -8.6310 N   0  0  0  0  0  0  0  0  0  0  0  0
  1  2  1  0
  2  3  2  0
  2  4  2  0
  2  5  1  0
  5  6  1  0
  6  7  1  0
  7  8  2  0
  7  9  1  0
  9 10  1  0
 11 10  1  1
 11 12  1  0
 12 13  1  1
 12 14  1  0
 14 15  1  6
 15 16  1  0
 16 17  2  0
 16 18  1  0
 18 19  1  0
 19 20  1  0
 20 21  2  0
 21 22  1  0
 22 23  2  0
 13  9  1  0
 23 19  1  0
 14 11  1  0
M  END
>  <pair>  (36) 
x1071_0A-x0980_0B

>  <sucos>  (36) 
0.4039766609052708

>  <ref_mols>  (36) 
x1071_0A,x0980_0B

>  <original SMILES>  (36) 
CS(=O)(=O)NCC(=O)N1CC2C(C1)C2NC(=O)Cn1cccn1

>  <cmpd_ids>  (36) 
ENAMINE:PV-002833587823

>  <ref_url>  (36) 
https://github.com/stephwills/fragment_network_merges

>  <submitter_name>  (36) 
Steph Wills

>  <submitter_institution>  (36) 
University of Oxford

>  <submitter_email>  (36) 
stephanie.wills@balliol.ox.ac.uk

>  <generation_date>  (36) 
2023-09-06

>  <method>  (36) 
fragNetMergingIt3

>  <ref_pdb>  (36) 
x1071_0A,x0980_0B

$$$$
x1071-0A-x0980-0B-52
     RDKit          3D

 23 24  0  0  0  0  0  0  0  0999 V2000
   -7.6270    0.3470   -0.8850 C   0  0  0  0  0  0  0  0  0  0  0  0
   -6.3390   -0.8730   -1.0230 S   0  0  0  0  0  6  0  0  0  0  0  0
   -5.2830   -0.2920   -1.8210 O   0  0  0  0  0  0  0  0  0  0  0  0
   -6.1210   -1.4460    0.2900 O   0  0  0  0  0  0  0  0  0  0  0  0
   -7.0960   -2.0140   -1.9740 N   0  0  0  0  0  0  0  0  0  0  0  0
   -6.4580   -3.3220   -2.1490 C   0  0  0  0  0  0  0  0  0  0  0  0
   -7.3370   -4.1650   -3.0720 C   0  0  0  0  0  0  0  0  0  0  0  0
   -6.9700   -4.4130   -4.2160 O   0  0  0  0  0  0  0  0  0  0  0  0
   -8.5610   -4.6070   -2.5950 N   0  0  0  0  0  0  0  0  0  0  0  0
   -8.7720   -5.7740   -1.7440 C   0  0  0  0  0  0  0  0  0  0  0  0
  -10.2620   -6.0550   -1.8490 C   0  0  0  0  0  0  0  0  0  0  0  0
  -10.8550   -4.6680   -2.0490 C   0  0  0  0  0  0  0  0  0  0  0  0
   -9.8510   -3.9990   -3.0010 C   0  0  2  0  0  0  0  0  0  0  0  0
  -10.2450   -4.1690   -4.4940 C   0  0  0  0  0  0  0  0  0  0  0  0
   -9.6750   -3.1870   -5.4140 N   0  0  0  0  0  0  0  0  0  0  0  0
  -10.3120   -2.7240   -6.5620 C   0  0  0  0  0  0  0  0  0  0  0  0
  -11.4250   -2.2080   -6.5260 O   0  0  0  0  0  0  0  0  0  0  0  0
   -9.4890   -2.9240   -7.8270 C   0  0  0  0  0  0  0  0  0  0  0  0
   -8.6700   -4.1120   -7.7980 N   0  0  0  0  0  0  0  0  0  0  0  0
   -9.0720   -5.2870   -7.2710 C   0  0  0  0  0  0  0  0  0  0  0  0
   -8.0300   -6.1570   -7.4230 C   0  0  0  0  0  0  0  0  0  0  0  0
   -7.0300   -5.4140   -8.0620 C   0  0  0  0  0  0  0  0  0  0  0  0
   -7.4150   -4.1690   -8.2910 N   0  0  0  0  0  0  0  0  0  0  0  0
  1  2  1  0
  2  3  2  0
  2  4  2  0
  2  5  1  0
  5  6  1  0
  6  7  1  0
  7  8  2  0
  7  9  1  0
  9 10  1  0
 10 11  1  0
 11 12  1  0
 12 13  1  0
 13 14  1  6
 14 15  1  0
 15 16  1  0
 16 17  2  0
 16 18  1  0
 18 19  1  0
 19 20  1  0
 20 21  2  0
 21 22  1  0
 22 23  2  0
 13  9  1  0
 23 19  1  0
M  END
>  <pair>  (37) 
x1071_0A-x0980_0B

>  <sucos>  (37) 
0.40926414043399806

>  <ref_mols>  (37) 
x1071_0A,x0980_0B

>  <original SMILES>  (37) 
CS(=O)(=O)NCC(=O)N1CCCC1CNC(=O)Cn1cccn1

>  <cmpd_ids>  (37) 
ENAMINE:PV-002938722227

>  <ref_url>  (37) 
https://github.com/stephwills/fragment_network_merges

>  <submitter_name>  (37) 
Steph Wills

>  <submitter_institution>  (37) 
University of Oxford

>  <submitter_email>  (37) 
stephanie.wills@balliol.ox.ac.uk

>  <generation_date>  (37) 
2023-09-06

>  <method>  (37) 
fragNetMergingIt3

>  <ref_pdb>  (37) 
x1071_0A,x0980_0B

$$$$
x1140-0A-x1020-0A-118
     RDKit          3D

 19 20  0  0  0  0  0  0  0  0999 V2000
   -6.4890  -13.1330   -0.8120 C   0  0  0  0  0  0  0  0  0  0  0  0
   -7.4230  -12.9290    0.3350 C   0  0  0  0  0  0  0  0  0  0  0  0
   -7.0870  -11.9840    1.2290 C   0  0  0  0  0  0  0  0  0  0  0  0
   -6.7880  -12.2620    2.6780 C   0  0  1  0  0  0  0  0  0  0  0  0
   -8.0640  -12.3360    3.5410 C   0  0  0  0  0  0  0  0  0  0  0  0
   -6.0660  -13.6560    2.7810 C   0  0  0  0  0  0  0  0  0  0  0  0
   -5.0430  -13.9080    1.8330 C   0  0  0  0  0  0  0  0  0  0  0  0
   -5.8390  -11.1650    3.2760 C   0  0  0  0  0  0  0  0  0  0  0  0
   -5.1250  -11.4280    4.2490 O   0  0  0  0  0  0  0  0  0  0  0  0
   -5.8850   -9.8940    2.6680 N   0  0  0  0  0  0  0  0  0  0  0  0
   -5.5020   -9.3890    1.3600 C   0  0  0  0  0  0  0  0  0  0  0  0
   -6.2820   -9.5050    0.1790 C   0  0  0  0  0  0  0  0  0  0  0  0
   -5.8530   -8.9900   -1.0070 C   0  0  0  0  0  0  0  0  0  0  0  0
   -4.6460   -8.3340   -1.1110 C   0  0  0  0  0  0  0  0  0  0  0  0
   -3.8790   -8.2100    0.0120 C   0  0  0  0  0  0  0  0  0  0  0  0
   -4.2730   -8.7110    1.2030 C   0  0  0  0  0  0  0  0  0  0  0  0
   -3.3330   -8.4560    2.1650 O   0  0  0  0  0  0  0  0  0  0  0  0
   -2.2960   -7.8070    1.4210 C   0  0  0  0  0  0  0  0  0  0  0  0
   -2.6800   -7.5960    0.0700 O   0  0  0  0  0  0  0  0  0  0  0  0
  1  2  1  0
  2  3  1  0
  3  4  1  0
  4  5  1  1
  4  6  1  0
  6  7  1  0
  4  8  1  0
  8  9  2  0
  8 10  1  0
 10 11  1  0
 11 12  2  0
 12 13  1  0
 13 14  2  0
 14 15  1  0
 15 16  2  0
 16 17  1  0
 17 18  1  0
 18 19  1  0
 16 11  1  0
 19 15  1  0
M  END
>  <pair>  (38) 
x1140_0A-x1020_0A

>  <sucos>  (38) 
0.41378071134197925

>  <ref_mols>  (38) 
x1140_0A,x1020_0A

>  <original SMILES>  (38) 
CCCC(C)(CC)C(=O)Nc1cccc2c1OCO2

>  <cmpd_ids>  (38) 
ENAMINE:Z1963200220

>  <ref_url>  (38) 
https://github.com/stephwills/fragment_network_merges

>  <submitter_name>  (38) 
Steph Wills

>  <submitter_institution>  (38) 
University of Oxford

>  <submitter_email>  (38) 
stephanie.wills@balliol.ox.ac.uk

>  <generation_date>  (38) 
2023-09-06

>  <method>  (38) 
fragNetMergingIt3

>  <ref_pdb>  (38) 
x1140_0A,x1020_0A

$$$$
x1052-1A-x1140-0A-185
     RDKit          3D

 26 28  0  0  0  0  0  0  0  0999 V2000
   -4.7000   -6.7620   -0.0640 C   0  0  0  0  0  0  0  0  0  0  0  0
   -5.7620   -6.1470   -0.8390 C   0  0  0  0  0  0  0  0  0  0  0  0
   -5.9020   -5.7320   -2.1840 C   0  0  0  0  0  0  0  0  0  0  0  0
   -7.1790   -5.2270   -2.3410 C   0  0  0  0  0  0  0  0  0  0  0  0
   -7.6740   -4.7530   -3.5580 C   0  0  0  0  0  0  0  0  0  0  0  0
   -7.2610   -5.7150   -4.5900 N   0  0  0  0  0  0  0  0  0  0  0  0
   -6.1550   -6.5670   -4.1640 C   0  0  0  0  0  0  0  0  0  0  0  0
   -8.1390   -6.0210   -5.6540 C   0  0  1  0  0  0  0  0  0  0  0  0
   -7.8530   -5.6150   -6.9680 C   0  0  0  0  0  0  0  0  0  0  0  0
   -8.5420   -7.5230   -5.6090 C   0  0  0  0  0  0  0  0  0  0  0  0
   -9.6550   -7.8920   -5.9940 O   0  0  0  0  0  0  0  0  0  0  0  0
   -7.5960   -8.4210   -5.1300 N   0  0  0  0  0  0  0  0  0  0  0  0
   -7.3440   -8.6380   -3.7030 C   0  0  0  0  0  0  0  0  0  0  0  0
   -5.9800   -8.9000   -3.4310 C   0  0  0  0  0  0  0  0  0  0  0  0
   -5.4590   -8.8980   -2.1260 C   0  0  0  0  0  0  0  0  0  0  0  0
   -6.1170   -9.6040   -1.1160 C   0  0  0  0  0  0  0  0  0  0  0  0
   -5.5390   -9.6230    0.2840 C   0  0  0  0  0  0  0  0  0  0  0  0
   -4.3610   -8.9390    0.5430 C   0  0  0  0  0  0  0  0  0  0  0  0
   -3.7240   -8.2290   -0.4930 C   0  0  0  0  0  0  0  0  0  0  0  0
   -4.2650   -8.2050   -1.8010 C   0  0  0  0  0  0  0  0  0  0  0  0
   -2.5540   -7.5390   -0.2810 O   0  0  0  0  0  0  0  0  0  0  0  0
   -2.3420   -7.3090    1.1180 C   0  0  0  0  0  0  0  0  0  0  0  0
   -2.5130   -8.5890    1.9010 C   0  0  0  0  0  0  0  0  0  0  0  0
   -3.8810   -9.0080    1.8290 O   0  0  0  0  0  0  0  0  0  0  0  0
   -7.8420   -5.2840   -1.1630 N   0  0  0  0  0  0  0  0  0  0  0  0
   -6.9540   -5.8610   -0.2350 O   0  0  0  0  0  0  0  0  0  0  0  0
  1  2  1  0
  2  3  2  0
  3  4  1  0
  4  5  1  0
  5  6  1  0
  6  7  1  0
  6  8  1  0
  8  9  1  6
  8 10  1  0
 10 11  2  0
 10 12  1  0
 12 13  1  0
 13 14  1  0
 14 15  1  0
 15 16  2  0
 16 17  1  0
 17 18  2  0
 18 19  1  0
 19 20  2  0
 19 21  1  0
 21 22  1  0
 22 23  1  0
 23 24  1  0
  4 25  2  0
 25 26  1  0
 26  2  1  0
 20 15  1  0
 24 18  1  0
M  END
>  <pair>  (39) 
x1052_1A-x1140_0A

>  <sucos>  (39) 
0.41483107896997246

>  <ref_mols>  (39) 
x1052_1A,x1140_0A

>  <original SMILES>  (39) 
Cc1cc(CN(C)C(C)C(=O)NCCc2ccc3c(c2)OCCO3)no1

>  <cmpd_ids>  (39) 
ENAMINE:Z400801506

>  <ref_url>  (39) 
https://github.com/stephwills/fragment_network_merges

>  <submitter_name>  (39) 
Steph Wills

>  <submitter_institution>  (39) 
University of Oxford

>  <submitter_email>  (39) 
stephanie.wills@balliol.ox.ac.uk

>  <generation_date>  (39) 
2023-09-06

>  <method>  (39) 
fragNetMergingIt3

>  <ref_pdb>  (39) 
x1052_1A,x1140_0A

$$$$
x1140-0A-x1052-1A-186
     RDKit          3D

 27 30  0  0  0  0  0  0  0  0999 V2000
   -4.7220   -8.2810   -4.3000 O   0  0  0  0  0  0  0  0  0  0  0  0
   -5.5920   -8.2760   -3.4770 C   0  0  0  0  0  0  0  0  0  0  0  0
   -5.0960   -8.3420   -2.0680 C   0  0  0  0  0  0  0  0  0  0  0  0
   -5.7760   -9.1230   -0.9980 C   0  0  0  0  0  0  0  0  0  0  0  0
   -5.3510   -9.2140    0.3110 C   0  0  0  0  0  0  0  0  0  0  0  0
   -4.1560   -8.4730    0.5710 C   0  0  0  0  0  0  0  0  0  0  0  0
   -3.4990   -7.7370   -0.4000 C   0  0  0  0  0  0  0  0  0  0  0  0
   -3.9330   -7.6460   -1.7120 C   0  0  0  0  0  0  0  0  0  0  0  0
   -2.3900   -7.1260    0.0940 O   0  0  0  0  0  0  0  0  0  0  0  0
   -2.3130   -7.7160    1.4020 C   0  0  0  0  0  0  0  0  0  0  0  0
   -3.5260   -8.4040    1.7760 O   0  0  0  0  0  0  0  0  0  0  0  0
   -7.0260   -8.1900   -3.7640 N   0  0  0  0  0  0  0  0  0  0  0  0
   -7.5460   -7.0310   -4.5140 C   0  0  0  0  0  0  0  0  0  0  0  0
   -8.3580   -7.3470   -5.7390 C   0  0  0  0  0  0  0  0  0  0  0  0
   -7.8920   -6.5710   -6.8120 C   0  0  0  0  0  0  0  0  0  0  0  0
   -8.0950   -5.1900   -6.8660 C   0  0  0  0  0  0  0  0  0  0  0  0
   -7.5920   -4.4970   -7.9400 C   0  0  0  0  0  0  0  0  0  0  0  0
   -6.8910   -5.1460   -8.9510 C   0  0  0  0  0  0  0  0  0  0  0  0
   -6.7010   -6.4910   -8.8950 C   0  0  0  0  0  0  0  0  0  0  0  0
   -7.2060   -7.2010   -7.8300 C   0  0  0  0  0  0  0  0  0  0  0  0
   -7.7680   -8.3500   -2.5550 C   0  0  0  0  0  0  0  0  0  0  0  0
   -7.5310   -7.2100   -1.8220 C   0  0  0  0  0  0  0  0  0  0  0  0
   -8.2520   -6.9800   -0.6810 C   0  0  0  0  0  0  0  0  0  0  0  0
   -7.9890   -5.8260   -0.0010 C   0  0  0  0  0  0  0  0  0  0  0  0
   -7.0770   -4.9040   -0.3760 N   0  0  0  0  0  0  0  0  0  0  0  0
   -6.3720   -5.1420   -1.4840 C   0  0  0  0  0  0  0  0  0  0  0  0
   -6.5550   -6.2700   -2.2390 C   0  0  0  0  0  0  0  0  0  0  0  0
  1  2  2  0
  2  3  1  0
  3  4  2  0
  4  5  1  0
  5  6  2  0
  6  7  1  0
  7  8  2  0
  7  9  1  0
  9 10  1  0
 10 11  1  0
  2 12  1  0
 12 13  1  0
 13 14  1  0
 14 15  1  0
 15 16  2  0
 16 17  1  0
 17 18  2  0
 18 19  1  0
 19 20  2  0
 12 21  1  0
 21 22  1  0
 22 23  2  0
 23 24  1  0
 24 25  2  0
 25 26  1  0
 26 27  2  0
  8  3  1  0
 20 15  1  0
 27 22  1  0
 11  6  1  0
M  END
>  <pair>  (40) 
x1140_0A-x1052_1A

>  <sucos>  (40) 
0.42047738169241045

>  <ref_mols>  (40) 
x1140_0A,x1052_1A

>  <original SMILES>  (40) 
O=C(c1ccc2c(c1)OCO2)N(CCc1ccccc1)Cc1ccncc1

>  <cmpd_ids>  (40) 
ENAMINE:Z991801124

>  <ref_url>  (40) 
https://github.com/stephwills/fragment_network_merges

>  <submitter_name>  (40) 
Steph Wills

>  <submitter_institution>  (40) 
University of Oxford

>  <submitter_email>  (40) 
stephanie.wills@balliol.ox.ac.uk

>  <generation_date>  (40) 
2023-09-06

>  <method>  (40) 
fragNetMergingIt3

>  <ref_pdb>  (40) 
x1140_0A,x1052_1A

$$$$
x1052-1A-x1604-0A-124
     RDKit          3D

 22 24  0  0  0  0  0  0  0  0999 V2000
   -3.9930   -7.3100   -1.1000 C   0  0  0  0  0  0  0  0  0  0  0  0
   -5.3150   -6.6010   -1.2180 C   0  0  0  0  0  0  0  0  0  0  0  0
   -5.7420   -5.9100   -2.4310 C   0  0  0  0  0  0  0  0  0  0  0  0
   -7.0020   -5.3420   -2.2720 C   0  0  0  0  0  0  0  0  0  0  0  0
   -7.7150   -4.6170   -3.2510 N   0  0  0  0  0  0  0  0  0  0  0  0
   -8.9250   -3.9390   -3.0580 C   0  0  0  0  0  0  0  0  0  0  0  0
   -9.2720   -3.3560   -2.0390 O   0  0  0  0  0  0  0  0  0  0  0  0
   -9.7700   -3.9790   -4.2000 N   0  0  0  0  0  0  0  0  0  0  0  0
  -10.7260   -2.8700   -4.4380 C   0  0  0  0  0  0  0  0  0  0  0  0
  -11.6310   -2.9620   -5.7110 C   0  0  2  0  0  0  0  0  0  0  0  0
  -12.1760   -4.2370   -5.8840 C   0  0  0  0  0  0  0  0  0  0  0  0
  -11.3820   -5.2990   -6.2670 C   0  0  0  0  0  0  0  0  0  0  0  0
  -11.6680   -6.4750   -6.0830 O   0  0  0  0  0  0  0  0  0  0  0  0
  -10.1940   -4.8690   -6.9170 C   0  0  0  0  0  0  0  0  0  0  0  0
   -9.0710   -5.8430   -7.3170 C   0  0  0  0  0  0  0  0  0  0  0  0
   -7.7350   -5.5650   -8.0270 C   0  0  0  0  0  0  0  0  0  0  0  0
   -7.8740   -4.1480   -8.1940 C   0  0  0  0  0  0  0  0  0  0  0  0
   -8.8760   -3.2270   -7.8400 C   0  0  0  0  0  0  0  0  0  0  0  0
  -10.0220   -3.5670   -7.2050 C   0  0  0  0  0  0  0  0  0  0  0  0
  -10.9090   -2.5890   -6.8990 O   0  0  0  0  0  0  0  0  0  0  0  0
   -7.3590   -5.6650   -0.9780 N   0  0  0  0  0  0  0  0  0  0  0  0
   -6.3330   -6.4370   -0.3340 O   0  0  0  0  0  0  0  0  0  0  0  0
  1  2  1  0
  2  3  2  0
  3  4  1  0
  4  5  1  0
  5  6  1  0
  6  7  2  0
  6  8  1  0
  8  9  1  0
 10  9  1  1
 10 11  1  0
 11 12  1  0
 12 13  2  0
 12 14  1  0
 14 15  2  0
 15 16  1  0
 16 17  2  0
 17 18  1  0
 18 19  2  0
 19 20  1  0
  4 21  2  0
 21 22  1  0
 22  2  1  0
 20 10  1  0
 19 14  1  0
M  END
>  <pair>  (41) 
x1052_1A-x1604_0A

>  <sucos>  (41) 
0.42434765888492054

>  <ref_mols>  (41) 
x1052_1A,x1604_0A

>  <original SMILES>  (41) 
Cc1cc(NC(=O)NCC2CC(=O)c3ccccc3O2)no1

>  <cmpd_ids>  (41) 
ENAMINE:Z2771746084

>  <ref_url>  (41) 
https://github.com/stephwills/fragment_network_merges

>  <submitter_name>  (41) 
Steph Wills

>  <submitter_institution>  (41) 
University of Oxford

>  <submitter_email>  (41) 
stephanie.wills@balliol.ox.ac.uk

>  <generation_date>  (41) 
2023-09-06

>  <method>  (41) 
fragNetMergingIt3

>  <ref_pdb>  (41) 
x1052_1A,x1604_0A

$$$$
x1140-0A-x1604-0A-38
     RDKit          3D

 27 30  0  0  0  0  0  0  0  0999 V2000
   -5.6390   -6.5670   -3.6950 C   0  0  0  0  0  0  0  0  0  0  0  0
   -5.3810   -7.0370   -2.3010 C   0  0  0  0  0  0  0  0  0  0  0  0
   -4.0580   -7.3500   -1.9110 C   0  0  0  0  0  0  0  0  0  0  0  0
   -3.8230   -7.7800   -0.6340 C   0  0  0  0  0  0  0  0  0  0  0  0
   -4.8490   -7.9280    0.2570 C   0  0  0  0  0  0  0  0  0  0  0  0
   -6.1840   -7.6260   -0.0890 C   0  0  0  0  0  0  0  0  0  0  0  0
   -6.4780   -7.1460   -1.4150 C   0  0  0  0  0  0  0  0  0  0  0  0
   -7.7920   -6.7270   -1.9810 N   0  0  0  0  0  0  0  0  0  0  0  0
   -8.0900   -5.4490   -2.6160 C   0  0  0  0  0  0  0  0  0  0  0  0
   -7.3040   -4.5100   -2.6030 O   0  0  0  0  0  0  0  0  0  0  0  0
   -9.3690   -5.2610   -3.2920 N   0  0  0  0  0  0  0  0  0  0  0  0
   -9.4790   -4.2710   -4.4580 C   0  0  0  0  0  0  0  0  0  0  0  0
  -10.8690   -3.5840   -4.9320 C   0  0  2  0  0  0  0  0  0  0  0  0
  -11.9860   -4.5940   -5.0400 C   0  0  0  0  0  0  0  0  0  0  0  0
  -11.4610   -5.7880   -6.2260 S   0  0  0  0  0  6  0  0  0  0  0  0
  -11.1360   -7.0090   -5.5440 O   0  0  0  0  0  0  0  0  0  0  0  0
  -12.4420   -5.7950   -7.2960 O   0  0  0  0  0  0  0  0  0  0  0  0
   -9.9970   -5.1170   -6.9280 C   0  0  0  0  0  0  0  0  0  0  0  0
   -9.0420   -5.9350   -7.4900 C   0  0  0  0  0  0  0  0  0  0  0  0
   -7.9130   -5.3770   -8.0850 C   0  0  0  0  0  0  0  0  0  0  0  0
   -7.7710   -3.9980   -8.1020 C   0  0  0  0  0  0  0  0  0  0  0  0
   -8.7470   -3.1950   -7.5000 C   0  0  0  0  0  0  0  0  0  0  0  0
   -9.8450   -3.7710   -6.9020 C   0  0  0  0  0  0  0  0  0  0  0  0
  -10.7390   -2.9970   -6.2800 O   0  0  0  0  0  0  0  0  0  0  0  0
   -4.3700   -8.3830    1.4630 O   0  0  0  0  0  0  0  0  0  0  0  0
   -2.9630   -8.1010    1.2910 C   0  0  0  0  0  0  0  0  0  0  0  0
   -2.6130   -8.0980   -0.1010 O   0  0  0  0  0  0  0  0  0  0  0  0
  1  2  1  0
  2  3  2  0
  3  4  1  0
  4  5  2  0
  5  6  1  0
  6  7  2  0
  7  8  1  0
  8  9  1  0
  9 10  2  0
  9 11  1  0
 11 12  1  0
 13 12  1  6
 13 14  1  0
 14 15  1  0
 15 16  2  0
 15 17  2  0
 15 18  1  0
 18 19  2  0
 19 20  1  0
 20 21  2  0
 21 22  1  0
 22 23  2  0
 23 24  1  0
  5 25  1  0
 25 26  1  0
 26 27  1  0
  7  2  1  0
 24 13  1  0
 27  4  1  0
 23 18  1  0
M  END
>  <pair>  (42) 
x1140_0A-x1604_0A

>  <sucos>  (42) 
0.4331955033901032

>  <ref_mols>  (42) 
x1140_0A,x1604_0A

>  <original SMILES>  (42) 
Cc1cc2c(cc1NC(=O)NCC1CS(=O)(=O)c3ccccc3O1)OCO2

>  <cmpd_ids>  (42) 
ENAMINE:Z2439220329

>  <ref_url>  (42) 
https://github.com/stephwills/fragment_network_merges

>  <submitter_name>  (42) 
Steph Wills

>  <submitter_institution>  (42) 
University of Oxford

>  <submitter_email>  (42) 
stephanie.wills@balliol.ox.ac.uk

>  <generation_date>  (42) 
2023-09-06

>  <method>  (42) 
fragNetMergingIt3

>  <ref_pdb>  (42) 
x1140_0A,x1604_0A

$$$$
x1140-0A-x1604-0A-36
     RDKit          3D

 27 30  0  0  0  0  0  0  0  0999 V2000
   -5.5560   -6.8170   -3.8270 C   0  0  0  0  0  0  0  0  0  0  0  0
   -5.2270   -7.2640   -2.4380 C   0  0  0  0  0  0  0  0  0  0  0  0
   -3.8830   -7.3520   -2.0150 C   0  0  0  0  0  0  0  0  0  0  0  0
   -3.6230   -7.7580   -0.7390 C   0  0  0  0  0  0  0  0  0  0  0  0
   -4.6270   -8.0970    0.1200 C   0  0  0  0  0  0  0  0  0  0  0  0
   -5.9650   -8.0240   -0.2570 C   0  0  0  0  0  0  0  0  0  0  0  0
   -6.2850   -7.5820   -1.5660 C   0  0  0  0  0  0  0  0  0  0  0  0
   -7.6260   -7.4020   -2.0980 N   0  0  0  0  0  0  0  0  0  0  0  0
   -8.3490   -6.1720   -2.1240 C   0  0  0  0  0  0  0  0  0  0  0  0
   -8.3780   -5.3680   -1.2000 O   0  0  0  0  0  0  0  0  0  0  0  0
   -9.0780   -5.9050   -3.3210 N   0  0  0  0  0  0  0  0  0  0  0  0
   -8.9780   -4.6000   -4.0670 C   0  0  0  0  0  0  0  0  0  0  0  0
  -10.3130   -3.7960   -4.3500 C   0  0  0  0  0  0  0  0  0  0  0  0
  -10.6660   -3.5350   -5.7910 N   0  0  0  0  0  0  0  0  0  0  0  0
  -11.8920   -4.0720   -6.1020 C   0  0  0  0  0  0  0  0  0  0  0  0
  -12.9130   -3.4460   -6.3440 O   0  0  0  0  0  0  0  0  0  0  0  0
  -11.8280   -5.5980   -6.1120 C   0  0  0  0  0  0  0  0  0  0  0  0
  -10.5210   -6.1410   -6.0520 O   0  0  0  0  0  0  0  0  0  0  0  0
   -9.6330   -5.3570   -6.7400 C   0  0  0  0  0  0  0  0  0  0  0  0
   -8.6890   -6.0010   -7.5050 C   0  0  0  0  0  0  0  0  0  0  0  0
   -7.7780   -5.2760   -8.2530 C   0  0  0  0  0  0  0  0  0  0  0  0
   -7.8290   -3.8910   -8.2240 C   0  0  0  0  0  0  0  0  0  0  0  0
   -8.7830   -3.2380   -7.4300 C   0  0  0  0  0  0  0  0  0  0  0  0
   -9.6790   -3.9880   -6.6720 C   0  0  0  0  0  0  0  0  0  0  0  0
   -4.1290   -8.4820    1.3300 O   0  0  0  0  0  0  0  0  0  0  0  0
   -2.7940   -7.9500    1.2080 C   0  0  0  0  0  0  0  0  0  0  0  0
   -2.3990   -7.8720   -0.1700 O   0  0  0  0  0  0  0  0  0  0  0  0
  1  2  1  0
  2  3  2  0
  3  4  1  0
  4  5  2  0
  5  6  1  0
  6  7  2  0
  7  8  1  0
  8  9  1  0
  9 10  2  0
  9 11  1  0
 11 12  1  0
 12 13  1  0
 13 14  1  0
 14 15  1  0
 15 16  2  0
 15 17  1  0
 17 18  1  0
 18 19  1  0
 19 20  2  0
 20 21  1  0
 21 22  2  0
 22 23  1  0
 23 24  2  0
  5 25  1  0
 25 26  1  0
 26 27  1  0
  7  2  1  0
 24 14  1  0
 27  4  1  0
 24 19  1  0
M  END
>  <pair>  (43) 
x1140_0A-x1604_0A

>  <sucos>  (43) 
0.4438755062584273

>  <ref_mols>  (43) 
x1140_0A,x1604_0A

>  <original SMILES>  (43) 
Cc1cc2c(cc1NC(=O)NCCN1C(=O)COc3ccccc31)OCO2

>  <cmpd_ids>  (43) 
ENAMINE:Z1732133999

>  <ref_url>  (43) 
https://github.com/stephwills/fragment_network_merges

>  <submitter_name>  (43) 
Steph Wills

>  <submitter_institution>  (43) 
University of Oxford

>  <submitter_email>  (43) 
stephanie.wills@balliol.ox.ac.uk

>  <generation_date>  (43) 
2023-09-06

>  <method>  (43) 
fragNetMergingIt3

>  <ref_pdb>  (43) 
x1140_0A,x1604_0A

$$$$
x1140-0A-x1594-0A-50
     RDKit          3D

 22 25  0  0  0  0  0  0  0  0999 V2000
   -5.4130   -7.2990   -4.1760 C   0  0  0  0  0  0  0  0  0  0  0  0
   -5.2690   -7.3500   -2.7040 C   0  0  0  0  0  0  0  0  0  0  0  0
   -4.0460   -7.7600   -2.1530 C   0  0  0  0  0  0  0  0  0  0  0  0
   -3.8950   -7.8430   -0.8030 C   0  0  0  0  0  0  0  0  0  0  0  0
   -4.9350   -7.5460    0.0190 C   0  0  0  0  0  0  0  0  0  0  0  0
   -6.1930   -7.1060   -0.4980 C   0  0  0  0  0  0  0  0  0  0  0  0
   -6.3690   -6.9780   -1.9370 C   0  0  0  0  0  0  0  0  0  0  0  0
   -7.5270   -6.4870   -2.7970 N   0  0  0  0  0  0  0  0  0  0  0  0
   -7.4710   -5.3130   -3.7210 C   0  0  0  0  0  0  0  0  0  0  0  0
   -6.5950   -4.4450   -3.6420 O   0  0  0  0  0  0  0  0  0  0  0  0
   -8.4710   -4.9650   -4.9060 C   0  0  0  0  0  0  0  0  0  0  0  0
   -9.7630   -4.5780   -4.6570 C   0  0  0  0  0  0  0  0  0  0  0  0
  -10.6560   -4.2020   -5.7400 C   0  0  0  0  0  0  0  0  0  0  0  0
  -10.2370   -4.1940   -7.0020 C   0  0  0  0  0  0  0  0  0  0  0  0
   -8.9450   -4.5680   -7.2540 N   0  0  0  0  0  0  0  0  0  0  0  0
   -8.2450   -4.6380   -8.4130 C   0  0  0  0  0  0  0  0  0  0  0  0
   -7.0550   -5.0630   -8.2490 N   0  0  0  0  0  0  0  0  0  0  0  0
   -6.9730   -5.2650   -6.9270 N   0  0  0  0  0  0  0  0  0  0  0  0
   -8.0710   -4.9610   -6.3030 C   0  0  0  0  0  0  0  0  0  0  0  0
   -4.5590   -7.7280    1.3320 O   0  0  0  0  0  0  0  0  0  0  0  0
   -3.1250   -7.8370    1.1990 C   0  0  0  0  0  0  0  0  0  0  0  0
   -2.7640   -8.2070   -0.1380 O   0  0  0  0  0  0  0  0  0  0  0  0
  1  2  1  0
  2  3  2  0
  3  4  1  0
  4  5  2  0
  5  6  1  0
  6  7  2  0
  7  8  1  0
  8  9  1  0
  9 10  2  0
  9 11  1  0
 11 12  2  0
 12 13  1  0
 13 14  2  0
 14 15  1  0
 15 16  1  0
 16 17  2  0
 17 18  1  0
 18 19  2  0
  5 20  1  0
 20 21  1  0
 21 22  1  0
  7  2  1  0
 19 11  1  0
 22  4  1  0
 19 15  1  0
M  END
>  <pair>  (44) 
x1140_0A-x1594_0A

>  <sucos>  (44) 
0.45102929852002

>  <ref_mols>  (44) 
x1140_0A,x1594_0A

>  <original SMILES>  (44) 
Cc1cc2c(cc1NC(=O)c1cccn3cnnc13)OCO2

>  <cmpd_ids>  (44) 
ENAMINE:PV-003005688848

>  <ref_url>  (44) 
https://github.com/stephwills/fragment_network_merges

>  <submitter_name>  (44) 
Steph Wills

>  <submitter_institution>  (44) 
University of Oxford

>  <submitter_email>  (44) 
stephanie.wills@balliol.ox.ac.uk

>  <generation_date>  (44) 
2023-09-06

>  <method>  (44) 
fragNetMergingIt3

>  <ref_pdb>  (44) 
x1140_0A,x1594_0A

$$$$
x1083-0A-x1498-0A-174
     RDKit          3D

 23 24  0  0  0  0  0  0  0  0999 V2000
   -1.7950   -7.5140    1.8150 C   0  0  0  0  0  0  0  0  0  0  0  0
   -3.0950   -7.8340    2.2960 C   0  0  0  0  0  0  0  0  0  0  0  0
   -3.3840   -7.7640    3.4870 O   0  0  0  0  0  0  0  0  0  0  0  0
   -3.9850   -8.2270    1.3120 N   0  0  0  0  0  0  0  0  0  0  0  0
   -4.1220   -7.4650    0.0730 C   0  0  1  0  0  0  0  0  0  0  0  0
   -2.8670   -7.5540   -0.7380 C   0  0  0  0  0  0  0  0  0  0  0  0
   -5.3720   -7.9020   -0.7150 C   0  0  0  0  0  0  0  0  0  0  0  0
   -5.1570   -7.7720   -2.2370 C   0  0  0  0  0  0  0  0  0  0  0  0
   -5.7190   -6.5080   -2.9060 C   0  0  0  0  0  0  0  0  0  0  0  0
   -7.0010   -6.0990   -2.3370 N   0  0  0  0  0  0  0  0  0  0  0  0
   -8.1410   -6.5380   -3.0190 C   0  0  0  0  0  0  0  0  0  0  0  0
   -9.1570   -5.8460   -3.0940 O   0  0  0  0  0  0  0  0  0  0  0  0
   -8.0800   -7.9450   -3.6590 C   0  0  0  0  0  0  0  0  0  0  0  0
   -8.8110   -8.0370   -5.0310 C   0  0  0  0  0  0  0  0  0  0  0  0
   -7.8850   -7.7560   -6.2150 C   0  0  0  0  0  0  0  0  0  0  0  0
   -8.1060   -6.3880   -6.8060 C   0  0  0  0  0  0  0  0  0  0  0  0
   -9.1820   -5.4850   -6.2740 C   0  0  0  0  0  0  0  0  0  0  0  0
   -9.3240   -4.2450   -6.8580 C   0  0  0  0  0  0  0  0  0  0  0  0
   -8.5580   -3.8020   -7.8720 N   0  0  0  0  0  0  0  0  0  0  0  0
   -7.5940   -4.6290   -8.3460 C   0  0  0  0  0  0  0  0  0  0  0  0
   -7.3300   -5.9030   -7.8600 C   0  0  0  0  0  0  0  0  0  0  0  0
   -6.9840   -5.9290   -0.8940 C   0  0  0  0  0  0  0  0  0  0  0  0
   -6.6910   -7.2710   -0.2270 C   0  0  0  0  0  0  0  0  0  0  0  0
  1  2  1  0
  2  3  2  0
  2  4  1  0
  4  5  1  0
  5  6  1  6
  5  7  1  0
  7  8  1  0
  8  9  1  0
  9 10  1  0
 10 11  1  0
 11 12  2  0
 11 13  1  0
 13 14  1  0
 14 15  1  0
 15 16  1  0
 16 17  2  0
 17 18  1  0
 18 19  2  0
 19 20  1  0
 20 21  2  0
 10 22  1  0
 22 23  1  0
 23  7  1  0
 21 16  1  0
M  END
>  <pair>  (45) 
x1083_0A-x1498_0A

>  <sucos>  (45) 
0.48242652708730777

>  <ref_mols>  (45) 
x1083_0A,x1498_0A

>  <original SMILES>  (45) 
CC(=O)NC(C)C1CCN(C(=O)CCCc2ccncc2)CC1

>  <cmpd_ids>  (45) 
ENAMINE:PV-003111099696

>  <ref_url>  (45) 
https://github.com/stephwills/fragment_network_merges

>  <submitter_name>  (45) 
Steph Wills

>  <submitter_institution>  (45) 
University of Oxford

>  <submitter_email>  (45) 
stephanie.wills@balliol.ox.ac.uk

>  <generation_date>  (45) 
2023-09-06

>  <method>  (45) 
fragNetMergingIt3

>  <ref_pdb>  (45) 
x1083_0A,x1498_0A

$$$$
x1071-0A-x0980-0B-60
     RDKit          3D

 24 25  0  0  0  0  0  0  0  0999 V2000
   -7.6850    0.2760   -0.9170 C   0  0  0  0  0  0  0  0  0  0  0  0
   -6.3130   -0.8560   -1.0270 S   0  0  0  0  0  6  0  0  0  0  0  0
   -5.2660   -0.1910   -1.7680 O   0  0  0  0  0  0  0  0  0  0  0  0
   -6.1110   -1.4420    0.2820 O   0  0  0  0  0  0  0  0  0  0  0  0
   -6.9210   -2.0440   -2.0200 N   0  0  0  0  0  0  0  0  0  0  0  0
   -6.2210   -3.3230   -2.1210 C   0  0  0  0  0  0  0  0  0  0  0  0
   -7.0890   -4.2770   -2.9200 C   0  0  0  0  0  0  0  0  0  0  0  0
   -6.9480   -4.3530   -4.1400 O   0  0  0  0  0  0  0  0  0  0  0  0
   -8.0550   -5.0170   -2.2730 N   0  0  0  0  0  0  0  0  0  0  0  0
   -8.7200   -4.5470   -1.0600 C   0  0  0  0  0  0  0  0  0  0  0  0
  -10.1610   -4.2660   -1.5050 C   0  0  0  0  0  0  0  0  0  0  0  0
  -10.0880   -4.3990   -3.0250 C   0  0  2  0  0  0  0  0  0  0  0  0
  -11.4150   -4.6270   -3.7520 C   0  0  0  0  0  0  0  0  0  0  0  0
  -11.6150   -3.6340   -4.9200 C   0  0  0  0  0  0  0  0  0  0  0  0
  -11.6140   -4.2750   -6.2300 N   0  0  0  0  0  0  0  0  0  0  0  0
  -11.4190   -3.5660   -7.4010 C   0  0  0  0  0  0  0  0  0  0  0  0
  -12.2490   -3.5400   -8.3080 O   0  0  0  0  0  0  0  0  0  0  0  0
  -10.0920   -2.8200   -7.4900 C   0  0  0  0  0  0  0  0  0  0  0  0
   -8.9600   -3.7460   -7.8280 C   0  0  0  0  0  0  0  0  0  0  0  0
   -7.7800   -3.4850   -8.5490 C   0  0  0  0  0  0  0  0  0  0  0  0
   -6.9640   -4.5230   -8.6750 N   0  0  0  0  0  0  0  0  0  0  0  0
   -7.6360   -5.5430   -7.9970 O   0  0  0  0  0  0  0  0  0  0  0  0
   -8.8240   -5.0650   -7.4990 C   0  0  0  0  0  0  0  0  0  0  0  0
   -9.1010   -5.5540   -3.1090 C   0  0  0  0  0  0  0  0  0  0  0  0
  1  2  1  0
  2  3  2  0
  2  4  2  0
  2  5  1  0
  5  6  1  0
  6  7  1  0
  7  8  2  0
  7  9  1  0
  9 10  1  0
 10 11  1  0
 11 12  1  0
 12 13  1  1
 13 14  1  0
 14 15  1  0
 15 16  1  0
 16 17  2  0
 16 18  1  0
 18 19  1  0
 19 20  1  0
 20 21  2  0
 21 22  1  0
 22 23  1  0
 12 24  1  0
 24  9  1  0
 23 19  2  0
M  END
>  <pair>  (46) 
x1071_0A-x0980_0B

>  <sucos>  (46) 
0.5195828052479314

>  <ref_mols>  (46) 
x1071_0A,x0980_0B

>  <original SMILES>  (46) 
CS(=O)(=O)NCC(=O)N1CCC(CCNC(=O)Cc2cnoc2)C1

>  <cmpd_ids>  (46) 
ENAMINE:PV-002719166871

>  <ref_url>  (46) 
https://github.com/stephwills/fragment_network_merges

>  <submitter_name>  (46) 
Steph Wills

>  <submitter_institution>  (46) 
University of Oxford

>  <submitter_email>  (46) 
stephanie.wills@balliol.ox.ac.uk

>  <generation_date>  (46) 
2023-09-06

>  <method>  (46) 
fragNetMergingIt3

>  <ref_pdb>  (46) 
x1071_0A,x0980_0B

$$$$
x1052-1A-x1594-0A-118
     RDKit          3D

 25 27  0  0  0  0  0  0  0  0999 V2000
   -6.2650   -3.4340   -1.9550 C   0  0  0  0  0  0  0  0  0  0  0  0
   -6.3010   -4.8790   -1.6400 C   0  0  0  0  0  0  0  0  0  0  0  0
   -5.6980   -6.0730   -2.3160 C   0  0  0  0  0  0  0  0  0  0  0  0
   -6.0210   -7.1860   -1.6640 C   0  0  0  0  0  0  0  0  0  0  0  0
   -5.5330   -8.4940   -2.2010 C   0  0  0  0  0  0  0  0  0  0  0  0
   -5.6250   -9.5070   -1.4990 O   0  0  0  0  0  0  0  0  0  0  0  0
   -4.9760   -8.6030   -3.4880 N   0  0  0  0  0  0  0  0  0  0  0  0
   -3.6310   -9.0950   -3.6600 C   0  0  0  0  0  0  0  0  0  0  0  0
   -5.8820   -8.8480   -4.6390 C   0  0  0  0  0  0  0  0  0  0  0  0
   -6.2700   -7.7380   -5.3150 C   0  0  0  0  0  0  0  0  0  0  0  0
   -5.6100   -7.6110   -6.6170 N   0  0  0  0  0  0  0  0  0  0  0  0
   -6.2610   -7.2840   -7.8110 C   0  0  0  0  0  0  0  0  0  0  0  0
   -6.1980   -7.9300   -8.8520 O   0  0  0  0  0  0  0  0  0  0  0  0
   -7.1140   -6.0810   -7.7760 C   0  0  0  0  0  0  0  0  0  0  0  0
   -8.2180   -6.1230   -6.9960 C   0  0  0  0  0  0  0  0  0  0  0  0
   -9.0480   -4.9540   -6.9610 C   0  0  0  0  0  0  0  0  0  0  0  0
  -10.2720   -4.9720   -6.1050 C   0  0  0  0  0  0  0  0  0  0  0  0
  -11.0500   -3.6840   -6.1550 C   0  0  0  0  0  0  0  0  0  0  0  0
  -10.6420   -2.6110   -6.9290 C   0  0  0  0  0  0  0  0  0  0  0  0
   -9.4790   -2.6960   -7.6980 C   0  0  0  0  0  0  0  0  0  0  0  0
   -8.6800   -3.8350   -7.7310 C   0  0  0  0  0  0  0  0  0  0  0  0
   -7.5640   -3.8780   -8.4880 N   0  0  0  0  0  0  0  0  0  0  0  0
   -6.7690   -5.0010   -8.5170 N   0  0  0  0  0  0  0  0  0  0  0  0
   -6.7890   -6.8160   -0.5870 O   0  0  0  0  0  0  0  0  0  0  0  0
   -6.9650   -5.3990   -0.5740 N   0  0  0  0  0  0  0  0  0  0  0  0
  1  2  1  0
  2  3  1  0
  3  4  2  0
  4  5  1  0
  5  6  2  0
  5  7  1  0
  7  8  1  0
  7  9  1  0
  9 10  1  0
 10 11  1  0
 11 12  1  0
 12 13  2  0
 12 14  1  0
 14 15  2  0
 15 16  1  0
 16 17  2  0
 17 18  1  0
 18 19  2  0
 19 20  1  0
 20 21  2  0
 21 22  1  0
 22 23  2  0
  4 24  1  0
 24 25  1  0
 25  2  2  0
 23 14  1  0
 21 16  1  0
M  END
>  <pair>  (47) 
x1052_1A-x1594_0A

>  <sucos>  (47) 
0.5587898887178294

>  <ref_mols>  (47) 
x1052_1A,x1594_0A

>  <original SMILES>  (47) 
Cc1cc(C(=O)N(C)CCNC(=O)c2cc3ccccc3nn2)on1

>  <cmpd_ids>  (47) 
ENAMINE:PV-001439654011

>  <ref_url>  (47) 
https://github.com/stephwills/fragment_network_merges

>  <submitter_name>  (47) 
Steph Wills

>  <submitter_institution>  (47) 
University of Oxford

>  <submitter_email>  (47) 
stephanie.wills@balliol.ox.ac.uk

>  <generation_date>  (47) 
2023-09-06

>  <method>  (47) 
fragNetMergingIt3

>  <ref_pdb>  (47) 
x1052_1A,x1594_0A

$$$$
x1071-0A-x0980-0B-118
     RDKit          3D

 24 26  0  0  0  0  0  0  0  0999 V2000
   -7.7830   -0.0770   -1.1820 C   0  0  0  0  0  0  0  0  0  0  0  0
   -6.2680   -1.0120   -1.0970 S   0  0  0  0  0  6  0  0  0  0  0  0
   -5.2190   -0.1850   -1.6510 O   0  0  0  0  0  0  0  0  0  0  0  0
   -6.1960   -1.5870    0.2300 O   0  0  0  0  0  0  0  0  0  0  0  0
   -6.5530   -2.2670   -2.1640 N   0  0  0  0  0  0  0  0  0  0  0  0
   -6.7190   -3.6740   -1.7190 C   0  0  0  0  0  0  0  0  0  0  0  0
   -7.0120   -4.5350   -2.9550 C   0  0  0  0  0  0  0  0  0  0  0  0
   -7.2300   -4.0040   -4.0390 O   0  0  0  0  0  0  0  0  0  0  0  0
   -6.9910   -5.9230   -2.9170 N   0  0  0  0  0  0  0  0  0  0  0  0
   -6.2280   -6.5120   -3.9540 C   0  0  0  0  0  0  0  0  0  0  0  0
   -7.1770   -6.1220   -5.0780 C   0  0  0  0  0  0  0  0  0  0  0  0
   -7.5130   -7.2080   -5.9220 N   0  0  0  0  0  0  0  0  0  0  0  0
   -7.4670   -6.9090   -7.3090 C   0  0  0  0  0  0  0  0  0  0  0  0
   -7.1810   -7.7530   -8.1570 O   0  0  0  0  0  0  0  0  0  0  0  0
   -7.7850   -5.5370   -7.7160 C   0  0  0  0  0  0  0  0  0  0  0  0
   -8.9860   -4.7820   -7.2620 C   0  0  0  0  0  0  0  0  0  0  0  0
   -8.8710   -3.4910   -7.9270 C   0  0  0  0  0  0  0  0  0  0  0  0
   -7.7300   -3.5190   -8.6760 O   0  0  0  0  0  0  0  0  0  0  0  0
   -7.0490   -4.7480   -8.5610 N   0  0  0  0  0  0  0  0  0  0  0  0
   -8.3660   -8.1510   -5.1980 C   0  0  0  0  0  0  0  0  0  0  0  0
   -8.0640   -8.1220   -3.6760 C   0  0  0  0  0  0  0  0  0  0  0  0
   -7.0740   -9.0230   -3.2140 C   0  0  0  0  0  0  0  0  0  0  0  0
   -8.4900   -9.3500   -2.9040 C   0  0  0  0  0  0  0  0  0  0  0  0
   -8.1970   -6.7870   -2.8760 C   0  0  0  0  0  0  0  0  0  0  0  0
  1  2  1  0
  2  3  2  0
  2  4  2  0
  2  5  1  0
  5  6  1  0
  6  7  1  0
  7  8  2  0
  7  9  1  0
  9 10  1  0
 10 11  1  0
 11 12  1  0
 12 13  1  0
 13 14  2  0
 13 15  1  0
 15 16  1  0
 16 17  2  0
 17 18  1  0
 18 19  1  0
 12 20  1  0
 20 21  1  0
 21 22  1  0
 22 23  1  0
 21 24  1  0
 24  9  1  0
 19 15  2  0
 23 21  1  0
M  END
>  <pair>  (48) 
x1071_0A-x0980_0B

>  <sucos>  (48) 
0.4093761228615969

>  <ref_mols>  (48) 
x1071_0A,x0980_0B

>  <original SMILES>  (48) 
CS(=O)(=O)NCC(=O)N1CCN(C(=O)c2ccon2)CC2(CC2)C1

>  <cmpd_ids>  (48) 
ENAMINE:PV-003230080523

>  <ref_url>  (48) 
https://github.com/stephwills/fragment_network_merges

>  <submitter_name>  (48) 
Steph Wills

>  <submitter_institution>  (48) 
University of Oxford

>  <submitter_email>  (48) 
stephanie.wills@balliol.ox.ac.uk

>  <generation_date>  (48) 
2023-09-06

>  <method>  (48) 
fragNetMergingIt3

>  <ref_pdb>  (48) 
x1071_0A,x0980_0B

$$$$
x1140-0A-x1594-0A-12
     RDKit          3D

 22 25  0  0  0  0  0  0  0  0999 V2000
   -5.4640   -7.3230   -4.2330 C   0  0  0  0  0  0  0  0  0  0  0  0
   -5.3700   -7.4170   -2.7650 C   0  0  0  0  0  0  0  0  0  0  0  0
   -4.1070   -7.6860   -2.2000 C   0  0  0  0  0  0  0  0  0  0  0  0
   -3.9620   -7.8100   -0.8540 C   0  0  0  0  0  0  0  0  0  0  0  0
   -5.0410   -7.6870   -0.0410 C   0  0  0  0  0  0  0  0  0  0  0  0
   -6.3420   -7.3970   -0.5670 C   0  0  0  0  0  0  0  0  0  0  0  0
   -6.5330   -7.2310   -2.0090 C   0  0  0  0  0  0  0  0  0  0  0  0
   -7.7860   -6.8720   -2.8210 N   0  0  0  0  0  0  0  0  0  0  0  0
   -8.0900   -6.9030   -4.2860 C   0  0  0  0  0  0  0  0  0  0  0  0
   -7.9620   -7.9290   -4.9440 O   0  0  0  0  0  0  0  0  0  0  0  0
   -8.6380   -5.6720   -5.1750 C   0  0  0  0  0  0  0  0  0  0  0  0
   -9.6790   -4.8520   -4.7910 C   0  0  0  0  0  0  0  0  0  0  0  0
  -10.1350   -3.7280   -5.6510 C   0  0  0  0  0  0  0  0  0  0  0  0
   -9.5770   -3.4440   -6.8400 C   0  0  0  0  0  0  0  0  0  0  0  0
   -8.5240   -4.2590   -7.2970 C   0  0  0  0  0  0  0  0  0  0  0  0
   -7.8200   -4.2190   -8.4090 N   0  0  0  0  0  0  0  0  0  0  0  0
   -6.9280   -5.2540   -8.3640 N   0  0  0  0  0  0  0  0  0  0  0  0
   -7.1100   -5.8940   -7.2250 C   0  0  0  0  0  0  0  0  0  0  0  0
   -8.1000   -5.3280   -6.4750 N   0  0  0  0  0  0  0  0  0  0  0  0
   -4.6610   -7.8720    1.2740 O   0  0  0  0  0  0  0  0  0  0  0  0
   -3.2160   -7.8570    1.1590 C   0  0  0  0  0  0  0  0  0  0  0  0
   -2.7930   -8.0590   -0.1940 O   0  0  0  0  0  0  0  0  0  0  0  0
  1  2  1  0
  2  3  2  0
  3  4  1  0
  4  5  2  0
  5  6  1  0
  6  7  2  0
  7  8  1  0
  8  9  1  0
  9 10  2  0
  9 11  1  0
 11 12  2  0
 12 13  1  0
 13 14  2  0
 14 15  1  0
 15 16  2  0
 16 17  1  0
 17 18  2  0
 18 19  1  0
  5 20  1  0
 20 21  1  0
 21 22  1  0
  7  2  1  0
 19 11  1  0
 22  4  1  0
 19 15  1  0
M  END
>  <pair>  (49) 
x1140_0A-x1594_0A

>  <sucos>  (49) 
0.4301604702800529

>  <ref_mols>  (49) 
x1140_0A,x1594_0A

>  <original SMILES>  (49) 
Cc1cc2c(cc1NC(=O)c1cccc3nncn13)OCO2

>  <cmpd_ids>  (49) 
ENAMINE:PV-002770527911

>  <ref_url>  (49) 
https://github.com/stephwills/fragment_network_merges

>  <submitter_name>  (49) 
Steph Wills

>  <submitter_institution>  (49) 
University of Oxford

>  <submitter_email>  (49) 
stephanie.wills@balliol.ox.ac.uk

>  <generation_date>  (49) 
2023-09-06

>  <method>  (49) 
fragNetMergingIt3

>  <ref_pdb>  (49) 
x1140_0A,x1594_0A

$$$$
x1052-1A-x1604-0A-123
     RDKit          3D

 24 26  0  0  0  0  0  0  0  0999 V2000
   -4.3020   -7.9220   -0.7790 C   0  0  0  0  0  0  0  0  0  0  0  0
   -5.2610   -6.8520   -1.1080 C   0  0  0  0  0  0  0  0  0  0  0  0
   -5.3200   -5.9060   -2.1280 C   0  0  0  0  0  0  0  0  0  0  0  0
   -6.4660   -5.1780   -1.8800 C   0  0  0  0  0  0  0  0  0  0  0  0
   -7.0460   -4.0330   -2.6250 C   0  0  0  0  0  0  0  0  0  0  0  0
   -8.4650   -4.2350   -2.9720 N   0  0  0  0  0  0  0  0  0  0  0  0
   -9.3170   -3.0760   -2.7340 C   0  0  0  0  0  0  0  0  0  0  0  0
   -8.7750   -5.1630   -3.9750 C   0  0  0  0  0  0  0  0  0  0  0  0
   -7.8840   -5.7320   -4.6160 O   0  0  0  0  0  0  0  0  0  0  0  0
  -10.1470   -5.4150   -4.2070 C   0  0  0  0  0  0  0  0  0  0  0  0
  -10.5320   -5.4200   -5.6360 N   0  0  0  0  0  0  0  0  0  0  0  0
  -11.8820   -5.3830   -5.8870 C   0  0  0  0  0  0  0  0  0  0  0  0
  -12.5650   -6.4080   -5.8830 O   0  0  0  0  0  0  0  0  0  0  0  0
  -12.4880   -4.1540   -6.1800 C   0  0  0  0  0  0  0  0  0  0  0  0
  -11.7290   -2.8730   -5.9120 C   0  0  0  0  0  0  0  0  0  0  0  0
  -10.7330   -2.6500   -6.8940 O   0  0  0  0  0  0  0  0  0  0  0  0
   -9.7950   -3.6230   -7.1180 C   0  0  0  0  0  0  0  0  0  0  0  0
   -8.8790   -3.2330   -8.0230 C   0  0  0  0  0  0  0  0  0  0  0  0
   -7.7240   -4.1480   -8.4650 C   0  0  0  0  0  0  0  0  0  0  0  0
   -7.6210   -5.3720   -7.9240 C   0  0  0  0  0  0  0  0  0  0  0  0
   -8.5660   -5.7210   -7.0050 C   0  0  0  0  0  0  0  0  0  0  0  0
   -9.6410   -4.8880   -6.5920 C   0  0  0  0  0  0  0  0  0  0  0  0
   -7.0940   -5.6340   -0.7770 N   0  0  0  0  0  0  0  0  0  0  0  0
   -6.3350   -6.6890   -0.2960 O   0  0  0  0  0  0  0  0  0  0  0  0
  1  2  1  0
  2  3  2  0
  3  4  1  0
  4  5  1  0
  5  6  1  0
  6  7  1  0
  6  8  1  0
  8  9  2  0
  8 10  1  0
 10 11  1  0
 11 12  1  0
 12 13  2  0
 12 14  1  0
 14 15  1  0
 15 16  1  0
 16 17  1  0
 17 18  2  0
 18 19  1  0
 19 20  2  0
 20 21  1  0
 21 22  2  0
  4 23  2  0
 23 24  1  0
 24  2  1  0
 22 11  1  0
 22 17  1  0
M  END
>  <pair>  (50) 
x1052_1A-x1604_0A

>  <sucos>  (50) 
0.43685030278565895

>  <ref_mols>  (50) 
x1052_1A,x1604_0A

>  <original SMILES>  (50) 
Cc1cc(CN(C)C(=O)CN2C(=O)CCOc3ccccc32)no1

>  <cmpd_ids>  (50) 
ENAMINE:Z361964838

>  <ref_url>  (50) 
https://github.com/stephwills/fragment_network_merges

>  <submitter_name>  (50) 
Steph Wills

>  <submitter_institution>  (50) 
University of Oxford

>  <submitter_email>  (50) 
stephanie.wills@balliol.ox.ac.uk

>  <generation_date>  (50) 
2023-09-06

>  <method>  (50) 
fragNetMergingIt3

>  <ref_pdb>  (50) 
x1052_1A,x1604_0A

$$$$
x1052-1A-x1498-0A-182
     RDKit          3D

 24 25  0  0  0  0  0  0  0  0999 V2000
  -11.2090   -1.9180   -6.3930 C   0  0  0  0  0  0  0  0  0  0  0  0
  -12.1000   -3.0920   -6.0170 C   0  0  0  0  0  0  0  0  0  0  0  0
  -11.8620   -4.5350   -7.1200 S   0  0  0  0  0  0  0  0  0  0  0  0
  -10.4510   -5.3320   -6.2800 C   0  0  0  0  0  0  0  0  0  0  0  0
   -9.3130   -5.1770   -6.9970 C   0  0  0  0  0  0  0  0  0  0  0  0
   -8.4990   -6.1880   -7.2370 C   0  0  0  0  0  0  0  0  0  0  0  0
   -7.4200   -5.7640   -7.9830 C   0  0  0  0  0  0  0  0  0  0  0  0
   -6.2850   -6.6560   -8.4250 C   0  0  0  0  0  0  0  0  0  0  0  0
   -6.1500   -7.0860   -9.5590 O   0  0  0  0  0  0  0  0  0  0  0  0
   -5.4220   -6.9940   -7.4000 N   0  0  0  0  0  0  0  0  0  0  0  0
   -5.8760   -7.7690   -6.2440 C   0  0  0  0  0  0  0  0  0  0  0  0
   -7.0730   -7.2790   -5.6920 C   0  0  0  0  0  0  0  0  0  0  0  0
   -6.6440   -6.9690   -4.4380 C   0  0  2  0  0  0  0  0  0  0  0  0
   -6.8650   -7.9250   -3.2410 C   0  0  0  0  0  0  0  0  0  0  0  0
   -7.2310   -5.6670   -4.0910 N   0  0  0  0  0  0  0  0  0  0  0  0
   -6.6570   -4.8570   -3.1310 C   0  0  0  0  0  0  0  0  0  0  0  0
   -6.4090   -3.6630   -3.3300 O   0  0  0  0  0  0  0  0  0  0  0  0
   -6.3810   -5.6110   -1.8820 C   0  0  0  0  0  0  0  0  0  0  0  0
   -5.1770   -6.2270   -1.9010 C   0  0  0  0  0  0  0  0  0  0  0  0
   -5.1500   -6.8690   -0.6980 C   0  0  0  0  0  0  0  0  0  0  0  0
   -6.3060   -6.6180   -0.0240 O   0  0  0  0  0  0  0  0  0  0  0  0
   -7.1110   -5.7930   -0.7820 N   0  0  0  0  0  0  0  0  0  0  0  0
   -7.6280   -4.4130   -8.2000 N   0  0  0  0  0  0  0  0  0  0  0  0
   -8.8460   -4.0390   -7.5600 O   0  0  0  0  0  0  0  0  0  0  0  0
  1  2  1  0
  2  3  1  0
  3  4  1  0
  4  5  1  0
  5  6  2  0
  6  7  1  0
  7  8  1  0
  8  9  2  0
  8 10  1  0
 10 11  1  0
 11 12  1  0
 12 13  1  0
 13 14  1  1
 13 15  1  0
 15 16  1  0
 16 17  2  0
 16 18  1  0
 18 19  1  0
 19 20  2  0
 20 21  1  0
 21 22  1  0
  7 23  2  0
 23 24  1  0
 24  5  1  0
 22 18  2  0
M  END
>  <pair>  (51) 
x1052_1A-x1498_0A

>  <sucos>  (51) 
0.4769964091159281

>  <ref_mols>  (51) 
x1052_1A,x1498_0A

>  <original SMILES>  (51) 
CCSCc1cc(C(=O)NCCC(C)NC(=O)c2ccon2)no1

>  <cmpd_ids>  (51) 
ENAMINE:PV-002756967919

>  <ref_url>  (51) 
https://github.com/stephwills/fragment_network_merges

>  <submitter_name>  (51) 
Steph Wills

>  <submitter_institution>  (51) 
University of Oxford

>  <submitter_email>  (51) 
stephanie.wills@balliol.ox.ac.uk

>  <generation_date>  (51) 
2023-09-06

>  <method>  (51) 
fragNetMergingIt3

>  <ref_pdb>  (51) 
x1052_1A,x1498_0A

$$$$
x1052-1A-x1594-0A-176
     RDKit          3D

 20 22  0  0  0  0  0  0  0  0999 V2000
   -5.6340   -2.6270   -2.2960 C   0  0  0  0  0  0  0  0  0  0  0  0
   -6.6600   -3.6920   -2.4330 C   0  0  0  0  0  0  0  0  0  0  0  0
   -6.5310   -5.1230   -1.8750 C   0  0  0  0  0  0  0  0  0  0  0  0
   -6.4630   -5.3140   -0.5590 N   0  0  0  0  0  0  0  0  0  0  0  0
   -6.3370   -6.6770   -0.3500 O   0  0  0  0  0  0  0  0  0  0  0  0
   -6.3420   -7.2960   -1.5480 C   0  0  0  0  0  0  0  0  0  0  0  0
   -6.4730   -6.3710   -2.5460 C   0  0  0  0  0  0  0  0  0  0  0  0
   -6.5270   -6.7300   -3.8540 C   0  0  0  0  0  0  0  0  0  0  0  0
   -7.3310   -5.7660   -4.5740 O   0  0  0  0  0  0  0  0  0  0  0  0
   -8.5970   -6.1060   -4.9980 C   0  0  0  0  0  0  0  0  0  0  0  0
   -9.2180   -7.1140   -4.6950 O   0  0  0  0  0  0  0  0  0  0  0  0
   -9.0440   -5.1330   -5.8230 C   0  0  0  0  0  0  0  0  0  0  0  0
  -10.1730   -4.3550   -5.5540 C   0  0  0  0  0  0  0  0  0  0  0  0
  -10.5380   -3.2570   -6.4950 C   0  0  0  0  0  0  0  0  0  0  0  0
   -9.7620   -3.0160   -7.6080 C   0  0  0  0  0  0  0  0  0  0  0  0
   -8.6340   -3.8380   -7.8680 C   0  0  0  0  0  0  0  0  0  0  0  0
   -7.7550   -3.8510   -8.8330 N   0  0  0  0  0  0  0  0  0  0  0  0
   -6.8860   -4.8780   -8.6120 N   0  0  0  0  0  0  0  0  0  0  0  0
   -7.2360   -5.4670   -7.5110 C   0  0  0  0  0  0  0  0  0  0  0  0
   -8.3340   -4.8580   -6.9810 N   0  0  0  0  0  0  0  0  0  0  0  0
  1  2  1  0
  2  3  1  0
  3  4  2  0
  4  5  1  0
  5  6  1  0
  6  7  2  0
  7  8  1  0
  8  9  1  0
  9 10  1  0
 10 11  2  0
 10 12  1  0
 12 13  2  0
 13 14  1  0
 14 15  2  0
 15 16  1  0
 16 17  2  0
 17 18  1  0
 18 19  2  0
 19 20  1  0
  7  3  1  0
 20 12  1  0
 20 16  1  0
M  END
>  <pair>  (52) 
x1052_1A-x1594_0A

>  <sucos>  (52) 
0.4980500996587368

>  <ref_mols>  (52) 
x1052_1A,x1594_0A

>  <original SMILES>  (52) 
CCc1nocc1COC(=O)c1cccc2nncn12

>  <cmpd_ids>  (52) 
ENAMINE:PV-003730889873

>  <ref_url>  (52) 
https://github.com/stephwills/fragment_network_merges

>  <submitter_name>  (52) 
Steph Wills

>  <submitter_institution>  (52) 
University of Oxford

>  <submitter_email>  (52) 
stephanie.wills@balliol.ox.ac.uk

>  <generation_date>  (52) 
2023-09-06

>  <method>  (52) 
fragNetMergingIt3

>  <ref_pdb>  (52) 
x1052_1A,x1594_0A

$$$$
x0147-0A-x1919-0A-46
     RDKit          3D

 22 25  0  0  0  0  0  0  0  0999 V2000
   -6.8170   -5.4480   -8.2180 C   0  0  0  0  0  0  0  0  0  0  0  0
   -7.6880   -4.3000   -8.5290 C   0  0  0  0  0  0  0  0  0  0  0  0
   -8.6880   -3.9910   -7.6640 N   0  0  0  0  0  0  0  0  0  0  0  0
   -9.6800   -3.0610   -7.6280 C   0  0  0  0  0  0  0  0  0  0  0  0
  -10.4070   -3.2200   -6.5330 N   0  0  0  0  0  0  0  0  0  0  0  0
   -9.9040   -4.2850   -5.7860 N   0  0  0  0  0  0  0  0  0  0  0  0
   -8.8700   -4.7530   -6.4470 C   0  0  0  0  0  0  0  0  0  0  0  0
   -7.9120   -5.8590   -6.1790 C   0  0  0  0  0  0  0  0  0  0  0  0
   -7.9250   -6.6300   -4.9820 N   0  0  0  0  0  0  0  0  0  0  0  0
   -7.0080   -6.4770   -3.8020 C   0  0  0  0  0  0  0  0  0  0  0  0
   -6.0150   -7.6430   -3.5600 C   0  0  0  0  0  0  0  0  0  0  0  0
   -5.5150   -7.9340   -2.2820 C   0  0  0  0  0  0  0  0  0  0  0  0
   -6.2870   -8.6450   -1.3350 C   0  0  0  0  0  0  0  0  0  0  0  0
   -5.7840   -8.9500   -0.0560 C   0  0  0  0  0  0  0  0  0  0  0  0
   -4.5030   -8.5560    0.3090 C   0  0  0  0  0  0  0  0  0  0  0  0
   -3.7140   -7.8590   -0.5900 C   0  0  0  0  0  0  0  0  0  0  0  0
   -4.2070   -7.5440   -1.8760 C   0  0  0  0  0  0  0  0  0  0  0  0
   -2.4380   -7.4550   -0.2750 O   0  0  0  0  0  0  0  0  0  0  0  0
   -2.0400   -7.6570    1.0990 C   0  0  0  0  0  0  0  0  0  0  0  0
   -3.2070   -7.8590    2.0440 C   0  0  0  0  0  0  0  0  0  0  0  0
   -4.0700   -8.8840    1.5620 O   0  0  0  0  0  0  0  0  0  0  0  0
   -6.9760   -6.1570   -7.0610 N   0  0  0  0  0  0  0  0  0  0  0  0
  1  2  2  0
  2  3  1  0
  3  4  1  0
  4  5  2  0
  5  6  1  0
  6  7  2  0
  7  8  1  0
  8  9  1  0
  9 10  1  0
 10 11  1  0
 11 12  1  0
 12 13  2  0
 13 14  1  0
 14 15  2  0
 15 16  1  0
 16 17  2  0
 16 18  1  0
 18 19  1  0
 19 20  1  0
 20 21  1  0
  8 22  2  0
 22  1  1  0
  7  3  1  0
 17 12  1  0
 21 15  1  0
M  END
>  <pair>  (53) 
x0147_0A-x1919_0A

>  <sucos>  (53) 
0.5043630272286077

>  <ref_mols>  (53) 
x0147_0A,x1919_0A

>  <original SMILES>  (53) 
c1cn2cnnc2c(NCCc2ccc3c(c2)OCCO3)n1

>  <cmpd_ids>  (53) 
ENAMINE:Z1281715982

>  <ref_url>  (53) 
https://github.com/stephwills/fragment_network_merges

>  <submitter_name>  (53) 
Steph Wills

>  <submitter_institution>  (53) 
University of Oxford

>  <submitter_email>  (53) 
stephanie.wills@balliol.ox.ac.uk

>  <generation_date>  (53) 
2023-09-06

>  <method>  (53) 
fragNetMergingIt3

>  <ref_pdb>  (53) 
x0147_0A,x1919_0A

$$$$
x1052-1A-x1594-0A-165
     RDKit          3D

 25 27  0  0  0  0  0  0  0  0999 V2000
   -6.6800   -3.2970   -1.8060 C   0  0  0  0  0  0  0  0  0  0  0  0
   -6.4400   -4.7220   -1.4750 C   0  0  0  0  0  0  0  0  0  0  0  0
   -5.5460   -5.6060   -2.1040 C   0  0  0  0  0  0  0  0  0  0  0  0
   -5.7090   -6.7700   -1.4350 C   0  0  0  0  0  0  0  0  0  0  0  0
   -5.0450   -8.0340   -1.6680 C   0  0  0  0  0  0  0  0  0  0  0  0
   -4.6640   -8.7940   -0.7800 O   0  0  0  0  0  0  0  0  0  0  0  0
   -4.9080   -8.2820   -3.0240 N   0  0  0  0  0  0  0  0  0  0  0  0
   -6.0430   -8.7510   -3.8190 C   0  0  1  0  0  0  0  0  0  0  0  0
   -6.5740  -10.1600   -3.4470 C   0  0  0  0  0  0  0  0  0  0  0  0
   -7.1950   -7.7070   -3.8680 C   0  0  0  0  0  0  0  0  0  0  0  0
   -7.4190   -7.0860   -5.1730 N   0  0  0  0  0  0  0  0  0  0  0  0
   -7.3750   -5.7080   -5.3170 C   0  0  0  0  0  0  0  0  0  0  0  0
   -7.0230   -4.9040   -4.4490 O   0  0  0  0  0  0  0  0  0  0  0  0
   -7.7340   -5.1600   -6.4920 C   0  0  0  0  0  0  0  0  0  0  0  0
   -6.8560   -5.1780   -7.5580 C   0  0  0  0  0  0  0  0  0  0  0  0
   -7.1070   -4.6380   -8.7230 N   0  0  0  0  0  0  0  0  0  0  0  0
   -8.2800   -4.0650   -8.8460 N   0  0  0  0  0  0  0  0  0  0  0  0
   -9.1670   -4.0420   -7.8680 C   0  0  0  0  0  0  0  0  0  0  0  0
  -10.3510   -3.4720   -8.0480 C   0  0  0  0  0  0  0  0  0  0  0  0
  -11.2980   -3.4300   -7.0710 C   0  0  0  0  0  0  0  0  0  0  0  0
  -11.1000   -3.9660   -5.8320 C   0  0  0  0  0  0  0  0  0  0  0  0
   -9.9030   -4.5500   -5.6090 C   0  0  0  0  0  0  0  0  0  0  0  0
   -8.9480   -4.5850   -6.6350 C   0  0  0  0  0  0  0  0  0  0  0  0
   -6.6350   -6.6330   -0.4590 O   0  0  0  0  0  0  0  0  0  0  0  0
   -7.1040   -5.3280   -0.4850 N   0  0  0  0  0  0  0  0  0  0  0  0
  1  2  1  0
  2  3  1  0
  3  4  2  0
  4  5  1  0
  5  6  2  0
  5  7  1  0
  7  8  1  0
  8  9  1  1
  8 10  1  0
 10 11  1  0
 11 12  1  0
 12 13  2  0
 12 14  1  0
 14 15  2  0
 15 16  1  0
 16 17  2  0
 17 18  1  0
 18 19  2  0
 19 20  1  0
 20 21  2  0
 21 22  1  0
 22 23  2  0
  4 24  1  0
 24 25  1  0
 25  2  2  0
 23 14  1  0
 23 18  1  0
M  END
>  <pair>  (54) 
x1052_1A-x1594_0A

>  <sucos>  (54) 
0.512392957783565

>  <ref_mols>  (54) 
x1052_1A,x1594_0A

>  <original SMILES>  (54) 
Cc1cc(C(=O)NC(C)CNC(=O)c2cnnc3ccccc23)on1

>  <cmpd_ids>  (54) 
ENAMINE:PV-001621465006,ENAMINE:PV-001630166609

>  <ref_url>  (54) 
https://github.com/stephwills/fragment_network_merges

>  <submitter_name>  (54) 
Steph Wills

>  <submitter_institution>  (54) 
University of Oxford

>  <submitter_email>  (54) 
stephanie.wills@balliol.ox.ac.uk

>  <generation_date>  (54) 
2023-09-06

>  <method>  (54) 
fragNetMergingIt3

>  <ref_pdb>  (54) 
x1052_1A,x1594_0A

$$$$
x1140-0A-x1052-1A-85
     RDKit          3D

 25 28  0  0  0  0  0  0  0  0999 V2000
   -7.2770   -7.2690   -6.0830 O   0  0  0  0  0  0  0  0  0  0  0  0
   -7.4780   -7.8660   -5.0310 C   0  0  0  0  0  0  0  0  0  0  0  0
   -6.5240   -8.4780   -4.2370 N   0  0  0  0  0  0  0  0  0  0  0  0
   -5.3120   -7.7590   -3.9130 C   0  0  0  0  0  0  0  0  0  0  0  0
   -4.8810   -8.0240   -2.4770 C   0  0  0  0  0  0  0  0  0  0  0  0
   -5.7590   -8.9730   -1.7170 C   0  0  0  0  0  0  0  0  0  0  0  0
   -5.3510   -9.2130   -0.3870 C   0  0  0  0  0  0  0  0  0  0  0  0
   -4.2110   -8.6030    0.1570 C   0  0  0  0  0  0  0  0  0  0  0  0
   -3.4540   -7.7500   -0.5980 C   0  0  0  0  0  0  0  0  0  0  0  0
   -3.7500   -7.4380   -1.8970 C   0  0  0  0  0  0  0  0  0  0  0  0
   -2.4040   -7.2840    0.1140 O   0  0  0  0  0  0  0  0  0  0  0  0
   -2.6510   -7.8910    1.3960 C   0  0  0  0  0  0  0  0  0  0  0  0
   -3.7140   -8.7540    1.4150 O   0  0  0  0  0  0  0  0  0  0  0  0
   -8.8620   -7.9680   -4.5200 C   0  0  0  0  0  0  0  0  0  0  0  0
   -9.7780   -8.6160   -5.3600 C   0  0  0  0  0  0  0  0  0  0  0  0
  -11.1050   -8.7630   -4.9690 C   0  0  0  0  0  0  0  0  0  0  0  0
  -11.5300   -8.2620   -3.7360 C   0  0  0  0  0  0  0  0  0  0  0  0
  -10.6100   -7.6150   -2.9000 C   0  0  0  0  0  0  0  0  0  0  0  0
   -9.2590   -7.4520   -3.2670 C   0  0  0  0  0  0  0  0  0  0  0  0
   -8.3910   -6.8010   -2.3910 C   0  0  0  0  0  0  0  0  0  0  0  0
   -7.8160   -5.5730   -2.7490 C   0  0  0  0  0  0  0  0  0  0  0  0
   -6.9590   -4.9490   -1.8530 C   0  0  0  0  0  0  0  0  0  0  0  0
   -6.6470   -5.4590   -0.6520 N   0  0  0  0  0  0  0  0  0  0  0  0
   -7.2030   -6.6450   -0.3210 C   0  0  0  0  0  0  0  0  0  0  0  0
   -8.0690   -7.3440   -1.1440 C   0  0  0  0  0  0  0  0  0  0  0  0
  1  2  2  0
  2  3  1  0
  3  4  1  0
  4  5  1  0
  5  6  2  0
  6  7  1  0
  7  8  2  0
  8  9  1  0
  9 10  2  0
  9 11  1  0
 11 12  1  0
 12 13  1  0
  2 14  1  0
 14 15  2  0
 15 16  1  0
 16 17  2  0
 17 18  1  0
 18 19  2  0
 19 20  1  0
 20 21  2  0
 21 22  1  0
 22 23  2  0
 23 24  1  0
 24 25  2  0
 10  5  1  0
 19 14  1  0
 25 20  1  0
 13  8  1  0
M  END
>  <pair>  (55) 
x1140_0A-x1052_1A

>  <sucos>  (55) 
0.4028793351432335

>  <ref_mols>  (55) 
x1140_0A,x1052_1A

>  <original SMILES>  (55) 
O=C(NCc1ccc2c(c1)OCO2)c1ccccc1-c1ccncc1

>  <cmpd_ids>  (55) 
ENAMINE:PV-001791803617

>  <ref_url>  (55) 
https://github.com/stephwills/fragment_network_merges

>  <submitter_name>  (55) 
Steph Wills

>  <submitter_institution>  (55) 
University of Oxford

>  <submitter_email>  (55) 
stephanie.wills@balliol.ox.ac.uk

>  <generation_date>  (55) 
2023-09-06

>  <method>  (55) 
fragNetMergingIt3

>  <ref_pdb>  (55) 
x1140_0A,x1052_1A

$$$$
x1071-0A-x0980-0B-114
     RDKit          3D

 23 25  0  0  0  0  0  0  0  0999 V2000
   -7.7670   -0.0320   -1.1790 C   0  0  0  0  0  0  0  0  0  0  0  0
   -6.2660   -0.9920   -1.1090 S   0  0  0  0  0  6  0  0  0  0  0  0
   -5.2210   -0.1780   -1.6870 O   0  0  0  0  0  0  0  0  0  0  0  0
   -6.1690   -1.5630    0.2190 O   0  0  0  0  0  0  0  0  0  0  0  0
   -6.5350   -2.2330   -2.1930 N   0  0  0  0  0  0  0  0  0  0  0  0
   -6.5820   -3.6480   -1.7660 C   0  0  0  0  0  0  0  0  0  0  0  0
   -7.0280   -4.5070   -2.9570 C   0  0  0  0  0  0  0  0  0  0  0  0
   -6.9780   -4.0640   -4.0960 O   0  0  0  0  0  0  0  0  0  0  0  0
   -7.4920   -5.7980   -2.7700 N   0  0  0  0  0  0  0  0  0  0  0  0
   -8.9220   -6.1170   -2.8190 C   0  0  0  0  0  0  0  0  0  0  0  0
   -9.0230   -7.4550   -3.5530 C   0  0  2  0  0  0  0  0  0  0  0  0
   -7.7360   -8.1370   -3.1250 C   0  0  0  0  0  0  0  0  0  0  0  0
   -6.7900   -6.9620   -3.3460 C   0  0  1  0  0  0  0  0  0  0  0  0
   -6.6510   -6.7100   -4.8270 C   0  0  0  0  0  0  0  0  0  0  0  0
   -7.7220   -7.1850   -5.7230 N   0  0  0  0  0  0  0  0  0  0  0  0
   -7.5440   -6.8500   -7.1020 C   0  0  0  0  0  0  0  0  0  0  0  0
   -7.1990   -7.7090   -7.9170 O   0  0  0  0  0  0  0  0  0  0  0  0
   -7.8060   -5.4740   -7.6210 C   0  0  0  0  0  0  0  0  0  0  0  0
   -8.9330   -4.7150   -7.2480 C   0  0  0  0  0  0  0  0  0  0  0  0
   -8.8340   -3.5390   -7.9200 C   0  0  0  0  0  0  0  0  0  0  0  0
   -7.7080   -3.5480   -8.6750 O   0  0  0  0  0  0  0  0  0  0  0  0
   -7.0460   -4.7580   -8.4990 N   0  0  0  0  0  0  0  0  0  0  0  0
   -9.0500   -7.3170   -5.0920 C   0  0  0  0  0  0  0  0  0  0  0  0
  1  2  1  0
  2  3  2  0
  2  4  2  0
  2  5  1  0
  5  6  1  0
  6  7  1  0
  7  8  2  0
  7  9  1  0
  9 10  1  0
 11 10  1  1
 11 12  1  0
 12 13  1  0
 13 14  1  6
 14 15  1  0
 15 16  1  0
 16 17  2  0
 16 18  1  0
 18 19  1  0
 19 20  2  0
 20 21  1  0
 21 22  1  0
 15 23  1  0
 13  9  1  0
 22 18  2  0
 23 11  1  0
M  END
>  <pair>  (56) 
x1071_0A-x0980_0B

>  <sucos>  (56) 
0.40388370547578145

>  <ref_mols>  (56) 
x1071_0A,x0980_0B

>  <original SMILES>  (56) 
CS(=O)(=O)NCC(=O)N1CC2CC1CN(C(=O)c1ccon1)C2

>  <cmpd_ids>  (56) 
ENAMINE:PV-002964919886

>  <ref_url>  (56) 
https://github.com/stephwills/fragment_network_merges

>  <submitter_name>  (56) 
Steph Wills

>  <submitter_institution>  (56) 
University of Oxford

>  <submitter_email>  (56) 
stephanie.wills@balliol.ox.ac.uk

>  <generation_date>  (56) 
2023-09-06

>  <method>  (56) 
fragNetMergingIt3

>  <ref_pdb>  (56) 
x1071_0A,x0980_0B

$$$$
x1071-0A-x0980-0B-96
     RDKit          3D

 22 24  0  0  0  0  0  0  0  0999 V2000
   -7.7910    0.3290   -0.7380 C   0  0  0  0  0  0  0  0  0  0  0  0
   -6.4780   -0.8610   -0.8850 S   0  0  0  0  0  6  0  0  0  0  0  0
   -5.4910   -0.3490   -1.8110 O   0  0  0  0  0  0  0  0  0  0  0  0
   -6.1310   -1.3450    0.4330 O   0  0  0  0  0  0  0  0  0  0  0  0
   -7.2630   -2.1340   -1.6390 N   0  0  0  0  0  0  0  0  0  0  0  0
   -6.3950   -3.2170   -1.8360 C   0  0  0  0  0  0  0  0  0  0  0  0
   -6.7710   -4.3590   -2.6640 C   0  0  0  0  0  0  0  0  0  0  0  0
   -6.6160   -4.2200   -3.8720 O   0  0  0  0  0  0  0  0  0  0  0  0
   -7.2900   -5.5370   -2.2420 N   0  0  0  0  0  0  0  0  0  0  0  0
   -8.2850   -6.1180   -3.0590 C   0  0  0  0  0  0  0  0  0  0  0  0
   -7.3690   -6.7580   -3.8700 C   0  0  1  0  0  0  0  0  0  0  0  0
   -7.6890   -6.6340   -5.2840 N   0  0  0  0  0  0  0  0  0  0  0  0
   -7.6550   -5.3110   -5.7230 C   0  0  0  0  0  0  0  0  0  0  0  0
   -7.6540   -4.3980   -4.9220 O   0  0  0  0  0  0  0  0  0  0  0  0
   -7.6200   -4.9550   -7.2000 C   0  0  0  0  0  0  0  0  0  0  0  0
   -8.7990   -4.2050   -7.6300 C   0  0  0  0  0  0  0  0  0  0  0  0
   -8.6440   -3.9680   -8.8990 O   0  0  0  0  0  0  0  0  0  0  0  0
   -7.4170   -4.5580   -9.1880 C   0  0  0  0  0  0  0  0  0  0  0  0
   -6.7560   -5.1470   -8.2430 N   0  0  0  0  0  0  0  0  0  0  0  0
   -5.8260   -6.5880   -3.4790 C   0  0  0  0  0  0  0  0  0  0  0  0
   -6.4950   -6.7940   -2.1150 C   0  0  2  0  0  0  0  0  0  0  0  0
   -7.1360   -8.0040   -2.9850 C   0  0  0  0  0  0  0  0  0  0  0  0
  1  2  1  0
  2  3  2  0
  2  4  2  0
  2  5  1  0
  5  6  1  0
  6  7  1  0
  7  8  2  0
  7  9  1  0
  9 10  1  0
 10 11  1  0
 11 12  1  6
 12 13  1  0
 13 14  2  0
 13 15  1  0
 15 16  2  0
 16 17  1  0
 17 18  1  0
 18 19  2  0
 11 20  1  0
 21 20  1  6
 21 22  1  0
 21  9  1  0
 22 11  1  0
 19 15  1  0
M  END
>  <pair>  (57) 
x1071_0A-x0980_0B

>  <sucos>  (57) 
0.40721848938659316

>  <ref_mols>  (57) 
x1071_0A,x0980_0B

>  <original SMILES>  (57) 
CS(=O)(=O)NCC(=O)N1CC2(NC(=O)c3cocn3)CC1C2

>  <cmpd_ids>  (57) 
ENAMINE:PV-003892465670

>  <ref_url>  (57) 
https://github.com/stephwills/fragment_network_merges

>  <submitter_name>  (57) 
Steph Wills

>  <submitter_institution>  (57) 
University of Oxford

>  <submitter_email>  (57) 
stephanie.wills@balliol.ox.ac.uk

>  <generation_date>  (57) 
2023-09-06

>  <method>  (57) 
fragNetMergingIt3

>  <ref_pdb>  (57) 
x1071_0A,x0980_0B

$$$$
x1140-0A-x1020-0A-183
     RDKit          3D

 23 25  0  0  0  0  0  0  0  0999 V2000
   -7.2000  -12.8680    3.6330 C   0  0  0  0  0  0  0  0  0  0  0  0
   -6.2660  -11.6760    3.4460 C   0  0  0  0  0  0  0  0  0  0  0  0
   -5.4110  -11.4250    4.2960 O   0  0  0  0  0  0  0  0  0  0  0  0
   -6.5380  -10.9850    2.2590 N   0  0  0  0  0  0  0  0  0  0  0  0
   -6.5450  -11.4760    0.9050 C   0  0  0  0  0  0  0  0  0  0  0  0
   -6.1610  -12.8760    0.4750 C   0  0  0  0  0  0  0  0  0  0  0  0
   -6.1990  -13.2500   -0.8790 C   0  0  0  0  0  0  0  0  0  0  0  0
   -6.5910  -12.3200   -1.8630 C   0  0  0  0  0  0  0  0  0  0  0  0
   -6.9600  -11.0060   -1.5290 C   0  0  0  0  0  0  0  0  0  0  0  0
   -7.3650  -10.0310   -2.5100 N   0  0  0  0  0  0  0  0  0  0  0  0
   -6.6650   -9.5320   -3.6390 C   0  0  0  0  0  0  0  0  0  0  0  0
   -6.7630  -10.0540   -4.8950 O   0  0  0  0  0  0  0  0  0  0  0  0
   -5.8670   -8.4300   -3.2970 N   0  0  0  0  0  0  0  0  0  0  0  0
   -5.2090   -8.3450   -2.0610 C   0  0  0  0  0  0  0  0  0  0  0  0
   -5.7620   -8.9880   -1.0130 C   0  0  0  0  0  0  0  0  0  0  0  0
   -5.2040   -9.0020    0.2520 C   0  0  0  0  0  0  0  0  0  0  0  0
   -4.0480   -8.3360    0.4260 C   0  0  0  0  0  0  0  0  0  0  0  0
   -3.4590   -7.6700   -0.6030 C   0  0  0  0  0  0  0  0  0  0  0  0
   -4.0080   -7.6380   -1.8770 C   0  0  0  0  0  0  0  0  0  0  0  0
   -2.2490   -7.0600   -0.1620 O   0  0  0  0  0  0  0  0  0  0  0  0
   -2.1820   -7.5520    1.1910 C   0  0  0  0  0  0  0  0  0  0  0  0
   -3.3700   -8.2600    1.5970 O   0  0  0  0  0  0  0  0  0  0  0  0
   -6.9360  -10.6060   -0.1490 C   0  0  0  0  0  0  0  0  0  0  0  0
  1  2  1  0
  2  3  2  0
  2  4  1  0
  4  5  1  0
  5  6  2  0
  6  7  1  0
  7  8  2  0
  8  9  1  0
  9 10  1  0
 10 11  1  0
 11 12  2  0
 11 13  1  0
 13 14  1  0
 14 15  2  0
 15 16  1  0
 16 17  2  0
 17 18  1  0
 18 19  2  0
 18 20  1  0
 20 21  1  0
 21 22  1  0
  9 23  2  0
 23  5  1  0
 19 14  1  0
 22 17  1  0
M  END
>  <pair>  (58) 
x1140_0A-x1020_0A

>  <sucos>  (58) 
0.40983924571621044

>  <ref_mols>  (58) 
x1140_0A,x1020_0A

>  <original SMILES>  (58) 
CC(=O)Nc1cccc(NC(=O)Nc2ccc3c(c2)OCO3)c1

>  <cmpd_ids>  (58) 
ENAMINE:Z219648574

>  <ref_url>  (58) 
https://github.com/stephwills/fragment_network_merges

>  <submitter_name>  (58) 
Steph Wills

>  <submitter_institution>  (58) 
University of Oxford

>  <submitter_email>  (58) 
stephanie.wills@balliol.ox.ac.uk

>  <generation_date>  (58) 
2023-09-06

>  <method>  (58) 
fragNetMergingIt3

>  <ref_pdb>  (58) 
x1140_0A,x1020_0A

$$$$
x1052-1A-x1140-0A-77
     RDKit          3D

 20 22  0  0  0  0  0  0  0  0999 V2000
   -7.0600   -7.6780    1.2850 C   0  0  0  0  0  0  0  0  0  0  0  0
   -6.9140   -6.9720    0.0040 C   0  0  0  0  0  0  0  0  0  0  0  0
   -6.3980   -7.2880   -1.1930 C   0  0  0  0  0  0  0  0  0  0  0  0
   -6.5950   -6.1690   -1.9820 C   0  0  0  0  0  0  0  0  0  0  0  0
   -6.1670   -6.2370   -3.2760 N   0  0  0  0  0  0  0  0  0  0  0  0
   -5.5990   -7.4560   -3.5730 C   0  0  0  0  0  0  0  0  0  0  0  0
   -5.1070   -7.9710   -2.2280 C   0  0  0  0  0  0  0  0  0  0  0  0
   -5.8500   -9.0870   -1.4980 C   0  0  0  0  0  0  0  0  0  0  0  0
   -5.4020   -9.5390   -0.2570 C   0  0  0  0  0  0  0  0  0  0  0  0
   -4.2670   -8.9710    0.3200 C   0  0  0  0  0  0  0  0  0  0  0  0
   -3.5370   -7.9110   -0.3410 C   0  0  0  0  0  0  0  0  0  0  0  0
   -3.9670   -7.4360   -1.5950 C   0  0  0  0  0  0  0  0  0  0  0  0
   -2.3920   -7.2420    0.1020 O   0  0  0  0  0  0  0  0  0  0  0  0
   -1.5620   -7.8190    1.1940 C   0  0  0  0  0  0  0  0  0  0  0  0
   -2.4220   -7.8240    2.3790 C   0  0  0  0  0  0  0  0  0  0  0  0
   -3.4790   -8.1030    3.4320 C   0  0  0  0  0  0  0  0  0  0  0  0
   -4.5690   -8.9880    2.7470 C   0  0  0  0  0  0  0  0  0  0  0  0
   -3.9610   -9.5520    1.5410 O   0  0  0  0  0  0  0  0  0  0  0  0
   -7.1940   -5.1850   -1.3160 N   0  0  0  0  0  0  0  0  0  0  0  0
   -7.3930   -5.7100   -0.0540 O   0  0  0  0  0  0  0  0  0  0  0  0
  1  2  1  0
  2  3  2  0
  3  4  1  0
  4  5  1  0
  5  6  1  0
  6  7  1  0
  7  8  2  0
  8  9  1  0
  9 10  2  0
 10 11  1  0
 11 12  2  0
 11 13  1  0
 13 14  1  0
 14 15  1  0
 15 16  1  0
 16 17  1  0
 17 18  1  0
  4 19  2  0
 19 20  1  0
 20  2  1  0
 12  7  1  0
 18 10  1  0
M  END
>  <pair>  (59) 
x1052_1A-x1140_0A

>  <sucos>  (59) 
0.4165108033022684

>  <ref_mols>  (59) 
x1052_1A,x1140_0A

>  <original SMILES>  (59) 
Cc1cc(NCc2ccc3c(c2)OCCCCO3)no1

>  <cmpd_ids>  (59) 
ENAMINE:Z2285508144

>  <ref_url>  (59) 
https://github.com/stephwills/fragment_network_merges

>  <submitter_name>  (59) 
Steph Wills

>  <submitter_institution>  (59) 
University of Oxford

>  <submitter_email>  (59) 
stephanie.wills@balliol.ox.ac.uk

>  <generation_date>  (59) 
2023-09-06

>  <method>  (59) 
fragNetMergingIt3

>  <ref_pdb>  (59) 
x1052_1A,x1140_0A

$$$$
x1052-1A-x1594-0A-195
     RDKit          3D

 23 25  0  0  0  0  0  0  0  0999 V2000
   -6.2600   -1.0590   -2.3070 C   0  0  0  0  0  0  0  0  0  0  0  0
   -7.1980   -2.0800   -1.7820 C   0  0  1  0  0  0  0  0  0  0  0  0
   -8.5540   -2.2750   -2.0550 C   0  0  0  0  0  0  0  0  0  0  0  0
   -8.9900   -3.3720   -2.7460 N   0  0  0  0  0  0  0  0  0  0  0  0
   -8.4090   -3.8410   -3.9130 C   0  0  0  0  0  0  0  0  0  0  0  0
   -7.2240   -4.1730   -3.9400 O   0  0  0  0  0  0  0  0  0  0  0  0
   -9.2420   -3.8700   -5.1730 C   0  0  0  0  0  0  0  0  0  0  0  0
  -10.6680   -3.4550   -5.2640 C   0  0  0  0  0  0  0  0  0  0  0  0
  -11.2520   -3.5320   -6.4800 C   0  0  0  0  0  0  0  0  0  0  0  0
  -10.4570   -3.9920   -7.6520 C   0  0  0  0  0  0  0  0  0  0  0  0
   -9.1480   -4.3530   -7.5130 N   0  0  0  0  0  0  0  0  0  0  0  0
   -8.1780   -4.7770   -8.3700 C   0  0  0  0  0  0  0  0  0  0  0  0
   -7.1000   -5.0240   -7.7630 N   0  0  0  0  0  0  0  0  0  0  0  0
   -7.3420   -4.7420   -6.4800 N   0  0  0  0  0  0  0  0  0  0  0  0
   -8.5500   -4.3190   -6.3250 C   0  0  0  0  0  0  0  0  0  0  0  0
   -6.7000   -3.3150   -1.8180 N   0  0  0  0  0  0  0  0  0  0  0  0
   -7.1350   -4.2450   -0.9220 C   0  0  0  0  0  0  0  0  0  0  0  0
   -7.9860   -3.9640   -0.0780 O   0  0  0  0  0  0  0  0  0  0  0  0
   -6.5870   -5.4540   -1.0020 C   0  0  0  0  0  0  0  0  0  0  0  0
   -5.5310   -5.8700   -1.8460 C   0  0  0  0  0  0  0  0  0  0  0  0
   -5.3440   -7.1750   -1.5400 C   0  0  0  0  0  0  0  0  0  0  0  0
   -6.2170   -7.5620   -0.5780 O   0  0  0  0  0  0  0  0  0  0  0  0
   -7.0050   -6.4750   -0.2380 N   0  0  0  0  0  0  0  0  0  0  0  0
  2  1  1  6
  2  3  1  0
  3  4  1  0
  4  5  1  0
  5  6  2  0
  5  7  1  0
  7  8  2  0
  8  9  1  0
  9 10  2  0
 10 11  1  0
 11 12  1  0
 12 13  2  0
 13 14  1  0
 14 15  2  0
  2 16  1  0
 16 17  1  0
 17 18  2  0
 17 19  1  0
 19 20  1  0
 20 21  2  0
 21 22  1  0
 22 23  1  0
 15  7  1  0
 23 19  2  0
 15 11  1  0
M  END
>  <pair>  (60) 
x1052_1A-x1594_0A

>  <sucos>  (60) 
0.4392316525854324

>  <ref_mols>  (60) 
x1052_1A,x1594_0A

>  <original SMILES>  (60) 
CC(CNC(=O)c1cccn2cnnc12)NC(=O)c1ccon1

>  <cmpd_ids>  (60) 
ENAMINE:PV-003013156625,ENAMINE:PV-003013156627

>  <ref_url>  (60) 
https://github.com/stephwills/fragment_network_merges

>  <submitter_name>  (60) 
Steph Wills

>  <submitter_institution>  (60) 
University of Oxford

>  <submitter_email>  (60) 
stephanie.wills@balliol.ox.ac.uk

>  <generation_date>  (60) 
2023-09-06

>  <method>  (60) 
fragNetMergingIt3

>  <ref_pdb>  (60) 
x1052_1A,x1594_0A

$$$$
x1071-0A-x0980-0B-18
     RDKit          3D

 24 26  0  0  0  0  0  0  0  0999 V2000
   -7.5990    0.3680   -0.8590 C   0  0  0  0  0  0  0  0  0  0  0  0
   -6.3120   -0.8500   -1.0380 S   0  0  0  0  0  6  0  0  0  0  0  0
   -5.2430   -0.2450   -1.8000 O   0  0  0  0  0  0  0  0  0  0  0  0
   -6.1110   -1.4450    0.2690 O   0  0  0  0  0  0  0  0  0  0  0  0
   -7.0440   -2.0200   -1.9830 N   0  0  0  0  0  0  0  0  0  0  0  0
   -6.4110   -3.3320   -2.1630 C   0  0  0  0  0  0  0  0  0  0  0  0
   -7.3380   -4.2450   -2.9410 C   0  0  0  0  0  0  0  0  0  0  0  0
   -7.0580   -4.5320   -4.1070 O   0  0  0  0  0  0  0  0  0  0  0  0
   -8.5080   -4.6710   -2.3180 N   0  0  0  0  0  0  0  0  0  0  0  0
   -9.3680   -3.6990   -1.6870 C   0  0  0  0  0  0  0  0  0  0  0  0
  -10.1040   -3.1510   -2.9050 C   0  0  0  0  0  0  0  0  0  0  0  0
  -10.0310   -4.3350   -3.8960 C   0  0  0  0  0  0  0  0  0  0  0  0
   -9.4440   -5.4820   -3.0850 C   0  0  0  0  0  0  0  0  0  0  0  0
   -9.2310   -4.2000   -5.2100 C   0  0  0  0  0  0  0  0  0  0  0  0
  -10.4490   -3.6710   -5.7500 N   0  0  0  0  0  0  0  0  0  0  0  0
  -10.6030   -2.4870   -6.4380 C   0  0  0  0  0  0  0  0  0  0  0  0
  -11.3920   -1.6040   -6.0940 O   0  0  0  0  0  0  0  0  0  0  0  0
   -9.7250   -2.3460   -7.6720 C   0  0  0  0  0  0  0  0  0  0  0  0
   -8.9690   -3.6040   -7.8360 C   0  0  0  0  0  0  0  0  0  0  0  0
   -9.5610   -4.8080   -7.8920 C   0  0  0  0  0  0  0  0  0  0  0  0
   -8.6170   -5.7550   -8.0210 O   0  0  0  0  0  0  0  0  0  0  0  0
   -7.4570   -5.0670   -8.0410 C   0  0  0  0  0  0  0  0  0  0  0  0
   -7.6000   -3.7730   -7.9370 N   0  0  0  0  0  0  0  0  0  0  0  0
  -11.2520   -4.4790   -4.8330 C   0  0  0  0  0  0  0  0  0  0  0  0
  1  2  1  0
  2  3  2  0
  2  4  2  0
  2  5  1  0
  5  6  1  0
  6  7  1  0
  7  8  2  0
  7  9  1  0
  9 10  1  0
 10 11  1  0
 11 12  1  0
 12 13  1  0
 12 14  1  0
 14 15  1  0
 15 16  1  0
 16 17  2  0
 16 18  1  0
 18 19  1  0
 19 20  2  0
 20 21  1  0
 21 22  1  0
 22 23  2  0
 15 24  1  0
 13  9  1  0
 23 19  1  0
 24 12  1  0
M  END
>  <pair>  (61) 
x1071_0A-x0980_0B

>  <sucos>  (61) 
0.4498232502381641

>  <ref_mols>  (61) 
x1071_0A,x0980_0B

>  <original SMILES>  (61) 
CS(=O)(=O)NCC(=O)N1CCC2(C1)CN(C(=O)Cc1cocn1)C2

>  <cmpd_ids>  (61) 
ENAMINE:PV-003253350570

>  <ref_url>  (61) 
https://github.com/stephwills/fragment_network_merges

>  <submitter_name>  (61) 
Steph Wills

>  <submitter_institution>  (61) 
University of Oxford

>  <submitter_email>  (61) 
stephanie.wills@balliol.ox.ac.uk

>  <generation_date>  (61) 
2023-09-06

>  <method>  (61) 
fragNetMergingIt3

>  <ref_pdb>  (61) 
x1071_0A,x0980_0B

$$$$
x1052-1A-x1140-0A-35
     RDKit          3D

 23 25  0  0  0  0  0  0  0  0999 V2000
   -6.7780  -10.5650   -5.0480 C   0  0  0  0  0  0  0  0  0  0  0  0
   -6.9330  -10.0350   -3.6200 C   0  0  0  0  0  0  0  0  0  0  0  0
   -6.4820  -11.1080   -2.6260 C   0  0  0  0  0  0  0  0  0  0  0  0
   -6.3330   -8.6190   -3.3150 C   0  0  1  0  0  0  0  0  0  0  0  0
   -7.4330   -7.6350   -3.3880 N   0  0  0  0  0  0  0  0  0  0  0  0
   -7.4540   -6.5070   -4.2060 C   0  0  0  0  0  0  0  0  0  0  0  0
   -7.5950   -6.5280   -5.4260 O   0  0  0  0  0  0  0  0  0  0  0  0
   -7.3030   -5.4170   -3.3990 N   0  0  0  0  0  0  0  0  0  0  0  0
   -6.7540   -5.6790   -2.1820 C   0  0  0  0  0  0  0  0  0  0  0  0
   -5.4080   -5.9450   -1.9110 C   0  0  0  0  0  0  0  0  0  0  0  0
   -5.3910   -6.1780   -0.5780 C   0  0  0  0  0  0  0  0  0  0  0  0
   -6.6460   -6.0520   -0.0800 O   0  0  0  0  0  0  0  0  0  0  0  0
   -7.5160   -5.7270   -1.0870 N   0  0  0  0  0  0  0  0  0  0  0  0
   -5.5610   -8.5770   -1.9650 C   0  0  0  0  0  0  0  0  0  0  0  0
   -6.1750   -9.1610   -0.8440 C   0  0  0  0  0  0  0  0  0  0  0  0
   -5.5550   -9.1870    0.4090 C   0  0  0  0  0  0  0  0  0  0  0  0
   -4.2970   -8.6300    0.5850 C   0  0  0  0  0  0  0  0  0  0  0  0
   -3.6510   -8.0350   -0.4960 C   0  0  0  0  0  0  0  0  0  0  0  0
   -4.2720   -8.0030   -1.7670 C   0  0  0  0  0  0  0  0  0  0  0  0
   -2.4040   -7.4760   -0.3680 O   0  0  0  0  0  0  0  0  0  0  0  0
   -2.0460   -7.2910    1.0090 C   0  0  0  0  0  0  0  0  0  0  0  0
   -2.3510   -8.5110    1.8350 C   0  0  0  0  0  0  0  0  0  0  0  0
   -3.7650   -8.7120    1.8490 O   0  0  0  0  0  0  0  0  0  0  0  0
  1  2  1  0
  2  3  1  0
  2  4  1  0
  4  5  1  1
  5  6  1  0
  6  7  2  0
  6  8  1  0
  8  9  1  0
  9 10  1  0
 10 11  2  0
 11 12  1  0
 12 13  1  0
  4 14  1  0
 14 15  2  0
 15 16  1  0
 16 17  2  0
 17 18  1  0
 18 19  2  0
 18 20  1  0
 20 21  1  0
 21 22  1  0
 22 23  1  0
 13  9  2  0
 19 14  1  0
 23 17  1  0
M  END
>  <pair>  (62) 
x1052_1A-x1140_0A

>  <sucos>  (62) 
0.45826030718583355

>  <ref_mols>  (62) 
x1052_1A,x1140_0A

>  <original SMILES>  (62) 
CC(C)C(NC(=O)Nc1ccon1)c1ccc2c(c1)OCCO2

>  <cmpd_ids>  (62) 
ENAMINE:Z1671861328

>  <ref_url>  (62) 
https://github.com/stephwills/fragment_network_merges

>  <submitter_name>  (62) 
Steph Wills

>  <submitter_institution>  (62) 
University of Oxford

>  <submitter_email>  (62) 
stephanie.wills@balliol.ox.ac.uk

>  <generation_date>  (62) 
2023-09-06

>  <method>  (62) 
fragNetMergingIt3

>  <ref_pdb>  (62) 
x1052_1A,x1140_0A

$$$$
x1052-1A-x1594-0A-144
     RDKit          3D

 21 23  0  0  0  0  0  0  0  0999 V2000
   -4.7420   -1.3090   -2.5090 C   0  0  0  0  0  0  0  0  0  0  0  0
   -5.1940   -2.6370   -2.7060 O   0  0  0  0  0  0  0  0  0  0  0  0
   -5.7770   -3.1960   -1.5310 C   0  0  0  0  0  0  0  0  0  0  0  0
   -6.3200   -4.6230   -1.7060 C   0  0  0  0  0  0  0  0  0  0  0  0
   -6.6300   -5.2420   -2.9440 C   0  0  0  0  0  0  0  0  0  0  0  0
   -7.1490   -6.5560   -2.6510 C   0  0  0  0  0  0  0  0  0  0  0  0
   -7.6420   -7.5370   -3.4880 C   0  0  0  0  0  0  0  0  0  0  0  0
   -8.8410   -6.8920   -4.0330 O   0  0  0  0  0  0  0  0  0  0  0  0
   -9.1210   -6.9870   -5.3780 C   0  0  0  0  0  0  0  0  0  0  0  0
   -9.2110   -8.0530   -5.9780 O   0  0  0  0  0  0  0  0  0  0  0  0
   -9.3150   -5.6400   -6.0660 C   0  0  0  0  0  0  0  0  0  0  0  0
  -10.3310   -4.7940   -5.7180 C   0  0  0  0  0  0  0  0  0  0  0  0
  -10.5300   -3.4710   -6.3820 C   0  0  0  0  0  0  0  0  0  0  0  0
   -9.6570   -3.0930   -7.3820 C   0  0  0  0  0  0  0  0  0  0  0  0
   -8.6350   -3.9640   -7.7290 N   0  0  0  0  0  0  0  0  0  0  0  0
   -7.6800   -3.7860   -8.6830 N   0  0  0  0  0  0  0  0  0  0  0  0
   -6.8810   -4.8910   -8.6990 N   0  0  0  0  0  0  0  0  0  0  0  0
   -7.3210   -5.7520   -7.7660 C   0  0  0  0  0  0  0  0  0  0  0  0
   -8.4420   -5.2120   -7.1100 C   0  0  0  0  0  0  0  0  0  0  0  0
   -7.1020   -6.6900   -1.2830 O   0  0  0  0  0  0  0  0  0  0  0  0
   -6.6000   -5.5020   -0.7080 N   0  0  0  0  0  0  0  0  0  0  0  0
  1  2  1  0
  2  3  1  0
  3  4  1  0
  4  5  1  0
  5  6  2  0
  6  7  1  0
  7  8  1  0
  8  9  1  0
  9 10  2  0
  9 11  1  0
 11 12  2  0
 12 13  1  0
 13 14  2  0
 14 15  1  0
 15 16  1  0
 16 17  2  0
 17 18  1  0
 18 19  2  0
  6 20  1  0
 20 21  1  0
 21  4  2  0
 19 11  1  0
 19 15  1  0
M  END
>  <pair>  (63) 
x1052_1A-x1594_0A

>  <sucos>  (63) 
0.45995281349951816

>  <ref_mols>  (63) 
x1052_1A,x1594_0A

>  <original SMILES>  (63) 
COCc1cc(COC(=O)c2cccn3nncc23)on1

>  <cmpd_ids>  (63) 
ENAMINE:PV-002896070658

>  <ref_url>  (63) 
https://github.com/stephwills/fragment_network_merges

>  <submitter_name>  (63) 
Steph Wills

>  <submitter_institution>  (63) 
University of Oxford

>  <submitter_email>  (63) 
stephanie.wills@balliol.ox.ac.uk

>  <generation_date>  (63) 
2023-09-06

>  <method>  (63) 
fragNetMergingIt3

>  <ref_pdb>  (63) 
x1052_1A,x1594_0A

$$$$
x1020-0A-x0130-0A-190
     RDKit          3D

 23 24  0  0  0  0  0  0  0  0999 V2000
   -3.5260   -8.0570   -0.0310 C   0  0  0  0  0  0  0  0  0  0  0  0
   -2.0830   -8.2310    0.4200 C   0  0  0  0  0  0  0  0  0  0  0  0
   -1.9600   -9.1220    1.6060 N   0  0  0  0  0  0  0  0  0  0  0  0
   -0.7060   -9.9340    1.6760 C   0  0  0  0  0  0  0  0  0  0  0  0
    0.3850   -9.4040    2.6140 C   0  0  0  0  0  0  0  0  0  0  0  0
   -2.1950   -8.3400    2.8140 C   0  0  0  0  0  0  0  0  0  0  0  0
   -3.3430   -7.5680    2.5830 C   0  0  0  0  0  0  0  0  0  0  0  0
   -4.4970   -8.4060    2.4080 N   0  0  0  0  0  0  0  0  0  0  0  0
   -4.6750   -9.6130    3.0150 C   0  0  0  0  0  0  0  0  0  0  0  0
   -5.9530  -10.0720    2.5480 C   0  0  0  0  0  0  0  0  0  0  0  0
   -6.5840  -11.2340    2.8700 N   0  0  0  0  0  0  0  0  0  0  0  0
   -6.3810  -11.9140    4.0520 C   0  0  0  0  0  0  0  0  0  0  0  0
   -5.4700  -11.7420    4.8590 O   0  0  0  0  0  0  0  0  0  0  0  0
   -7.4730  -12.9530    4.2470 C   0  0  0  0  0  0  0  0  0  0  0  0
   -8.8170  -12.4750    3.6920 C   0  0  0  0  0  0  0  0  0  0  0  0
   -9.9700  -13.3820    4.1310 C   0  0  1  0  0  0  0  0  0  0  0  0
  -10.8370  -12.7730    5.2300 C   0  0  0  0  0  0  0  0  0  0  0  0
  -11.4080  -11.5230    4.8060 O   0  0  0  0  0  0  0  0  0  0  0  0
  -12.2080  -11.7290    3.6370 C   0  0  0  0  0  0  0  0  0  0  0  0
  -11.3700  -12.3790    2.5280 C   0  0  0  0  0  0  0  0  0  0  0  0
  -10.9360  -13.6810    3.0540 N   0  0  0  0  0  0  0  0  0  0  0  0
   -6.3960   -9.0450    1.6890 C   0  0  0  0  0  0  0  0  0  0  0  0
   -5.5200   -8.0370    1.6000 N   0  0  0  0  0  0  0  0  0  0  0  0
  1  2  1  0
  2  3  1  0
  3  4  1  0
  4  5  1  0
  3  6  1  0
  6  7  1  0
  7  8  1  0
  8  9  1  0
  9 10  2  0
 10 11  1  0
 11 12  1  0
 12 13  2  0
 12 14  1  0
 14 15  1  0
 16 15  1  6
 16 17  1  0
 17 18  1  0
 18 19  1  0
 19 20  1  0
 20 21  1  0
 10 22  1  0
 22 23  2  0
 23  8  1  0
 21 16  1  0
M  END
>  <pair>  (64) 
x1020_0A-x0130_0A

>  <sucos>  (64) 
0.4618603253286538

>  <ref_mols>  (64) 
x1020_0A,x0130_0A

>  <original SMILES>  (64) 
CCN(CC)CCn1cc(NC(=O)CCC2COCCN2)cn1

>  <cmpd_ids>  (64) 
ENAMINE:Z3791926429

>  <ref_url>  (64) 
https://github.com/stephwills/fragment_network_merges

>  <submitter_name>  (64) 
Steph Wills

>  <submitter_institution>  (64) 
University of Oxford

>  <submitter_email>  (64) 
stephanie.wills@balliol.ox.ac.uk

>  <generation_date>  (64) 
2023-09-06

>  <method>  (64) 
fragNetMergingIt3

>  <ref_pdb>  (64) 
x1020_0A,x0130_0A

$$$$
x1594-0A-x1052-1A-161
     RDKit          3D

 25 28  0  0  0  0  0  0  0  0999 V2000
   -8.4150  -10.0400   -2.3210 O   0  0  0  0  0  0  0  0  0  0  0  0
   -8.7030   -8.8540   -2.4740 C   0  0  0  0  0  0  0  0  0  0  0  0
   -9.4140   -8.1630   -1.5130 N   0  0  0  0  0  0  0  0  0  0  0  0
   -8.7320   -7.5710   -0.3680 C   0  0  0  0  0  0  0  0  0  0  0  0
   -7.3850   -7.0550   -0.8350 C   0  0  0  0  0  0  0  0  0  0  0  0
   -6.3330   -8.0380   -1.1800 C   0  0  0  0  0  0  0  0  0  0  0  0
   -5.1540   -7.5420   -1.6290 C   0  0  0  0  0  0  0  0  0  0  0  0
   -4.9700   -6.2260   -1.7490 C   0  0  0  0  0  0  0  0  0  0  0  0
   -5.9780   -5.3320   -1.4030 C   0  0  0  0  0  0  0  0  0  0  0  0
   -7.1910   -5.7090   -0.9410 N   0  0  0  0  0  0  0  0  0  0  0  0
   -8.3360   -8.1360   -3.6270 N   0  0  0  0  0  0  0  0  0  0  0  0
   -9.3040   -7.9710   -4.5940 C   0  0  0  0  0  0  0  0  0  0  0  0
   -8.9240   -7.7310   -6.0330 C   0  0  0  0  0  0  0  0  0  0  0  0
   -7.6210   -7.0860   -6.3940 C   0  0  0  0  0  0  0  0  0  0  0  0
   -7.7620   -5.8360   -7.0990 C   0  0  0  0  0  0  0  0  0  0  0  0
   -6.9560   -5.3430   -8.0350 N   0  0  0  0  0  0  0  0  0  0  0  0
   -7.4480   -4.1210   -8.4410 N   0  0  0  0  0  0  0  0  0  0  0  0
   -8.5440   -3.8760   -7.7570 C   0  0  0  0  0  0  0  0  0  0  0  0
   -9.4370   -2.7830   -7.7610 C   0  0  0  0  0  0  0  0  0  0  0  0
  -10.5510   -2.7600   -6.9420 C   0  0  0  0  0  0  0  0  0  0  0  0
  -10.8440   -3.8510   -6.0430 C   0  0  0  0  0  0  0  0  0  0  0  0
   -9.8730   -5.0030   -6.0390 C   0  0  0  0  0  0  0  0  0  0  0  0
   -8.7860   -4.9460   -6.8940 N   0  0  0  0  0  0  0  0  0  0  0  0
   -6.7350   -7.0130   -5.1330 C   0  0  0  0  0  0  0  0  0  0  0  0
   -6.9900   -8.2190   -4.2170 C   0  0  0  0  0  0  0  0  0  0  0  0
  1  2  2  0
  2  3  1  0
  3  4  1  0
  4  5  1  0
  5  6  2  0
  6  7  1  0
  7  8  2  0
  8  9  1  0
  9 10  2  0
  2 11  1  0
 11 12  1  0
 12 13  1  0
 13 14  1  0
 14 15  1  0
 15 16  2  0
 16 17  1  0
 17 18  2  0
 18 19  1  0
 19 20  2  0
 20 21  1  0
 21 22  2  0
 22 23  1  0
 14 24  1  0
 24 25  1  0
 10  5  1  0
 25 11  1  0
 23 15  1  0
 23 18  1  0
M  END
>  <pair>  (65) 
x1594_0A-x1052_1A

>  <sucos>  (65) 
0.46810299408446865

>  <ref_mols>  (65) 
x1594_0A,x1052_1A

>  <original SMILES>  (65) 
O=C(NCc1ccccn1)N1CCC(c2nnc3ccccn23)CC1

>  <cmpd_ids>  (65) 
ENAMINE:Z235257432

>  <ref_url>  (65) 
https://github.com/stephwills/fragment_network_merges

>  <submitter_name>  (65) 
Steph Wills

>  <submitter_institution>  (65) 
University of Oxford

>  <submitter_email>  (65) 
stephanie.wills@balliol.ox.ac.uk

>  <generation_date>  (65) 
2023-09-06

>  <method>  (65) 
fragNetMergingIt3

>  <ref_pdb>  (65) 
x1594_0A,x1052_1A

$$$$
x1052-1A-x1140-0A-115
     RDKit          3D

 25 27  0  0  0  0  0  0  0  0999 V2000
   -4.4510   -6.8270   -0.2730 C   0  0  0  0  0  0  0  0  0  0  0  0
   -5.6500   -6.2030   -0.8050 C   0  0  0  0  0  0  0  0  0  0  0  0
   -5.9190   -5.5200   -1.9460 C   0  0  0  0  0  0  0  0  0  0  0  0
   -7.2840   -5.1800   -1.8230 C   0  0  0  0  0  0  0  0  0  0  0  0
   -8.1450   -4.4280   -2.7720 C   0  0  0  0  0  0  0  0  0  0  0  0
   -8.1960   -5.2730   -4.3440 S   0  0  0  0  0  6  0  0  0  0  0  0
   -9.4960   -5.8670   -4.5760 O   0  0  0  0  0  0  0  0  0  0  0  0
   -7.5380   -4.4610   -5.3410 O   0  0  0  0  0  0  0  0  0  0  0  0
   -7.1080   -6.5090   -4.0480 N   0  0  0  0  0  0  0  0  0  0  0  0
   -7.3580   -7.5370   -3.1560 C   0  0  0  0  0  0  0  0  0  0  0  0
   -6.2140   -8.5670   -3.0750 C   0  0  0  0  0  0  0  0  0  0  0  0
   -5.2960   -8.3080   -4.2090 C   0  0  0  0  0  0  0  0  0  0  0  0
   -6.7960   -9.9730   -3.3360 C   0  0  0  0  0  0  0  0  0  0  0  0
   -5.4580   -8.6090   -1.7340 C   0  0  0  0  0  0  0  0  0  0  0  0
   -6.0640   -9.2280   -0.6470 C   0  0  0  0  0  0  0  0  0  0  0  0
   -5.4270   -9.3040    0.5930 C   0  0  0  0  0  0  0  0  0  0  0  0
   -4.1560   -8.7540    0.7650 C   0  0  0  0  0  0  0  0  0  0  0  0
   -3.5160   -8.1240   -0.3020 C   0  0  0  0  0  0  0  0  0  0  0  0
   -4.1630   -8.0500   -1.5520 C   0  0  0  0  0  0  0  0  0  0  0  0
   -2.2660   -7.5660   -0.1860 O   0  0  0  0  0  0  0  0  0  0  0  0
   -1.8920   -7.3880    1.1840 C   0  0  0  0  0  0  0  0  0  0  0  0
   -2.1960   -8.6430    1.9930 C   0  0  0  0  0  0  0  0  0  0  0  0
   -3.6070   -8.8770    2.0140 O   0  0  0  0  0  0  0  0  0  0  0  0
   -7.7990   -5.6340   -0.6750 N   0  0  0  0  0  0  0  0  0  0  0  0
   -6.7660   -6.2840   -0.0400 O   0  0  0  0  0  0  0  0  0  0  0  0
  1  2  1  0
  2  3  2  0
  3  4  1  0
  4  5  1  0
  5  6  1  0
  6  7  2  0
  6  8  2  0
  6  9  1  0
  9 10  1  0
 10 11  1  0
 11 12  1  0
 11 13  1  0
 11 14  1  0
 14 15  2  0
 15 16  1  0
 16 17  2  0
 17 18  1  0
 18 19  2  0
 18 20  1  0
 20 21  1  0
 21 22  1  0
 22 23  1  0
  4 24  2  0
 24 25  1  0
 25  2  1  0
 19 14  1  0
 23 17  1  0
M  END
>  <pair>  (66) 
x1052_1A-x1140_0A

>  <sucos>  (66) 
0.4704647149891859

>  <ref_mols>  (66) 
x1052_1A,x1140_0A

>  <original SMILES>  (66) 
Cc1cc(CS(=O)(=O)NCC(C)(C)c2ccc3c(c2)OCCO3)no1

>  <cmpd_ids>  (66) 
ENAMINE:Z1223149246

>  <ref_url>  (66) 
https://github.com/stephwills/fragment_network_merges

>  <submitter_name>  (66) 
Steph Wills

>  <submitter_institution>  (66) 
University of Oxford

>  <submitter_email>  (66) 
stephanie.wills@balliol.ox.ac.uk

>  <generation_date>  (66) 
2023-09-06

>  <method>  (66) 
fragNetMergingIt3

>  <ref_pdb>  (66) 
x1052_1A,x1140_0A

$$$$
x1052-1A-x1594-0A-30
     RDKit          3D

 20 22  0  0  0  0  0  0  0  0999 V2000
   -3.9440   -7.3350   -0.3280 C   0  0  0  0  0  0  0  0  0  0  0  0
   -5.1170   -6.7060   -0.9630 C   0  0  0  0  0  0  0  0  0  0  0  0
   -5.3630   -6.2110   -2.2100 C   0  0  0  0  0  0  0  0  0  0  0  0
   -6.7000   -5.7560   -2.1510 C   0  0  0  0  0  0  0  0  0  0  0  0
   -7.4930   -5.1360   -3.2640 C   0  0  0  0  0  0  0  0  0  0  0  0
   -7.7720   -6.1410   -4.3150 N   0  0  0  0  0  0  0  0  0  0  0  0
   -6.7420   -7.1570   -4.5470 C   0  0  0  0  0  0  0  0  0  0  0  0
   -9.0260   -6.1260   -4.9410 C   0  0  0  0  0  0  0  0  0  0  0  0
   -9.9130   -6.9560   -4.7460 O   0  0  0  0  0  0  0  0  0  0  0  0
   -9.2640   -5.0290   -5.9030 C   0  0  0  0  0  0  0  0  0  0  0  0
  -10.3020   -4.1910   -5.6940 C   0  0  0  0  0  0  0  0  0  0  0  0
  -10.5040   -3.0770   -6.6110 C   0  0  0  0  0  0  0  0  0  0  0  0
   -9.6760   -2.8710   -7.6490 C   0  0  0  0  0  0  0  0  0  0  0  0
   -8.5960   -3.7740   -7.8730 C   0  0  0  0  0  0  0  0  0  0  0  0
   -7.6580   -3.8410   -8.7860 N   0  0  0  0  0  0  0  0  0  0  0  0
   -6.8850   -4.9430   -8.5210 N   0  0  0  0  0  0  0  0  0  0  0  0
   -7.3590   -5.5170   -7.4520 C   0  0  0  0  0  0  0  0  0  0  0  0
   -8.4400   -4.8240   -6.9910 N   0  0  0  0  0  0  0  0  0  0  0  0
   -7.2270   -5.9550   -0.9330 N   0  0  0  0  0  0  0  0  0  0  0  0
   -6.2290   -6.5570   -0.1930 O   0  0  0  0  0  0  0  0  0  0  0  0
  1  2  1  0
  2  3  2  0
  3  4  1  0
  4  5  1  0
  5  6  1  0
  6  7  1  0
  6  8  1  0
  8  9  2  0
  8 10  1  0
 10 11  2  0
 11 12  1  0
 12 13  2  0
 13 14  1  0
 14 15  2  0
 15 16  1  0
 16 17  2  0
 17 18  1  0
  4 19  2  0
 19 20  1  0
 20  2  1  0
 18 10  1  0
 18 14  1  0
M  END
>  <pair>  (67) 
x1052_1A-x1594_0A

>  <sucos>  (67) 
0.48240428142740654

>  <ref_mols>  (67) 
x1052_1A,x1594_0A

>  <original SMILES>  (67) 
Cc1cc(CN(C)C(=O)c2cccc3nncn23)no1

>  <cmpd_ids>  (67) 
ENAMINE:PV-002890452105

>  <ref_url>  (67) 
https://github.com/stephwills/fragment_network_merges

>  <submitter_name>  (67) 
Steph Wills

>  <submitter_institution>  (67) 
University of Oxford

>  <submitter_email>  (67) 
stephanie.wills@balliol.ox.ac.uk

>  <generation_date>  (67) 
2023-09-06

>  <method>  (67) 
fragNetMergingIt3

>  <ref_pdb>  (67) 
x1052_1A,x1594_0A

$$$$
x1140-0A-x1604-0A-26
     RDKit          3D

 26 29  0  0  0  0  0  0  0  0999 V2000
   -7.0160   -4.2870   -4.0130 O   0  0  0  0  0  0  0  0  0  0  0  0
   -7.9280   -5.0690   -3.7290 C   0  0  0  0  0  0  0  0  0  0  0  0
   -7.6760   -6.2500   -2.9990 N   0  0  0  0  0  0  0  0  0  0  0  0
   -6.4370   -7.0540   -3.2030 C   0  0  0  0  0  0  0  0  0  0  0  0
   -5.7040   -7.5530   -1.9320 C   0  0  0  0  0  0  0  0  0  0  0  0
   -6.3480   -8.3780   -0.9680 C   0  0  0  0  0  0  0  0  0  0  0  0
   -5.6790   -8.8250    0.1920 C   0  0  0  0  0  0  0  0  0  0  0  0
   -4.3680   -8.4400    0.3740 C   0  0  0  0  0  0  0  0  0  0  0  0
   -3.7230   -7.6540   -0.5440 C   0  0  0  0  0  0  0  0  0  0  0  0
   -4.3500   -7.1960   -1.6970 C   0  0  0  0  0  0  0  0  0  0  0  0
   -2.4400   -7.4040   -0.1700 O   0  0  0  0  0  0  0  0  0  0  0  0
   -2.4620   -7.8740    1.1900 C   0  0  0  0  0  0  0  0  0  0  0  0
   -3.5710   -8.7670    1.4340 O   0  0  0  0  0  0  0  0  0  0  0  0
   -9.2840   -4.8360   -4.1000 N   0  0  0  0  0  0  0  0  0  0  0  0
   -9.6820   -3.5150   -4.6740 C   0  0  0  0  0  0  0  0  0  0  0  0
  -11.0780   -3.2110   -5.3680 C   0  0  2  0  0  0  0  0  0  0  0  0
  -11.9910   -4.4130   -5.4390 C   0  0  0  0  0  0  0  0  0  0  0  0
  -11.2540   -5.4750   -6.1930 C   0  0  0  0  0  0  0  0  0  0  0  0
  -11.6540   -6.6310   -6.2140 O   0  0  0  0  0  0  0  0  0  0  0  0
  -10.0310   -5.0420   -6.9150 C   0  0  0  0  0  0  0  0  0  0  0  0
   -9.0600   -5.9470   -7.3340 C   0  0  0  0  0  0  0  0  0  0  0  0
   -7.9320   -5.4850   -8.0180 C   0  0  0  0  0  0  0  0  0  0  0  0
   -7.7890   -4.1240   -8.2770 C   0  0  0  0  0  0  0  0  0  0  0  0
   -8.7650   -3.2220   -7.8480 C   0  0  0  0  0  0  0  0  0  0  0  0
   -9.8750   -3.6890   -7.1650 C   0  0  0  0  0  0  0  0  0  0  0  0
  -10.7990   -2.8020   -6.7300 O   0  0  0  0  0  0  0  0  0  0  0  0
  1  2  2  0
  2  3  1  0
  3  4  1  0
  4  5  1  0
  5  6  2  0
  6  7  1  0
  7  8  2  0
  8  9  1  0
  9 10  2  0
  9 11  1  0
 11 12  1  0
 12 13  1  0
  2 14  1  0
 14 15  1  0
 16 15  1  6
 16 17  1  0
 17 18  1  0
 18 19  2  0
 18 20  1  0
 20 21  2  0
 21 22  1  0
 22 23  2  0
 23 24  1  0
 24 25  2  0
 25 26  1  0
 10  5  1  0
 26 16  1  0
 13  8  1  0
 25 20  1  0
M  END
>  <pair>  (68) 
x1140_0A-x1604_0A

>  <sucos>  (68) 
0.5753452347058647

>  <ref_mols>  (68) 
x1140_0A,x1604_0A

>  <original SMILES>  (68) 
O=C(NCc1ccc2c(c1)OCO2)NCC1CC(=O)c2ccccc2O1

>  <cmpd_ids>  (68) 
ENAMINE:Z2763013502

>  <ref_url>  (68) 
https://github.com/stephwills/fragment_network_merges

>  <submitter_name>  (68) 
Steph Wills

>  <submitter_institution>  (68) 
University of Oxford

>  <submitter_email>  (68) 
stephanie.wills@balliol.ox.ac.uk

>  <generation_date>  (68) 
2023-09-06

>  <method>  (68) 
fragNetMergingIt3

>  <ref_pdb>  (68) 
x1140_0A,x1604_0A

$$$$
x1052-1A-x1604-0A-19
     RDKit          3D

 23 25  0  0  0  0  0  0  0  0999 V2000
   -6.6030   -3.3330   -1.2490 C   0  0  0  0  0  0  0  0  0  0  0  0
   -6.5980   -4.7990   -1.4390 C   0  0  0  0  0  0  0  0  0  0  0  0
   -6.1750   -5.5210   -2.5640 C   0  0  0  0  0  0  0  0  0  0  0  0
   -6.4070   -6.8310   -2.2500 C   0  0  0  0  0  0  0  0  0  0  0  0
   -6.2220   -8.0410   -3.0080 C   0  0  0  0  0  0  0  0  0  0  0  0
   -6.1840   -9.1630   -2.4960 O   0  0  0  0  0  0  0  0  0  0  0  0
   -6.0870   -7.8480   -4.5380 C   0  0  0  0  0  0  0  0  0  0  0  0
   -6.8560   -6.7650   -5.1450 O   0  0  0  0  0  0  0  0  0  0  0  0
   -7.4610   -6.9890   -6.3790 C   0  0  0  0  0  0  0  0  0  0  0  0
   -7.4360   -8.0250   -7.0210 O   0  0  0  0  0  0  0  0  0  0  0  0
   -8.2330   -5.7860   -6.8310 C   0  0  0  0  0  0  0  0  0  0  0  0
   -7.7780   -4.6500   -7.5510 C   0  0  0  0  0  0  0  0  0  0  0  0
   -8.6810   -3.6070   -7.8470 C   0  0  0  0  0  0  0  0  0  0  0  0
  -10.0100   -3.7020   -7.4330 C   0  0  0  0  0  0  0  0  0  0  0  0
  -10.4240   -4.8330   -6.7530 C   0  0  0  0  0  0  0  0  0  0  0  0
   -9.5550   -5.8550   -6.4560 C   0  0  0  0  0  0  0  0  0  0  0  0
  -11.8200   -4.9550   -6.3260 C   0  0  0  0  0  0  0  0  0  0  0  0
  -12.2490   -6.0320   -5.9260 O   0  0  0  0  0  0  0  0  0  0  0  0
  -12.6670   -3.7150   -6.3970 C   0  0  0  0  0  0  0  0  0  0  0  0
  -11.7750   -2.5020   -6.5980 C   0  0  0  0  0  0  0  0  0  0  0  0
  -10.8760   -2.6810   -7.7010 O   0  0  0  0  0  0  0  0  0  0  0  0
   -6.9200   -6.8980   -0.9830 O   0  0  0  0  0  0  0  0  0  0  0  0
   -7.0430   -5.6160   -0.4800 N   0  0  0  0  0  0  0  0  0  0  0  0
  1  2  1  0
  2  3  1  0
  3  4  2  0
  4  5  1  0
  5  6  2  0
  5  7  1  0
  7  8  1  0
  8  9  1  0
  9 10  2  0
  9 11  1  0
 11 12  2  0
 12 13  1  0
 13 14  2  0
 14 15  1  0
 15 16  2  0
 15 17  1  0
 17 18  2  0
 17 19  1  0
 19 20  1  0
 20 21  1  0
  4 22  1  0
 22 23  1  0
 23  2  2  0
 16 11  1  0
 21 14  1  0
M  END
>  <pair>  (69) 
x1052_1A-x1604_0A

>  <sucos>  (69) 
0.4027146114117

>  <ref_mols>  (69) 
x1052_1A,x1604_0A

>  <original SMILES>  (69) 
Cc1cc(C(=O)COC(=O)c2ccc3c(c2)C(=O)CCO3)on1

>  <cmpd_ids>  (69) 
ENAMINE:Z3579877939

>  <ref_url>  (69) 
https://github.com/stephwills/fragment_network_merges

>  <submitter_name>  (69) 
Steph Wills

>  <submitter_institution>  (69) 
University of Oxford

>  <submitter_email>  (69) 
stephanie.wills@balliol.ox.ac.uk

>  <generation_date>  (69) 
2023-09-06

>  <method>  (69) 
fragNetMergingIt3

>  <ref_pdb>  (69) 
x1052_1A,x1604_0A

$$$$
x1594-0A-x1052-1A-48
     RDKit          3D

 22 24  0  0  0  0  0  0  0  0999 V2000
  -11.5640   -1.9330   -6.4510 C   0  0  0  0  0  0  0  0  0  0  0  0
  -10.5440   -2.9890   -6.7350 C   0  0  0  0  0  0  0  0  0  0  0  0
  -10.7320   -4.2790   -6.0130 C   0  0  0  0  0  0  0  0  0  0  0  0
   -9.6740   -5.3120   -6.3230 C   0  0  0  0  0  0  0  0  0  0  0  0
   -8.6450   -5.0390   -7.2040 N   0  0  0  0  0  0  0  0  0  0  0  0
   -7.5810   -5.7860   -7.6460 C   0  0  0  0  0  0  0  0  0  0  0  0
   -7.2340   -7.1450   -7.2900 C   0  0  0  0  0  0  0  0  0  0  0  0
   -6.8660   -7.9740   -8.1150 O   0  0  0  0  0  0  0  0  0  0  0  0
   -7.3560   -7.4560   -5.9400 N   0  0  0  0  0  0  0  0  0  0  0  0
   -6.3250   -7.0740   -4.9930 C   0  0  0  0  0  0  0  0  0  0  0  0
   -6.0990   -7.9700   -3.8450 C   0  0  2  0  0  0  0  0  0  0  0  0
   -6.7060   -9.1620   -3.7740 C   0  0  0  0  0  0  0  0  0  0  0  0
   -6.3640   -7.1120   -2.6310 C   0  0  0  0  0  0  0  0  0  0  0  0
   -5.3820   -6.3230   -2.0890 C   0  0  0  0  0  0  0  0  0  0  0  0
   -5.7280   -5.5670   -1.0060 C   0  0  0  0  0  0  0  0  0  0  0  0
   -7.0190   -5.6170   -0.5080 C   0  0  0  0  0  0  0  0  0  0  0  0
   -7.9120   -6.4320   -1.0950 C   0  0  0  0  0  0  0  0  0  0  0  0
   -7.6150   -7.1730   -2.1370 N   0  0  0  0  0  0  0  0  0  0  0  0
   -6.8750   -5.0650   -8.4970 N   0  0  0  0  0  0  0  0  0  0  0  0
   -7.4720   -3.8320   -8.6230 N   0  0  0  0  0  0  0  0  0  0  0  0
   -8.5310   -3.8150   -7.8480 C   0  0  0  0  0  0  0  0  0  0  0  0
   -9.5080   -2.7960   -7.5930 C   0  0  0  0  0  0  0  0  0  0  0  0
  1  2  1  0
  2  3  1  0
  3  4  2  0
  4  5  1  0
  5  6  1  0
  6  7  1  0
  7  8  2  0
  7  9  1  0
  9 10  1  0
 10 11  1  0
 11 12  1  6
 11 13  1  0
 13 14  2  0
 14 15  1  0
 15 16  2  0
 16 17  1  0
 17 18  2  0
  6 19  2  0
 19 20  1  0
 20 21  2  0
 21 22  1  0
 22  2  2  0
 21  5  1  0
 18 13  1  0
M  END
>  <pair>  (70) 
x1594_0A-x1052_1A

>  <sucos>  (70) 
0.4066971178262585

>  <ref_mols>  (70) 
x1594_0A,x1052_1A

>  <original SMILES>  (70) 
Cc1ccn2c(C(=O)NCC(C)c3ccccn3)nnc2c1

>  <cmpd_ids>  (70) 
ENAMINE:Z4292621273

>  <ref_url>  (70) 
https://github.com/stephwills/fragment_network_merges

>  <submitter_name>  (70) 
Steph Wills

>  <submitter_institution>  (70) 
University of Oxford

>  <submitter_email>  (70) 
stephanie.wills@balliol.ox.ac.uk

>  <generation_date>  (70) 
2023-09-06

>  <method>  (70) 
fragNetMergingIt3

>  <ref_pdb>  (70) 
x1594_0A,x1052_1A

$$$$
x0147-0A-x1052-1A-40
     RDKit          3D

 19 21  0  0  0  0  0  0  0  0999 V2000
   -8.8230   -7.0800   -3.5750 O   0  0  0  0  0  0  0  0  0  0  0  0
   -7.4480   -7.4130   -3.8050 C   0  0  1  0  0  0  0  0  0  0  0  0
   -6.9360   -6.7210   -5.0750 C   0  0  0  0  0  0  0  0  0  0  0  0
   -7.8240   -6.8800   -6.2280 N   0  0  0  0  0  0  0  0  0  0  0  0
   -7.8740   -5.8490   -7.0800 C   0  0  0  0  0  0  0  0  0  0  0  0
   -6.9730   -5.8000   -7.9980 N   0  0  0  0  0  0  0  0  0  0  0  0
   -6.9550   -4.7070   -8.7910 C   0  0  0  0  0  0  0  0  0  0  0  0
   -7.7820   -3.6850   -8.6790 C   0  0  0  0  0  0  0  0  0  0  0  0
   -8.7660   -3.7390   -7.7650 N   0  0  0  0  0  0  0  0  0  0  0  0
   -9.7860   -2.9060   -7.4500 C   0  0  0  0  0  0  0  0  0  0  0  0
  -10.4900   -3.4340   -6.4750 N   0  0  0  0  0  0  0  0  0  0  0  0
   -9.9010   -4.6520   -6.1500 N   0  0  0  0  0  0  0  0  0  0  0  0
   -8.8600   -4.7960   -6.9520 C   0  0  0  0  0  0  0  0  0  0  0  0
   -6.6160   -7.0340   -2.6040 C   0  0  0  0  0  0  0  0  0  0  0  0
   -5.5050   -7.8020   -2.2630 C   0  0  0  0  0  0  0  0  0  0  0  0
   -4.7550   -7.4660   -1.1680 C   0  0  0  0  0  0  0  0  0  0  0  0
   -5.1470   -6.3690   -0.4510 C   0  0  0  0  0  0  0  0  0  0  0  0
   -6.2130   -5.5820   -0.7320 N   0  0  0  0  0  0  0  0  0  0  0  0
   -6.9240   -5.9320   -1.8070 C   0  0  0  0  0  0  0  0  0  0  0  0
  2  1  1  1
  2  3  1  0
  3  4  1  0
  4  5  1  0
  5  6  2  0
  6  7  1  0
  7  8  2  0
  8  9  1  0
  9 10  1  0
 10 11  2  0
 11 12  1  0
 12 13  2  0
  2 14  1  0
 14 15  2  0
 15 16  1  0
 16 17  2  0
 17 18  1  0
 18 19  2  0
 13  5  1  0
 19 14  1  0
 13  9  1  0
M  END
>  <pair>  (71) 
x0147_0A-x1052_1A

>  <sucos>  (71) 
0.4083630082296584

>  <ref_mols>  (71) 
x0147_0A,x1052_1A

>  <original SMILES>  (71) 
OC(CNc1nccn2cnnc12)c1cccnc1

>  <cmpd_ids>  (71) 
ENAMINE:Z1470706860

>  <ref_url>  (71) 
https://github.com/stephwills/fragment_network_merges

>  <submitter_name>  (71) 
Steph Wills

>  <submitter_institution>  (71) 
University of Oxford

>  <submitter_email>  (71) 
stephanie.wills@balliol.ox.ac.uk

>  <generation_date>  (71) 
2023-09-06

>  <method>  (71) 
fragNetMergingIt3

>  <ref_pdb>  (71) 
x0147_0A,x1052_1A

$$$$
x1594-0A-x1919-0A-83
     RDKit          3D

 23 24  0  0  0  0  0  0  0  0999 V2000
   -5.5910   -7.1980   -3.6220 C   0  0  0  0  0  0  0  0  0  0  0  0
   -6.5390   -6.1740   -4.0720 N   0  0  0  0  0  0  0  0  0  0  0  0
   -7.3290   -6.5720   -5.3210 C   0  0  0  0  0  0  0  0  0  0  0  0
   -7.5880   -5.5510   -6.4370 C   0  0  0  0  0  0  0  0  0  0  0  0
   -6.8660   -5.2290   -7.5260 N   0  0  0  0  0  0  0  0  0  0  0  0
   -7.5160   -4.2210   -8.2170 N   0  0  0  0  0  0  0  0  0  0  0  0
   -8.6220   -3.9530   -7.5520 C   0  0  0  0  0  0  0  0  0  0  0  0
   -9.6830   -3.0220   -7.7330 C   0  0  0  0  0  0  0  0  0  0  0  0
  -10.7190   -2.9970   -6.8810 C   0  0  0  0  0  0  0  0  0  0  0  0
  -10.7850   -3.9020   -5.7580 C   0  0  0  0  0  0  0  0  0  0  0  0
   -9.7810   -4.7620   -5.5640 C   0  0  0  0  0  0  0  0  0  0  0  0
   -8.7130   -4.7830   -6.4460 N   0  0  0  0  0  0  0  0  0  0  0  0
   -6.6930   -4.9670   -3.3020 C   0  0  0  0  0  0  0  0  0  0  0  0
   -6.5950   -3.8670   -3.8210 O   0  0  0  0  0  0  0  0  0  0  0  0
   -6.9390   -5.0600   -1.7450 C   0  0  0  0  0  0  0  0  0  0  0  0
   -6.5790   -3.9150   -0.9060 O   0  0  0  0  0  0  0  0  0  0  0  0
   -6.7700   -2.5610   -1.4170 C   0  0  0  0  0  0  0  0  0  0  0  0
   -8.0740   -2.7120   -2.2140 C   0  0  0  0  0  0  0  0  0  0  0  0
   -5.5580   -2.2030   -2.3070 C   0  0  0  0  0  0  0  0  0  0  0  0
   -7.0410   -1.3990   -0.4100 C   0  0  0  0  0  0  0  0  0  0  0  0
   -8.1710   -0.7170   -0.7210 F   0  0  0  0  0  0  0  0  0  0  0  0
   -7.2030   -1.8440    0.8550 F   0  0  0  0  0  0  0  0  0  0  0  0
   -6.0390   -0.4820   -0.4020 F   0  0  0  0  0  0  0  0  0  0  0  0
  1  2  1  0
  2  3  1  0
  3  4  1  0
  4  5  2  0
  5  6  1  0
  6  7  2  0
  7  8  1  0
  8  9  2  0
  9 10  1  0
 10 11  2  0
 11 12  1  0
  2 13  1  0
 13 14  2  0
 13 15  1  0
 15 16  1  0
 16 17  1  0
 17 18  1  0
 17 19  1  0
 17 20  1  0
 20 21  1  0
 20 22  1  0
 20 23  1  0
 12  4  1  0
 12  7  1  0
M  END
>  <pair>  (72) 
x1594_0A-x1919_0A

>  <sucos>  (72) 
0.40903596953419064

>  <ref_mols>  (72) 
x1594_0A,x1919_0A

>  <original SMILES>  (72) 
CN(Cc1nnc2ccccn12)C(=O)COC(C)(C)C(F)(F)F

>  <cmpd_ids>  (72) 
ENAMINE:Z1926811196

>  <ref_url>  (72) 
https://github.com/stephwills/fragment_network_merges

>  <submitter_name>  (72) 
Steph Wills

>  <submitter_institution>  (72) 
University of Oxford

>  <submitter_email>  (72) 
stephanie.wills@balliol.ox.ac.uk

>  <generation_date>  (72) 
2023-09-06

>  <method>  (72) 
fragNetMergingIt3

>  <ref_pdb>  (72) 
x1594_0A,x1919_0A

$$$$
x1140-0A-x1020-0A-37
     RDKit          3D

 19 20  0  0  0  0  0  0  0  0999 V2000
   -3.1650  -14.0190    2.6870 C   0  0  0  0  0  0  0  0  0  0  0  0
   -4.0660  -13.0890    3.4720 C   0  0  0  0  0  0  0  0  0  0  0  0
   -5.8020  -13.6590    3.4830 S   0  0  0  0  0  0  0  0  0  0  0  0
   -6.6950  -12.1220    2.9670 C   0  0  2  0  0  0  0  0  0  0  0  0
   -5.8320  -10.9370    3.4500 C   0  0  0  0  0  0  0  0  0  0  0  0
   -5.0970  -11.0780    4.4300 O   0  0  0  0  0  0  0  0  0  0  0  0
   -5.9860   -9.7400    2.7150 N   0  0  0  0  0  0  0  0  0  0  0  0
   -5.5540   -9.3030    1.4000 C   0  0  0  0  0  0  0  0  0  0  0  0
   -6.3080   -9.4660    0.2180 C   0  0  0  0  0  0  0  0  0  0  0  0
   -5.8530   -9.0130   -1.0200 C   0  0  0  0  0  0  0  0  0  0  0  0
   -4.6320   -8.3790   -1.1210 C   0  0  0  0  0  0  0  0  0  0  0  0
   -3.8910   -8.2150    0.0130 C   0  0  0  0  0  0  0  0  0  0  0  0
   -4.3120   -8.6490    1.2260 C   0  0  0  0  0  0  0  0  0  0  0  0
   -3.3810   -8.3570    2.1860 O   0  0  0  0  0  0  0  0  0  0  0  0
   -2.3090   -7.7960    1.4210 C   0  0  0  0  0  0  0  0  0  0  0  0
   -2.6830   -7.6170    0.0620 O   0  0  0  0  0  0  0  0  0  0  0  0
   -8.1370  -12.0610    3.5520 C   0  0  0  0  0  0  0  0  0  0  0  0
   -8.3070  -10.9480    4.5960 C   0  0  0  0  0  0  0  0  0  0  0  0
   -8.5060  -13.4020    4.2060 C   0  0  0  0  0  0  0  0  0  0  0  0
  1  2  1  0
  2  3  1  0
  4  3  1  1
  4  5  1  0
  5  6  2  0
  5  7  1  0
  7  8  1  0
  8  9  2  0
  9 10  1  0
 10 11  2  0
 11 12  1  0
 12 13  2  0
 13 14  1  0
 14 15  1  0
 15 16  1  0
  4 17  1  0
 17 18  1  0
 17 19  1  0
 13  8  1  0
 16 12  1  0
M  END
>  <pair>  (73) 
x1140_0A-x1020_0A

>  <sucos>  (73) 
0.42040218716160727

>  <ref_mols>  (73) 
x1140_0A,x1020_0A

>  <original SMILES>  (73) 
CCSC(C(=O)Nc1cccc2c1OCO2)C(C)C

>  <cmpd_ids>  (73) 
ENAMINE:Z1643313166

>  <ref_url>  (73) 
https://github.com/stephwills/fragment_network_merges

>  <submitter_name>  (73) 
Steph Wills

>  <submitter_institution>  (73) 
University of Oxford

>  <submitter_email>  (73) 
stephanie.wills@balliol.ox.ac.uk

>  <generation_date>  (73) 
2023-09-06

>  <method>  (73) 
fragNetMergingIt3

>  <ref_pdb>  (73) 
x1140_0A,x1020_0A

$$$$
x1594-0A-x2021-0A-151
     RDKit          3D

 23 24  0  0  0  0  0  0  0  0999 V2000
   -5.6990   -0.8300   -0.5520 C   0  0  0  0  0  0  0  0  0  0  0  0
   -5.8950   -2.2470   -0.4840 O   0  0  0  0  0  0  0  0  0  0  0  0
   -6.2670   -2.7930   -1.6730 C   0  0  0  0  0  0  0  0  0  0  0  0
   -5.8120   -4.2290   -1.8110 C   0  0  0  0  0  0  0  0  0  0  0  0
   -6.8780   -5.1700   -1.9620 O   0  0  0  0  0  0  0  0  0  0  0  0
   -6.9480   -5.7360   -3.2740 C   0  0  0  0  0  0  0  0  0  0  0  0
   -6.9600   -7.2810   -3.1760 C   0  0  0  0  0  0  0  0  0  0  0  0
   -6.1500   -7.9760   -4.1310 O   0  0  0  0  0  0  0  0  0  0  0  0
   -6.7390   -9.1970   -4.5960 C   0  0  0  0  0  0  0  0  0  0  0  0
   -7.8760   -9.1630   -5.5770 C   0  0  0  0  0  0  0  0  0  0  0  0
   -7.7710   -8.1170   -6.5800 N   0  0  0  0  0  0  0  0  0  0  0  0
   -7.2300   -6.9000   -6.2630 C   0  0  0  0  0  0  0  0  0  0  0  0
   -6.4230   -6.8110   -5.3570 O   0  0  0  0  0  0  0  0  0  0  0  0
   -7.6150   -5.8180   -6.9820 C   0  0  0  0  0  0  0  0  0  0  0  0
   -6.9360   -5.3450   -8.0000 N   0  0  0  0  0  0  0  0  0  0  0  0
   -7.5980   -4.2400   -8.4560 N   0  0  0  0  0  0  0  0  0  0  0  0
   -8.6560   -4.0420   -7.7280 C   0  0  0  0  0  0  0  0  0  0  0  0
   -9.6800   -3.0490   -7.7320 C   0  0  0  0  0  0  0  0  0  0  0  0
  -10.6770   -3.1170   -6.8420 C   0  0  0  0  0  0  0  0  0  0  0  0
  -10.7370   -4.1920   -5.8640 C   0  0  0  0  0  0  0  0  0  0  0  0
  -12.1640   -4.2240   -4.6720 Br  0  0  0  0  0  0  0  0  0  0  0  0
   -9.7630   -5.1170   -5.8530 C   0  0  0  0  0  0  0  0  0  0  0  0
   -8.7300   -5.0360   -6.7780 N   0  0  0  0  0  0  0  0  0  0  0  0
  1  2  1  0
  2  3  1  0
  3  4  1  0
  4  5  1  0
  5  6  1  0
  6  7  1  0
  7  8  1  0
  8  9  1  0
  9 10  1  0
 10 11  1  0
 11 12  1  0
 12 13  2  0
 12 14  1  0
 14 15  2  0
 15 16  1  0
 16 17  2  0
 17 18  1  0
 18 19  2  0
 19 20  1  0
 20 21  1  0
 20 22  2  0
 22 23  1  0
 23 14  1  0
 23 17  1  0
M  END
>  <pair>  (74) 
x1594_0A-x2021_0A

>  <sucos>  (74) 
0.42979792098019187

>  <ref_mols>  (74) 
x1594_0A,x2021_0A

>  <original SMILES>  (74) 
COCCOCCOCCNC(=O)c1nnc2ccc(Br)cn12

>  <cmpd_ids>  (74) 
ENAMINE:Z4218148869

>  <ref_url>  (74) 
https://github.com/stephwills/fragment_network_merges

>  <submitter_name>  (74) 
Steph Wills

>  <submitter_institution>  (74) 
University of Oxford

>  <submitter_email>  (74) 
stephanie.wills@balliol.ox.ac.uk

>  <generation_date>  (74) 
2023-09-06

>  <method>  (74) 
fragNetMergingIt3

>  <ref_pdb>  (74) 
x1594_0A,x2021_0A

$$$$
x1594-0A-x2021-0A-172
     RDKit          3D

 23 24  0  0  0  0  0  0  0  0999 V2000
   -5.7880   -0.9670   -0.5180 C   0  0  0  0  0  0  0  0  0  0  0  0
   -5.9840   -2.3840   -0.4100 O   0  0  0  0  0  0  0  0  0  0  0  0
   -5.7080   -3.0480   -1.5690 C   0  0  0  0  0  0  0  0  0  0  0  0
   -5.1660   -2.5400   -2.5390 O   0  0  0  0  0  0  0  0  0  0  0  0
   -6.1320   -4.5100   -1.5290 C   0  0  0  0  0  0  0  0  0  0  0  0
   -6.6030   -4.9830   -2.9100 C   0  0  1  0  0  0  0  0  0  0  0  0
   -6.6660   -6.4770   -3.2240 C   0  0  0  0  0  0  0  0  0  0  0  0
   -7.6760   -6.7220   -4.3110 N   0  0  0  0  0  0  0  0  0  0  0  0
   -7.4060   -6.9330   -5.6960 C   0  0  0  0  0  0  0  0  0  0  0  0
   -7.0180   -8.0020   -6.0760 O   0  0  0  0  0  0  0  0  0  0  0  0
   -7.6500   -5.7750   -6.6830 C   0  0  0  0  0  0  0  0  0  0  0  0
   -6.8330   -5.3490   -7.6610 N   0  0  0  0  0  0  0  0  0  0  0  0
   -7.4100   -4.2490   -8.2820 N   0  0  0  0  0  0  0  0  0  0  0  0
   -8.5620   -4.0240   -7.6820 C   0  0  0  0  0  0  0  0  0  0  0  0
   -9.5170   -3.0790   -7.8360 C   0  0  0  0  0  0  0  0  0  0  0  0
  -10.6860   -3.1020   -7.0420 C   0  0  0  0  0  0  0  0  0  0  0  0
  -10.8780   -4.1390   -6.0520 C   0  0  0  0  0  0  0  0  0  0  0  0
  -12.1240   -4.1370   -5.2580 C   0  0  0  0  0  0  0  0  0  0  0  0
   -9.9100   -5.0450   -5.9070 C   0  0  0  0  0  0  0  0  0  0  0  0
   -8.7680   -4.9820   -6.6980 N   0  0  0  0  0  0  0  0  0  0  0  0
   -7.9930   -4.5220   -3.1740 C   0  0  0  0  0  0  0  0  0  0  0  0
   -8.1630   -4.4250   -4.6630 C   0  0  0  0  0  0  0  0  0  0  0  0
   -9.0890   -5.4340   -2.6210 C   0  0  0  0  0  0  0  0  0  0  0  0
  1  2  1  0
  2  3  1  0
  3  4  2  0
  3  5  1  0
  6  5  1  1
  6  7  1  0
  7  8  1  0
  8  9  1  0
  9 10  2  0
  9 11  1  0
 11 12  2  0
 12 13  1  0
 13 14  2  0
 14 15  1  0
 15 16  2  0
 16 17  1  0
 17 18  1  0
 17 19  2  0
 19 20  1  0
  6 21  1  0
 21 22  1  0
 21 23  1  0
 20 11  1  0
 20 14  1  0
M  END
>  <pair>  (75) 
x1594_0A-x2021_0A

>  <sucos>  (75) 
0.4385863136458659

>  <ref_mols>  (75) 
x1594_0A,x2021_0A

>  <original SMILES>  (75) 
COC(=O)CC(CNC(=O)c1nnc2ccc(C)cn12)C(C)C

>  <cmpd_ids>  (75) 
ENAMINE:Z4296231229

>  <ref_url>  (75) 
https://github.com/stephwills/fragment_network_merges

>  <submitter_name>  (75) 
Steph Wills

>  <submitter_institution>  (75) 
University of Oxford

>  <submitter_email>  (75) 
stephanie.wills@balliol.ox.ac.uk

>  <generation_date>  (75) 
2023-09-06

>  <method>  (75) 
fragNetMergingIt3

>  <ref_pdb>  (75) 
x1594_0A,x2021_0A

$$$$
x0147-0A-x1052-1A-78
     RDKit          3D

 22 24  0  0  0  0  0  0  0  0999 V2000
   -5.8960   -6.7690   -9.0160 O   0  0  0  0  0  0  0  0  0  0  0  0
   -6.5520   -6.8600   -8.0060 C   0  0  0  0  0  0  0  0  0  0  0  0
   -6.4220   -7.8550   -7.0460 N   0  0  0  0  0  0  0  0  0  0  0  0
   -5.5500   -7.7540   -5.8930 C   0  0  0  0  0  0  0  0  0  0  0  0
   -5.2540   -9.0860   -5.1930 C   0  0  0  0  0  0  0  0  0  0  0  0
   -5.7150   -9.1990   -3.7330 C   0  0  0  0  0  0  0  0  0  0  0  0
   -4.8570   -8.4770   -2.6780 C   0  0  0  0  0  0  0  0  0  0  0  0
   -5.5870   -7.4690   -1.9400 C   0  0  0  0  0  0  0  0  0  0  0  0
   -6.3780   -7.8160   -0.8610 C   0  0  0  0  0  0  0  0  0  0  0  0
   -7.1480   -6.6990   -0.1290 C   0  0  0  0  0  0  0  0  0  0  0  0
   -7.0590   -5.4130   -0.5200 N   0  0  0  0  0  0  0  0  0  0  0  0
   -6.2540   -5.1580   -1.5790 C   0  0  0  0  0  0  0  0  0  0  0  0
   -5.5260   -6.1160   -2.2950 C   0  0  0  0  0  0  0  0  0  0  0  0
   -7.6510   -5.9300   -7.6450 C   0  0  0  0  0  0  0  0  0  0  0  0
   -7.7300   -4.6340   -8.1090 C   0  0  0  0  0  0  0  0  0  0  0  0
   -8.8350   -3.9440   -7.6570 N   0  0  0  0  0  0  0  0  0  0  0  0
   -9.3360   -2.6910   -7.8270 C   0  0  0  0  0  0  0  0  0  0  0  0
  -10.4580   -2.5640   -7.1440 N   0  0  0  0  0  0  0  0  0  0  0  0
  -10.7080   -3.7560   -6.5080 N   0  0  0  0  0  0  0  0  0  0  0  0
   -9.7350   -4.5530   -6.8250 C   0  0  0  0  0  0  0  0  0  0  0  0
   -9.5830   -5.8050   -6.4260 C   0  0  0  0  0  0  0  0  0  0  0  0
   -8.5840   -6.5190   -6.7970 N   0  0  0  0  0  0  0  0  0  0  0  0
  1  2  2  0
  2  3  1  0
  3  4  1  0
  4  5  1  0
  5  6  1  0
  6  7  1  0
  7  8  1  0
  8  9  2  0
  9 10  1  0
 10 11  2  0
 11 12  1  0
 12 13  2  0
  2 14  1  0
 14 15  2  0
 15 16  1  0
 16 17  1  0
 17 18  2  0
 18 19  1  0
 19 20  2  0
 20 21  1  0
 21 22  2  0
 13  8  1  0
 22 14  1  0
 20 16  1  0
M  END
>  <pair>  (76) 
x0147_0A-x1052_1A

>  <sucos>  (76) 
0.4668134141388487

>  <ref_mols>  (76) 
x0147_0A,x1052_1A

>  <original SMILES>  (76) 
O=C(NCCCCc1ccncc1)c1cn2cnnc2cn1

>  <cmpd_ids>  (76) 
ENAMINE:Z4227276901

>  <ref_url>  (76) 
https://github.com/stephwills/fragment_network_merges

>  <submitter_name>  (76) 
Steph Wills

>  <submitter_institution>  (76) 
University of Oxford

>  <submitter_email>  (76) 
stephanie.wills@balliol.ox.ac.uk

>  <generation_date>  (76) 
2023-09-06

>  <method>  (76) 
fragNetMergingIt3

>  <ref_pdb>  (76) 
x0147_0A,x1052_1A

$$$$
x1071-0A-x1498-0A-81
     RDKit          3D

 24 26  0  0  0  0  0  0  0  0999 V2000
   -7.5560    0.4210   -0.8110 C   0  0  0  0  0  0  0  0  0  0  0  0
   -6.3280   -0.8570   -1.0020 S   0  0  0  0  0  6  0  0  0  0  0  0
   -5.2610   -0.3070   -1.8070 O   0  0  0  0  0  0  0  0  0  0  0  0
   -6.1080   -1.4560    0.2990 O   0  0  0  0  0  0  0  0  0  0  0  0
   -7.1350   -1.9670   -1.9530 N   0  0  0  0  0  0  0  0  0  0  0  0
   -6.8790   -3.4110   -1.8780 C   0  0  0  0  0  0  0  0  0  0  0  0
   -7.5510   -4.0690   -3.0700 C   0  0  0  0  0  0  0  0  0  0  0  0
   -6.8740   -4.3980   -4.0420 O   0  0  0  0  0  0  0  0  0  0  0  0
   -8.9300   -4.2580   -3.0300 N   0  0  0  0  0  0  0  0  0  0  0  0
   -9.5650   -5.4940   -3.4810 C   0  0  0  0  0  0  0  0  0  0  0  0
  -10.2670   -4.9900   -4.7250 C   0  0  1  0  0  0  0  0  0  0  0  0
  -11.7080   -4.6120   -4.4210 C   0  0  0  0  0  0  0  0  0  0  0  0
  -10.6000   -3.5480   -4.5160 C   0  0  2  0  0  0  0  0  0  0  0  0
  -10.7600   -2.4940   -5.6620 C   0  0  0  0  0  0  0  0  0  0  0  0
  -10.3850   -2.9280   -7.0210 N   0  0  0  0  0  0  0  0  0  0  0  0
   -9.2460   -2.4820   -7.7220 C   0  0  0  0  0  0  0  0  0  0  0  0
   -9.0550   -1.2940   -7.9950 O   0  0  0  0  0  0  0  0  0  0  0  0
   -8.2810   -3.5440   -8.1210 C   0  0  0  0  0  0  0  0  0  0  0  0
   -8.4350   -4.7870   -7.6620 C   0  0  0  0  0  0  0  0  0  0  0  0
   -7.5080   -5.7490   -7.2380 C   0  0  0  0  0  0  0  0  0  0  0  0
   -8.2900   -6.7970   -6.8790 C   0  0  0  0  0  0  0  0  0  0  0  0
   -9.5900   -6.4680   -7.0850 O   0  0  0  0  0  0  0  0  0  0  0  0
   -9.6780   -5.1980   -7.5840 N   0  0  0  0  0  0  0  0  0  0  0  0
   -9.9140   -3.1670   -3.2130 C   0  0  0  0  0  0  0  0  0  0  0  0
  1  2  1  0
  2  3  2  0
  2  4  2  0
  2  5  1  0
  5  6  1  0
  6  7  1  0
  7  8  2  0
  7  9  1  0
  9 10  1  0
 11 10  1  1
 11 12  1  0
 12 13  1  0
 13 14  1  6
 14 15  1  0
 15 16  1  0
 16 17  2  0
 16 18  1  0
 18 19  1  0
 19 20  1  0
 20 21  2  0
 21 22  1  0
 22 23  1  0
 13 24  1  0
 24  9  1  0
 13 11  1  0
 23 19  2  0
M  END
>  <pair>  (77) 
x1071_0A-x1498_0A

>  <sucos>  (77) 
0.4847384108551795

>  <ref_mols>  (77) 
x1071_0A,x1498_0A

>  <original SMILES>  (77) 
CS(=O)(=O)NCC(=O)N1CC2CC2(CNC(=O)Cc2ccon2)C1

>  <cmpd_ids>  (77) 
ENAMINE:PV-003119915827

>  <ref_url>  (77) 
https://github.com/stephwills/fragment_network_merges

>  <submitter_name>  (77) 
Steph Wills

>  <submitter_institution>  (77) 
University of Oxford

>  <submitter_email>  (77) 
stephanie.wills@balliol.ox.ac.uk

>  <generation_date>  (77) 
2023-09-06

>  <method>  (77) 
fragNetMergingIt3

>  <ref_pdb>  (77) 
x1071_0A,x1498_0A

$$$$
x1594-0A-x1052-1A-6
     RDKit          3D

 25 27  0  0  0  0  0  0  0  0999 V2000
  -11.0290   -1.7530   -3.8420 C   0  0  0  0  0  0  0  0  0  0  0  0
  -11.6830   -2.9360   -3.1330 C   0  0  0  0  0  0  0  0  0  0  0  0
  -11.0460   -4.2160   -3.4690 N   0  0  0  0  0  0  0  0  0  0  0  0
   -9.9060   -4.6260   -2.6100 C   0  0  0  0  0  0  0  0  0  0  0  0
  -10.2340   -5.7590   -1.6060 C   0  0  0  0  0  0  0  0  0  0  0  0
   -9.7350   -5.5210   -0.2520 N   0  0  0  0  0  0  0  0  0  0  0  0
   -8.7640   -6.3460    0.3260 C   0  0  0  0  0  0  0  0  0  0  0  0
   -8.9490   -6.9630    1.3680 O   0  0  0  0  0  0  0  0  0  0  0  0
   -7.4680   -6.4210   -0.4200 C   0  0  0  0  0  0  0  0  0  0  0  0
   -6.6870   -7.5690   -0.4270 C   0  0  0  0  0  0  0  0  0  0  0  0
   -5.5070   -7.5400   -1.1630 C   0  0  0  0  0  0  0  0  0  0  0  0
   -5.1600   -6.3850   -1.8510 C   0  0  0  0  0  0  0  0  0  0  0  0
   -6.0090   -5.2920   -1.7730 C   0  0  0  0  0  0  0  0  0  0  0  0
   -7.1480   -5.2870   -1.0730 N   0  0  0  0  0  0  0  0  0  0  0  0
  -11.3040   -4.6940   -4.7620 C   0  0  0  0  0  0  0  0  0  0  0  0
  -12.2810   -5.3970   -5.0290 O   0  0  0  0  0  0  0  0  0  0  0  0
  -10.3650   -4.3450   -5.8700 C   0  0  0  0  0  0  0  0  0  0  0  0
  -10.4360   -3.1040   -6.6420 C   0  0  0  0  0  0  0  0  0  0  0  0
   -9.5440   -2.8350   -7.6170 C   0  0  0  0  0  0  0  0  0  0  0  0
   -8.5150   -3.7750   -7.9030 C   0  0  0  0  0  0  0  0  0  0  0  0
   -7.5230   -3.7920   -8.7630 N   0  0  0  0  0  0  0  0  0  0  0  0
   -6.8310   -4.9700   -8.6000 N   0  0  0  0  0  0  0  0  0  0  0  0
   -7.4170   -5.6440   -7.6400 C   0  0  0  0  0  0  0  0  0  0  0  0
   -8.4870   -4.9400   -7.1600 N   0  0  0  0  0  0  0  0  0  0  0  0
   -9.3960   -5.2370   -6.1550 C   0  0  0  0  0  0  0  0  0  0  0  0
  1  2  1  0
  2  3  1  0
  3  4  1  0
  4  5  1  0
  5  6  1  0
  6  7  1  0
  7  8  2  0
  7  9  1  0
  9 10  2  0
 10 11  1  0
 11 12  2  0
 12 13  1  0
 13 14  2  0
  3 15  1  0
 15 16  2  0
 15 17  1  0
 17 18  1  0
 18 19  2  0
 19 20  1  0
 20 21  2  0
 21 22  1  0
 22 23  2  0
 23 24  1  0
 24 25  1  0
 14  9  1  0
 25 17  2  0
 24 20  1  0
M  END
>  <pair>  (78) 
x1594_0A-x1052_1A

>  <sucos>  (78) 
0.5089930543134623

>  <ref_mols>  (78) 
x1594_0A,x1052_1A

>  <original SMILES>  (78) 
CCN(CCNC(=O)c1ccccn1)C(=O)c1ccc2nncn2c1

>  <cmpd_ids>  (78) 
ENAMINE:PV-001442664577

>  <ref_url>  (78) 
https://github.com/stephwills/fragment_network_merges

>  <submitter_name>  (78) 
Steph Wills

>  <submitter_institution>  (78) 
University of Oxford

>  <submitter_email>  (78) 
stephanie.wills@balliol.ox.ac.uk

>  <generation_date>  (78) 
2023-09-06

>  <method>  (78) 
fragNetMergingIt3

>  <ref_pdb>  (78) 
x1594_0A,x1052_1A

$$$$
x1071-0A-x1020-0A-189
     RDKit          3D

 21 22  0  0  0  0  0  0  0  0999 V2000
   -7.0630  -12.5920    3.6190 C   0  0  0  0  0  0  0  0  0  0  0  0
   -6.1130  -11.4060    3.7140 C   0  0  0  0  0  0  0  0  0  0  0  0
   -5.1610  -11.4000    4.4920 O   0  0  0  0  0  0  0  0  0  0  0  0
   -6.4410  -10.3580    2.8610 N   0  0  0  0  0  0  0  0  0  0  0  0
   -5.6020   -9.9080    1.7210 C   0  0  2  0  0  0  0  0  0  0  0  0
   -5.6330   -8.4010    1.4130 C   0  0  0  0  0  0  0  0  0  0  0  0
   -5.5580   -8.7260   -0.0700 C   0  0  2  0  0  0  0  0  0  0  0  0
   -6.3630   -7.7830   -0.9920 C   0  0  2  0  0  0  0  0  0  0  0  0
   -6.1240   -8.1910   -2.4670 C   0  0  0  0  0  0  0  0  0  0  0  0
   -5.9890   -6.9240   -3.2710 C   0  0  0  0  0  0  0  0  0  0  0  0
   -5.8530   -5.8210   -2.3590 N   0  0  0  0  0  0  0  0  0  0  0  0
   -6.4810   -4.5950   -2.7470 C   0  0  0  0  0  0  0  0  0  0  0  0
   -6.8560   -4.3650   -3.9120 O   0  0  0  0  0  0  0  0  0  0  0  0
   -6.7180   -3.5280   -1.6710 C   0  0  0  0  0  0  0  0  0  0  0  0
   -6.4230   -2.1930   -2.2090 N   0  0  0  0  0  0  0  0  0  0  0  0
   -6.2300   -0.8900   -1.1670 S   0  0  0  0  0  6  0  0  0  0  0  0
   -7.8510   -0.1470   -1.1100 C   0  0  0  0  0  0  0  0  0  0  0  0
   -5.3400    0.0470   -1.8140 O   0  0  0  0  0  0  0  0  0  0  0  0
   -5.9400   -1.4210    0.1520 O   0  0  0  0  0  0  0  0  0  0  0  0
   -5.9440   -6.2730   -0.9270 C   0  0  0  0  0  0  0  0  0  0  0  0
   -6.1880  -10.1040    0.2990 C   0  0  0  0  0  0  0  0  0  0  0  0
  1  2  1  0
  2  3  2  0
  2  4  1  0
  5  4  1  1
  5  6  1  0
  7  6  1  1
  7  8  1  0
  8  9  1  6
  9 10  1  0
 10 11  1  0
 11 12  1  0
 12 13  2  0
 12 14  1  0
 14 15  1  0
 15 16  1  0
 16 17  1  0
 16 18  2  0
 16 19  2  0
 11 20  1  0
  7 21  1  0
 21  5  1  0
 20  8  1  0
M  END
>  <pair>  (79) 
x1071_0A-x1020_0A

>  <sucos>  (79) 
0.5209824286230982

>  <ref_mols>  (79) 
x1071_0A,x1020_0A

>  <original SMILES>  (79) 
CC(=O)NC1CC(C2CCN(C(=O)CNS(C)(=O)=O)C2)C1

>  <cmpd_ids>  (79) 
ENAMINE:PV-003657522103

>  <ref_url>  (79) 
https://github.com/stephwills/fragment_network_merges

>  <submitter_name>  (79) 
Steph Wills

>  <submitter_institution>  (79) 
University of Oxford

>  <submitter_email>  (79) 
stephanie.wills@balliol.ox.ac.uk

>  <generation_date>  (79) 
2023-09-06

>  <method>  (79) 
fragNetMergingIt3

>  <ref_pdb>  (79) 
x1071_0A,x1020_0A

$$$$
x0147-0A-x1919-0A-50
     RDKit          3D

 23 26  0  0  0  0  0  0  0  0999 V2000
   -7.6220   -8.4700   -3.2320 O   0  0  0  0  0  0  0  0  0  0  0  0
   -6.4990   -8.0370   -3.4730 C   0  0  1  0  0  0  0  0  0  0  0  0
   -6.3600   -6.7070   -4.2230 C   0  0  0  0  0  0  0  0  0  0  0  0
   -7.5760   -6.3970   -5.0850 N   0  0  0  0  0  0  0  0  0  0  0  0
   -7.6360   -5.6360   -6.3090 C   0  0  0  0  0  0  0  0  0  0  0  0
   -6.7890   -5.7690   -7.3530 C   0  0  0  0  0  0  0  0  0  0  0  0
   -6.8100   -5.0490   -8.4970 N   0  0  0  0  0  0  0  0  0  0  0  0
   -7.7290   -4.1650   -8.5980 C   0  0  0  0  0  0  0  0  0  0  0  0
   -8.7090   -3.9400   -7.6240 C   0  0  0  0  0  0  0  0  0  0  0  0
   -9.7220   -3.1090   -7.6180 N   0  0  0  0  0  0  0  0  0  0  0  0
  -10.3720   -3.2720   -6.4330 N   0  0  0  0  0  0  0  0  0  0  0  0
   -9.7170   -4.2010   -5.7830 C   0  0  0  0  0  0  0  0  0  0  0  0
   -8.6500   -4.6630   -6.5020 N   0  0  0  0  0  0  0  0  0  0  0  0
   -5.6950   -8.1760   -2.1510 C   0  0  0  0  0  0  0  0  0  0  0  0
   -6.3560   -8.8820   -0.9720 C   0  0  0  0  0  0  0  0  0  0  0  0
   -5.6770   -9.0330    0.1960 C   0  0  0  0  0  0  0  0  0  0  0  0
   -4.3810   -8.5640    0.3610 C   0  0  0  0  0  0  0  0  0  0  0  0
   -3.7200   -7.9100   -0.6770 C   0  0  0  0  0  0  0  0  0  0  0  0
   -4.3720   -7.7060   -1.9480 C   0  0  0  0  0  0  0  0  0  0  0  0
   -2.4400   -7.4430   -0.5450 O   0  0  0  0  0  0  0  0  0  0  0  0
   -1.8010   -7.8340    0.6810 C   0  0  0  0  0  0  0  0  0  0  0  0
   -2.7670   -7.8580    1.8340 C   0  0  0  0  0  0  0  0  0  0  0  0
   -3.8150   -8.7900    1.5870 O   0  0  0  0  0  0  0  0  0  0  0  0
  2  1  1  1
  2  3  1  0
  3  4  1  0
  4  5  1  0
  5  6  2  0
  6  7  1  0
  7  8  2  0
  8  9  1  0
  9 10  2  0
 10 11  1  0
 11 12  2  0
 12 13  1  0
  2 14  1  0
 14 15  2  0
 15 16  1  0
 16 17  2  0
 17 18  1  0
 18 19  2  0
 18 20  1  0
 20 21  1  0
 21 22  1  0
 22 23  1  0
 13  5  1  0
 19 14  1  0
 13  9  1  0
 23 17  1  0
M  END
>  <pair>  (80) 
x0147_0A-x1919_0A

>  <sucos>  (80) 
0.5439401941229589

>  <ref_mols>  (80) 
x0147_0A,x1919_0A

>  <original SMILES>  (80) 
OC(CNc1cncc2nncn12)c1ccc2c(c1)OCCO2

>  <cmpd_ids>  (80) 
ENAMINE:Z2977996535

>  <ref_url>  (80) 
https://github.com/stephwills/fragment_network_merges

>  <submitter_name>  (80) 
Steph Wills

>  <submitter_institution>  (80) 
University of Oxford

>  <submitter_email>  (80) 
stephanie.wills@balliol.ox.ac.uk

>  <generation_date>  (80) 
2023-09-06

>  <method>  (80) 
fragNetMergingIt3

>  <ref_pdb>  (80) 
x0147_0A,x1919_0A

$$$$
x0147-0A-x1052-1A-180
     RDKit          3D

 17 19  0  0  0  0  0  0  0  0999 V2000
   -6.1520   -5.2140   -1.2550 C   0  0  0  0  0  0  0  0  0  0  0  0
   -5.7590   -5.6530   -2.4620 C   0  0  0  0  0  0  0  0  0  0  0  0
   -6.2890   -6.9040   -2.6300 C   0  0  0  0  0  0  0  0  0  0  0  0
   -6.1160   -7.8010   -3.8740 C   0  0  0  0  0  0  0  0  0  0  0  0
   -7.2730   -7.8130   -4.8620 C   0  0  0  0  0  0  0  0  0  0  0  0
   -7.7860   -6.4860   -5.2490 N   0  0  0  0  0  0  0  0  0  0  0  0
   -7.7250   -5.8570   -6.4610 C   0  0  0  0  0  0  0  0  0  0  0  0
   -6.8680   -6.2330   -7.3590 N   0  0  0  0  0  0  0  0  0  0  0  0
   -6.7790   -5.4920   -8.4930 C   0  0  0  0  0  0  0  0  0  0  0  0
   -7.5440   -4.3460   -8.7400 C   0  0  0  0  0  0  0  0  0  0  0  0
   -8.4840   -3.9960   -7.8250 N   0  0  0  0  0  0  0  0  0  0  0  0
   -9.4340   -3.0170   -7.7310 C   0  0  0  0  0  0  0  0  0  0  0  0
  -10.1330   -3.1770   -6.5600 N   0  0  0  0  0  0  0  0  0  0  0  0
   -9.5850   -4.2740   -5.9290 N   0  0  0  0  0  0  0  0  0  0  0  0
   -8.6070   -4.7320   -6.6980 C   0  0  0  0  0  0  0  0  0  0  0  0
   -7.0040   -7.1900   -1.4700 O   0  0  0  0  0  0  0  0  0  0  0  0
   -6.9200   -6.0820   -0.5730 N   0  0  0  0  0  0  0  0  0  0  0  0
  1  2  1  0
  2  3  2  0
  3  4  1  0
  4  5  1  0
  5  6  1  0
  6  7  1  0
  7  8  2  0
  8  9  1  0
  9 10  2  0
 10 11  1  0
 11 12  1  0
 12 13  2  0
 13 14  1  0
 14 15  2  0
  3 16  1  0
 16 17  1  0
 17  1  2  0
 15  7  1  0
 15 11  1  0
M  END
>  <pair>  (81) 
x0147_0A-x1052_1A

>  <sucos>  (81) 
0.4000746918256017

>  <ref_mols>  (81) 
x0147_0A,x1052_1A

>  <original SMILES>  (81) 
c1cc(CCNc2nccn3cnnc23)on1

>  <cmpd_ids>  (81) 
ENAMINE:PV-003505624468

>  <ref_url>  (81) 
https://github.com/stephwills/fragment_network_merges

>  <submitter_name>  (81) 
Steph Wills

>  <submitter_institution>  (81) 
University of Oxford

>  <submitter_email>  (81) 
stephanie.wills@balliol.ox.ac.uk

>  <generation_date>  (81) 
2023-09-06

>  <method>  (81) 
fragNetMergingIt3

>  <ref_pdb>  (81) 
x0147_0A,x1052_1A

$$$$
x1052-1A-x1604-0A-187
     RDKit          3D

 21 23  0  0  0  0  0  0  0  0999 V2000
   -5.4960   -6.5730   -3.4900 C   0  0  0  0  0  0  0  0  0  0  0  0
   -6.1470   -6.3430   -2.2170 C   0  0  0  0  0  0  0  0  0  0  0  0
   -5.9300   -6.9140   -0.9670 C   0  0  0  0  0  0  0  0  0  0  0  0
   -6.7760   -6.4010   -0.0600 O   0  0  0  0  0  0  0  0  0  0  0  0
   -7.5850   -5.4620   -0.6780 N   0  0  0  0  0  0  0  0  0  0  0  0
   -7.2160   -5.4230   -1.9700 C   0  0  0  0  0  0  0  0  0  0  0  0
   -7.9080   -4.4980   -2.9370 C   0  0  0  0  0  0  0  0  0  0  0  0
   -9.3690   -4.7530   -3.3680 C   0  0  0  0  0  0  0  0  0  0  0  0
  -10.0170   -5.7010   -2.9270 O   0  0  0  0  0  0  0  0  0  0  0  0
   -9.9060   -3.8340   -4.2860 N   0  0  0  0  0  0  0  0  0  0  0  0
  -11.1990   -4.0030   -5.0300 C   0  0  1  0  0  0  0  0  0  0  0  0
  -11.5850   -2.8500   -5.7580 C   0  0  0  0  0  0  0  0  0  0  0  0
  -10.7830   -2.5850   -6.9360 O   0  0  0  0  0  0  0  0  0  0  0  0
   -9.8530   -3.5490   -7.2490 C   0  0  0  0  0  0  0  0  0  0  0  0
   -8.7870   -3.1720   -8.0270 C   0  0  0  0  0  0  0  0  0  0  0  0
   -7.7490   -4.1870   -8.3940 C   0  0  0  0  0  0  0  0  0  0  0  0
   -7.8910   -5.5000   -7.9340 C   0  0  0  0  0  0  0  0  0  0  0  0
   -8.9930   -5.8390   -7.1430 C   0  0  0  0  0  0  0  0  0  0  0  0
   -9.9360   -4.8600   -6.8240 C   0  0  0  0  0  0  0  0  0  0  0  0
  -11.0220   -5.1110   -6.0490 C   0  0  0  0  0  0  0  0  0  0  0  0
  -11.8440   -6.2340   -6.1920 O   0  0  0  0  0  0  0  0  0  0  0  0
  1  2  1  0
  2  3  2  0
  3  4  1  0
  4  5  1  0
  5  6  2  0
  6  7  1  0
  7  8  1  0
  8  9  2  0
  8 10  1  0
 11 10  1  6
 11 12  1  0
 12 13  1  0
 13 14  1  0
 14 15  2  0
 15 16  1  0
 16 17  2  0
 17 18  1  0
 18 19  2  0
 19 20  1  0
 20 21  2  0
  6  2  1  0
 20 11  1  0
 19 14  1  0
M  END
>  <pair>  (82) 
x1052_1A-x1604_0A

>  <sucos>  (82) 
0.4005228757296516

>  <ref_mols>  (82) 
x1052_1A,x1604_0A

>  <original SMILES>  (82) 
Cc1conc1CC(=O)NC1COc2ccccc2C1=O

>  <cmpd_ids>  (82) 
ENAMINE:Z4105228750

>  <ref_url>  (82) 
https://github.com/stephwills/fragment_network_merges

>  <submitter_name>  (82) 
Steph Wills

>  <submitter_institution>  (82) 
University of Oxford

>  <submitter_email>  (82) 
stephanie.wills@balliol.ox.ac.uk

>  <generation_date>  (82) 
2023-09-06

>  <method>  (82) 
fragNetMergingIt3

>  <ref_pdb>  (82) 
x1052_1A,x1604_0A

$$$$
x1140-0A-x1604-0A-16
     RDKit          3D

 26 29  0  0  0  0  0  0  0  0999 V2000
   -6.2100   -7.0550   -4.5930 O   0  0  0  0  0  0  0  0  0  0  0  0
   -6.5830   -6.8360   -3.4470 C   0  0  0  0  0  0  0  0  0  0  0  0
   -7.7570   -6.0590   -3.1770 N   0  0  0  0  0  0  0  0  0  0  0  0
   -8.9050   -6.0170   -4.1410 C   0  0  0  0  0  0  0  0  0  0  0  0
   -9.9020   -4.7730   -4.1210 C   0  0  0  0  0  0  0  0  0  0  0  0
  -11.2020   -4.9140   -4.9220 N   0  0  0  0  0  0  0  0  0  0  0  0
  -11.4340   -3.9810   -5.9900 C   0  0  0  0  0  0  0  0  0  0  0  0
  -10.2360   -3.9380   -6.8720 C   0  0  0  0  0  0  0  0  0  0  0  0
   -9.8510   -2.6980   -7.2290 C   0  0  0  0  0  0  0  0  0  0  0  0
   -8.7640   -2.5380   -8.0120 C   0  0  0  0  0  0  0  0  0  0  0  0
   -7.9840   -3.6030   -8.4700 C   0  0  0  0  0  0  0  0  0  0  0  0
   -8.3400   -4.8700   -8.1460 C   0  0  0  0  0  0  0  0  0  0  0  0
   -9.4590   -5.0610   -7.3690 C   0  0  0  0  0  0  0  0  0  0  0  0
   -9.6710   -6.3960   -7.1870 O   0  0  0  0  0  0  0  0  0  0  0  0
  -10.1690   -6.7790   -5.9650 C   0  0  0  0  0  0  0  0  0  0  0  0
  -11.4110   -6.1460   -5.4100 C   0  0  0  0  0  0  0  0  0  0  0  0
  -12.4980   -6.7130   -5.4490 O   0  0  0  0  0  0  0  0  0  0  0  0
   -5.7680   -7.4130   -2.2810 C   0  0  0  0  0  0  0  0  0  0  0  0
   -6.3480   -8.4570   -1.5200 C   0  0  0  0  0  0  0  0  0  0  0  0
   -5.6870   -9.0310   -0.4190 C   0  0  0  0  0  0  0  0  0  0  0  0
   -4.4450   -8.5510   -0.0860 C   0  0  0  0  0  0  0  0  0  0  0  0
   -3.8520   -7.5560   -0.8110 C   0  0  0  0  0  0  0  0  0  0  0  0
   -4.4750   -6.9650   -1.9130 C   0  0  0  0  0  0  0  0  0  0  0  0
   -2.6230   -7.2580   -0.3050 O   0  0  0  0  0  0  0  0  0  0  0  0
   -2.6880   -7.9190    0.9690 C   0  0  0  0  0  0  0  0  0  0  0  0
   -3.6710   -8.9730    0.9560 O   0  0  0  0  0  0  0  0  0  0  0  0
  1  2  2  0
  2  3  1  0
  3  4  1  0
  4  5  1  0
  5  6  1  0
  6  7  1  0
  7  8  1  0
  8  9  2  0
  9 10  1  0
 10 11  2  0
 11 12  1  0
 12 13  2  0
 13 14  1  0
 14 15  1  0
 15 16  1  0
 16 17  2  0
  2 18  1  0
 18 19  2  0
 19 20  1  0
 20 21  2  0
 21 22  1  0
 22 23  2  0
 22 24  1  0
 24 25  1  0
 25 26  1  0
 16  6  1  0
 23 18  1  0
 13  8  1  0
 26 21  1  0
M  END
>  <pair>  (83) 
x1140_0A-x1604_0A

>  <sucos>  (83) 
0.40182047923282005

>  <ref_mols>  (83) 
x1140_0A,x1604_0A

>  <original SMILES>  (83) 
O=C(NCCN1Cc2ccccc2OCC1=O)c1ccc2c(c1)OCO2

>  <cmpd_ids>  (83) 
ENAMINE:Z2930658185

>  <ref_url>  (83) 
https://github.com/stephwills/fragment_network_merges

>  <submitter_name>  (83) 
Steph Wills

>  <submitter_institution>  (83) 
University of Oxford

>  <submitter_email>  (83) 
stephanie.wills@balliol.ox.ac.uk

>  <generation_date>  (83) 
2023-09-06

>  <method>  (83) 
fragNetMergingIt3

>  <ref_pdb>  (83) 
x1140_0A,x1604_0A

$$$$
x1071-0A-x0980-0B-159
     RDKit          3D

 23 25  0  0  0  0  0  0  0  0999 V2000
   -7.4690    0.1770   -1.3520 C   0  0  0  0  0  0  0  0  0  0  0  0
   -6.1780   -1.0040   -1.0250 S   0  0  0  0  0  6  0  0  0  0  0  0
   -6.4860   -1.6420    0.1980 O   0  0  0  0  0  0  0  0  0  0  0  0
   -4.9150   -0.3560   -1.1510 O   0  0  0  0  0  0  0  0  0  0  0  0
   -6.2830   -2.1630   -2.2370 N   0  0  0  0  0  0  0  0  0  0  0  0
   -6.4230   -3.5890   -1.8610 C   0  0  0  0  0  0  0  0  0  0  0  0
   -6.5320   -4.4880   -3.0900 C   0  0  0  0  0  0  0  0  0  0  0  0
   -7.1240   -4.0870   -4.0900 O   0  0  0  0  0  0  0  0  0  0  0  0
   -5.9710   -5.7520   -3.0740 N   0  0  0  0  0  0  0  0  0  0  0  0
   -5.3160   -6.3880   -1.9310 C   0  0  0  0  0  0  0  0  0  0  0  0
   -5.8120   -7.8040   -2.1570 C   0  0  1  0  0  0  0  0  0  0  0  0
   -7.2110   -7.5640   -2.6420 C   0  0  0  0  0  0  0  0  0  0  0  0
   -6.6390   -6.8310   -3.8150 C   0  0  1  0  0  0  0  0  0  0  0  0
   -7.6710   -6.5520   -4.9660 C   0  0  0  0  0  0  0  0  0  0  0  0
   -7.3420   -7.3660   -6.1220 N   0  0  0  0  0  0  0  0  0  0  0  0
   -7.3420   -6.9970   -7.4480 C   0  0  0  0  0  0  0  0  0  0  0  0
   -7.0760   -7.7800   -8.3610 O   0  0  0  0  0  0  0  0  0  0  0  0
   -7.7040   -5.5740   -7.7600 C   0  0  0  0  0  0  0  0  0  0  0  0
   -8.8610   -4.9420   -7.1720 C   0  0  0  0  0  0  0  0  0  0  0  0
   -8.8630   -3.6890   -7.6840 O   0  0  0  0  0  0  0  0  0  0  0  0
   -7.7560   -3.6170   -8.5230 C   0  0  0  0  0  0  0  0  0  0  0  0
   -6.9970   -4.6990   -8.6380 N   0  0  0  0  0  0  0  0  0  0  0  0
   -5.6340   -8.0990   -3.7040 C   0  0  0  0  0  0  0  0  0  0  0  0
  1  2  1  0
  2  3  2  0
  2  4  2  0
  2  5  1  0
  5  6  1  0
  6  7  1  0
  7  8  2  0
  7  9  1  0
  9 10  1  0
 11 10  1  6
 11 12  1  0
 12 13  1  0
 13 14  1  6
 14 15  1  0
 15 16  1  0
 16 17  2  0
 16 18  1  0
 18 19  2  0
 19 20  1  0
 20 21  1  0
 21 22  2  0
 13 23  1  0
 13  9  1  0
 22 18  1  0
 23 11  1  0
M  END
>  <pair>  (84) 
x1071_0A-x0980_0B

>  <sucos>  (84) 
0.403132735361952

>  <ref_mols>  (84) 
x1071_0A,x0980_0B

>  <original SMILES>  (84) 
CS(=O)(=O)NCC(=O)N1CC2CC1(CNC(=O)c1cocn1)C2

>  <cmpd_ids>  (84) 
ENAMINE:PV-003841801164

>  <ref_url>  (84) 
https://github.com/stephwills/fragment_network_merges

>  <submitter_name>  (84) 
Steph Wills

>  <submitter_institution>  (84) 
University of Oxford

>  <submitter_email>  (84) 
stephanie.wills@balliol.ox.ac.uk

>  <generation_date>  (84) 
2023-09-06

>  <method>  (84) 
fragNetMergingIt3

>  <ref_pdb>  (84) 
x1071_0A,x0980_0B

$$$$
x1594-0A-x1052-1A-180
     RDKit          3D

 21 23  0  0  0  0  0  0  0  0999 V2000
   -6.7930   -2.1440   -2.0970 C   0  0  0  0  0  0  0  0  0  0  0  0
   -7.4660   -3.4870   -2.3410 C   0  0  2  0  0  0  0  0  0  0  0  0
   -6.6190   -4.5470   -2.8010 C   0  0  0  0  0  0  0  0  0  0  0  0
   -6.3880   -5.5750   -1.8520 C   0  0  0  0  0  0  0  0  0  0  0  0
   -5.1670   -6.1810   -1.7530 C   0  0  0  0  0  0  0  0  0  0  0  0
   -5.0210   -7.1430   -0.8040 C   0  0  0  0  0  0  0  0  0  0  0  0
   -6.0060   -7.5310    0.0290 N   0  0  0  0  0  0  0  0  0  0  0  0
   -7.1850   -6.9340   -0.0920 C   0  0  0  0  0  0  0  0  0  0  0  0
   -7.4200   -5.9550   -1.0130 C   0  0  0  0  0  0  0  0  0  0  0  0
   -8.5490   -3.3600   -3.3060 N   0  0  0  0  0  0  0  0  0  0  0  0
   -9.0090   -4.4390   -4.0340 C   0  0  0  0  0  0  0  0  0  0  0  0
   -9.1440   -5.5680   -3.5670 O   0  0  0  0  0  0  0  0  0  0  0  0
   -9.3380   -4.1470   -5.3850 C   0  0  0  0  0  0  0  0  0  0  0  0
  -10.5120   -3.5380   -5.6090 C   0  0  0  0  0  0  0  0  0  0  0  0
  -10.8830   -3.2080   -6.9350 C   0  0  0  0  0  0  0  0  0  0  0  0
  -10.0440   -3.5040   -7.9120 C   0  0  0  0  0  0  0  0  0  0  0  0
   -8.8360   -4.1350   -7.7130 N   0  0  0  0  0  0  0  0  0  0  0  0
   -7.8170   -4.5470   -8.5320 C   0  0  0  0  0  0  0  0  0  0  0  0
   -6.8870   -5.1190   -7.8620 N   0  0  0  0  0  0  0  0  0  0  0  0
   -7.3050   -5.0710   -6.5660 N   0  0  0  0  0  0  0  0  0  0  0  0
   -8.4630   -4.4760   -6.4750 C   0  0  0  0  0  0  0  0  0  0  0  0
  2  1  1  6
  2  3  1  0
  3  4  1  0
  4  5  2  0
  5  6  1  0
  6  7  2  0
  7  8  1  0
  8  9  2  0
  2 10  1  0
 10 11  1  0
 11 12  2  0
 11 13  1  0
 13 14  2  0
 14 15  1  0
 15 16  2  0
 16 17  1  0
 17 18  1  0
 18 19  2  0
 19 20  1  0
 20 21  2  0
  9  4  1  0
 21 13  1  0
 21 17  1  0
M  END
>  <pair>  (85) 
x1594_0A-x1052_1A

>  <sucos>  (85) 
0.4045464451332354

>  <ref_mols>  (85) 
x1594_0A,x1052_1A

>  <original SMILES>  (85) 
CC(Cc1ccncc1)NC(=O)c1cccn2cnnc12

>  <cmpd_ids>  (85) 
ENAMINE:PV-002758615213

>  <ref_url>  (85) 
https://github.com/stephwills/fragment_network_merges

>  <submitter_name>  (85) 
Steph Wills

>  <submitter_institution>  (85) 
University of Oxford

>  <submitter_email>  (85) 
stephanie.wills@balliol.ox.ac.uk

>  <generation_date>  (85) 
2023-09-06

>  <method>  (85) 
fragNetMergingIt3

>  <ref_pdb>  (85) 
x1594_0A,x1052_1A

$$$$
x1052-1A-x1140-0A-188
     RDKit          3D

 22 24  0  0  0  0  0  0  0  0999 V2000
   -4.1260   -5.6900   -0.7410 C   0  0  0  0  0  0  0  0  0  0  0  0
   -5.5820   -5.9230   -1.0270 C   0  0  0  0  0  0  0  0  0  0  0  0
   -6.0500   -6.0580   -2.3740 C   0  0  0  0  0  0  0  0  0  0  0  0
   -7.3940   -6.2440   -2.2130 C   0  0  0  0  0  0  0  0  0  0  0  0
   -8.0560   -6.4210   -3.3880 C   0  0  0  0  0  0  0  0  0  0  0  0
   -7.9600   -7.8010   -4.0740 C   0  0  0  0  0  0  0  0  0  0  0  0
   -8.3610   -8.0210   -5.2090 O   0  0  0  0  0  0  0  0  0  0  0  0
   -7.4400   -8.6760   -3.3860 O   0  0  0  0  0  0  0  0  0  0  0  0
   -5.9910   -8.7560   -3.4010 C   0  0  1  0  0  0  0  0  0  0  0  0
   -5.4800   -7.7060   -4.1720 C   0  0  0  0  0  0  0  0  0  0  0  0
   -5.4130   -8.7300   -1.9840 C   0  0  0  0  0  0  0  0  0  0  0  0
   -6.0960   -9.3670   -0.9620 C   0  0  0  0  0  0  0  0  0  0  0  0
   -5.5900   -9.3820    0.3370 C   0  0  0  0  0  0  0  0  0  0  0  0
   -4.3910   -8.7640    0.6390 C   0  0  0  0  0  0  0  0  0  0  0  0
   -3.6950   -8.1160   -0.3650 C   0  0  0  0  0  0  0  0  0  0  0  0
   -4.1940   -8.0890   -1.6740 C   0  0  0  0  0  0  0  0  0  0  0  0
   -2.5000   -7.4880   -0.1220 O   0  0  0  0  0  0  0  0  0  0  0  0
   -1.9860   -7.6750    1.2080 C   0  0  0  0  0  0  0  0  0  0  0  0
   -3.0480   -7.8070    2.2460 C   0  0  0  0  0  0  0  0  0  0  0  0
   -3.9660   -8.8420    1.9310 O   0  0  0  0  0  0  0  0  0  0  0  0
   -7.8520   -6.2320   -0.9090 N   0  0  0  0  0  0  0  0  0  0  0  0
   -6.6550   -6.0300   -0.1630 O   0  0  0  0  0  0  0  0  0  0  0  0
  1  2  1  0
  2  3  2  0
  3  4  1  0
  4  5  1  0
  5  6  1  0
  6  7  2  0
  6  8  1  0
  8  9  1  0
  9 10  1  6
  9 11  1  0
 11 12  2  0
 12 13  1  0
 13 14  2  0
 14 15  1  0
 15 16  2  0
 15 17  1  0
 17 18  1  0
 18 19  1  0
 19 20  1  0
  4 21  2  0
 21 22  1  0
 22  2  1  0
 16 11  1  0
 20 14  1  0
M  END
>  <pair>  (86) 
x1052_1A-x1140_0A

>  <sucos>  (86) 
0.4108469723144317

>  <ref_mols>  (86) 
x1052_1A,x1140_0A

>  <original SMILES>  (86) 
Cc1cc(CC(=O)OC(C)c2ccc3c(c2)OCCO3)no1

>  <cmpd_ids>  (86) 
ENAMINE:Z3146588575

>  <ref_url>  (86) 
https://github.com/stephwills/fragment_network_merges

>  <submitter_name>  (86) 
Steph Wills

>  <submitter_institution>  (86) 
University of Oxford

>  <submitter_email>  (86) 
stephanie.wills@balliol.ox.ac.uk

>  <generation_date>  (86) 
2023-09-06

>  <method>  (86) 
fragNetMergingIt3

>  <ref_pdb>  (86) 
x1052_1A,x1140_0A

$$$$
x0147-0A-x1052-1A-97
     RDKit          3D

 21 24  0  0  0  0  0  0  0  0999 V2000
   -6.2330   -5.1630   -1.1740 C   0  0  0  0  0  0  0  0  0  0  0  0
   -6.1840   -5.7550   -2.5310 C   0  0  0  0  0  0  0  0  0  0  0  0
   -7.0300   -6.9860   -2.7420 C   0  0  0  0  0  0  0  0  0  0  0  0
   -6.9950   -7.5710   -4.1180 C   0  0  2  0  0  0  0  0  0  0  0  0
   -5.7490   -7.5650   -4.6400 C   0  0  0  0  0  0  0  0  0  0  0  0
   -5.6800   -8.1340   -6.0540 C   0  0  0  0  0  0  0  0  0  0  0  0
   -6.8420   -7.8250   -6.9820 C   0  0  0  0  0  0  0  0  0  0  0  0
   -7.6170   -6.8140   -6.5100 N   0  0  0  0  0  0  0  0  0  0  0  0
   -7.8230   -5.6340   -7.2030 C   0  0  0  0  0  0  0  0  0  0  0  0
   -6.9440   -5.2470   -8.1220 N   0  0  0  0  0  0  0  0  0  0  0  0
   -7.1590   -4.0480   -8.7120 C   0  0  0  0  0  0  0  0  0  0  0  0
   -8.1420   -3.2460   -8.4640 C   0  0  0  0  0  0  0  0  0  0  0  0
   -9.0630   -3.5990   -7.6010 N   0  0  0  0  0  0  0  0  0  0  0  0
  -10.1900   -2.9830   -7.1980 C   0  0  0  0  0  0  0  0  0  0  0  0
  -10.7940   -3.7380   -6.3190 N   0  0  0  0  0  0  0  0  0  0  0  0
  -10.0220   -4.8800   -6.1520 N   0  0  0  0  0  0  0  0  0  0  0  0
   -8.9720   -4.7650   -6.9460 C   0  0  0  0  0  0  0  0  0  0  0  0
   -8.0590   -6.9570   -5.0980 C   0  0  0  0  0  0  0  0  0  0  0  0
   -7.7730   -7.4880   -1.6790 C   0  0  0  0  0  0  0  0  0  0  0  0
   -7.7090   -6.8220   -0.4600 C   0  0  0  0  0  0  0  0  0  0  0  0
   -6.9850   -5.7090   -0.2050 N   0  0  0  0  0  0  0  0  0  0  0  0
  1  2  2  0
  2  3  1  0
  4  3  1  0
  4  5  1  6
  5  6  1  0
  6  7  1  0
  7  8  1  0
  8  9  1  0
  9 10  2  0
 10 11  1  0
 11 12  2  0
 12 13  1  0
 13 14  1  0
 14 15  2  0
 15 16  1  0
 16 17  2  0
  8 18  1  0
  3 19  2  0
 19 20  1  0
 20 21  2  0
 21  1  1  0
 18  4  1  0
 17  9  1  0
 17 13  1  0
M  END
>  <pair>  (87) 
x0147_0A-x1052_1A

>  <sucos>  (87) 
0.41967611970312657

>  <ref_mols>  (87) 
x0147_0A,x1052_1A

>  <original SMILES>  (87) 
c1cc(C2CCCN(c3nccn4cnnc34)C2)ccn1

>  <cmpd_ids>  (87) 
ENAMINE:Z2613445349

>  <ref_url>  (87) 
https://github.com/stephwills/fragment_network_merges

>  <submitter_name>  (87) 
Steph Wills

>  <submitter_institution>  (87) 
University of Oxford

>  <submitter_email>  (87) 
stephanie.wills@balliol.ox.ac.uk

>  <generation_date>  (87) 
2023-09-06

>  <method>  (87) 
fragNetMergingIt3

>  <ref_pdb>  (87) 
x0147_0A,x1052_1A

$$$$
x1052-1A-x1140-0A-41
     RDKit          3D

 20 22  0  0  0  0  0  0  0  0999 V2000
   -4.7890   -6.7870   -0.3480 C   0  0  0  0  0  0  0  0  0  0  0  0
   -5.8810   -6.0930   -1.0130 C   0  0  0  0  0  0  0  0  0  0  0  0
   -6.7030   -5.4570   -0.1680 O   0  0  0  0  0  0  0  0  0  0  0  0
   -7.6980   -4.8170   -0.8530 N   0  0  0  0  0  0  0  0  0  0  0  0
   -7.4490   -5.0920   -2.1260 C   0  0  0  0  0  0  0  0  0  0  0  0
   -6.3170   -5.9030   -2.2940 C   0  0  0  0  0  0  0  0  0  0  0  0
   -5.7760   -6.4050   -3.4570 N   0  0  0  0  0  0  0  0  0  0  0  0
   -5.6200   -8.0500   -3.5970 S   0  0  0  0  0  6  0  0  0  0  0  0
   -6.9260   -8.6590   -3.7540 O   0  0  0  0  0  0  0  0  0  0  0  0
   -4.5670   -8.2760   -4.5140 O   0  0  0  0  0  0  0  0  0  0  0  0
   -5.0070   -8.3600   -1.9710 C   0  0  0  0  0  0  0  0  0  0  0  0
   -5.7690   -9.1540   -1.1160 C   0  0  0  0  0  0  0  0  0  0  0  0
   -5.3080   -9.4040    0.1760 C   0  0  0  0  0  0  0  0  0  0  0  0
   -4.0950   -8.8620    0.6060 C   0  0  0  0  0  0  0  0  0  0  0  0
   -3.3310   -8.0610   -0.2550 C   0  0  0  0  0  0  0  0  0  0  0  0
   -3.7920   -7.8140   -1.5440 C   0  0  0  0  0  0  0  0  0  0  0  0
   -2.1430   -7.5020    0.1120 O   0  0  0  0  0  0  0  0  0  0  0  0
   -1.9820   -7.5170    1.5350 C   0  0  0  0  0  0  0  0  0  0  0  0
   -2.3300   -8.8750    2.1040 C   0  0  0  0  0  0  0  0  0  0  0  0
   -3.7170   -9.1610    1.8870 O   0  0  0  0  0  0  0  0  0  0  0  0
  1  2  1  0
  2  3  1  0
  3  4  1  0
  4  5  2  0
  5  6  1  0
  6  7  1  0
  7  8  1  0
  8  9  2  0
  8 10  2  0
  8 11  1  0
 11 12  2  0
 12 13  1  0
 13 14  2  0
 14 15  1  0
 15 16  2  0
 15 17  1  0
 17 18  1  0
 18 19  1  0
 19 20  1  0
  6  2  2  0
 16 11  1  0
 20 14  1  0
M  END
>  <pair>  (88) 
x1052_1A-x1140_0A

>  <sucos>  (88) 
0.42639196300396803

>  <ref_mols>  (88) 
x1052_1A,x1140_0A

>  <original SMILES>  (88) 
Cc1oncc1NS(=O)(=O)c1ccc2c(c1)OCCO2

>  <cmpd_ids>  (88) 
ENAMINE:Z1465392834

>  <ref_url>  (88) 
https://github.com/stephwills/fragment_network_merges

>  <submitter_name>  (88) 
Steph Wills

>  <submitter_institution>  (88) 
University of Oxford

>  <submitter_email>  (88) 
stephanie.wills@balliol.ox.ac.uk

>  <generation_date>  (88) 
2023-09-06

>  <method>  (88) 
fragNetMergingIt3

>  <ref_pdb>  (88) 
x1052_1A,x1140_0A

$$$$
x1594-0A-x2021-0A-71
     RDKit          3D

 20 21  0  0  0  0  0  0  0  0999 V2000
   -5.7600   -0.8800   -0.5920 C   0  0  0  0  0  0  0  0  0  0  0  0
   -5.9020   -2.2960   -0.4290 O   0  0  0  0  0  0  0  0  0  0  0  0
   -6.7380   -2.8930   -1.3280 C   0  0  0  0  0  0  0  0  0  0  0  0
   -7.8790   -2.5220   -1.5640 O   0  0  0  0  0  0  0  0  0  0  0  0
   -6.0510   -4.0810   -1.9730 C   0  0  0  0  0  0  0  0  0  0  0  0
   -6.9750   -5.2820   -2.2090 C   0  0  2  0  0  0  0  0  0  0  0  0
   -7.0370   -6.1150   -0.9250 C   0  0  0  0  0  0  0  0  0  0  0  0
   -6.4820   -6.1690   -3.3740 C   0  0  0  0  0  0  0  0  0  0  0  0
   -7.5240   -6.5420   -4.3170 N   0  0  0  0  0  0  0  0  0  0  0  0
   -7.3120   -6.8610   -5.6640 C   0  0  0  0  0  0  0  0  0  0  0  0
   -7.0060   -7.9950   -5.9820 O   0  0  0  0  0  0  0  0  0  0  0  0
   -7.5620   -5.7620   -6.6210 C   0  0  0  0  0  0  0  0  0  0  0  0
   -6.8060   -5.3770   -7.6590 N   0  0  0  0  0  0  0  0  0  0  0  0
   -7.4050   -4.2840   -8.2760 N   0  0  0  0  0  0  0  0  0  0  0  0
   -8.5130   -4.0230   -7.6130 C   0  0  0  0  0  0  0  0  0  0  0  0
   -9.5280   -3.0320   -7.7430 C   0  0  0  0  0  0  0  0  0  0  0  0
  -10.5820   -3.0310   -6.9090 C   0  0  0  0  0  0  0  0  0  0  0  0
  -10.7090   -4.0230   -5.8610 C   0  0  0  0  0  0  0  0  0  0  0  0
   -9.7450   -4.9420   -5.7210 C   0  0  0  0  0  0  0  0  0  0  0  0
   -8.6580   -4.9390   -6.5850 N   0  0  0  0  0  0  0  0  0  0  0  0
  1  2  1  0
  2  3  1  0
  3  4  2  0
  3  5  1  0
  5  6  1  0
  6  7  1  1
  6  8  1  0
  8  9  1  0
  9 10  1  0
 10 11  2  0
 10 12  1  0
 12 13  2  0
 13 14  1  0
 14 15  2  0
 15 16  1  0
 16 17  2  0
 17 18  1  0
 18 19  2  0
 19 20  1  0
 20 12  1  0
 20 15  1  0
M  END
>  <pair>  (89) 
x1594_0A-x2021_0A

>  <sucos>  (89) 
0.4318026502648196

>  <ref_mols>  (89) 
x1594_0A,x2021_0A

>  <original SMILES>  (89) 
COC(=O)CC(C)CNC(=O)c1nnc2ccccn12

>  <cmpd_ids>  (89) 
ENAMINE:Z4294692736

>  <ref_url>  (89) 
https://github.com/stephwills/fragment_network_merges

>  <submitter_name>  (89) 
Steph Wills

>  <submitter_institution>  (89) 
University of Oxford

>  <submitter_email>  (89) 
stephanie.wills@balliol.ox.ac.uk

>  <generation_date>  (89) 
2023-09-06

>  <method>  (89) 
fragNetMergingIt3

>  <ref_pdb>  (89) 
x1594_0A,x2021_0A

$$$$
x1052-1A-x1140-0A-64
     RDKit          3D

 22 24  0  0  0  0  0  0  0  0999 V2000
   -6.3620   -8.0420    1.2900 C   0  0  0  0  0  0  0  0  0  0  0  0
   -6.5940   -7.0800    0.1970 C   0  0  0  0  0  0  0  0  0  0  0  0
   -6.0050   -6.6650   -0.9320 C   0  0  0  0  0  0  0  0  0  0  0  0
   -6.8000   -5.6820   -1.5380 C   0  0  0  0  0  0  0  0  0  0  0  0
   -6.4950   -5.0710   -2.7280 C   0  0  1  0  0  0  0  0  0  0  0  0
   -6.2190   -3.7120   -2.5460 C   0  0  0  0  0  0  0  0  0  0  0  0
   -5.3770   -5.7700   -3.3310 O   0  0  0  0  0  0  0  0  0  0  0  0
   -5.4740   -7.1460   -3.3940 C   0  0  0  0  0  0  0  0  0  0  0  0
   -5.9130   -7.8660   -4.4770 O   0  0  0  0  0  0  0  0  0  0  0  0
   -5.0710   -7.7470   -2.1850 C   0  0  0  0  0  0  0  0  0  0  0  0
   -5.7870   -8.8050   -1.5970 C   0  0  0  0  0  0  0  0  0  0  0  0
   -5.2900   -9.3790   -0.2880 C   0  0  0  0  0  0  0  0  0  0  0  0
   -4.1440   -8.8500    0.3000 C   0  0  0  0  0  0  0  0  0  0  0  0
   -3.4590   -7.7960   -0.3280 C   0  0  0  0  0  0  0  0  0  0  0  0
   -3.9170   -7.2610   -1.5460 C   0  0  0  0  0  0  0  0  0  0  0  0
   -2.3300   -7.2140    0.1710 O   0  0  0  0  0  0  0  0  0  0  0  0
   -1.6900   -7.9480    1.2070 C   0  0  0  0  0  0  0  0  0  0  0  0
   -2.3770   -7.8180    2.5450 C   0  0  0  0  0  0  0  0  0  0  0  0
   -3.6860   -8.5540    2.5800 C   0  0  0  0  0  0  0  0  0  0  0  0
   -3.7760   -9.4410    1.4810 O   0  0  0  0  0  0  0  0  0  0  0  0
   -7.8770   -5.4660   -0.7820 N   0  0  0  0  0  0  0  0  0  0  0  0
   -7.7360   -6.3480    0.2960 O   0  0  0  0  0  0  0  0  0  0  0  0
  1  2  1  0
  2  3  2  0
  3  4  1  0
  4  5  1  0
  5  6  1  1
  5  7  1  0
  7  8  1  0
  8  9  2  0
  8 10  1  0
 10 11  2  0
 11 12  1  0
 12 13  2  0
 13 14  1  0
 14 15  2  0
 14 16  1  0
 16 17  1  0
 17 18  1  0
 18 19  1  0
 19 20  1  0
  4 21  2  0
 21 22  1  0
 22  2  1  0
 15 10  1  0
 20 13  1  0
M  END
>  <pair>  (90) 
x1052_1A-x1140_0A

>  <sucos>  (90) 
0.4339814121669082

>  <ref_mols>  (90) 
x1052_1A,x1140_0A

>  <original SMILES>  (90) 
Cc1cc(C(C)OC(=O)c2ccc3c(c2)OCCCO3)no1

>  <cmpd_ids>  (90) 
ENAMINE:Z1980560911

>  <ref_url>  (90) 
https://github.com/stephwills/fragment_network_merges

>  <submitter_name>  (90) 
Steph Wills

>  <submitter_institution>  (90) 
University of Oxford

>  <submitter_email>  (90) 
stephanie.wills@balliol.ox.ac.uk

>  <generation_date>  (90) 
2023-09-06

>  <method>  (90) 
fragNetMergingIt3

>  <ref_pdb>  (90) 
x1052_1A,x1140_0A

$$$$
x1052-1A-x1594-0A-18
     RDKit          3D

 22 24  0  0  0  0  0  0  0  0999 V2000
   -3.9900   -7.1760    0.1990 C   0  0  0  0  0  0  0  0  0  0  0  0
   -5.0580   -6.7840   -0.7390 C   0  0  0  0  0  0  0  0  0  0  0  0
   -5.1100   -6.7020   -2.0910 C   0  0  0  0  0  0  0  0  0  0  0  0
   -6.4240   -6.2850   -2.3800 C   0  0  0  0  0  0  0  0  0  0  0  0
   -6.9760   -6.0960   -3.7610 C   0  0  0  0  0  0  0  0  0  0  0  0
   -6.5370   -7.2110   -4.6480 N   0  0  0  0  0  0  0  0  0  0  0  0
   -5.7090   -8.2420   -4.0190 C   0  0  0  0  0  0  0  0  0  0  0  0
   -7.3860   -7.5850   -5.7080 C   0  0  0  0  0  0  0  0  0  0  0  0
   -8.3350   -8.3390   -5.5140 O   0  0  0  0  0  0  0  0  0  0  0  0
   -7.0530   -7.0530   -6.9400 N   0  0  0  0  0  0  0  0  0  0  0  0
   -7.5540   -5.8580   -7.3130 C   0  0  0  0  0  0  0  0  0  0  0  0
   -8.6810   -5.6660   -6.6290 C   0  0  0  0  0  0  0  0  0  0  0  0
   -9.3680   -4.5400   -6.8010 C   0  0  0  0  0  0  0  0  0  0  0  0
  -10.5220   -4.3950   -6.0640 C   0  0  0  0  0  0  0  0  0  0  0  0
  -11.2660   -3.2540   -6.1910 C   0  0  0  0  0  0  0  0  0  0  0  0
  -10.8380   -2.2670   -7.0590 C   0  0  0  0  0  0  0  0  0  0  0  0
   -9.6660   -2.4280   -7.8010 C   0  0  0  0  0  0  0  0  0  0  0  0
   -8.9010   -3.5770   -7.6920 C   0  0  0  0  0  0  0  0  0  0  0  0
   -7.7630   -3.7900   -8.3880 N   0  0  0  0  0  0  0  0  0  0  0  0
   -7.0600   -4.9700   -8.1960 N   0  0  0  0  0  0  0  0  0  0  0  0
   -7.1350   -6.0960   -1.2500 N   0  0  0  0  0  0  0  0  0  0  0  0
   -6.2670   -6.4200   -0.2210 O   0  0  0  0  0  0  0  0  0  0  0  0
  1  2  1  0
  2  3  2  0
  3  4  1  0
  4  5  1  0
  5  6  1  0
  6  7  1  0
  6  8  1  0
  8  9  2  0
  8 10  1  0
 10 11  1  0
 11 12  2  0
 12 13  1  0
 13 14  2  0
 14 15  1  0
 15 16  2  0
 16 17  1  0
 17 18  2  0
 18 19  1  0
 19 20  2  0
  4 21  2  0
 21 22  1  0
 22  2  1  0
 20 11  1  0
 18 13  1  0
M  END
>  <pair>  (91) 
x1052_1A-x1594_0A

>  <sucos>  (91) 
0.43552549648660505

>  <ref_mols>  (91) 
x1052_1A,x1594_0A

>  <original SMILES>  (91) 
Cc1cc(CN(C)C(=O)Nc2cc3ccccc3nn2)no1

>  <cmpd_ids>  (91) 
ENAMINE:PV-001948771900

>  <ref_url>  (91) 
https://github.com/stephwills/fragment_network_merges

>  <submitter_name>  (91) 
Steph Wills

>  <submitter_institution>  (91) 
University of Oxford

>  <submitter_email>  (91) 
stephanie.wills@balliol.ox.ac.uk

>  <generation_date>  (91) 
2023-09-06

>  <method>  (91) 
fragNetMergingIt3

>  <ref_pdb>  (91) 
x1052_1A,x1594_0A

$$$$
x1140-0A-x0980-0B-118
     RDKit          3D

 29 32  0  0  0  0  0  0  0  0999 V2000
   -7.7790   -9.2480   -5.3890 O   0  0  0  0  0  0  0  0  0  0  0  0
   -7.6760   -8.2360   -4.7040 C   0  0  0  0  0  0  0  0  0  0  0  0
   -7.0500   -8.1640   -3.4800 N   0  0  0  0  0  0  0  0  0  0  0  0
   -5.6740   -7.7170   -3.4030 C   0  0  0  0  0  0  0  0  0  0  0  0
   -5.0670   -7.9310   -2.0160 C   0  0  0  0  0  0  0  0  0  0  0  0
   -5.9450   -8.7420   -1.1290 C   0  0  0  0  0  0  0  0  0  0  0  0
   -5.4970   -9.0030    0.1330 C   0  0  0  0  0  0  0  0  0  0  0  0
   -4.2700   -8.4930    0.4750 C   0  0  0  0  0  0  0  0  0  0  0  0
   -3.5020   -7.7340   -0.4180 C   0  0  0  0  0  0  0  0  0  0  0  0
   -3.6800   -7.2980   -1.7540 C   0  0  0  0  0  0  0  0  0  0  0  0
   -2.3420   -7.3690    0.2000 O   0  0  0  0  0  0  0  0  0  0  0  0
   -2.4510   -7.9590    1.5000 C   0  0  0  0  0  0  0  0  0  0  0  0
   -3.6830   -8.6690    1.6920 O   0  0  0  0  0  0  0  0  0  0  0  0
   -8.2080   -7.0290   -5.1360 N   0  0  0  0  0  0  0  0  0  0  0  0
   -8.7310   -5.9840   -4.2550 C   0  0  0  0  0  0  0  0  0  0  0  0
   -7.9690   -4.8290   -4.4080 C   0  0  0  0  0  0  0  0  0  0  0  0
   -7.7560   -4.2050   -3.2080 C   0  0  0  0  0  0  0  0  0  0  0  0
   -8.7380   -3.3810   -2.7120 C   0  0  0  0  0  0  0  0  0  0  0  0
   -8.6280   -2.6450   -1.4190 C   0  0  0  0  0  0  0  0  0  0  0  0
   -7.2810   -2.8840   -0.6460 C   0  0  0  0  0  0  0  0  0  0  0  0
   -6.2870   -3.8460   -1.3540 C   0  0  0  0  0  0  0  0  0  0  0  0
   -6.5530   -4.4410   -2.5550 C   0  0  0  0  0  0  0  0  0  0  0  0
   -8.7030   -6.9940   -6.5040 C   0  0  0  0  0  0  0  0  0  0  0  0
   -8.3440   -5.7350   -7.2530 C   0  0  0  0  0  0  0  0  0  0  0  0
   -9.1460   -4.5910   -7.2310 C   0  0  0  0  0  0  0  0  0  0  0  0
   -8.7510   -3.4780   -7.9460 C   0  0  0  0  0  0  0  0  0  0  0  0
   -7.5670   -3.5550   -8.6520 C   0  0  0  0  0  0  0  0  0  0  0  0
   -6.7690   -4.6220   -8.7060 N   0  0  0  0  0  0  0  0  0  0  0  0
   -7.1790   -5.6860   -8.0030 C   0  0  0  0  0  0  0  0  0  0  0  0
  1  2  2  0
  2  3  1  0
  3  4  1  0
  4  5  1  0
  5  6  2  0
  6  7  1  0
  7  8  2  0
  8  9  1  0
  9 10  2  0
  9 11  1  0
 11 12  1  0
 12 13  1  0
  2 14  1  0
 14 15  1  0
 15 16  1  0
 16 17  1  0
 17 18  2  0
 18 19  1  0
 19 20  2  0
 20 21  1  0
 21 22  2  0
 14 23  1  0
 23 24  1  0
 24 25  2  0
 25 26  1  0
 26 27  2  0
 27 28  1  0
 28 29  2  0
 10  5  1  0
 22 17  1  0
 29 24  1  0
 13  8  1  0
M  END
>  <pair>  (92) 
x1140_0A-x0980_0B

>  <sucos>  (92) 
0.43927157461191557

>  <ref_mols>  (92) 
x1140_0A,x0980_0B

>  <original SMILES>  (92) 
O=C(NCc1ccc2c(c1)OCO2)N(CCc1ccccc1)Cc1cccnc1

>  <cmpd_ids>  (92) 
ENAMINE:Z763179828

>  <ref_url>  (92) 
https://github.com/stephwills/fragment_network_merges

>  <submitter_name>  (92) 
Steph Wills

>  <submitter_institution>  (92) 
University of Oxford

>  <submitter_email>  (92) 
stephanie.wills@balliol.ox.ac.uk

>  <generation_date>  (92) 
2023-09-06

>  <method>  (92) 
fragNetMergingIt3

>  <ref_pdb>  (92) 
x1140_0A,x0980_0B

$$$$
x0147-0A-x1140-0A-156
     RDKit          3D

 24 26  0  0  0  0  0  0  0  0999 V2000
   -6.0240   -7.0600   -9.0070 O   0  0  0  0  0  0  0  0  0  0  0  0
   -6.6380   -6.9460   -7.9530 C   0  0  0  0  0  0  0  0  0  0  0  0
   -6.4660   -7.6930   -6.8060 N   0  0  0  0  0  0  0  0  0  0  0  0
   -6.3750   -6.9630   -5.5550 C   0  0  0  0  0  0  0  0  0  0  0  0
   -7.1370   -7.3910   -4.3160 C   0  0  1  0  0  0  0  0  0  0  0  0
   -6.8010   -8.8390   -3.8980 C   0  0  0  0  0  0  0  0  0  0  0  0
   -6.0370   -8.8150   -2.5830 C   0  0  0  0  0  0  0  0  0  0  0  0
   -5.5670   -7.4280   -2.5490 C   0  0  0  0  0  0  0  0  0  0  0  0
   -6.6430   -6.6330   -3.1300 N   0  0  0  0  0  0  0  0  0  0  0  0
   -6.7820   -5.2400   -2.9660 C   0  0  0  0  0  0  0  0  0  0  0  0
   -6.7080   -4.4440   -3.9170 O   0  0  0  0  0  0  0  0  0  0  0  0
   -7.0120   -4.6730   -1.5360 C   0  0  1  0  0  0  0  0  0  0  0  0
   -5.7860   -4.7620   -0.8010 O   0  0  0  0  0  0  0  0  0  0  0  0
   -7.4150   -3.3760   -1.4590 C   0  0  0  0  0  0  0  0  0  0  0  0
   -6.5390   -2.6390   -0.6930 F   0  0  0  0  0  0  0  0  0  0  0  0
   -7.7180   -5.9930   -7.6720 C   0  0  0  0  0  0  0  0  0  0  0  0
   -7.7560   -4.5530   -8.1530 C   0  0  0  0  0  0  0  0  0  0  0  0
   -8.8560   -3.8440   -7.7400 N   0  0  0  0  0  0  0  0  0  0  0  0
   -9.3430   -2.5850   -7.8840 C   0  0  0  0  0  0  0  0  0  0  0  0
  -10.6030   -2.4970   -7.1530 N   0  0  0  0  0  0  0  0  0  0  0  0
  -10.8500   -3.7250   -6.5800 N   0  0  0  0  0  0  0  0  0  0  0  0
   -9.8620   -4.5160   -6.9010 C   0  0  0  0  0  0  0  0  0  0  0  0
   -9.7190   -5.8700   -6.5210 C   0  0  0  0  0  0  0  0  0  0  0  0
   -8.7050   -6.5750   -6.8860 N   0  0  0  0  0  0  0  0  0  0  0  0
  1  2  2  0
  2  3  1  0
  3  4  1  0
  5  4  1  6
  5  6  1  0
  6  7  1  0
  7  8  1  0
  8  9  1  0
  9 10  1  0
 10 11  2  0
 10 12  1  0
 12 13  1  1
 12 14  1  0
 14 15  1  0
  2 16  1  0
 16 17  2  0
 17 18  1  0
 18 19  1  0
 19 20  2  0
 20 21  1  0
 21 22  2  0
 22 23  1  0
 23 24  2  0
  9  5  1  0
 24 16  1  0
 22 18  1  0
M  END
>  <pair>  (93) 
x0147_0A-x1140_0A

>  <sucos>  (93) 
0.4507132232943627

>  <ref_mols>  (93) 
x0147_0A,x1140_0A

>  <original SMILES>  (93) 
O=C(NCC1CCCN1C(=O)C(O)CF)c1cn2cnnc2cn1

>  <cmpd_ids>  (93) 
ENAMINE:PV-003101225891

>  <ref_url>  (93) 
https://github.com/stephwills/fragment_network_merges

>  <submitter_name>  (93) 
Steph Wills

>  <submitter_institution>  (93) 
University of Oxford

>  <submitter_email>  (93) 
stephanie.wills@balliol.ox.ac.uk

>  <generation_date>  (93) 
2023-09-06

>  <method>  (93) 
fragNetMergingIt3

>  <ref_pdb>  (93) 
x0147_0A,x1140_0A

$$$$
x1140-0A-x1594-0A-90
     RDKit          3D

 22 25  0  0  0  0  0  0  0  0999 V2000
   -7.8500   -8.0110   -3.4050 O   0  0  0  0  0  0  0  0  0  0  0  0
   -6.6850   -7.7170   -3.6310 C   0  0  0  0  0  0  0  0  0  0  0  0
   -6.2590   -7.2420   -4.9190 N   0  0  0  0  0  0  0  0  0  0  0  0
   -7.0320   -6.3530   -5.8090 C   0  0  0  0  0  0  0  0  0  0  0  0
   -8.1750   -5.8280   -5.2280 C   0  0  0  0  0  0  0  0  0  0  0  0
   -8.9520   -4.9590   -5.9360 C   0  0  0  0  0  0  0  0  0  0  0  0
  -10.0670   -4.4600   -5.3430 C   0  0  0  0  0  0  0  0  0  0  0  0
  -10.8990   -3.5620   -5.9850 C   0  0  0  0  0  0  0  0  0  0  0  0
  -10.5650   -3.1750   -7.2600 C   0  0  0  0  0  0  0  0  0  0  0  0
   -9.4310   -3.6890   -7.8630 C   0  0  0  0  0  0  0  0  0  0  0  0
   -8.6110   -4.5830   -7.2330 C   0  0  0  0  0  0  0  0  0  0  0  0
   -7.5270   -5.0830   -7.8240 N   0  0  0  0  0  0  0  0  0  0  0  0
   -6.7380   -5.9830   -7.1130 N   0  0  0  0  0  0  0  0  0  0  0  0
   -5.7580   -7.9220   -2.3780 C   0  0  0  0  0  0  0  0  0  0  0  0
   -6.3470   -8.7380   -1.3040 C   0  0  0  0  0  0  0  0  0  0  0  0
   -5.6920   -9.0070   -0.1410 C   0  0  0  0  0  0  0  0  0  0  0  0
   -4.4260   -8.5020    0.0490 C   0  0  0  0  0  0  0  0  0  0  0  0
   -3.8210   -7.7420   -0.9150 C   0  0  0  0  0  0  0  0  0  0  0  0
   -4.4450   -7.4230   -2.1380 C   0  0  0  0  0  0  0  0  0  0  0  0
   -2.5050   -7.3500   -0.4720 O   0  0  0  0  0  0  0  0  0  0  0  0
   -2.5380   -7.7930    0.9000 C   0  0  0  0  0  0  0  0  0  0  0  0
   -3.6490   -8.6850    1.1650 O   0  0  0  0  0  0  0  0  0  0  0  0
  1  2  2  0
  2  3  1  0
  3  4  1  0
  4  5  2  0
  5  6  1  0
  6  7  2  0
  7  8  1  0
  8  9  2  0
  9 10  1  0
 10 11  2  0
 11 12  1  0
 12 13  2  0
  2 14  1  0
 14 15  2  0
 15 16  1  0
 16 17  2  0
 17 18  1  0
 18 19  2  0
 18 20  1  0
 20 21  1  0
 21 22  1  0
 13  4  1  0
 19 14  1  0
 11  6  1  0
 22 17  1  0
M  END
>  <pair>  (94) 
x1140_0A-x1594_0A

>  <sucos>  (94) 
0.46108255998223596

>  <ref_mols>  (94) 
x1140_0A,x1594_0A

>  <original SMILES>  (94) 
O=C(Nc1cc2ccccc2nn1)c1ccc2c(c1)OCO2

>  <cmpd_ids>  (94) 
ENAMINE:PV-001810537140

>  <ref_url>  (94) 
https://github.com/stephwills/fragment_network_merges

>  <submitter_name>  (94) 
Steph Wills

>  <submitter_institution>  (94) 
University of Oxford

>  <submitter_email>  (94) 
stephanie.wills@balliol.ox.ac.uk

>  <generation_date>  (94) 
2023-09-06

>  <method>  (94) 
fragNetMergingIt3

>  <ref_pdb>  (94) 
x1140_0A,x1594_0A

$$$$
x1594-0A-x1919-0A-192
     RDKit          3D

 23 25  0  0  0  0  0  0  0  0999 V2000
   -6.5220   -3.9370   -3.6470 O   0  0  0  0  0  0  0  0  0  0  0  0
   -6.2960   -4.8680   -2.8880 C   0  0  0  0  0  0  0  0  0  0  0  0
   -6.6220   -4.7820   -1.3950 C   0  0  0  0  0  0  0  0  0  0  0  0
   -7.3400   -3.4780   -1.0720 C   0  0  0  0  0  0  0  0  0  0  0  0
   -6.4290   -2.5410   -0.6750 F   0  0  0  0  0  0  0  0  0  0  0  0
   -5.7150   -6.0710   -3.2820 N   0  0  0  0  0  0  0  0  0  0  0  0
   -6.3340   -7.3730   -3.1200 C   0  0  0  0  0  0  0  0  0  0  0  0
   -7.8630   -7.4100   -3.3090 C   0  0  2  0  0  0  0  0  0  0  0  0
   -8.3610   -8.7960   -3.7030 C   0  0  0  0  0  0  0  0  0  0  0  0
   -9.5110   -8.7180   -4.7380 C   0  0  0  0  0  0  0  0  0  0  0  0
   -8.7700   -7.6000   -5.5050 C   0  0  0  0  0  0  0  0  0  0  0  0
   -8.3720   -6.6460   -4.4520 N   0  0  0  0  0  0  0  0  0  0  0  0
   -8.8750   -5.3540   -4.3640 C   0  0  0  0  0  0  0  0  0  0  0  0
   -9.0120   -4.7130   -3.3330 O   0  0  0  0  0  0  0  0  0  0  0  0
   -9.2680   -4.6870   -5.6120 C   0  0  0  0  0  0  0  0  0  0  0  0
  -10.4340   -4.0410   -5.6720 C   0  0  0  0  0  0  0  0  0  0  0  0
  -10.7760   -3.4110   -6.8810 C   0  0  0  0  0  0  0  0  0  0  0  0
   -9.9230   -3.4750   -7.8990 C   0  0  0  0  0  0  0  0  0  0  0  0
   -8.7780   -4.1190   -7.8080 N   0  0  0  0  0  0  0  0  0  0  0  0
   -7.7380   -4.3340   -8.6730 C   0  0  0  0  0  0  0  0  0  0  0  0
   -6.8080   -5.0480   -8.1530 N   0  0  0  0  0  0  0  0  0  0  0  0
   -7.2360   -5.3060   -6.9010 N   0  0  0  0  0  0  0  0  0  0  0  0
   -8.3980   -4.7480   -6.7030 C   0  0  0  0  0  0  0  0  0  0  0  0
  1  2  2  0
  2  3  1  0
  3  4  1  0
  4  5  1  0
  2  6  1  0
  6  7  1  0
  8  7  1  6
  8  9  1  0
  9 10  1  0
 10 11  1  0
 11 12  1  0
 12 13  1  0
 13 14  2  0
 13 15  1  0
 15 16  2  0
 16 17  1  0
 17 18  2  0
 18 19  1  0
 19 20  1  0
 20 21  2  0
 21 22  1  0
 22 23  2  0
 12  8  1  0
 23 15  1  0
 23 19  1  0
M  END
>  <pair>  (95) 
x1594_0A-x1919_0A

>  <sucos>  (95) 
0.47318662365203756

>  <ref_mols>  (95) 
x1594_0A,x1919_0A

>  <original SMILES>  (95) 
O=C(CCF)NCC1CCCN1C(=O)c1cccn2cnnc12

>  <cmpd_ids>  (95) 
ENAMINE:PV-002983134267

>  <ref_url>  (95) 
https://github.com/stephwills/fragment_network_merges

>  <submitter_name>  (95) 
Steph Wills

>  <submitter_institution>  (95) 
University of Oxford

>  <submitter_email>  (95) 
stephanie.wills@balliol.ox.ac.uk

>  <generation_date>  (95) 
2023-09-06

>  <method>  (95) 
fragNetMergingIt3

>  <ref_pdb>  (95) 
x1594_0A,x1919_0A

$$$$
x1140-0A-x1020-0A-158
     RDKit          3D

 25 27  0  0  0  0  0  0  0  0999 V2000
   -7.0280  -13.0840    3.8860 C   0  0  0  0  0  0  0  0  0  0  0  0
   -6.2190  -11.7880    4.0240 C   0  0  0  0  0  0  0  0  0  0  0  0
   -5.3320  -11.6790    4.8660 O   0  0  0  0  0  0  0  0  0  0  0  0
   -6.6280  -10.8340    3.1230 N   0  0  0  0  0  0  0  0  0  0  0  0
   -6.8420  -10.9880    1.7330 C   0  0  0  0  0  0  0  0  0  0  0  0
   -6.0960  -11.8480    0.9160 C   0  0  0  0  0  0  0  0  0  0  0  0
   -6.4160  -11.9050   -0.5700 C   0  0  0  0  0  0  0  0  0  0  0  0
   -7.5630  -10.9760   -1.0220 C   0  0  0  0  0  0  0  0  0  0  0  0
   -7.9080  -10.9720   -2.5260 C   0  0  0  0  0  0  0  0  0  0  0  0
   -8.2710  -11.9850   -3.1200 O   0  0  0  0  0  0  0  0  0  0  0  0
   -7.7840   -9.7390   -3.1720 N   0  0  0  0  0  0  0  0  0  0  0  0
   -6.5120   -9.3620   -3.6570 N   0  0  0  0  0  0  0  0  0  0  0  0
   -5.9580   -8.1860   -3.1660 C   0  0  0  0  0  0  0  0  0  0  0  0
   -5.9980   -7.1280   -3.7950 O   0  0  0  0  0  0  0  0  0  0  0  0
   -5.3680   -8.2440   -1.9190 C   0  0  0  0  0  0  0  0  0  0  0  0
   -5.9970   -8.9230   -0.8680 C   0  0  0  0  0  0  0  0  0  0  0  0
   -5.3960   -8.9850    0.4040 C   0  0  0  0  0  0  0  0  0  0  0  0
   -4.1700   -8.3670    0.6110 C   0  0  0  0  0  0  0  0  0  0  0  0
   -3.5740   -7.7060   -0.4330 C   0  0  0  0  0  0  0  0  0  0  0  0
   -4.1280   -7.6190   -1.6950 C   0  0  0  0  0  0  0  0  0  0  0  0
   -2.3940   -7.1710   -0.0530 O   0  0  0  0  0  0  0  0  0  0  0  0
   -2.2680   -7.6570    1.2990 C   0  0  0  0  0  0  0  0  0  0  0  0
   -3.4550   -8.3310    1.7640 O   0  0  0  0  0  0  0  0  0  0  0  0
   -8.2460  -10.1840   -0.1610 N   0  0  0  0  0  0  0  0  0  0  0  0
   -7.8690  -10.2160    1.1510 C   0  0  0  0  0  0  0  0  0  0  0  0
  1  2  1  0
  2  3  2  0
  2  4  1  0
  4  5  1  0
  5  6  2  0
  6  7  1  0
  7  8  2  0
  8  9  1  0
  9 10  2  0
  9 11  1  0
 11 12  1  0
 12 13  1  0
 13 14  2  0
 13 15  1  0
 15 16  2  0
 16 17  1  0
 17 18  2  0
 18 19  1  0
 19 20  2  0
 19 21  1  0
 21 22  1  0
 22 23  1  0
  8 24  1  0
 24 25  2  0
 25  5  1  0
 20 15  1  0
 23 18  1  0
M  END
>  <pair>  (96) 
x1140_0A-x1020_0A

>  <sucos>  (96) 
0.4823075571918633

>  <ref_mols>  (96) 
x1140_0A,x1020_0A

>  <original SMILES>  (96) 
CC(=O)Nc1ccc(C(=O)NNC(=O)c2ccc3c(c2)OCO3)nc1

>  <cmpd_ids>  (96) 
ENAMINE:Z1643600518

>  <ref_url>  (96) 
https://github.com/stephwills/fragment_network_merges

>  <submitter_name>  (96) 
Steph Wills

>  <submitter_institution>  (96) 
University of Oxford

>  <submitter_email>  (96) 
stephanie.wills@balliol.ox.ac.uk

>  <generation_date>  (96) 
2023-09-06

>  <method>  (96) 
fragNetMergingIt3

>  <ref_pdb>  (96) 
x1140_0A,x1020_0A

$$$$
x1052-1A-x1594-0A-184
     RDKit          3D

 23 25  0  0  0  0  0  0  0  0999 V2000
   -7.4790   -9.1600   -6.7540 C   0  0  0  0  0  0  0  0  0  0  0  0
   -8.4930   -8.9930   -5.6890 C   0  0  1  0  0  0  0  0  0  0  0  0
   -8.3220   -8.7560   -4.3470 C   0  0  0  0  0  0  0  0  0  0  0  0
   -7.1620   -9.4170   -3.7700 N   0  0  0  0  0  0  0  0  0  0  0  0
   -5.9310   -8.7940   -3.7480 C   0  0  0  0  0  0  0  0  0  0  0  0
   -5.2540   -8.6320   -4.7580 O   0  0  0  0  0  0  0  0  0  0  0  0
   -5.5050   -8.3140   -2.4270 C   0  0  0  0  0  0  0  0  0  0  0  0
   -5.9070   -7.1510   -1.8120 C   0  0  0  0  0  0  0  0  0  0  0  0
   -5.3940   -5.8280   -2.2210 C   0  0  0  0  0  0  0  0  0  0  0  0
   -6.1020   -4.9290   -1.3330 C   0  0  0  0  0  0  0  0  0  0  0  0
   -7.0060   -5.6390   -0.4180 N   0  0  0  0  0  0  0  0  0  0  0  0
   -6.8600   -7.0320   -0.7310 O   0  0  0  0  0  0  0  0  0  0  0  0
   -9.4230   -7.9810   -6.2150 N   0  0  0  0  0  0  0  0  0  0  0  0
   -9.8350   -6.8640   -5.5110 C   0  0  0  0  0  0  0  0  0  0  0  0
  -10.2920   -6.9390   -4.3790 O   0  0  0  0  0  0  0  0  0  0  0  0
   -9.7060   -5.5510   -6.2260 C   0  0  0  0  0  0  0  0  0  0  0  0
  -10.5690   -4.4830   -6.0770 C   0  0  0  0  0  0  0  0  0  0  0  0
  -10.1900   -3.0940   -7.0140 S   0  0  0  0  0  0  0  0  0  0  0  0
   -8.8140   -3.9370   -7.6580 C   0  0  0  0  0  0  0  0  0  0  0  0
   -7.8860   -3.5270   -8.5530 N   0  0  0  0  0  0  0  0  0  0  0  0
   -7.0140   -4.4470   -8.7790 N   0  0  0  0  0  0  0  0  0  0  0  0
   -7.2720   -5.8460   -7.9210 S   0  0  0  0  0  0  0  0  0  0  0  0
   -8.6860   -5.2050   -7.1580 C   0  0  0  0  0  0  0  0  0  0  0  0
  2  1  1  6
  2  3  1  0
  3  4  1  0
  4  5  1  0
  5  6  2  0
  5  7  1  0
  7  8  1  0
  8  9  2  0
  9 10  1  0
 10 11  2  0
 11 12  1  0
  2 13  1  0
 13 14  1  0
 14 15  2  0
 14 16  1  0
 16 17  2  0
 17 18  1  0
 18 19  1  0
 19 20  1  0
 20 21  2  0
 21 22  1  0
 22 23  1  0
 12  8  1  0
 23 16  1  0
 23 19  2  0
M  END
>  <pair>  (97) 
x1052_1A-x1594_0A

>  <sucos>  (97) 
0.5078758439254011

>  <ref_mols>  (97) 
x1052_1A,x1594_0A

>  <original SMILES>  (97) 
CC(CNC(=O)Cc1ccno1)NC(=O)c1csc2nnsc12

>  <cmpd_ids>  (97) 
ENAMINE:PV-003755138039

>  <ref_url>  (97) 
https://github.com/stephwills/fragment_network_merges

>  <submitter_name>  (97) 
Steph Wills

>  <submitter_institution>  (97) 
University of Oxford

>  <submitter_email>  (97) 
stephanie.wills@balliol.ox.ac.uk

>  <generation_date>  (97) 
2023-09-06

>  <method>  (97) 
fragNetMergingIt3

>  <ref_pdb>  (97) 
x1052_1A,x1594_0A

$$$$
x1594-0A-x1919-0A-47
     RDKit          3D

 22 23  0  0  0  0  0  0  0  0999 V2000
   -5.6320   -0.4710   -1.0580 C   0  0  0  0  0  0  0  0  0  0  0  0
   -6.7780   -1.3580   -0.5690 C   0  0  0  0  0  0  0  0  0  0  0  0
   -7.1420   -1.0190    0.8710 C   0  0  0  0  0  0  0  0  0  0  0  0
   -6.3300   -2.7370   -0.6190 O   0  0  0  0  0  0  0  0  0  0  0  0
   -7.3150   -3.7030   -0.7900 C   0  0  0  0  0  0  0  0  0  0  0  0
   -8.4300   -3.5870   -0.3110 O   0  0  0  0  0  0  0  0  0  0  0  0
   -6.8170   -4.8770   -1.6070 C   0  0  0  0  0  0  0  0  0  0  0  0
   -7.2730   -4.7740   -3.3320 S   0  0  0  0  0  6  0  0  0  0  0  0
   -6.3420   -3.8650   -3.9020 O   0  0  0  0  0  0  0  0  0  0  0  0
   -8.6840   -4.4560   -3.3030 O   0  0  0  0  0  0  0  0  0  0  0  0
   -7.2080   -6.2800   -4.1330 N   0  0  0  0  0  0  0  0  0  0  0  0
   -7.1140   -6.6100   -5.6310 C   0  0  1  0  0  0  0  0  0  0  0  0
   -7.9820   -7.8460   -5.8760 C   0  0  0  0  0  0  0  0  0  0  0  0
   -7.5280   -5.5340   -6.6360 C   0  0  0  0  0  0  0  0  0  0  0  0
   -6.8540   -5.1220   -7.7180 N   0  0  0  0  0  0  0  0  0  0  0  0
   -7.5690   -4.1120   -8.3340 N   0  0  0  0  0  0  0  0  0  0  0  0
   -8.6640   -3.9300   -7.6300 C   0  0  0  0  0  0  0  0  0  0  0  0
   -9.7650   -3.0340   -7.7470 C   0  0  0  0  0  0  0  0  0  0  0  0
  -10.7770   -3.0910   -6.8700 C   0  0  0  0  0  0  0  0  0  0  0  0
  -10.7790   -4.0500   -5.7870 C   0  0  0  0  0  0  0  0  0  0  0  0
   -9.7370   -4.8830   -5.6570 C   0  0  0  0  0  0  0  0  0  0  0  0
   -8.6920   -4.8180   -6.5640 N   0  0  0  0  0  0  0  0  0  0  0  0
  1  2  1  0
  2  3  1  0
  2  4  1  0
  4  5  1  0
  5  6  2  0
  5  7  1  0
  7  8  1  0
  8  9  2  0
  8 10  2  0
  8 11  1  0
 11 12  1  0
 12 13  1  1
 12 14  1  0
 14 15  2  0
 15 16  1  0
 16 17  2  0
 17 18  1  0
 18 19  2  0
 19 20  1  0
 20 21  2  0
 21 22  1  0
 22 14  1  0
 22 17  1  0
M  END
>  <pair>  (98) 
x1594_0A-x1919_0A

>  <sucos>  (98) 
0.5195657766809116

>  <ref_mols>  (98) 
x1594_0A,x1919_0A

>  <original SMILES>  (98) 
CC(C)OC(=O)CS(=O)(=O)NC(C)c1nnc2ccccn12

>  <cmpd_ids>  (98) 
ENAMINE:PV-002926219238

>  <ref_url>  (98) 
https://github.com/stephwills/fragment_network_merges

>  <submitter_name>  (98) 
Steph Wills

>  <submitter_institution>  (98) 
University of Oxford

>  <submitter_email>  (98) 
stephanie.wills@balliol.ox.ac.uk

>  <generation_date>  (98) 
2023-09-06

>  <method>  (98) 
fragNetMergingIt3

>  <ref_pdb>  (98) 
x1594_0A,x1919_0A

$$$$
x1020-0A-x0130-0A-115
     RDKit          3D

 22 23  0  0  0  0  0  0  0  0999 V2000
   -0.2210   -8.6150   -0.2130 C   0  0  0  0  0  0  0  0  0  0  0  0
    0.1590   -9.4250    1.0230 C   0  0  0  0  0  0  0  0  0  0  0  0
   -0.7330   -9.2940    2.1800 N   0  0  0  0  0  0  0  0  0  0  0  0
   -1.3430   -8.0060    2.4590 C   0  0  0  0  0  0  0  0  0  0  0  0
   -2.4090   -7.4550    1.5340 C   0  0  0  0  0  0  0  0  0  0  0  0
   -1.6550  -10.4160    2.3250 C   0  0  0  0  0  0  0  0  0  0  0  0
   -2.9630   -9.9580    2.0600 C   0  0  0  0  0  0  0  0  0  0  0  0
   -3.1970   -8.9350    1.1320 C   0  0  0  0  0  0  0  0  0  0  0  0
   -4.6250   -8.4560    0.8600 C   0  0  0  0  0  0  0  0  0  0  0  0
   -5.6620   -9.0650    1.5590 C   0  0  0  0  0  0  0  0  0  0  0  0
   -5.3930  -10.0820    2.4780 C   0  0  0  0  0  0  0  0  0  0  0  0
   -6.3960  -10.7270    3.2110 N   0  0  0  0  0  0  0  0  0  0  0  0
   -6.2290  -11.7290    4.1430 C   0  0  0  0  0  0  0  0  0  0  0  0
   -5.3960  -11.7630    5.0430 O   0  0  0  0  0  0  0  0  0  0  0  0
   -7.2500  -12.8540    3.9250 C   0  0  0  0  0  0  0  0  0  0  0  0
   -8.6180  -12.3280    3.4860 C   0  0  0  0  0  0  0  0  0  0  0  0
   -9.6570  -13.4190    3.2970 C   0  0  2  0  0  0  0  0  0  0  0  0
   -9.1410  -14.8060    3.6610 C   0  0  0  0  0  0  0  0  0  0  0  0
  -10.1680  -15.7030    3.0130 C   0  0  0  0  0  0  0  0  0  0  0  0
  -10.5160  -14.9260    1.7600 C   0  0  0  0  0  0  0  0  0  0  0  0
  -10.1420  -13.5280    2.0220 N   0  0  0  0  0  0  0  0  0  0  0  0
   -4.0710  -10.5160    2.7200 C   0  0  0  0  0  0  0  0  0  0  0  0
  1  2  1  0
  2  3  1  0
  3  4  1  0
  4  5  1  0
  3  6  1  0
  6  7  1  0
  7  8  2  0
  8  9  1  0
  9 10  2  0
 10 11  1  0
 11 12  1  0
 12 13  1  0
 13 14  2  0
 13 15  1  0
 15 16  1  0
 17 16  1  6
 17 18  1  0
 18 19  1  0
 19 20  1  0
 20 21  1  0
 11 22  2  0
 22  7  1  0
 21 17  1  0
M  END
>  <pair>  (99) 
x1020_0A-x0130_0A

>  <sucos>  (99) 
0.5362496307363492

>  <ref_mols>  (99) 
x1020_0A,x0130_0A

>  <original SMILES>  (99) 
CCN(CC)Cc1cccc(NC(=O)CCC2CCCN2)c1

>  <cmpd_ids>  (99) 
ENAMINE:Z2434595610,ENAMINE:Z3102817640

>  <ref_url>  (99) 
https://github.com/stephwills/fragment_network_merges

>  <submitter_name>  (99) 
Steph Wills

>  <submitter_institution>  (99) 
University of Oxford

>  <submitter_email>  (99) 
stephanie.wills@balliol.ox.ac.uk

>  <generation_date>  (99) 
2023-09-06

>  <method>  (99) 
fragNetMergingIt3

>  <ref_pdb>  (99) 
x1020_0A,x0130_0A

$$$$
x1594-0A-x1919-0A-194
     RDKit          3D

 24 26  0  0  0  0  0  0  0  0999 V2000
   -5.9610   -7.0530   -3.6410 C   0  0  0  0  0  0  0  0  0  0  0  0
   -7.1070   -6.1650   -3.3680 N   0  0  0  0  0  0  0  0  0  0  0  0
   -6.7770   -4.9060   -2.8560 C   0  0  0  0  0  0  0  0  0  0  0  0
   -6.3330   -3.9870   -3.5640 O   0  0  0  0  0  0  0  0  0  0  0  0
   -6.9870   -4.6140   -1.3740 C   0  0  1  0  0  0  0  0  0  0  0  0
   -5.7740   -4.8650   -0.6670 O   0  0  0  0  0  0  0  0  0  0  0  0
   -7.4330   -3.1570   -1.1400 C   0  0  0  0  0  0  0  0  0  0  0  0
   -6.4130   -2.4050   -0.6400 F   0  0  0  0  0  0  0  0  0  0  0  0
   -8.2910   -6.3480   -4.0440 C   0  0  1  0  0  0  0  0  0  0  0  0
   -8.9390   -7.7160   -4.0510 C   0  0  0  0  0  0  0  0  0  0  0  0
  -10.4380   -7.4900   -4.3000 C   0  0  0  0  0  0  0  0  0  0  0  0
  -10.6380   -6.0470   -4.1840 N   0  0  0  0  0  0  0  0  0  0  0  0
  -11.3120   -5.3750   -5.1840 C   0  0  0  0  0  0  0  0  0  0  0  0
  -12.5340   -5.2880   -5.2780 O   0  0  0  0  0  0  0  0  0  0  0  0
  -10.4070   -4.7450   -6.1730 C   0  0  0  0  0  0  0  0  0  0  0  0
  -10.5250   -3.3940   -6.7310 C   0  0  0  0  0  0  0  0  0  0  0  0
   -9.5990   -2.9380   -7.6100 C   0  0  0  0  0  0  0  0  0  0  0  0
   -8.5140   -3.7890   -7.9810 C   0  0  0  0  0  0  0  0  0  0  0  0
   -7.4840   -3.6470   -8.7760 N   0  0  0  0  0  0  0  0  0  0  0  0
   -6.7490   -4.8100   -8.7500 N   0  0  0  0  0  0  0  0  0  0  0  0
   -7.3490   -5.6370   -7.9380 C   0  0  0  0  0  0  0  0  0  0  0  0
   -8.4640   -5.0470   -7.4280 N   0  0  0  0  0  0  0  0  0  0  0  0
   -9.3950   -5.5290   -6.5400 C   0  0  0  0  0  0  0  0  0  0  0  0
   -9.4680   -5.5060   -3.5050 C   0  0  0  0  0  0  0  0  0  0  0  0
  1  2  1  0
  2  3  1  0
  3  4  2  0
  3  5  1  0
  5  6  1  1
  5  7  1  0
  7  8  1  0
  9  2  1  1
  9 10  1  0
 10 11  1  0
 11 12  1  0
 12 13  1  0
 13 14  2  0
 13 15  1  0
 15 16  1  0
 16 17  2  0
 17 18  1  0
 18 19  2  0
 19 20  1  0
 20 21  2  0
 21 22  1  0
 22 23  1  0
 12 24  1  0
 24  9  1  0
 23 15  2  0
 22 18  1  0
M  END
>  <pair>  (100) 
x1594_0A-x1919_0A

>  <sucos>  (100) 
0.5525085418757104

>  <ref_mols>  (100) 
x1594_0A,x1919_0A

>  <original SMILES>  (100) 
CN(C(=O)C(O)CF)C1CCN(C(=O)c2ccc3nncn3c2)C1

>  <cmpd_ids>  (100) 
ENAMINE:PV-003080316839

>  <ref_url>  (100) 
https://github.com/stephwills/fragment_network_merges

>  <submitter_name>  (100) 
Steph Wills

>  <submitter_institution>  (100) 
University of Oxford

>  <submitter_email>  (100) 
stephanie.wills@balliol.ox.ac.uk

>  <generation_date>  (100) 
2023-09-06

>  <method>  (100) 
fragNetMergingIt3

>  <ref_pdb>  (100) 
x1594_0A,x1919_0A

$$$$
x1052-1A-x1594-0A-65
     RDKit          3D

 23 25  0  0  0  0  0  0  0  0999 V2000
   -7.5210   -5.1590   -4.3750 C   0  0  0  0  0  0  0  0  0  0  0  0
   -8.6980   -4.7270   -3.5960 C   0  0  2  0  0  0  0  0  0  0  0  0
   -8.2810   -3.9600   -2.4180 N   0  0  0  0  0  0  0  0  0  0  0  0
   -6.9640   -3.9180   -1.9930 C   0  0  0  0  0  0  0  0  0  0  0  0
   -6.3090   -2.8800   -2.0160 O   0  0  0  0  0  0  0  0  0  0  0  0
   -6.4510   -5.1610   -1.5300 C   0  0  0  0  0  0  0  0  0  0  0  0
   -5.3190   -5.9710   -2.0050 C   0  0  0  0  0  0  0  0  0  0  0  0
   -5.3140   -7.0550   -1.1740 C   0  0  0  0  0  0  0  0  0  0  0  0
   -6.3260   -6.9460   -0.2760 O   0  0  0  0  0  0  0  0  0  0  0  0
   -7.0310   -5.7790   -0.4900 N   0  0  0  0  0  0  0  0  0  0  0  0
   -9.6540   -5.9070   -3.1950 C   0  0  1  0  0  0  0  0  0  0  0  0
  -10.5720   -5.5020   -2.2170 C   0  0  0  0  0  0  0  0  0  0  0  0
  -10.3860   -6.5200   -4.3180 N   0  0  0  0  0  0  0  0  0  0  0  0
   -9.8480   -6.6560   -5.5760 C   0  0  0  0  0  0  0  0  0  0  0  0
   -9.5300   -7.7470   -6.0460 O   0  0  0  0  0  0  0  0  0  0  0  0
   -9.6770   -5.4750   -6.2920 C   0  0  0  0  0  0  0  0  0  0  0  0
  -10.5530   -4.4050   -6.1640 C   0  0  0  0  0  0  0  0  0  0  0  0
  -10.1550   -3.0460   -7.1340 S   0  0  0  0  0  0  0  0  0  0  0  0
   -8.7740   -3.9040   -7.7480 C   0  0  0  0  0  0  0  0  0  0  0  0
   -7.8330   -3.5260   -8.6420 N   0  0  0  0  0  0  0  0  0  0  0  0
   -6.9670   -4.4600   -8.8340 N   0  0  0  0  0  0  0  0  0  0  0  0
   -7.2430   -5.8300   -7.9450 S   0  0  0  0  0  0  0  0  0  0  0  0
   -8.6560   -5.1570   -7.2170 C   0  0  0  0  0  0  0  0  0  0  0  0
  2  1  1  1
  2  3  1  0
  3  4  1  0
  4  5  2  0
  4  6  1  0
  6  7  1  0
  7  8  2  0
  8  9  1  0
  9 10  1  0
  2 11  1  0
 11 12  1  1
 11 13  1  0
 13 14  1  0
 14 15  2  0
 14 16  1  0
 16 17  2  0
 17 18  1  0
 18 19  1  0
 19 20  1  0
 20 21  2  0
 21 22  1  0
 22 23  1  0
 10  6  2  0
 23 16  1  0
 23 19  2  0
M  END
>  <pair>  (101) 
x1052_1A-x1594_0A

>  <sucos>  (101) 
0.5610390894089262

>  <ref_mols>  (101) 
x1052_1A,x1594_0A

>  <original SMILES>  (101) 
CC(NC(=O)c1ccon1)C(C)NC(=O)c1csc2nnsc12

>  <cmpd_ids>  (101) 
ENAMINE:PV-003742073090

>  <ref_url>  (101) 
https://github.com/stephwills/fragment_network_merges

>  <submitter_name>  (101) 
Steph Wills

>  <submitter_institution>  (101) 
University of Oxford

>  <submitter_email>  (101) 
stephanie.wills@balliol.ox.ac.uk

>  <generation_date>  (101) 
2023-09-06

>  <method>  (101) 
fragNetMergingIt3

>  <ref_pdb>  (101) 
x1052_1A,x1594_0A

$$$$
x1594-0A-x1052-1A-165
     RDKit          3D

 24 26  0  0  0  0  0  0  0  0999 V2000
  -10.3200   -2.7180   -3.6420 C   0  0  0  0  0  0  0  0  0  0  0  0
  -10.6180   -3.9570   -2.8140 C   0  0  1  0  0  0  0  0  0  0  0  0
  -11.0800   -5.0660   -3.6730 N   0  0  0  0  0  0  0  0  0  0  0  0
  -11.6310   -4.7340   -4.9960 C   0  0  0  0  0  0  0  0  0  0  0  0
  -12.8240   -4.7360   -5.2790 O   0  0  0  0  0  0  0  0  0  0  0  0
  -10.5560   -4.3770   -6.0370 C   0  0  0  0  0  0  0  0  0  0  0  0
  -10.5790   -3.1480   -6.7020 C   0  0  0  0  0  0  0  0  0  0  0  0
   -9.5250   -2.8410   -7.6840 C   0  0  0  0  0  0  0  0  0  0  0  0
   -8.5300   -3.7850   -7.9270 C   0  0  0  0  0  0  0  0  0  0  0  0
   -7.4860   -3.8040   -8.7170 N   0  0  0  0  0  0  0  0  0  0  0  0
   -6.8320   -5.0020   -8.5560 N   0  0  0  0  0  0  0  0  0  0  0  0
   -7.4930   -5.6980   -7.6640 C   0  0  0  0  0  0  0  0  0  0  0  0
   -8.5900   -4.9740   -7.2240 N   0  0  0  0  0  0  0  0  0  0  0  0
   -9.5800   -5.2780   -6.2950 C   0  0  0  0  0  0  0  0  0  0  0  0
   -9.3860   -4.4040   -1.9480 C   0  0  2  0  0  0  0  0  0  0  0  0
   -9.6290   -4.3740   -0.5470 C   0  0  0  0  0  0  0  0  0  0  0  0
   -8.1740   -3.6400   -2.2370 N   0  0  0  0  0  0  0  0  0  0  0  0
   -7.0160   -4.2560   -2.6770 C   0  0  0  0  0  0  0  0  0  0  0  0
   -6.3850   -3.9130   -3.6690 O   0  0  0  0  0  0  0  0  0  0  0  0
   -6.5860   -5.3900   -1.8670 C   0  0  0  0  0  0  0  0  0  0  0  0
   -5.4970   -6.1170   -2.2060 C   0  0  0  0  0  0  0  0  0  0  0  0
   -5.2180   -7.3940   -1.1000 S   0  0  0  0  0  0  0  0  0  0  0  0
   -6.5940   -6.9030   -0.2140 C   0  0  0  0  0  0  0  0  0  0  0  0
   -7.2600   -5.8030   -0.7130 N   0  0  0  0  0  0  0  0  0  0  0  0
  2  1  1  6
  2  3  1  0
  3  4  1  0
  4  5  2  0
  4  6  1  0
  6  7  1  0
  7  8  2  0
  8  9  1  0
  9 10  2  0
 10 11  1  0
 11 12  2  0
 12 13  1  0
 13 14  1  0
  2 15  1  0
 15 16  1  1
 15 17  1  0
 17 18  1  0
 18 19  2  0
 18 20  1  0
 20 21  2  0
 21 22  1  0
 22 23  1  0
 23 24  2  0
 14  6  2  0
 24 20  1  0
 13  9  1  0
M  END
>  <pair>  (102) 
x1594_0A-x1052_1A

>  <sucos>  (102) 
0.604416528320712

>  <ref_mols>  (102) 
x1594_0A,x1052_1A

>  <original SMILES>  (102) 
CC(NC(=O)c1ccc2nncn2c1)C(C)NC(=O)c1cscn1

>  <cmpd_ids>  (102) 
ENAMINE:PV-001047837647

>  <ref_url>  (102) 
https://github.com/stephwills/fragment_network_merges

>  <submitter_name>  (102) 
Steph Wills

>  <submitter_institution>  (102) 
University of Oxford

>  <submitter_email>  (102) 
stephanie.wills@balliol.ox.ac.uk

>  <generation_date>  (102) 
2023-09-06

>  <method>  (102) 
fragNetMergingIt3

>  <ref_pdb>  (102) 
x1594_0A,x1052_1A

$$$$
x1052-1A-x1498-0A-46
     RDKit          3D

 20 21  0  0  0  0  0  0  0  0999 V2000
   -6.6080   -7.8310   -8.1720 C   0  0  0  0  0  0  0  0  0  0  0  0
   -6.3030   -7.9220   -6.6670 C   0  0  0  0  0  0  0  0  0  0  0  0
   -7.2220   -7.0340   -5.8170 C   0  0  1  0  0  0  0  0  0  0  0  0
   -7.8510   -5.9040   -6.5960 C   0  0  0  0  0  0  0  0  0  0  0  0
   -7.2200   -5.3280   -7.7000 C   0  0  0  0  0  0  0  0  0  0  0  0
   -7.8460   -4.2950   -8.3580 C   0  0  0  0  0  0  0  0  0  0  0  0
   -9.0450   -3.7990   -7.9950 N   0  0  0  0  0  0  0  0  0  0  0  0
   -9.6430   -4.3640   -6.9370 C   0  0  0  0  0  0  0  0  0  0  0  0
   -9.0960   -5.4030   -6.2160 C   0  0  0  0  0  0  0  0  0  0  0  0
   -8.1990   -7.7540   -4.9660 N   0  0  0  0  0  0  0  0  0  0  0  0
   -9.0980   -8.6750   -5.6820 C   0  0  0  0  0  0  0  0  0  0  0  0
   -8.3700   -9.8040   -6.3990 C   0  0  0  0  0  0  0  0  0  0  0  0
   -8.5610   -7.1940   -3.7200 C   0  0  0  0  0  0  0  0  0  0  0  0
   -9.5250   -7.6180   -3.0840 O   0  0  0  0  0  0  0  0  0  0  0  0
   -7.7750   -6.1500   -3.2580 N   0  0  0  0  0  0  0  0  0  0  0  0
   -6.8610   -6.2790   -2.2290 C   0  0  0  0  0  0  0  0  0  0  0  0
   -5.4690   -6.5050   -2.2840 C   0  0  0  0  0  0  0  0  0  0  0  0
   -5.0890   -6.5720   -0.9770 C   0  0  0  0  0  0  0  0  0  0  0  0
   -6.1720   -6.3920   -0.1860 O   0  0  0  0  0  0  0  0  0  0  0  0
   -7.2880   -6.2000   -0.9630 N   0  0  0  0  0  0  0  0  0  0  0  0
  1  2  1  0
  3  2  1  6
  3  4  1  0
  4  5  2  0
  5  6  1  0
  6  7  2  0
  7  8  1  0
  8  9  2  0
  3 10  1  0
 10 11  1  0
 11 12  1  0
 10 13  1  0
 13 14  2  0
 13 15  1  0
 15 16  1  0
 16 17  1  0
 17 18  2  0
 18 19  1  0
 19 20  1  0
  9  4  1  0
 20 16  2  0
M  END
>  <pair>  (103) 
x1052_1A-x1498_0A

>  <sucos>  (103) 
0.4009909237871409

>  <ref_mols>  (103) 
x1052_1A,x1498_0A

>  <original SMILES>  (103) 
CCC(c1ccncc1)N(CC)C(=O)Nc1ccon1

>  <cmpd_ids>  (103) 
ENAMINE:Z1671843450

>  <ref_url>  (103) 
https://github.com/stephwills/fragment_network_merges

>  <submitter_name>  (103) 
Steph Wills

>  <submitter_institution>  (103) 
University of Oxford

>  <submitter_email>  (103) 
stephanie.wills@balliol.ox.ac.uk

>  <generation_date>  (103) 
2023-09-06

>  <method>  (103) 
fragNetMergingIt3

>  <ref_pdb>  (103) 
x1052_1A,x1498_0A

$$$$
x1020-0A-x0130-0A-17
     RDKit          3D

 23 25  0  0  0  0  0  0  0  0999 V2000
   -0.5620   -9.0960    2.6560 N   0  0  0  0  0  0  0  0  0  0  0  0
   -1.8240   -9.7900    2.4060 C   0  0  0  0  0  0  0  0  0  0  0  0
   -1.7650  -11.2790    2.7160 C   0  0  0  0  0  0  0  0  0  0  0  0
   -0.4860  -11.8010    2.9770 C   0  0  0  0  0  0  0  0  0  0  0  0
   -0.2920  -13.1470    3.2720 C   0  0  0  0  0  0  0  0  0  0  0  0
   -1.3720  -14.0070    3.3120 C   0  0  0  0  0  0  0  0  0  0  0  0
   -2.6590  -13.5400    3.0620 C   0  0  0  0  0  0  0  0  0  0  0  0
   -2.9260  -12.1910    2.7600 C   0  0  0  0  0  0  0  0  0  0  0  0
   -4.4180  -11.8030    2.5020 C   0  0  0  0  0  0  0  0  0  0  0  0
   -5.5200  -12.4110    3.3710 C   0  0  0  0  0  0  0  0  0  0  0  0
   -6.2110  -11.3000    4.0950 C   0  0  0  0  0  0  0  0  0  0  0  0
   -6.2930  -11.2770    5.3120 O   0  0  0  0  0  0  0  0  0  0  0  0
   -6.6690  -10.3720    3.1660 N   0  0  0  0  0  0  0  0  0  0  0  0
   -6.5450  -10.4300    1.7410 C   0  0  0  0  0  0  0  0  0  0  0  0
   -7.2060  -11.4280    1.0070 C   0  0  0  0  0  0  0  0  0  0  0  0
   -7.0970  -11.5020   -0.3810 C   0  0  0  0  0  0  0  0  0  0  0  0
   -6.3240  -10.5790   -1.0700 C   0  0  0  0  0  0  0  0  0  0  0  0
   -5.6480   -9.5680   -0.3780 C   0  0  0  0  0  0  0  0  0  0  0  0
   -4.8680   -8.6400   -1.0760 C   0  0  0  0  0  0  0  0  0  0  0  0
   -4.1770   -7.6330   -0.5100 N   0  0  0  0  0  0  0  0  0  0  0  0
   -4.2590   -7.5380    0.8260 C   0  0  0  0  0  0  0  0  0  0  0  0
   -5.0040   -8.4010    1.6230 C   0  0  0  0  0  0  0  0  0  0  0  0
   -5.7370   -9.4660    1.0370 C   0  0  0  0  0  0  0  0  0  0  0  0
  1  2  1  0
  2  3  1  0
  3  4  2  0
  4  5  1  0
  5  6  2  0
  6  7  1  0
  7  8  2  0
  8  9  1  0
  9 10  1  0
 10 11  1  0
 11 12  2  0
 11 13  1  0
 13 14  1  0
 14 15  2  0
 15 16  1  0
 16 17  2  0
 17 18  1  0
 18 19  2  0
 19 20  1  0
 20 21  2  0
 21 22  1  0
 22 23  2  0
  8  3  1  0
 23 14  1  0
 23 18  1  0
M  END
>  <pair>  (104) 
x1020_0A-x0130_0A

>  <sucos>  (104) 
0.4024106106783642

>  <ref_mols>  (104) 
x1020_0A,x0130_0A

>  <original SMILES>  (104) 
NCc1ccccc1CCC(=O)Nc1cccc2cnccc12

>  <cmpd_ids>  (104) 
ENAMINE:PV-003432587728

>  <ref_url>  (104) 
https://github.com/stephwills/fragment_network_merges

>  <submitter_name>  (104) 
Steph Wills

>  <submitter_institution>  (104) 
University of Oxford

>  <submitter_email>  (104) 
stephanie.wills@balliol.ox.ac.uk

>  <generation_date>  (104) 
2023-09-06

>  <method>  (104) 
fragNetMergingIt3

>  <ref_pdb>  (104) 
x1020_0A,x0130_0A

$$$$
x1052-1A-x1140-0A-21
     RDKit          3D

 22 24  0  0  0  0  0  0  0  0999 V2000
   -7.7390   -9.2070    0.7360 C   0  0  0  0  0  0  0  0  0  0  0  0
   -6.7490   -8.1000    1.0480 C   0  0  0  0  0  0  0  0  0  0  0  0
   -6.8150   -7.0220    0.0470 C   0  0  0  0  0  0  0  0  0  0  0  0
   -6.0940   -6.7270   -1.0550 C   0  0  0  0  0  0  0  0  0  0  0  0
   -6.6820   -5.5760   -1.5670 C   0  0  0  0  0  0  0  0  0  0  0  0
   -6.2360   -4.9010   -2.7930 C   0  0  0  0  0  0  0  0  0  0  0  0
   -5.3320   -5.7680   -3.5180 O   0  0  0  0  0  0  0  0  0  0  0  0
   -5.5730   -7.1150   -3.5400 C   0  0  0  0  0  0  0  0  0  0  0  0
   -6.0710   -7.7320   -4.4720 O   0  0  0  0  0  0  0  0  0  0  0  0
   -5.1510   -7.7590   -2.2570 C   0  0  0  0  0  0  0  0  0  0  0  0
   -5.7620   -8.9230   -1.7540 C   0  0  0  0  0  0  0  0  0  0  0  0
   -5.3360   -9.4690   -0.5420 C   0  0  0  0  0  0  0  0  0  0  0  0
   -4.3030   -8.8760    0.1880 C   0  0  0  0  0  0  0  0  0  0  0  0
   -3.6830   -7.7210   -0.3010 C   0  0  0  0  0  0  0  0  0  0  0  0
   -4.1070   -7.1700   -1.5210 C   0  0  0  0  0  0  0  0  0  0  0  0
   -2.6670   -7.0490    0.3220 O   0  0  0  0  0  0  0  0  0  0  0  0
   -2.0290   -7.7530    1.3880 C   0  0  0  0  0  0  0  0  0  0  0  0
   -2.8660   -7.8370    2.6530 C   0  0  0  0  0  0  0  0  0  0  0  0
   -4.0960   -8.6990    2.5090 C   0  0  0  0  0  0  0  0  0  0  0  0
   -3.9940   -9.5220    1.3560 O   0  0  0  0  0  0  0  0  0  0  0  0
   -7.7090   -5.1600   -0.8180 N   0  0  0  0  0  0  0  0  0  0  0  0
   -7.7870   -6.0860    0.2070 O   0  0  0  0  0  0  0  0  0  0  0  0
  1  2  1  0
  2  3  1  0
  3  4  2  0
  4  5  1  0
  5  6  1  0
  6  7  1  0
  7  8  1  0
  8  9  2  0
  8 10  1  0
 10 11  2  0
 11 12  1  0
 12 13  2  0
 13 14  1  0
 14 15  2  0
 14 16  1  0
 16 17  1  0
 17 18  1  0
 18 19  1  0
 19 20  1  0
  5 21  2  0
 21 22  1  0
 22  3  1  0
 15 10  1  0
 20 13  1  0
M  END
>  <pair>  (105) 
x1052_1A-x1140_0A

>  <sucos>  (105) 
0.40314568846853477

>  <ref_mols>  (105) 
x1052_1A,x1140_0A

>  <original SMILES>  (105) 
CCc1cc(COC(=O)c2ccc3c(c2)OCCCO3)no1

>  <cmpd_ids>  (105) 
ENAMINE:Z3563226776

>  <ref_url>  (105) 
https://github.com/stephwills/fragment_network_merges

>  <submitter_name>  (105) 
Steph Wills

>  <submitter_institution>  (105) 
University of Oxford

>  <submitter_email>  (105) 
stephanie.wills@balliol.ox.ac.uk

>  <generation_date>  (105) 
2023-09-06

>  <method>  (105) 
fragNetMergingIt3

>  <ref_pdb>  (105) 
x1052_1A,x1140_0A

$$$$
x1140-0A-x0980-0B-75
     RDKit          3D

 23 26  0  0  0  0  0  0  0  0999 V2000
   -6.4020   -8.8580   -3.8620 O   0  0  0  0  0  0  0  0  0  0  0  0
   -5.7890   -7.9240   -3.3540 C   0  0  0  0  0  0  0  0  0  0  0  0
   -5.5870   -6.6970   -3.9250 N   0  0  0  0  0  0  0  0  0  0  0  0
   -6.7050   -6.0700   -4.5250 N   0  0  0  0  0  0  0  0  0  0  0  0
   -7.4230   -6.7740   -5.4780 C   0  0  0  0  0  0  0  0  0  0  0  0
   -7.1800   -7.9200   -5.8230 O   0  0  0  0  0  0  0  0  0  0  0  0
   -8.6140   -6.0330   -6.0710 C   0  0  0  0  0  0  0  0  0  0  0  0
   -8.3060   -4.9960   -7.0630 N   0  0  0  0  0  0  0  0  0  0  0  0
   -9.0400   -3.8510   -7.0670 C   0  0  0  0  0  0  0  0  0  0  0  0
   -8.4740   -3.1600   -8.0980 C   0  0  0  0  0  0  0  0  0  0  0  0
   -7.4540   -3.9020   -8.6580 C   0  0  0  0  0  0  0  0  0  0  0  0
   -7.3300   -5.0670   -8.0180 N   0  0  0  0  0  0  0  0  0  0  0  0
   -9.9520   -6.7570   -6.1570 C   0  0  0  0  0  0  0  0  0  0  0  0
   -9.7420   -5.7570   -5.0730 C   0  0  0  0  0  0  0  0  0  0  0  0
   -5.2220   -8.1110   -1.9920 C   0  0  0  0  0  0  0  0  0  0  0  0
   -5.9540   -8.8080   -1.0120 C   0  0  0  0  0  0  0  0  0  0  0  0
   -5.4330   -9.0030    0.2690 C   0  0  0  0  0  0  0  0  0  0  0  0
   -4.1830   -8.4940    0.5420 C   0  0  0  0  0  0  0  0  0  0  0  0
   -3.4580   -7.8090   -0.4020 C   0  0  0  0  0  0  0  0  0  0  0  0
   -3.9520   -7.6010   -1.6720 C   0  0  0  0  0  0  0  0  0  0  0  0
   -2.2570   -7.3990    0.0760 O   0  0  0  0  0  0  0  0  0  0  0  0
   -2.3290   -7.8530    1.4400 C   0  0  0  0  0  0  0  0  0  0  0  0
   -3.5310   -8.6010    1.7280 O   0  0  0  0  0  0  0  0  0  0  0  0
  1  2  2  0
  2  3  1  0
  3  4  1  0
  4  5  1  0
  5  6  2  0
  5  7  1  0
  7  8  1  0
  8  9  1  0
  9 10  2  0
 10 11  1  0
 11 12  2  0
  7 13  1  0
 13 14  1  0
  2 15  1  0
 15 16  2  0
 16 17  1  0
 17 18  2  0
 18 19  1  0
 19 20  2  0
 19 21  1  0
 21 22  1  0
 22 23  1  0
 14  7  1  0
 20 15  1  0
 12  8  1  0
 23 18  1  0
M  END
>  <pair>  (106) 
x1140_0A-x0980_0B

>  <sucos>  (106) 
0.40388071296162775

>  <ref_mols>  (106) 
x1140_0A,x0980_0B

>  <original SMILES>  (106) 
O=C(NNC(=O)C1(n2cccn2)CC1)c1ccc2c(c1)OCO2

>  <cmpd_ids>  (106) 
ENAMINE:Z2945725760

>  <ref_url>  (106) 
https://github.com/stephwills/fragment_network_merges

>  <submitter_name>  (106) 
Steph Wills

>  <submitter_institution>  (106) 
University of Oxford

>  <submitter_email>  (106) 
stephanie.wills@balliol.ox.ac.uk

>  <generation_date>  (106) 
2023-09-06

>  <method>  (106) 
fragNetMergingIt3

>  <ref_pdb>  (106) 
x1140_0A,x0980_0B

$$$$
x1594-0A-x1052-1A-46
     RDKit          3D

 22 24  0  0  0  0  0  0  0  0999 V2000
   -9.1900   -9.3960   -4.9830 C   0  0  0  0  0  0  0  0  0  0  0  0
   -8.3940   -8.9020   -3.9430 C   0  0  0  0  0  0  0  0  0  0  0  0
   -7.3940   -7.9760   -4.2650 C   0  0  1  0  0  0  0  0  0  0  0  0
   -7.8720   -7.0110   -5.2490 N   0  0  0  0  0  0  0  0  0  0  0  0
   -7.6040   -7.0690   -6.6120 C   0  0  0  0  0  0  0  0  0  0  0  0
   -7.3200   -8.1110   -7.1750 O   0  0  0  0  0  0  0  0  0  0  0  0
   -7.7470   -5.7830   -7.2680 C   0  0  0  0  0  0  0  0  0  0  0  0
   -6.9450   -5.2340   -8.1780 N   0  0  0  0  0  0  0  0  0  0  0  0
   -7.4770   -4.0010   -8.5150 N   0  0  0  0  0  0  0  0  0  0  0  0
   -8.5780   -3.8340   -7.8050 C   0  0  0  0  0  0  0  0  0  0  0  0
   -9.5360   -2.7990   -7.7010 C   0  0  0  0  0  0  0  0  0  0  0  0
  -10.5910   -2.9330   -6.8560 C   0  0  0  0  0  0  0  0  0  0  0  0
  -11.6550   -1.9000   -6.6700 C   0  0  0  0  0  0  0  0  0  0  0  0
  -10.7570   -4.1330   -6.0510 C   0  0  0  0  0  0  0  0  0  0  0  0
   -9.8530   -5.1020   -6.1460 C   0  0  0  0  0  0  0  0  0  0  0  0
   -8.7800   -4.9460   -7.0110 N   0  0  0  0  0  0  0  0  0  0  0  0
   -6.8140   -7.2290   -3.0710 C   0  0  0  0  0  0  0  0  0  0  0  0
   -5.4180   -7.1450   -2.9510 C   0  0  0  0  0  0  0  0  0  0  0  0
   -4.8540   -6.4630   -1.9120 C   0  0  0  0  0  0  0  0  0  0  0  0
   -5.6810   -5.8680   -0.9890 C   0  0  0  0  0  0  0  0  0  0  0  0
   -7.0270   -5.9110   -1.0190 N   0  0  0  0  0  0  0  0  0  0  0  0
   -7.5550   -6.5940   -2.0610 C   0  0  0  0  0  0  0  0  0  0  0  0
  1  2  1  0
  3  2  1  1
  3  4  1  0
  4  5  1  0
  5  6  2  0
  5  7  1  0
  7  8  2  0
  8  9  1  0
  9 10  2  0
 10 11  1  0
 11 12  2  0
 12 13  1  0
 12 14  1  0
 14 15  2  0
 15 16  1  0
  3 17  1  0
 17 18  2  0
 18 19  1  0
 19 20  2  0
 20 21  1  0
 21 22  2  0
 16  7  1  0
 22 17  1  0
 16 10  1  0
M  END
>  <pair>  (107) 
x1594_0A-x1052_1A

>  <sucos>  (107) 
0.40926353966102125

>  <ref_mols>  (107) 
x1594_0A,x1052_1A

>  <original SMILES>  (107) 
CCC(NC(=O)c1nnc2cc(C)ccn12)c1cccnc1

>  <cmpd_ids>  (107) 
ENAMINE:Z4352763977

>  <ref_url>  (107) 
https://github.com/stephwills/fragment_network_merges

>  <submitter_name>  (107) 
Steph Wills

>  <submitter_institution>  (107) 
University of Oxford

>  <submitter_email>  (107) 
stephanie.wills@balliol.ox.ac.uk

>  <generation_date>  (107) 
2023-09-06

>  <method>  (107) 
fragNetMergingIt3

>  <ref_pdb>  (107) 
x1594_0A,x1052_1A

$$$$
x1140-0A-x1052-1A-47
     RDKit          3D

 22 24  0  0  0  0  0  0  0  0999 V2000
   -7.3390   -9.4060   -3.8940 O   0  0  0  0  0  0  0  0  0  0  0  0
   -6.8170   -8.2890   -3.8280 C   0  0  0  0  0  0  0  0  0  0  0  0
   -5.4480   -8.1470   -3.6830 C   0  0  0  0  0  0  0  0  0  0  0  0
   -5.0180   -8.2700   -2.3560 C   0  0  0  0  0  0  0  0  0  0  0  0
   -5.7540   -9.1740   -1.4720 C   0  0  0  0  0  0  0  0  0  0  0  0
   -5.3480   -9.3260   -0.1340 C   0  0  0  0  0  0  0  0  0  0  0  0
   -4.2450   -8.6080    0.3220 C   0  0  0  0  0  0  0  0  0  0  0  0
   -3.5750   -7.7780   -0.5030 C   0  0  0  0  0  0  0  0  0  0  0  0
   -3.9030   -7.5640   -1.8280 C   0  0  0  0  0  0  0  0  0  0  0  0
   -2.5160   -7.1120   -0.0260 O   0  0  0  0  0  0  0  0  0  0  0  0
   -2.5090   -7.7380    1.2870 C   0  0  0  0  0  0  0  0  0  0  0  0
   -3.6690   -8.5950    1.5490 O   0  0  0  0  0  0  0  0  0  0  0  0
   -7.5720   -7.1890   -3.9020 N   0  0  0  0  0  0  0  0  0  0  0  0
   -6.9330   -5.9610   -4.3350 C   0  0  0  0  0  0  0  0  0  0  0  0
   -6.0890   -5.2610   -3.2260 C   0  0  2  0  0  0  0  0  0  0  0  0
   -4.8780   -5.9360   -2.8990 O   0  0  0  0  0  0  0  0  0  0  0  0
   -6.9200   -5.1240   -2.0280 C   0  0  0  0  0  0  0  0  0  0  0  0
   -7.6920   -3.9850   -1.8500 C   0  0  0  0  0  0  0  0  0  0  0  0
   -8.4680   -3.8810   -0.7290 C   0  0  0  0  0  0  0  0  0  0  0  0
   -8.4290   -4.9290    0.1550 C   0  0  0  0  0  0  0  0  0  0  0  0
   -7.6950   -6.0420    0.0240 N   0  0  0  0  0  0  0  0  0  0  0  0
   -6.9480   -6.1230   -1.0690 C   0  0  0  0  0  0  0  0  0  0  0  0
  1  2  2  0
  2  3  1  0
  3  4  1  0
  4  5  2  0
  5  6  1  0
  6  7  2  0
  7  8  1  0
  8  9  2  0
  8 10  1  0
 10 11  1  0
 11 12  1  0
  2 13  1  0
 13 14  1  0
 14 15  1  0
 15 16  1  1
 15 17  1  0
 17 18  2  0
 18 19  1  0
 19 20  2  0
 20 21  1  0
 21 22  2  0
  9  4  1  0
 22 17  1  0
 12  7  1  0
M  END
>  <pair>  (108) 
x1140_0A-x1052_1A

>  <sucos>  (108) 
0.4095422043425976

>  <ref_mols>  (108) 
x1140_0A,x1052_1A

>  <original SMILES>  (108) 
O=C(Cc1ccc2c(c1)OCO2)NCC(O)c1cccnc1

>  <cmpd_ids>  (108) 
ENAMINE:Z1472764735

>  <ref_url>  (108) 
https://github.com/stephwills/fragment_network_merges

>  <submitter_name>  (108) 
Steph Wills

>  <submitter_institution>  (108) 
University of Oxford

>  <submitter_email>  (108) 
stephanie.wills@balliol.ox.ac.uk

>  <generation_date>  (108) 
2023-09-06

>  <method>  (108) 
fragNetMergingIt3

>  <ref_pdb>  (108) 
x1140_0A,x1052_1A

$$$$
x1594-0A-x1052-1A-175
     RDKit          3D

 23 25  0  0  0  0  0  0  0  0999 V2000
   -7.0500  -10.4180   -4.9440 C   0  0  0  0  0  0  0  0  0  0  0  0
   -6.8280   -9.5800   -3.7010 C   0  0  0  0  0  0  0  0  0  0  0  0
   -7.4100   -8.1670   -3.8500 C   0  0  1  0  0  0  0  0  0  0  0  0
   -7.2170   -7.3140   -2.5560 C   0  0  0  0  0  0  0  0  0  0  0  0
   -6.5510   -5.9350   -2.8010 C   0  0  0  0  0  0  0  0  0  0  0  0
   -6.3940   -5.1020   -1.5590 C   0  0  0  0  0  0  0  0  0  0  0  0
   -6.8570   -5.6390   -0.2890 N   0  0  0  0  0  0  0  0  0  0  0  0
   -7.4060   -6.8710   -0.2330 C   0  0  0  0  0  0  0  0  0  0  0  0
   -7.6060   -7.7160   -1.2870 C   0  0  0  0  0  0  0  0  0  0  0  0
   -6.8660   -7.3730   -4.9560 N   0  0  0  0  0  0  0  0  0  0  0  0
   -5.4640   -7.2350   -4.7110 C   0  0  0  0  0  0  0  0  0  0  0  0
   -7.4720   -7.3010   -6.2550 C   0  0  0  0  0  0  0  0  0  0  0  0
   -7.9000   -8.3430   -6.7420 O   0  0  0  0  0  0  0  0  0  0  0  0
   -7.6220   -5.9480   -7.0620 C   0  0  0  0  0  0  0  0  0  0  0  0
   -6.7970   -5.4500   -8.0020 N   0  0  0  0  0  0  0  0  0  0  0  0
   -7.2810   -4.2400   -8.4650 N   0  0  0  0  0  0  0  0  0  0  0  0
   -8.4540   -4.0120   -7.7610 C   0  0  0  0  0  0  0  0  0  0  0  0
   -9.4290   -2.9810   -7.7310 C   0  0  0  0  0  0  0  0  0  0  0  0
  -10.4960   -3.0520   -6.9180 C   0  0  0  0  0  0  0  0  0  0  0  0
  -10.7310   -4.0780   -6.0810 C   0  0  0  0  0  0  0  0  0  0  0  0
  -12.2620   -4.0300   -5.0270 Br  0  0  0  0  0  0  0  0  0  0  0  0
   -9.8500   -5.0980   -6.0370 C   0  0  0  0  0  0  0  0  0  0  0  0
   -8.6750   -5.0660   -6.8980 N   0  0  0  0  0  0  0  0  0  0  0  0
  1  2  1  0
  3  2  1  1
  3  4  1  0
  4  5  2  0
  5  6  1  0
  6  7  2  0
  7  8  1  0
  8  9  2  0
  3 10  1  0
 10 11  1  0
 10 12  1  0
 12 13  2  0
 12 14  1  0
 14 15  2  0
 15 16  1  0
 16 17  2  0
 17 18  1  0
 18 19  2  0
 19 20  1  0
 20 21  1  0
 20 22  2  0
 22 23  1  0
  9  4  1  0
 23 14  1  0
 23 17  1  0
M  END
>  <pair>  (109) 
x1594_0A-x1052_1A

>  <sucos>  (109) 
0.41595150830240935

>  <ref_mols>  (109) 
x1594_0A,x1052_1A

>  <original SMILES>  (109) 
CCC(c1ccncc1)N(C)C(=O)c1nnc2ccc(Br)cn12

>  <cmpd_ids>  (109) 
ENAMINE:Z3535843463

>  <ref_url>  (109) 
https://github.com/stephwills/fragment_network_merges

>  <submitter_name>  (109) 
Steph Wills

>  <submitter_institution>  (109) 
University of Oxford

>  <submitter_email>  (109) 
stephanie.wills@balliol.ox.ac.uk

>  <generation_date>  (109) 
2023-09-06

>  <method>  (109) 
fragNetMergingIt3

>  <ref_pdb>  (109) 
x1594_0A,x1052_1A

$$$$
x1594-0A-x2021-0A-21
     RDKit          3D

 19 20  0  0  0  0  0  0  0  0999 V2000
   -7.1770   -4.5750   -5.0660 O   0  0  0  0  0  0  0  0  0  0  0  0
   -7.1460   -5.4850   -4.2680 C   0  0  0  0  0  0  0  0  0  0  0  0
   -7.3120   -6.7860   -4.6880 N   0  0  0  0  0  0  0  0  0  0  0  0
   -7.6440   -7.0810   -6.1010 C   0  0  0  0  0  0  0  0  0  0  0  0
   -7.7390   -5.8340   -6.9520 C   0  0  0  0  0  0  0  0  0  0  0  0
   -6.9150   -5.3810   -7.9020 N   0  0  0  0  0  0  0  0  0  0  0  0
   -7.4230   -4.1850   -8.3860 N   0  0  0  0  0  0  0  0  0  0  0  0
   -8.5380   -3.9340   -7.7290 C   0  0  0  0  0  0  0  0  0  0  0  0
   -9.4880   -2.8700   -7.7670 C   0  0  0  0  0  0  0  0  0  0  0  0
  -10.5650   -2.9050   -6.9600 C   0  0  0  0  0  0  0  0  0  0  0  0
  -10.7850   -4.0040   -6.0410 C   0  0  0  0  0  0  0  0  0  0  0  0
   -9.8880   -4.9970   -5.9910 C   0  0  0  0  0  0  0  0  0  0  0  0
   -8.7780   -4.9580   -6.8260 N   0  0  0  0  0  0  0  0  0  0  0  0
   -6.9280   -5.1660   -2.8250 C   0  0  0  0  0  0  0  0  0  0  0  0
   -7.0920   -6.1460   -1.8910 F   0  0  0  0  0  0  0  0  0  0  0  0
   -6.5920   -3.9330   -2.4540 C   0  0  0  0  0  0  0  0  0  0  0  0
   -6.3420   -3.3560   -1.1250 C   0  0  0  0  0  0  0  0  0  0  0  0
   -6.2710   -1.8330   -1.1850 C   0  0  0  0  0  0  0  0  0  0  0  0
   -6.1050   -1.3170    0.0580 F   0  0  0  0  0  0  0  0  0  0  0  0
  1  2  2  0
  2  3  1  0
  3  4  1  0
  4  5  1  0
  5  6  2  0
  6  7  1  0
  7  8  2  0
  8  9  1  0
  9 10  2  0
 10 11  1  0
 11 12  2  0
 12 13  1  0
  2 14  1  0
 14 15  1  0
 14 16  2  3
 16 17  1  0
 17 18  1  0
 18 19  1  0
 13  5  1  0
 13  8  1  0
M  END
>  <pair>  (110) 
x1594_0A-x2021_0A

>  <sucos>  (110) 
0.4267546219451096

>  <ref_mols>  (110) 
x1594_0A,x2021_0A

>  <original SMILES>  (110) 
O=C(NCc1nnc2ccccn12)C(F)=CCCF

>  <cmpd_ids>  (110) 
ENAMINE:Z4232890666

>  <ref_url>  (110) 
https://github.com/stephwills/fragment_network_merges

>  <submitter_name>  (110) 
Steph Wills

>  <submitter_institution>  (110) 
University of Oxford

>  <submitter_email>  (110) 
stephanie.wills@balliol.ox.ac.uk

>  <generation_date>  (110) 
2023-09-06

>  <method>  (110) 
fragNetMergingIt3

>  <ref_pdb>  (110) 
x1594_0A,x2021_0A

$$$$
x1052-1A-x1594-0A-31
     RDKit          3D

 17 19  0  0  0  0  0  0  0  0999 V2000
   -4.0340   -7.2860   -0.8480 C   0  0  0  0  0  0  0  0  0  0  0  0
   -5.2710   -6.6450   -1.3350 C   0  0  0  0  0  0  0  0  0  0  0  0
   -5.6780   -6.1670   -2.5580 C   0  0  0  0  0  0  0  0  0  0  0  0
   -6.9920   -5.6690   -2.3470 C   0  0  0  0  0  0  0  0  0  0  0  0
   -7.7880   -5.0940   -3.3600 N   0  0  0  0  0  0  0  0  0  0  0  0
   -8.4810   -5.7870   -4.3760 C   0  0  0  0  0  0  0  0  0  0  0  0
   -8.7350   -6.9850   -4.3900 O   0  0  0  0  0  0  0  0  0  0  0  0
   -8.9100   -4.9200   -5.4960 C   0  0  0  0  0  0  0  0  0  0  0  0
   -9.9730   -4.0230   -5.5550 C   0  0  0  0  0  0  0  0  0  0  0  0
  -10.1080   -3.1710   -7.0430 S   0  0  0  0  0  0  0  0  0  0  0  0
   -8.7150   -4.0160   -7.6380 C   0  0  0  0  0  0  0  0  0  0  0  0
   -8.0820   -3.9180   -8.8270 N   0  0  0  0  0  0  0  0  0  0  0  0
   -7.0740   -4.7160   -8.9250 N   0  0  0  0  0  0  0  0  0  0  0  0
   -6.8780   -5.6220   -7.5550 S   0  0  0  0  0  0  0  0  0  0  0  0
   -8.2170   -4.8880   -6.7460 C   0  0  0  0  0  0  0  0  0  0  0  0
   -7.3390   -5.8380   -1.0590 N   0  0  0  0  0  0  0  0  0  0  0  0
   -6.2700   -6.4500   -0.4310 O   0  0  0  0  0  0  0  0  0  0  0  0
  1  2  1  0
  2  3  2  0
  3  4  1  0
  4  5  1  0
  5  6  1  0
  6  7  2  0
  6  8  1  0
  8  9  2  0
  9 10  1  0
 10 11  1  0
 11 12  1  0
 12 13  2  0
 13 14  1  0
 14 15  1  0
  4 16  2  0
 16 17  1  0
 17  2  1  0
 15  8  1  0
 15 11  2  0
M  END
>  <pair>  (111) 
x1052_1A-x1594_0A

>  <sucos>  (111) 
0.4276092237814075

>  <ref_mols>  (111) 
x1052_1A,x1594_0A

>  <original SMILES>  (111) 
Cc1cc(NC(=O)c2csc3nnsc23)no1

>  <cmpd_ids>  (111) 
ENAMINE:PV-002819582324

>  <ref_url>  (111) 
https://github.com/stephwills/fragment_network_merges

>  <submitter_name>  (111) 
Steph Wills

>  <submitter_institution>  (111) 
University of Oxford

>  <submitter_email>  (111) 
stephanie.wills@balliol.ox.ac.uk

>  <generation_date>  (111) 
2023-09-06

>  <method>  (111) 
fragNetMergingIt3

>  <ref_pdb>  (111) 
x1052_1A,x1594_0A

$$$$
x1052-1A-x1604-0A-157
     RDKit          3D

 23 26  0  0  0  0  0  0  0  0999 V2000
   -6.8200   -3.6370   -3.7880 O   0  0  0  0  0  0  0  0  0  0  0  0
   -7.6310   -4.2580   -3.1240 C   0  0  0  0  0  0  0  0  0  0  0  0
   -9.1220   -4.0640   -3.3340 N   0  0  0  0  0  0  0  0  0  0  0  0
   -9.5380   -3.9640   -4.8010 C   0  0  0  0  0  0  0  0  0  0  0  0
  -10.9250   -3.4840   -5.2430 C   0  0  2  0  0  0  0  0  0  0  0  0
  -12.0230   -4.2890   -5.4200 C   0  0  0  0  0  0  0  0  0  0  0  0
  -11.3040   -5.3290   -6.0820 C   0  0  0  0  0  0  0  0  0  0  0  0
  -11.7170   -6.4810   -6.0210 O   0  0  0  0  0  0  0  0  0  0  0  0
  -10.0590   -5.0380   -6.8650 C   0  0  0  0  0  0  0  0  0  0  0  0
   -9.1620   -5.9860   -7.3340 C   0  0  0  0  0  0  0  0  0  0  0  0
   -7.9880   -5.4990   -8.1060 C   0  0  0  0  0  0  0  0  0  0  0  0
   -7.8260   -4.1380   -8.3390 C   0  0  0  0  0  0  0  0  0  0  0  0
   -8.7700   -3.2390   -7.8250 C   0  0  0  0  0  0  0  0  0  0  0  0
   -9.8490   -3.7040   -7.0940 C   0  0  0  0  0  0  0  0  0  0  0  0
  -10.7320   -2.8610   -6.5500 O   0  0  0  0  0  0  0  0  0  0  0  0
   -7.0730   -5.2210   -2.1310 C   0  0  0  0  0  0  0  0  0  0  0  0
   -5.8020   -6.0010   -2.2090 C   0  0  0  0  0  0  0  0  0  0  0  0
   -5.6930   -6.8210   -0.9780 C   0  0  0  0  0  0  0  0  0  0  0  0
   -4.5930   -7.8140   -0.5210 C   0  0  0  0  0  0  0  0  0  0  0  0
   -3.5950   -7.3870    0.5190 C   0  0  0  0  0  0  0  0  0  0  0  0
   -3.1630   -7.5640   -0.9030 C   0  0  0  0  0  0  0  0  0  0  0  0
   -6.8740   -6.4890   -0.2520 O   0  0  0  0  0  0  0  0  0  0  0  0
   -7.6660   -5.5480   -0.9460 N   0  0  0  0  0  0  0  0  0  0  0  0
  1  2  2  0
  2  3  1  0
  3  4  1  0
  5  4  1  6
  5  6  1  0
  6  7  1  0
  7  8  2  0
  7  9  1  0
  9 10  2  0
 10 11  1  0
 11 12  2  0
 12 13  1  0
 13 14  2  0
 14 15  1  0
  2 16  1  0
 16 17  1  0
 17 18  2  0
 18 19  1  0
 19 20  1  0
 20 21  1  0
 18 22  1  0
 22 23  1  0
 15  5  1  0
 23 16  2  0
 14  9  1  0
 21 19  1  0
M  END
>  <pair>  (112) 
x1052_1A-x1604_0A

>  <sucos>  (112) 
0.42820949099436045

>  <ref_mols>  (112) 
x1052_1A,x1604_0A

>  <original SMILES>  (112) 
O=C(NCC1CC(=O)c2ccccc2O1)c1cc(C2CC2)on1

>  <cmpd_ids>  (112) 
ENAMINE:Z2802742956

>  <ref_url>  (112) 
https://github.com/stephwills/fragment_network_merges

>  <submitter_name>  (112) 
Steph Wills

>  <submitter_institution>  (112) 
University of Oxford

>  <submitter_email>  (112) 
stephanie.wills@balliol.ox.ac.uk

>  <generation_date>  (112) 
2023-09-06

>  <method>  (112) 
fragNetMergingIt3

>  <ref_pdb>  (112) 
x1052_1A,x1604_0A

$$$$
x1594-0A-x1052-1A-50
     RDKit          3D

 21 23  0  0  0  0  0  0  0  0999 V2000
  -11.9710   -4.0880   -5.1410 C   0  0  0  0  0  0  0  0  0  0  0  0
  -10.7380   -4.0760   -6.0560 C   0  0  0  0  0  0  0  0  0  0  0  0
  -10.5580   -2.8420   -6.9260 C   0  0  0  0  0  0  0  0  0  0  0  0
   -9.4730   -2.7410   -7.7880 C   0  0  0  0  0  0  0  0  0  0  0  0
   -8.5450   -3.7870   -7.8500 C   0  0  0  0  0  0  0  0  0  0  0  0
   -7.4470   -3.9740   -8.5530 N   0  0  0  0  0  0  0  0  0  0  0  0
   -6.9180   -5.1990   -8.2000 N   0  0  0  0  0  0  0  0  0  0  0  0
   -7.7120   -5.7350   -7.2760 C   0  0  0  0  0  0  0  0  0  0  0  0
   -7.5400   -7.0120   -6.6080 C   0  0  0  0  0  0  0  0  0  0  0  0
   -7.4320   -8.0990   -7.1560 O   0  0  0  0  0  0  0  0  0  0  0  0
   -7.5290   -6.9040   -5.2270 N   0  0  0  0  0  0  0  0  0  0  0  0
   -7.3340   -8.0490   -4.3470 C   0  0  0  0  0  0  0  0  0  0  0  0
   -8.0080   -7.8770   -2.9580 C   0  0  2  0  0  0  0  0  0  0  0  0
   -9.3880   -7.2310   -3.0890 C   0  0  0  0  0  0  0  0  0  0  0  0
   -7.1230   -7.0190   -2.0880 C   0  0  0  0  0  0  0  0  0  0  0  0
   -7.3990   -5.7750   -1.7540 N   0  0  0  0  0  0  0  0  0  0  0  0
   -6.3870   -5.2910   -0.9830 C   0  0  0  0  0  0  0  0  0  0  0  0
   -5.3910   -6.1510   -0.7400 C   0  0  0  0  0  0  0  0  0  0  0  0
   -5.6520   -7.6500   -1.4840 S   0  0  0  0  0  0  0  0  0  0  0  0
   -8.7510   -4.8910   -7.0280 N   0  0  0  0  0  0  0  0  0  0  0  0
   -9.8200   -5.0420   -6.1490 C   0  0  0  0  0  0  0  0  0  0  0  0
  1  2  1  0
  2  3  1  0
  3  4  2  0
  4  5  1  0
  5  6  2  0
  6  7  1  0
  7  8  2  0
  8  9  1  0
  9 10  2  0
  9 11  1  0
 11 12  1  0
 12 13  1  0
 13 14  1  6
 13 15  1  0
 15 16  2  0
 16 17  1  0
 17 18  2  0
 18 19  1  0
  8 20  1  0
 20 21  1  0
 21  2  2  0
 20  5  1  0
 19 15  1  0
M  END
>  <pair>  (113) 
x1594_0A-x1052_1A

>  <sucos>  (113) 
0.430887809848039

>  <ref_mols>  (113) 
x1594_0A,x1052_1A

>  <original SMILES>  (113) 
Cc1ccc2nnc(C(=O)NCC(C)c3nccs3)n2c1

>  <cmpd_ids>  (113) 
ENAMINE:Z4290406145

>  <ref_url>  (113) 
https://github.com/stephwills/fragment_network_merges

>  <submitter_name>  (113) 
Steph Wills

>  <submitter_institution>  (113) 
University of Oxford

>  <submitter_email>  (113) 
stephanie.wills@balliol.ox.ac.uk

>  <generation_date>  (113) 
2023-09-06

>  <method>  (113) 
fragNetMergingIt3

>  <ref_pdb>  (113) 
x1594_0A,x1052_1A

$$$$
x1052-1A-x1594-0A-150
     RDKit          3D

 21 24  0  0  0  0  0  0  0  0999 V2000
   -5.7600   -2.8670   -1.5890 C   0  0  0  0  0  0  0  0  0  0  0  0
   -5.9810   -3.8830   -0.6030 O   0  0  0  0  0  0  0  0  0  0  0  0
   -6.2840   -5.0880   -1.1290 C   0  0  0  0  0  0  0  0  0  0  0  0
   -6.3930   -5.2770   -2.4400 C   0  0  0  0  0  0  0  0  0  0  0  0
   -6.7370   -6.6250   -2.6080 C   0  0  0  0  0  0  0  0  0  0  0  0
   -6.9780   -7.0980   -3.9280 C   0  0  0  0  0  0  0  0  0  0  0  0
   -7.1850   -6.2000   -4.7810 N   0  0  0  0  0  0  0  0  0  0  0  0
   -7.4280   -6.6630   -6.0070 C   0  0  0  0  0  0  0  0  0  0  0  0
   -7.6800   -5.6100   -6.9630 N   0  0  0  0  0  0  0  0  0  0  0  0
   -6.9320   -5.2800   -8.0430 N   0  0  0  0  0  0  0  0  0  0  0  0
   -7.5080   -4.2120   -8.5680 N   0  0  0  0  0  0  0  0  0  0  0  0
   -8.6080   -3.9130   -7.7890 C   0  0  0  0  0  0  0  0  0  0  0  0
   -9.5510   -2.9290   -7.8240 C   0  0  0  0  0  0  0  0  0  0  0  0
  -10.6280   -2.8720   -6.8570 C   0  0  0  0  0  0  0  0  0  0  0  0
  -10.6860   -3.8410   -5.8730 C   0  0  0  0  0  0  0  0  0  0  0  0
   -9.7210   -4.8380   -5.8150 C   0  0  0  0  0  0  0  0  0  0  0  0
   -8.7220   -4.8200   -6.7830 C   0  0  0  0  0  0  0  0  0  0  0  0
   -7.3800   -8.0150   -5.9870 N   0  0  0  0  0  0  0  0  0  0  0  0
   -7.0750   -8.3150   -4.6030 O   0  0  0  0  0  0  0  0  0  0  0  0
   -6.7970   -7.2090   -1.3680 O   0  0  0  0  0  0  0  0  0  0  0  0
   -6.5110   -6.2120   -0.4300 N   0  0  0  0  0  0  0  0  0  0  0  0
  1  2  1  0
  2  3  1  0
  3  4  1  0
  4  5  2  0
  5  6  1  0
  6  7  2  0
  7  8  1  0
  8  9  1  0
  9 10  1  0
 10 11  2  0
 11 12  1  0
 12 13  2  0
 13 14  1  0
 14 15  2  0
 15 16  1  0
 16 17  2  0
  8 18  2  0
 18 19  1  0
  5 20  1  0
 20 21  1  0
 21  3  2  0
 19  6  1  0
 17  9  1  0
 17 12  1  0
M  END
>  <pair>  (114) 
x1052_1A-x1594_0A

>  <sucos>  (114) 
0.43550459773136774

>  <ref_mols>  (114) 
x1052_1A,x1594_0A

>  <original SMILES>  (114) 
COc1cc(-c2nc(-n3nnc4ccccc43)no2)on1

>  <cmpd_ids>  (114) 
ENAMINE:PV-003551896179

>  <ref_url>  (114) 
https://github.com/stephwills/fragment_network_merges

>  <submitter_name>  (114) 
Steph Wills

>  <submitter_institution>  (114) 
University of Oxford

>  <submitter_email>  (114) 
stephanie.wills@balliol.ox.ac.uk

>  <generation_date>  (114) 
2023-09-06

>  <method>  (114) 
fragNetMergingIt3

>  <ref_pdb>  (114) 
x1052_1A,x1594_0A

$$$$
x1594-0A-x1052-1A-177
     RDKit          3D

 23 25  0  0  0  0  0  0  0  0999 V2000
   -4.4250  -10.5570   -4.6920 C   0  0  0  0  0  0  0  0  0  0  0  0
   -4.8390   -9.0920   -4.6900 C   0  0  0  0  0  0  0  0  0  0  0  0
   -6.3480   -8.8870   -4.8490 C   0  0  0  0  0  0  0  0  0  0  0  0
   -6.6800   -7.5160   -5.2100 N   0  0  0  0  0  0  0  0  0  0  0  0
   -6.2410   -6.5190   -4.3250 C   0  0  0  0  0  0  0  0  0  0  0  0
   -6.4610   -6.6510   -2.8310 C   0  0  0  0  0  0  0  0  0  0  0  0
   -6.1160   -7.8950   -2.1530 C   0  0  0  0  0  0  0  0  0  0  0  0
   -6.3280   -8.0150   -0.8520 C   0  0  0  0  0  0  0  0  0  0  0  0
   -6.9340   -6.7950   -0.1400 C   0  0  0  0  0  0  0  0  0  0  0  0
   -7.2690   -5.5910   -0.7090 N   0  0  0  0  0  0  0  0  0  0  0  0
   -6.9960   -5.6010   -2.0760 C   0  0  0  0  0  0  0  0  0  0  0  0
   -6.8450   -7.1950   -6.6170 C   0  0  0  0  0  0  0  0  0  0  0  0
   -6.5300   -8.0720   -7.4310 O   0  0  0  0  0  0  0  0  0  0  0  0
   -7.3830   -5.8750   -7.1690 C   0  0  0  0  0  0  0  0  0  0  0  0
   -6.7740   -5.1310   -8.0870 N   0  0  0  0  0  0  0  0  0  0  0  0
   -7.5300   -4.0070   -8.3430 N   0  0  0  0  0  0  0  0  0  0  0  0
   -8.5950   -4.0740   -7.5780 C   0  0  0  0  0  0  0  0  0  0  0  0
   -9.6930   -3.2490   -7.3750 C   0  0  0  0  0  0  0  0  0  0  0  0
   -9.8250   -2.0600   -7.9890 C   0  0  0  0  0  0  0  0  0  0  0  0
  -10.6610   -3.6090   -6.5150 C   0  0  0  0  0  0  0  0  0  0  0  0
  -10.6240   -4.7770   -5.7990 C   0  0  0  0  0  0  0  0  0  0  0  0
   -9.5730   -5.5910   -5.9460 C   0  0  0  0  0  0  0  0  0  0  0  0
   -8.5600   -5.2420   -6.8290 N   0  0  0  0  0  0  0  0  0  0  0  0
  1  2  1  0
  2  3  1  0
  3  4  1  0
  4  5  1  0
  5  6  1  0
  6  7  2  0
  7  8  1  0
  8  9  2  0
  9 10  1  0
 10 11  2  0
  4 12  1  0
 12 13  2  0
 12 14  1  0
 14 15  2  0
 15 16  1  0
 16 17  2  0
 17 18  1  0
 18 19  1  0
 18 20  2  0
 20 21  1  0
 21 22  2  0
 22 23  1  0
 11  6  1  0
 23 14  1  0
 23 17  1  0
M  END
>  <pair>  (115) 
x1594_0A-x1052_1A

>  <sucos>  (115) 
0.43956775176206775

>  <ref_mols>  (115) 
x1594_0A,x1052_1A

>  <original SMILES>  (115) 
CCCN(Cc1cccnc1)C(=O)c1nnc2c(C)cccn12

>  <cmpd_ids>  (115) 
ENAMINE:Z4353182328

>  <ref_url>  (115) 
https://github.com/stephwills/fragment_network_merges

>  <submitter_name>  (115) 
Steph Wills

>  <submitter_institution>  (115) 
University of Oxford

>  <submitter_email>  (115) 
stephanie.wills@balliol.ox.ac.uk

>  <generation_date>  (115) 
2023-09-06

>  <method>  (115) 
fragNetMergingIt3

>  <ref_pdb>  (115) 
x1594_0A,x1052_1A

$$$$
x1052-1A-x1594-0A-191
     RDKit          3D

 19 21  0  0  0  0  0  0  0  0999 V2000
   -5.1710   -1.5990   -2.5280 C   0  0  0  0  0  0  0  0  0  0  0  0
   -6.0790   -2.6630   -2.2060 O   0  0  0  0  0  0  0  0  0  0  0  0
   -5.4650   -3.8150   -1.8020 C   0  0  0  0  0  0  0  0  0  0  0  0
   -6.2740   -4.9110   -1.7590 C   0  0  0  0  0  0  0  0  0  0  0  0
   -6.7640   -5.2240   -3.0040 C   0  0  0  0  0  0  0  0  0  0  0  0
   -7.5530   -6.3050   -2.7570 C   0  0  0  0  0  0  0  0  0  0  0  0
   -8.4550   -7.1640   -3.6910 C   0  0  0  0  0  0  0  0  0  0  0  0
   -8.5860   -6.7220   -5.1200 N   0  0  0  0  0  0  0  0  0  0  0  0
   -9.0480   -5.5270   -5.7700 C   0  0  0  0  0  0  0  0  0  0  0  0
  -10.2090   -4.6500   -5.4020 C   0  0  0  0  0  0  0  0  0  0  0  0
  -10.4700   -3.4600   -6.2290 C   0  0  0  0  0  0  0  0  0  0  0  0
   -9.6450   -3.1250   -7.3750 C   0  0  0  0  0  0  0  0  0  0  0  0
   -8.5780   -3.9650   -7.7050 C   0  0  0  0  0  0  0  0  0  0  0  0
   -7.6970   -3.8980   -8.6820 N   0  0  0  0  0  0  0  0  0  0  0  0
   -6.8840   -4.9320   -8.5930 N   0  0  0  0  0  0  0  0  0  0  0  0
   -7.2560   -5.6700   -7.5290 C   0  0  0  0  0  0  0  0  0  0  0  0
   -8.3290   -5.1000   -6.9210 N   0  0  0  0  0  0  0  0  0  0  0  0
   -7.4910   -6.6150   -1.4050 O   0  0  0  0  0  0  0  0  0  0  0  0
   -6.6640   -5.7040   -0.7610 N   0  0  0  0  0  0  0  0  0  0  0  0
  1  2  1  0
  2  3  1  0
  3  4  1  0
  4  5  1  0
  5  6  2  0
  6  7  1  0
  7  8  1  0
  8  9  1  0
  9 10  2  0
 10 11  1  0
 11 12  2  0
 12 13  1  0
 13 14  2  0
 14 15  1  0
 15 16  2  0
 16 17  1  0
  6 18  1  0
 18 19  1  0
 19  4  2  0
 17  9  1  0
 17 13  1  0
M  END
>  <pair>  (116) 
x1052_1A-x1594_0A

>  <sucos>  (116) 
0.4403355333954349

>  <ref_mols>  (116) 
x1052_1A,x1594_0A

>  <original SMILES>  (116) 
COCc1cc(CNc2cccc3nncn23)on1

>  <cmpd_ids>  (116) 
ENAMINE:Z3395432265

>  <ref_url>  (116) 
https://github.com/stephwills/fragment_network_merges

>  <submitter_name>  (116) 
Steph Wills

>  <submitter_institution>  (116) 
University of Oxford

>  <submitter_email>  (116) 
stephanie.wills@balliol.ox.ac.uk

>  <generation_date>  (116) 
2023-09-06

>  <method>  (116) 
fragNetMergingIt3

>  <ref_pdb>  (116) 
x1052_1A,x1594_0A

$$$$
x1594-0A-x1052-1A-42
     RDKit          3D

 22 24  0  0  0  0  0  0  0  0999 V2000
   -7.1740   -3.8140   -2.1840 C   0  0  0  0  0  0  0  0  0  0  0  0
   -7.2230   -4.3790   -3.5970 C   0  0  0  0  0  0  0  0  0  0  0  0
   -7.3680   -5.8990   -3.6500 C   0  0  1  0  0  0  0  0  0  0  0  0
   -6.7360   -6.5140   -4.8570 N   0  0  0  0  0  0  0  0  0  0  0  0
   -7.3450   -6.7790   -6.1040 C   0  0  0  0  0  0  0  0  0  0  0  0
   -7.6280   -7.9300   -6.4340 O   0  0  0  0  0  0  0  0  0  0  0  0
   -7.6200   -5.6170   -6.9430 C   0  0  0  0  0  0  0  0  0  0  0  0
   -6.8700   -5.1540   -7.9450 N   0  0  0  0  0  0  0  0  0  0  0  0
   -7.4800   -4.0210   -8.4540 N   0  0  0  0  0  0  0  0  0  0  0  0
   -8.5810   -3.8210   -7.7580 C   0  0  0  0  0  0  0  0  0  0  0  0
   -9.6020   -2.8290   -7.7890 C   0  0  0  0  0  0  0  0  0  0  0  0
  -10.6420   -2.9070   -6.9400 C   0  0  0  0  0  0  0  0  0  0  0  0
  -10.7500   -3.9870   -5.9760 C   0  0  0  0  0  0  0  0  0  0  0  0
  -12.2300   -4.0300   -4.8480 Br  0  0  0  0  0  0  0  0  0  0  0  0
   -9.7820   -4.9070   -5.9310 C   0  0  0  0  0  0  0  0  0  0  0  0
   -8.7120   -4.8170   -6.8120 N   0  0  0  0  0  0  0  0  0  0  0  0
   -6.6580   -6.3820   -2.3870 C   0  0  0  0  0  0  0  0  0  0  0  0
   -5.3160   -6.7230   -2.4440 C   0  0  0  0  0  0  0  0  0  0  0  0
   -4.6910   -7.1760   -1.2990 C   0  0  0  0  0  0  0  0  0  0  0  0
   -5.4100   -7.2770   -0.1280 C   0  0  0  0  0  0  0  0  0  0  0  0
   -6.7460   -6.9110   -0.1490 C   0  0  0  0  0  0  0  0  0  0  0  0
   -7.3890   -6.4630   -1.2410 N   0  0  0  0  0  0  0  0  0  0  0  0
  1  2  1  0
  3  2  1  6
  3  4  1  0
  4  5  1  0
  5  6  2  0
  5  7  1  0
  7  8  2  0
  8  9  1  0
  9 10  2  0
 10 11  1  0
 11 12  2  0
 12 13  1  0
 13 14  1  0
 13 15  2  0
 15 16  1  0
  3 17  1  0
 17 18  2  0
 18 19  1  0
 19 20  2  0
 20 21  1  0
 21 22  2  0
 16  7  1  0
 22 17  1  0
 16 10  1  0
M  END
>  <pair>  (117) 
x1594_0A-x1052_1A

>  <sucos>  (117) 
0.4413311209403389

>  <ref_mols>  (117) 
x1594_0A,x1052_1A

>  <original SMILES>  (117) 
CCC(NC(=O)c1nnc2ccc(Br)cn12)c1ccccn1

>  <cmpd_ids>  (117) 
ENAMINE:PV-004030683385

>  <ref_url>  (117) 
https://github.com/stephwills/fragment_network_merges

>  <submitter_name>  (117) 
Steph Wills

>  <submitter_institution>  (117) 
University of Oxford

>  <submitter_email>  (117) 
stephanie.wills@balliol.ox.ac.uk

>  <generation_date>  (117) 
2023-09-06

>  <method>  (117) 
fragNetMergingIt3

>  <ref_pdb>  (117) 
x1594_0A,x1052_1A

$$$$
x1052-1A-x1594-0A-87
     RDKit          3D

 24 26  0  0  0  0  0  0  0  0999 V2000
  -11.3920   -7.4320   -5.1650 C   0  0  0  0  0  0  0  0  0  0  0  0
  -10.1500   -7.0870   -4.4520 C   0  0  0  0  0  0  0  0  0  0  0  0
   -8.8780   -6.9330   -4.9350 C   0  0  2  0  0  0  0  0  0  0  0  0
   -8.7430   -7.9170   -5.9710 C   0  0  0  0  0  0  0  0  0  0  0  0
   -7.5680   -8.0920   -6.7420 N   0  0  0  0  0  0  0  0  0  0  0  0
   -7.3100   -7.3730   -8.0200 C   0  0  0  0  0  0  0  0  0  0  0  0
   -6.8230   -7.8300   -9.0570 O   0  0  0  0  0  0  0  0  0  0  0  0
   -7.7790   -5.9910   -7.9790 C   0  0  0  0  0  0  0  0  0  0  0  0
   -8.9730   -5.8190   -7.1880 C   0  0  0  0  0  0  0  0  0  0  0  0
   -9.4780   -4.6430   -7.1070 C   0  0  0  0  0  0  0  0  0  0  0  0
  -10.6590   -4.4940   -6.3160 C   0  0  0  0  0  0  0  0  0  0  0  0
  -11.2180   -3.3050   -6.2130 C   0  0  0  0  0  0  0  0  0  0  0  0
  -10.6600   -2.2220   -6.8710 C   0  0  0  0  0  0  0  0  0  0  0  0
   -9.5030   -2.3600   -7.6450 C   0  0  0  0  0  0  0  0  0  0  0  0
   -8.8770   -3.5790   -7.7790 C   0  0  0  0  0  0  0  0  0  0  0  0
   -7.7500   -3.7480   -8.5140 N   0  0  0  0  0  0  0  0  0  0  0  0
   -7.1650   -4.9890   -8.6270 N   0  0  0  0  0  0  0  0  0  0  0  0
   -7.7800   -6.9680   -3.9410 N   0  0  0  0  0  0  0  0  0  0  0  0
   -7.4050   -5.6760   -3.3360 C   0  0  0  0  0  0  0  0  0  0  0  0
   -6.6230   -6.0410   -2.1270 C   0  0  0  0  0  0  0  0  0  0  0  0
   -5.2480   -6.3520   -2.0480 C   0  0  0  0  0  0  0  0  0  0  0  0
   -5.0590   -6.6430   -0.7340 C   0  0  0  0  0  0  0  0  0  0  0  0
   -6.2310   -6.5120   -0.0640 O   0  0  0  0  0  0  0  0  0  0  0  0
   -7.2220   -6.1250   -0.9320 N   0  0  0  0  0  0  0  0  0  0  0  0
  1  2  1  0
  3  2  1  1
  3  4  1  0
  4  5  1  0
  5  6  1  0
  6  7  2  0
  6  8  1  0
  8  9  2  0
  9 10  1  0
 10 11  2  0
 11 12  1  0
 12 13  2  0
 13 14  1  0
 14 15  2  0
 15 16  1  0
 16 17  2  0
  3 18  1  0
 18 19  1  0
 19 20  1  0
 20 21  1  0
 21 22  2  0
 22 23  1  0
 23 24  1  0
 17  8  1  0
 24 20  2  0
 15 10  1  0
M  END
>  <pair>  (118) 
x1052_1A-x1594_0A

>  <sucos>  (118) 
0.4432021937857261

>  <ref_mols>  (118) 
x1052_1A,x1594_0A

>  <original SMILES>  (118) 
CCC(CNC(=O)c1cc2ccccc2nn1)NCc1ccon1

>  <cmpd_ids>  (118) 
ENAMINE:PV-000839479013

>  <ref_url>  (118) 
https://github.com/stephwills/fragment_network_merges

>  <submitter_name>  (118) 
Steph Wills

>  <submitter_institution>  (118) 
University of Oxford

>  <submitter_email>  (118) 
stephanie.wills@balliol.ox.ac.uk

>  <generation_date>  (118) 
2023-09-06

>  <method>  (118) 
fragNetMergingIt3

>  <ref_pdb>  (118) 
x1052_1A,x1594_0A

$$$$
x1140-0A-x1052-1A-192
     RDKit          3D

 25 28  0  0  0  0  0  0  0  0999 V2000
   -7.3510   -7.6990   -6.2820 O   0  0  0  0  0  0  0  0  0  0  0  0
   -7.7280   -7.8910   -4.9040 S   0  0  0  0  0  6  0  0  0  0  0  0
   -8.1490   -9.2020   -4.4490 O   0  0  0  0  0  0  0  0  0  0  0  0
   -6.4970   -7.4250   -3.8920 N   0  0  0  0  0  0  0  0  0  0  0  0
   -5.4060   -8.3280   -3.6080 C   0  0  0  0  0  0  0  0  0  0  0  0
   -4.9590   -8.3360   -2.1510 C   0  0  0  0  0  0  0  0  0  0  0  0
   -5.8790   -9.0370   -1.1600 C   0  0  0  0  0  0  0  0  0  0  0  0
   -5.4470   -9.0810    0.2790 C   0  0  0  0  0  0  0  0  0  0  0  0
   -4.2170   -8.4660    0.5900 C   0  0  0  0  0  0  0  0  0  0  0  0
   -3.4510   -7.8530   -0.3510 C   0  0  0  0  0  0  0  0  0  0  0  0
   -3.7610   -7.7540   -1.6940 C   0  0  0  0  0  0  0  0  0  0  0  0
   -2.2930   -7.2980    0.0140 O   0  0  0  0  0  0  0  0  0  0  0  0
   -2.3250   -7.7350    1.3960 C   0  0  0  0  0  0  0  0  0  0  0  0
   -3.5870   -8.3690    1.7940 O   0  0  0  0  0  0  0  0  0  0  0  0
   -9.0150   -6.7400   -4.5010 C   0  0  0  0  0  0  0  0  0  0  0  0
  -10.0610   -6.6970   -5.3950 C   0  0  0  0  0  0  0  0  0  0  0  0
  -11.1370   -5.8380   -5.2030 C   0  0  0  0  0  0  0  0  0  0  0  0
  -11.1680   -5.0010   -4.0920 C   0  0  0  0  0  0  0  0  0  0  0  0
  -10.1080   -5.0430   -3.1810 C   0  0  0  0  0  0  0  0  0  0  0  0
   -9.0050   -5.9100   -3.3570 C   0  0  0  0  0  0  0  0  0  0  0  0
   -7.9130   -5.8790   -2.3140 C   0  0  0  0  0  0  0  0  0  0  0  0
   -6.5430   -5.4110   -2.5670 C   0  0  0  0  0  0  0  0  0  0  0  0
   -5.9120   -5.5810   -1.2190 C   0  0  0  0  0  0  0  0  0  0  0  0
   -6.8090   -6.0780   -0.3410 N   0  0  0  0  0  0  0  0  0  0  0  0
   -8.0320   -6.2650   -1.0040 O   0  0  0  0  0  0  0  0  0  0  0  0
  1  2  2  0
  2  3  2  0
  2  4  1  0
  4  5  1  0
  5  6  1  0
  6  7  2  0
  7  8  1  0
  8  9  2  0
  9 10  1  0
 10 11  2  0
 10 12  1  0
 12 13  1  0
 13 14  1  0
  2 15  1  0
 15 16  2  0
 16 17  1  0
 17 18  2  0
 18 19  1  0
 19 20  2  0
 20 21  1  0
 21 22  2  0
 22 23  1  0
 23 24  2  0
 24 25  1  0
 11  6  1  0
 20 15  1  0
 25 21  1  0
 14  9  1  0
M  END
>  <pair>  (119) 
x1140_0A-x1052_1A

>  <sucos>  (119) 
0.4435003775930649

>  <ref_mols>  (119) 
x1140_0A,x1052_1A

>  <original SMILES>  (119) 
O=S(=O)(NCc1ccc2c(c1)OCO2)c1ccccc1-c1ccno1

>  <cmpd_ids>  (119) 
ENAMINE:Z1623870203

>  <ref_url>  (119) 
https://github.com/stephwills/fragment_network_merges

>  <submitter_name>  (119) 
Steph Wills

>  <submitter_institution>  (119) 
University of Oxford

>  <submitter_email>  (119) 
stephanie.wills@balliol.ox.ac.uk

>  <generation_date>  (119) 
2023-09-06

>  <method>  (119) 
fragNetMergingIt3

>  <ref_pdb>  (119) 
x1140_0A,x1052_1A

$$$$
x1052-1A-x1604-0A-85
     RDKit          3D

 23 25  0  0  0  0  0  0  0  0999 V2000
   -6.8840   -7.1610   -8.5750 O   0  0  0  0  0  0  0  0  0  0  0  0
   -7.2420   -6.6170   -7.5460 C   0  0  0  0  0  0  0  0  0  0  0  0
   -6.8630   -6.9340   -6.2670 O   0  0  0  0  0  0  0  0  0  0  0  0
   -7.8510   -7.6440   -5.4870 C   0  0  0  0  0  0  0  0  0  0  0  0
   -7.2200   -8.7370   -4.5750 C   0  0  0  0  0  0  0  0  0  0  0  0
   -5.5240   -8.3250   -3.9990 S   0  0  0  0  0  0  0  0  0  0  0  0
   -5.6880   -8.3960   -2.1890 C   0  0  0  0  0  0  0  0  0  0  0  0
   -5.9810   -7.0390   -1.7090 C   0  0  0  0  0  0  0  0  0  0  0  0
   -5.4240   -5.7770   -2.0380 C   0  0  0  0  0  0  0  0  0  0  0  0
   -6.1550   -4.9440   -1.2650 C   0  0  0  0  0  0  0  0  0  0  0  0
   -7.1530   -5.5600   -0.4490 N   0  0  0  0  0  0  0  0  0  0  0  0
   -6.9830   -6.9010   -0.7720 O   0  0  0  0  0  0  0  0  0  0  0  0
   -8.1860   -5.4910   -7.5330 C   0  0  0  0  0  0  0  0  0  0  0  0
   -7.8900   -4.2190   -8.0290 C   0  0  0  0  0  0  0  0  0  0  0  0
   -8.8630   -3.2180   -7.9550 C   0  0  0  0  0  0  0  0  0  0  0  0
  -10.1060   -3.4910   -7.3990 C   0  0  0  0  0  0  0  0  0  0  0  0
  -10.3800   -4.7680   -6.9190 C   0  0  0  0  0  0  0  0  0  0  0  0
   -9.4260   -5.7680   -6.9830 C   0  0  0  0  0  0  0  0  0  0  0  0
  -11.7010   -5.0490   -6.3380 C   0  0  0  0  0  0  0  0  0  0  0  0
  -11.9800   -6.1640   -5.9120 O   0  0  0  0  0  0  0  0  0  0  0  0
  -12.6670   -3.8990   -6.2890 C   0  0  0  0  0  0  0  0  0  0  0  0
  -11.8860   -2.6000   -6.2290 C   0  0  0  0  0  0  0  0  0  0  0  0
  -11.0100   -2.4690   -7.3510 O   0  0  0  0  0  0  0  0  0  0  0  0
  1  2  2  0
  2  3  1  0
  3  4  1  0
  4  5  1  0
  5  6  1  0
  6  7  1  0
  7  8  1  0
  8  9  2  0
  9 10  1  0
 10 11  2  0
 11 12  1  0
  2 13  1  0
 13 14  2  0
 14 15  1  0
 15 16  2  0
 16 17  1  0
 17 18  2  0
 17 19  1  0
 19 20  2  0
 19 21  1  0
 21 22  1  0
 22 23  1  0
 12  8  1  0
 18 13  1  0
 23 16  1  0
M  END
>  <pair>  (120) 
x1052_1A-x1604_0A

>  <sucos>  (120) 
0.4567031943546248

>  <ref_mols>  (120) 
x1052_1A,x1604_0A

>  <original SMILES>  (120) 
O=C(OCCSCc1ccno1)c1ccc2c(c1)C(=O)CCO2

>  <cmpd_ids>  (120) 
ENAMINE:Z4349064259

>  <ref_url>  (120) 
https://github.com/stephwills/fragment_network_merges

>  <submitter_name>  (120) 
Steph Wills

>  <submitter_institution>  (120) 
University of Oxford

>  <submitter_email>  (120) 
stephanie.wills@balliol.ox.ac.uk

>  <generation_date>  (120) 
2023-09-06

>  <method>  (120) 
fragNetMergingIt3

>  <ref_pdb>  (120) 
x1052_1A,x1604_0A

$$$$
x1594-0A-x1052-1A-111
     RDKit          3D

 21 23  0  0  0  0  0  0  0  0999 V2000
   -6.8420   -6.6740   -7.5630 C   0  0  0  0  0  0  0  0  0  0  0  0
   -7.4450   -5.3750   -7.8790 C   0  0  0  0  0  0  0  0  0  0  0  0
   -7.1520   -4.6360   -8.9010 N   0  0  0  0  0  0  0  0  0  0  0  0
   -7.9270   -3.5170   -8.8280 N   0  0  0  0  0  0  0  0  0  0  0  0
   -8.6830   -3.5940   -7.7730 C   0  0  0  0  0  0  0  0  0  0  0  0
   -9.6150   -2.7710   -7.2610 C   0  0  0  0  0  0  0  0  0  0  0  0
  -10.2300   -3.1160   -6.0690 C   0  0  0  0  0  0  0  0  0  0  0  0
   -9.8620   -4.3560   -5.3840 C   0  0  0  0  0  0  0  0  0  0  0  0
  -10.3650   -4.8050   -4.0580 C   0  0  0  0  0  0  0  0  0  0  0  0
  -11.5400   -4.6070   -3.7530 O   0  0  0  0  0  0  0  0  0  0  0  0
   -9.4160   -5.4500   -3.2320 N   0  0  0  0  0  0  0  0  0  0  0  0
   -9.2970   -6.9040   -3.1610 C   0  0  0  0  0  0  0  0  0  0  0  0
   -8.1920   -4.7140   -2.8000 C   0  0  0  0  0  0  0  0  0  0  0  0
   -7.1980   -5.5830   -2.0260 C   0  0  0  0  0  0  0  0  0  0  0  0
   -5.9130   -5.8780   -2.5180 C   0  0  0  0  0  0  0  0  0  0  0  0
   -5.0700   -6.6870   -1.7700 C   0  0  0  0  0  0  0  0  0  0  0  0
   -5.4980   -7.1910   -0.5600 C   0  0  0  0  0  0  0  0  0  0  0  0
   -6.7730   -6.8580   -0.1390 C   0  0  0  0  0  0  0  0  0  0  0  0
   -7.6190   -6.0720   -0.8330 N   0  0  0  0  0  0  0  0  0  0  0  0
   -8.9760   -5.1660   -5.9440 C   0  0  0  0  0  0  0  0  0  0  0  0
   -8.3940   -4.7720   -7.1200 N   0  0  0  0  0  0  0  0  0  0  0  0
  1  2  1  0
  2  3  2  0
  3  4  1  0
  4  5  2  0
  5  6  1  0
  6  7  2  0
  7  8  1  0
  8  9  1  0
  9 10  2  0
  9 11  1  0
 11 12  1  0
 11 13  1  0
 13 14  1  0
 14 15  2  0
 15 16  1  0
 16 17  2  0
 17 18  1  0
 18 19  2  0
  8 20  2  0
 20 21  1  0
 21  2  1  0
 21  5  1  0
 19 14  1  0
M  END
>  <pair>  (121) 
x1594_0A-x1052_1A

>  <sucos>  (121) 
0.45929789151906336

>  <ref_mols>  (121) 
x1594_0A,x1052_1A

>  <original SMILES>  (121) 
Cc1nnc2ccc(C(=O)N(C)Cc3ccccn3)cn12

>  <cmpd_ids>  (121) 
ENAMINE:Z981992954

>  <ref_url>  (121) 
https://github.com/stephwills/fragment_network_merges

>  <submitter_name>  (121) 
Steph Wills

>  <submitter_institution>  (121) 
University of Oxford

>  <submitter_email>  (121) 
stephanie.wills@balliol.ox.ac.uk

>  <generation_date>  (121) 
2023-09-06

>  <method>  (121) 
fragNetMergingIt3

>  <ref_pdb>  (121) 
x1594_0A,x1052_1A

$$$$
x1594-0A-x1052-1A-74
     RDKit          3D

 23 25  0  0  0  0  0  0  0  0999 V2000
   -6.4860   -7.9380   -8.7870 C   0  0  0  0  0  0  0  0  0  0  0  0
   -6.4720   -7.0550   -7.5910 C   0  0  0  0  0  0  0  0  0  0  0  0
   -6.9670   -7.8490   -6.3770 C   0  0  0  0  0  0  0  0  0  0  0  0
   -4.9800   -6.8690   -7.5920 C   0  0  0  0  0  0  0  0  0  0  0  0
   -7.2100   -5.7350   -7.8390 C   0  0  0  0  0  0  0  0  0  0  0  0
   -6.9900   -4.9920   -8.8930 N   0  0  0  0  0  0  0  0  0  0  0  0
   -7.7700   -3.8800   -8.8550 N   0  0  0  0  0  0  0  0  0  0  0  0
   -8.4910   -3.9230   -7.7800 C   0  0  0  0  0  0  0  0  0  0  0  0
   -9.4460   -3.0510   -7.2740 C   0  0  0  0  0  0  0  0  0  0  0  0
  -10.0290   -3.3260   -6.0900 C   0  0  0  0  0  0  0  0  0  0  0  0
   -9.6640   -4.5300   -5.3350 C   0  0  0  0  0  0  0  0  0  0  0  0
  -10.2180   -4.8370   -3.9860 C   0  0  0  0  0  0  0  0  0  0  0  0
  -11.4120   -4.6810   -3.7410 O   0  0  0  0  0  0  0  0  0  0  0  0
   -9.2810   -5.3080   -3.0550 N   0  0  0  0  0  0  0  0  0  0  0  0
   -7.9660   -4.6750   -2.8130 C   0  0  0  0  0  0  0  0  0  0  0  0
   -7.1590   -5.5060   -2.0750 C   0  0  0  0  0  0  0  0  0  0  0  0
   -5.8660   -5.8870   -2.5460 C   0  0  0  0  0  0  0  0  0  0  0  0
   -5.0900   -6.7410   -1.7660 C   0  0  0  0  0  0  0  0  0  0  0  0
   -5.5830   -7.2010   -0.5600 C   0  0  0  0  0  0  0  0  0  0  0  0
   -6.8430   -6.7870   -0.1710 C   0  0  0  0  0  0  0  0  0  0  0  0
   -7.6360   -5.9570   -0.8870 N   0  0  0  0  0  0  0  0  0  0  0  0
   -8.7730   -5.3790   -5.8620 C   0  0  0  0  0  0  0  0  0  0  0  0
   -8.1760   -5.0830   -7.0730 N   0  0  0  0  0  0  0  0  0  0  0  0
  1  2  1  0
  2  3  1  0
  2  4  1  0
  2  5  1  0
  5  6  2  0
  6  7  1  0
  7  8  2  0
  8  9  1  0
  9 10  2  0
 10 11  1  0
 11 12  1  0
 12 13  2  0
 12 14  1  0
 14 15  1  0
 15 16  1  0
 16 17  2  0
 17 18  1  0
 18 19  2  0
 19 20  1  0
 20 21  2  0
 11 22  2  0
 22 23  1  0
 23  5  1  0
 23  8  1  0
 21 16  1  0
M  END
>  <pair>  (122) 
x1594_0A-x1052_1A

>  <sucos>  (122) 
0.45947954198830976

>  <ref_mols>  (122) 
x1594_0A,x1052_1A

>  <original SMILES>  (122) 
CC(C)(C)c1nnc2ccc(C(=O)NCc3ccccn3)cn12

>  <cmpd_ids>  (122) 
ENAMINE:Z1709692948

>  <ref_url>  (122) 
https://github.com/stephwills/fragment_network_merges

>  <submitter_name>  (122) 
Steph Wills

>  <submitter_institution>  (122) 
University of Oxford

>  <submitter_email>  (122) 
stephanie.wills@balliol.ox.ac.uk

>  <generation_date>  (122) 
2023-09-06

>  <method>  (122) 
fragNetMergingIt3

>  <ref_pdb>  (122) 
x1594_0A,x1052_1A

$$$$
x1052-1A-x1594-0A-99
     RDKit          3D

 21 23  0  0  0  0  0  0  0  0999 V2000
   -4.0250   -7.0680    0.4190 C   0  0  0  0  0  0  0  0  0  0  0  0
   -4.3740   -7.6200   -0.8780 C   0  0  0  0  0  0  0  0  0  0  0  0
   -4.9180   -8.8540   -1.0710 C   0  0  0  0  0  0  0  0  0  0  0  0
   -3.4240   -7.5250   -1.9240 C   0  0  0  0  0  0  0  0  0  0  0  0
   -5.5030   -6.7770   -1.3700 C   0  0  0  0  0  0  0  0  0  0  0  0
   -5.8540   -6.3280   -2.6130 C   0  0  0  0  0  0  0  0  0  0  0  0
   -7.1110   -5.5610   -2.3950 C   0  0  0  0  0  0  0  0  0  0  0  0
   -7.8300   -4.9490   -3.4350 N   0  0  0  0  0  0  0  0  0  0  0  0
   -8.5350   -5.6560   -4.4350 C   0  0  0  0  0  0  0  0  0  0  0  0
   -8.8160   -6.8470   -4.4440 O   0  0  0  0  0  0  0  0  0  0  0  0
   -8.9480   -4.8090   -5.5710 C   0  0  0  0  0  0  0  0  0  0  0  0
  -10.1280   -3.9120   -5.4310 C   0  0  0  0  0  0  0  0  0  0  0  0
  -10.4980   -3.0560   -6.4470 C   0  0  0  0  0  0  0  0  0  0  0  0
   -9.7350   -3.0360   -7.6120 C   0  0  0  0  0  0  0  0  0  0  0  0
   -8.6360   -3.8910   -7.7730 N   0  0  0  0  0  0  0  0  0  0  0  0
   -7.8110   -4.0160   -8.8350 N   0  0  0  0  0  0  0  0  0  0  0  0
   -6.9180   -4.9570   -8.5960 N   0  0  0  0  0  0  0  0  0  0  0  0
   -7.1590   -5.4460   -7.3550 C   0  0  0  0  0  0  0  0  0  0  0  0
   -8.2280   -4.7890   -6.7980 C   0  0  0  0  0  0  0  0  0  0  0  0
   -7.4080   -5.5830   -1.0860 N   0  0  0  0  0  0  0  0  0  0  0  0
   -6.4230   -6.3340   -0.4590 O   0  0  0  0  0  0  0  0  0  0  0  0
  1  2  1  0
  2  3  1  0
  2  4  1  0
  2  5  1  0
  5  6  2  0
  6  7  1  0
  7  8  1  0
  8  9  1  0
  9 10  2  0
  9 11  1  0
 11 12  2  0
 12 13  1  0
 13 14  2  0
 14 15  1  0
 15 16  1  0
 16 17  2  0
 17 18  1  0
 18 19  2  0
  7 20  2  0
 20 21  1  0
 21  5  1  0
 19 11  1  0
 19 15  1  0
M  END
>  <pair>  (123) 
x1052_1A-x1594_0A

>  <sucos>  (123) 
0.46713835674555027

>  <ref_mols>  (123) 
x1052_1A,x1594_0A

>  <original SMILES>  (123) 
CC(C)(C)c1cc(NC(=O)c2cccn3nncc23)no1

>  <cmpd_ids>  (123) 
ENAMINE:Z3536731363

>  <ref_url>  (123) 
https://github.com/stephwills/fragment_network_merges

>  <submitter_name>  (123) 
Steph Wills

>  <submitter_institution>  (123) 
University of Oxford

>  <submitter_email>  (123) 
stephanie.wills@balliol.ox.ac.uk

>  <generation_date>  (123) 
2023-09-06

>  <method>  (123) 
fragNetMergingIt3

>  <ref_pdb>  (123) 
x1052_1A,x1594_0A

$$$$
x1052-1A-x1594-0A-182
     RDKit          3D

 21 23  0  0  0  0  0  0  0  0999 V2000
   -6.7510   -3.6540   -1.0640 C   0  0  0  0  0  0  0  0  0  0  0  0
   -6.5390   -5.0340   -1.3980 C   0  0  0  0  0  0  0  0  0  0  0  0
   -5.9600   -5.5420   -2.5670 C   0  0  0  0  0  0  0  0  0  0  0  0
   -6.0160   -6.9330   -2.3970 C   0  0  0  0  0  0  0  0  0  0  0  0
   -5.5630   -7.9920   -3.3500 C   0  0  0  0  0  0  0  0  0  0  0  0
   -5.4070   -7.5150   -4.6630 N   0  0  0  0  0  0  0  0  0  0  0  0
   -6.0630   -8.0920   -5.8530 C   0  0  0  0  0  0  0  0  0  0  0  0
   -6.5640   -9.2090   -5.8210 O   0  0  0  0  0  0  0  0  0  0  0  0
   -6.0600   -7.2570   -6.9740 N   0  0  0  0  0  0  0  0  0  0  0  0
   -6.9390   -6.1860   -7.1990 C   0  0  0  0  0  0  0  0  0  0  0  0
   -8.1290   -6.0770   -6.5350 C   0  0  0  0  0  0  0  0  0  0  0  0
   -8.9570   -5.0040   -6.7340 C   0  0  0  0  0  0  0  0  0  0  0  0
  -10.1830   -4.8860   -6.0400 C   0  0  0  0  0  0  0  0  0  0  0  0
  -10.9970   -3.8050   -6.2240 C   0  0  0  0  0  0  0  0  0  0  0  0
  -10.6720   -2.7270   -7.1170 C   0  0  0  0  0  0  0  0  0  0  0  0
   -9.4550   -2.9210   -7.7640 C   0  0  0  0  0  0  0  0  0  0  0  0
   -8.5920   -4.0090   -7.6180 C   0  0  0  0  0  0  0  0  0  0  0  0
   -7.4300   -4.1190   -8.2960 N   0  0  0  0  0  0  0  0  0  0  0  0
   -6.5950   -5.2160   -8.0880 N   0  0  0  0  0  0  0  0  0  0  0  0
   -6.5820   -7.2140   -1.1820 O   0  0  0  0  0  0  0  0  0  0  0  0
   -6.9110   -6.0160   -0.5620 N   0  0  0  0  0  0  0  0  0  0  0  0
  1  2  1  0
  2  3  1  0
  3  4  2  0
  4  5  1  0
  5  6  1  0
  6  7  1  0
  7  8  2  0
  7  9  1  0
  9 10  1  0
 10 11  2  0
 11 12  1  0
 12 13  2  0
 13 14  1  0
 14 15  2  0
 15 16  1  0
 16 17  2  0
 17 18  1  0
 18 19  2  0
  4 20  1  0
 20 21  1  0
 21  2  2  0
 19 10  1  0
 17 12  1  0
M  END
>  <pair>  (124) 
x1052_1A-x1594_0A

>  <sucos>  (124) 
0.47522423845131634

>  <ref_mols>  (124) 
x1052_1A,x1594_0A

>  <original SMILES>  (124) 
Cc1cc(CNC(=O)Nc2cc3ccccc3nn2)on1

>  <cmpd_ids>  (124) 
ENAMINE:PV-002559889296

>  <ref_url>  (124) 
https://github.com/stephwills/fragment_network_merges

>  <submitter_name>  (124) 
Steph Wills

>  <submitter_institution>  (124) 
University of Oxford

>  <submitter_email>  (124) 
stephanie.wills@balliol.ox.ac.uk

>  <generation_date>  (124) 
2023-09-06

>  <method>  (124) 
fragNetMergingIt3

>  <ref_pdb>  (124) 
x1052_1A,x1594_0A

$$$$
x1052-1A-x1140-0A-27
     RDKit          3D

 25 27  0  0  0  0  0  0  0  0999 V2000
   -7.6200   -7.8240    3.2890 C   0  0  0  0  0  0  0  0  0  0  0  0
   -8.0230   -7.7200    1.9330 O   0  0  0  0  0  0  0  0  0  0  0  0
   -6.9660   -8.0280    1.0240 C   0  0  0  0  0  0  0  0  0  0  0  0
   -6.8260   -6.9000    0.0780 C   0  0  0  0  0  0  0  0  0  0  0  0
   -6.0210   -6.5480   -0.9650 C   0  0  0  0  0  0  0  0  0  0  0  0
   -6.5220   -5.3050   -1.3820 C   0  0  0  0  0  0  0  0  0  0  0  0
   -6.0000   -4.5710   -2.4890 C   0  0  0  0  0  0  0  0  0  0  0  0
   -5.7930   -3.3640   -2.5400 O   0  0  0  0  0  0  0  0  0  0  0  0
   -5.8270   -5.4970   -3.4660 N   0  0  0  0  0  0  0  0  0  0  0  0
   -6.7730   -6.5880   -3.4880 C   0  0  0  0  0  0  0  0  0  0  0  0
   -6.1420   -7.9910   -3.2940 C   0  0  0  0  0  0  0  0  0  0  0  0
   -7.1870   -9.0870   -3.6030 C   0  0  0  0  0  0  0  0  0  0  0  0
   -5.0860   -8.1590   -4.3220 C   0  0  0  0  0  0  0  0  0  0  0  0
   -5.3900   -8.2360   -1.9710 C   0  0  0  0  0  0  0  0  0  0  0  0
   -5.9450   -9.1790   -1.0980 C   0  0  0  0  0  0  0  0  0  0  0  0
   -5.3530   -9.5010    0.1150 C   0  0  0  0  0  0  0  0  0  0  0  0
   -4.1820   -8.8860    0.4970 C   0  0  0  0  0  0  0  0  0  0  0  0
   -3.5950   -7.9360   -0.3410 C   0  0  0  0  0  0  0  0  0  0  0  0
   -4.1820   -7.6020   -1.5720 C   0  0  0  0  0  0  0  0  0  0  0  0
   -2.4430   -7.3170    0.0150 O   0  0  0  0  0  0  0  0  0  0  0  0
   -2.4440   -7.2570    1.4370 C   0  0  0  0  0  0  0  0  0  0  0  0
   -2.4140   -8.6520    1.9970 C   0  0  0  0  0  0  0  0  0  0  0  0
   -3.6700   -9.2800    1.7140 O   0  0  0  0  0  0  0  0  0  0  0  0
   -7.5540   -4.9060   -0.6400 N   0  0  0  0  0  0  0  0  0  0  0  0
   -7.7330   -5.9210    0.2700 O   0  0  0  0  0  0  0  0  0  0  0  0
  1  2  1  0
  2  3  1  0
  3  4  1  0
  4  5  2  0
  5  6  1  0
  6  7  1  0
  7  8  2  0
  7  9  1  0
  9 10  1  0
 10 11  1  0
 11 12  1  0
 11 13  1  0
 11 14  1  0
 14 15  2  0
 15 16  1  0
 16 17  2  0
 17 18  1  0
 18 19  2  0
 18 20  1  0
 20 21  1  0
 21 22  1  0
 22 23  1  0
  6 24  2  0
 24 25  1  0
 25  4  1  0
 19 14  1  0
 23 17  1  0
M  END
>  <pair>  (125) 
x1052_1A-x1140_0A

>  <sucos>  (125) 
0.4933413807635811

>  <ref_mols>  (125) 
x1052_1A,x1140_0A

>  <original SMILES>  (125) 
COCc1cc(C(=O)NCC(C)(C)c2ccc3c(c2)OCCO3)no1

>  <cmpd_ids>  (125) 
ENAMINE:Z1273876285

>  <ref_url>  (125) 
https://github.com/stephwills/fragment_network_merges

>  <submitter_name>  (125) 
Steph Wills

>  <submitter_institution>  (125) 
University of Oxford

>  <submitter_email>  (125) 
stephanie.wills@balliol.ox.ac.uk

>  <generation_date>  (125) 
2023-09-06

>  <method>  (125) 
fragNetMergingIt3

>  <ref_pdb>  (125) 
x1052_1A,x1140_0A

$$$$
x1020-0A-x0130-0A-184
     RDKit          3D

 20 21  0  0  0  0  0  0  0  0999 V2000
   -0.0580   -9.9130    2.4110 C   0  0  0  0  0  0  0  0  0  0  0  0
   -1.3810   -9.3780    2.7080 N   0  0  0  0  0  0  0  0  0  0  0  0
   -2.3420  -10.4740    2.5310 C   0  0  0  0  0  0  0  0  0  0  0  0
   -1.7460   -8.2270    1.8650 C   0  0  0  0  0  0  0  0  0  0  0  0
   -3.1800   -7.8430    1.7060 C   0  0  0  0  0  0  0  0  0  0  0  0
   -4.1740   -8.6650    1.4900 N   0  0  0  0  0  0  0  0  0  0  0  0
   -4.7860   -9.1430    2.5470 C   0  0  0  0  0  0  0  0  0  0  0  0
   -5.8800  -10.0520    2.2430 C   0  0  0  0  0  0  0  0  0  0  0  0
   -6.6930  -10.6990    3.1390 N   0  0  0  0  0  0  0  0  0  0  0  0
   -6.2740  -11.6700    4.0300 C   0  0  0  0  0  0  0  0  0  0  0  0
   -5.2990  -11.6140    4.7740 O   0  0  0  0  0  0  0  0  0  0  0  0
   -7.2100  -12.8740    3.9860 C   0  0  0  0  0  0  0  0  0  0  0  0
   -8.5720  -12.3020    3.5880 C   0  0  0  0  0  0  0  0  0  0  0  0
   -9.1840  -11.3200    4.5740 C   0  0  0  0  0  0  0  0  0  0  0  0
  -10.2980  -11.7760    5.4810 C   0  0  0  0  0  0  0  0  0  0  0  0
  -10.7160  -10.6140    6.3500 C   0  0  0  0  0  0  0  0  0  0  0  0
   -9.8670   -9.5130    5.9590 O   0  0  0  0  0  0  0  0  0  0  0  0
   -8.9670   -9.9790    4.8960 C   0  0  0  0  0  0  0  0  0  0  0  0
   -5.7570   -9.9870    0.8060 C   0  0  0  0  0  0  0  0  0  0  0  0
   -4.7340   -9.1530    0.3570 N   0  0  0  0  0  0  0  0  0  0  0  0
  1  2  1  0
  2  3  1  0
  2  4  1  0
  4  5  1  0
  5  6  1  0
  6  7  1  0
  7  8  2  0
  8  9  1  0
  9 10  1  0
 10 11  2  0
 10 12  1  0
 12 13  1  0
 13 14  1  0
 14 15  1  0
 15 16  2  0
 16 17  1  0
 17 18  1  0
  8 19  1  0
 19 20  2  0
 20  6  1  0
 18 14  2  0
M  END
>  <pair>  (126) 
x1020_0A-x0130_0A

>  <sucos>  (126) 
0.5005364174254625

>  <ref_mols>  (126) 
x1020_0A,x0130_0A

>  <original SMILES>  (126) 
CN(C)CCn1cc(NC(=O)CCc2ccoc2)cn1

>  <cmpd_ids>  (126) 
ENAMINE:Z1373778446

>  <ref_url>  (126) 
https://github.com/stephwills/fragment_network_merges

>  <submitter_name>  (126) 
Steph Wills

>  <submitter_institution>  (126) 
University of Oxford

>  <submitter_email>  (126) 
stephanie.wills@balliol.ox.ac.uk

>  <generation_date>  (126) 
2023-09-06

>  <method>  (126) 
fragNetMergingIt3

>  <ref_pdb>  (126) 
x1020_0A,x0130_0A

$$$$
x1052-1A-x1594-0A-164
     RDKit          3D

 24 26  0  0  0  0  0  0  0  0999 V2000
   -4.3560   -6.5310   -2.3910 C   0  0  0  0  0  0  0  0  0  0  0  0
   -5.5520   -6.3720   -1.6070 C   0  0  0  0  0  0  0  0  0  0  0  0
   -6.1140   -5.2360   -1.0820 C   0  0  0  0  0  0  0  0  0  0  0  0
   -7.2340   -5.4610   -0.4020 N   0  0  0  0  0  0  0  0  0  0  0  0
   -7.4230   -6.8220   -0.4810 O   0  0  0  0  0  0  0  0  0  0  0  0
   -6.4170   -7.3540   -1.2110 C   0  0  0  0  0  0  0  0  0  0  0  0
   -6.3710   -8.8290   -1.4860 C   0  0  0  0  0  0  0  0  0  0  0  0
   -6.0560   -9.7030   -0.6820 O   0  0  0  0  0  0  0  0  0  0  0  0
   -6.7580   -9.0770   -2.8680 N   0  0  0  0  0  0  0  0  0  0  0  0
   -8.0200   -8.7780   -3.3580 C   0  0  1  0  0  0  0  0  0  0  0  0
   -8.8620   -7.9470   -2.4140 C   0  0  0  0  0  0  0  0  0  0  0  0
   -7.9200   -8.0590   -4.7410 C   0  0  0  0  0  0  0  0  0  0  0  0
   -8.5400   -6.8620   -4.8420 N   0  0  0  0  0  0  0  0  0  0  0  0
   -9.6040   -6.6280   -5.6970 C   0  0  0  0  0  0  0  0  0  0  0  0
  -10.5040   -7.4300   -5.9050 O   0  0  0  0  0  0  0  0  0  0  0  0
   -9.5870   -5.4090   -6.3130 C   0  0  0  0  0  0  0  0  0  0  0  0
  -10.6300   -4.4190   -6.0220 C   0  0  0  0  0  0  0  0  0  0  0  0
  -10.6440   -3.2060   -6.6100 C   0  0  0  0  0  0  0  0  0  0  0  0
   -9.5550   -2.9000   -7.5790 C   0  0  0  0  0  0  0  0  0  0  0  0
   -8.5390   -3.8290   -7.8840 C   0  0  0  0  0  0  0  0  0  0  0  0
   -7.4990   -3.8040   -8.6800 N   0  0  0  0  0  0  0  0  0  0  0  0
   -6.8610   -5.0120   -8.5650 N   0  0  0  0  0  0  0  0  0  0  0  0
   -7.5180   -5.7420   -7.7070 C   0  0  0  0  0  0  0  0  0  0  0  0
   -8.5980   -5.0550   -7.2320 N   0  0  0  0  0  0  0  0  0  0  0  0
  1  2  1  0
  2  3  1  0
  3  4  2  0
  4  5  1  0
  5  6  1  0
  6  7  1  0
  7  8  2  0
  7  9  1  0
  9 10  1  0
 10 11  1  1
 10 12  1  0
 12 13  1  0
 13 14  1  0
 14 15  2  0
 14 16  1  0
 16 17  2  0
 17 18  1  0
 18 19  2  0
 19 20  1  0
 20 21  2  0
 21 22  1  0
 22 23  2  0
 23 24  1  0
  6  2  2  0
 24 16  1  0
 24 20  1  0
M  END
>  <pair>  (127) 
x1052_1A-x1594_0A

>  <sucos>  (127) 
0.520255656058044

>  <ref_mols>  (127) 
x1052_1A,x1594_0A

>  <original SMILES>  (127) 
Cc1cnoc1C(=O)NC(C)CNC(=O)c1cccc2nncn12

>  <cmpd_ids>  (127) 
ENAMINE:PV-002737817496

>  <ref_url>  (127) 
https://github.com/stephwills/fragment_network_merges

>  <submitter_name>  (127) 
Steph Wills

>  <submitter_institution>  (127) 
University of Oxford

>  <submitter_email>  (127) 
stephanie.wills@balliol.ox.ac.uk

>  <generation_date>  (127) 
2023-09-06

>  <method>  (127) 
fragNetMergingIt3

>  <ref_pdb>  (127) 
x1052_1A,x1594_0A

$$$$
x1052-1A-x1594-0A-97
     RDKit          3D

 22 24  0  0  0  0  0  0  0  0999 V2000
   -5.7120   -2.4930   -1.9890 N   0  0  0  0  0  0  0  0  0  0  0  0
   -6.3820   -3.3050   -1.1100 C   0  0  0  0  0  0  0  0  0  0  0  0
   -6.9310   -2.7900   -0.1370 O   0  0  0  0  0  0  0  0  0  0  0  0
   -6.3900   -4.7520   -1.4020 C   0  0  0  0  0  0  0  0  0  0  0  0
   -5.9430   -5.4360   -2.4940 C   0  0  0  0  0  0  0  0  0  0  0  0
   -6.2190   -6.7700   -2.2270 C   0  0  0  0  0  0  0  0  0  0  0  0
   -5.9310   -7.8670   -3.1510 C   0  0  0  0  0  0  0  0  0  0  0  0
   -5.9110   -7.2600   -4.4800 N   0  0  0  0  0  0  0  0  0  0  0  0
   -7.0820   -6.7880   -5.1100 C   0  0  0  0  0  0  0  0  0  0  0  0
   -8.0970   -6.5070   -4.4800 O   0  0  0  0  0  0  0  0  0  0  0  0
   -7.0350   -6.6610   -6.5760 C   0  0  0  0  0  0  0  0  0  0  0  0
   -7.5940   -5.4820   -7.1710 N   0  0  0  0  0  0  0  0  0  0  0  0
   -6.8970   -4.9070   -8.2080 N   0  0  0  0  0  0  0  0  0  0  0  0
   -7.5680   -3.8660   -8.5790 N   0  0  0  0  0  0  0  0  0  0  0  0
   -8.6730   -3.7850   -7.7840 C   0  0  0  0  0  0  0  0  0  0  0  0
   -9.7750   -2.7980   -7.7500 C   0  0  0  0  0  0  0  0  0  0  0  0
  -10.7830   -2.9780   -6.8250 C   0  0  0  0  0  0  0  0  0  0  0  0
  -10.7650   -4.0620   -5.9420 C   0  0  0  0  0  0  0  0  0  0  0  0
   -9.7390   -4.9870   -5.9600 C   0  0  0  0  0  0  0  0  0  0  0  0
   -8.7170   -4.8180   -6.8810 C   0  0  0  0  0  0  0  0  0  0  0  0
   -6.7950   -6.9050   -1.0140 O   0  0  0  0  0  0  0  0  0  0  0  0
   -6.9090   -5.6250   -0.4990 N   0  0  0  0  0  0  0  0  0  0  0  0
  1  2  1  0
  2  3  2  0
  2  4  1  0
  4  5  1  0
  5  6  2  0
  6  7  1  0
  7  8  1  0
  8  9  1  0
  9 10  2  0
  9 11  1  0
 11 12  1  0
 12 13  1  0
 13 14  2  0
 14 15  1  0
 15 16  2  0
 16 17  1  0
 17 18  2  0
 18 19  1  0
 19 20  2  0
  6 21  1  0
 21 22  1  0
 22  4  2  0
 20 12  1  0
 20 15  1  0
M  END
>  <pair>  (128) 
x1052_1A-x1594_0A

>  <sucos>  (128) 
0.5297226702140272

>  <ref_mols>  (128) 
x1052_1A,x1594_0A

>  <original SMILES>  (128) 
NC(=O)c1cc(CNC(=O)Cn2nnc3ccccc32)on1

>  <cmpd_ids>  (128) 
ENAMINE:Z1416068259

>  <ref_url>  (128) 
https://github.com/stephwills/fragment_network_merges

>  <submitter_name>  (128) 
Steph Wills

>  <submitter_institution>  (128) 
University of Oxford

>  <submitter_email>  (128) 
stephanie.wills@balliol.ox.ac.uk

>  <generation_date>  (128) 
2023-09-06

>  <method>  (128) 
fragNetMergingIt3

>  <ref_pdb>  (128) 
x1052_1A,x1594_0A

$$$$
x1594-0A-x2021-0A-173
     RDKit          3D

 21 22  0  0  0  0  0  0  0  0999 V2000
   -6.5540   -0.3720    0.5700 C   0  0  0  0  0  0  0  0  0  0  0  0
   -5.9140   -0.9930   -0.6550 C   0  0  0  0  0  0  0  0  0  0  0  0
   -5.9140   -2.4090   -0.4610 O   0  0  0  0  0  0  0  0  0  0  0  0
   -6.7090   -3.1400   -1.4000 C   0  0  0  0  0  0  0  0  0  0  0  0
   -5.8460   -4.0340   -2.3070 C   0  0  0  0  0  0  0  0  0  0  0  0
   -6.3880   -5.4550   -2.5050 C   0  0  0  0  0  0  0  0  0  0  0  0
   -7.4630   -5.5290   -3.9400 S   0  0  0  0  0  6  0  0  0  0  0  0
   -7.2890   -4.2980   -4.6570 O   0  0  0  0  0  0  0  0  0  0  0  0
   -8.7680   -5.9720   -3.4970 O   0  0  0  0  0  0  0  0  0  0  0  0
   -6.8970   -6.6160   -4.9010 N   0  0  0  0  0  0  0  0  0  0  0  0
   -7.5350   -6.8750   -6.2360 C   0  0  0  0  0  0  0  0  0  0  0  0
   -7.6710   -5.7390   -6.9970 C   0  0  0  0  0  0  0  0  0  0  0  0
   -6.8700   -5.2610   -7.9540 N   0  0  0  0  0  0  0  0  0  0  0  0
   -7.4200   -4.0810   -8.4250 N   0  0  0  0  0  0  0  0  0  0  0  0
   -8.5380   -3.8630   -7.7530 C   0  0  0  0  0  0  0  0  0  0  0  0
   -9.4640   -2.8740   -7.7820 C   0  0  0  0  0  0  0  0  0  0  0  0
  -10.5420   -2.9180   -6.9740 C   0  0  0  0  0  0  0  0  0  0  0  0
  -10.7550   -4.0150   -6.0380 C   0  0  0  0  0  0  0  0  0  0  0  0
  -11.9820   -3.9840   -5.1840 C   0  0  0  0  0  0  0  0  0  0  0  0
   -9.8290   -4.9830   -6.0010 C   0  0  0  0  0  0  0  0  0  0  0  0
   -8.7370   -4.8980   -6.8510 N   0  0  0  0  0  0  0  0  0  0  0  0
  1  2  1  0
  2  3  1  0
  3  4  1  0
  4  5  1  0
  5  6  1  0
  6  7  1  0
  7  8  2  0
  7  9  2  0
  7 10  1  0
 10 11  1  0
 11 12  1  0
 12 13  2  0
 13 14  1  0
 14 15  2  0
 15 16  1  0
 16 17  2  0
 17 18  1  0
 18 19  1  0
 18 20  2  0
 20 21  1  0
 21 12  1  0
 21 15  1  0
M  END
>  <pair>  (129) 
x1594_0A-x2021_0A

>  <sucos>  (129) 
0.5376141217554634

>  <ref_mols>  (129) 
x1594_0A,x2021_0A

>  <original SMILES>  (129) 
CCOCCCS(=O)(=O)NCc1nnc2ccc(C)cn12

>  <cmpd_ids>  (129) 
ENAMINE:Z3471748931

>  <ref_url>  (129) 
https://github.com/stephwills/fragment_network_merges

>  <submitter_name>  (129) 
Steph Wills

>  <submitter_institution>  (129) 
University of Oxford

>  <submitter_email>  (129) 
stephanie.wills@balliol.ox.ac.uk

>  <generation_date>  (129) 
2023-09-06

>  <method>  (129) 
fragNetMergingIt3

>  <ref_pdb>  (129) 
x1594_0A,x2021_0A

$$$$
x1594-0A-x1919-0A-8
     RDKit          3D

 22 23  0  0  0  0  0  0  0  0999 V2000
   -5.6840    0.2460   -0.7160 C   0  0  0  0  0  0  0  0  0  0  0  0
   -6.8800   -0.6840   -0.6120 C   0  0  0  0  0  0  0  0  0  0  0  0
   -6.4750   -2.0640   -1.0890 C   0  0  0  0  0  0  0  0  0  0  0  0
   -7.4550   -3.1790   -0.7560 C   0  0  0  0  0  0  0  0  0  0  0  0
   -6.8950   -4.5440   -1.1260 C   0  0  0  0  0  0  0  0  0  0  0  0
   -7.1500   -4.8720   -2.8560 S   0  0  0  0  0  6  0  0  0  0  0  0
   -6.2450   -4.0090   -3.5880 O   0  0  0  0  0  0  0  0  0  0  0  0
   -8.5810   -4.8360   -3.0830 O   0  0  0  0  0  0  0  0  0  0  0  0
   -6.6220   -6.5580   -2.9110 C   0  0  0  0  0  0  0  0  0  0  0  0
   -6.4580   -7.0900   -4.2950 C   0  0  0  0  0  0  0  0  0  0  0  0
   -5.5510   -7.8730   -4.5430 O   0  0  0  0  0  0  0  0  0  0  0  0
   -7.3760   -6.6680   -5.2470 N   0  0  0  0  0  0  0  0  0  0  0  0
   -7.1370   -6.7430   -6.6820 C   0  0  0  0  0  0  0  0  0  0  0  0
   -7.5610   -5.4950   -7.3520 C   0  0  0  0  0  0  0  0  0  0  0  0
   -6.9030   -4.8710   -8.3120 N   0  0  0  0  0  0  0  0  0  0  0  0
   -7.6150   -3.7480   -8.6430 N   0  0  0  0  0  0  0  0  0  0  0  0
   -8.6860   -3.7070   -7.8870 C   0  0  0  0  0  0  0  0  0  0  0  0
   -9.7640   -2.7810   -7.7800 C   0  0  0  0  0  0  0  0  0  0  0  0
  -10.7510   -3.0090   -6.8990 C   0  0  0  0  0  0  0  0  0  0  0  0
  -10.7460   -4.1840   -6.0460 C   0  0  0  0  0  0  0  0  0  0  0  0
   -9.7270   -5.0540   -6.1390 C   0  0  0  0  0  0  0  0  0  0  0  0
   -8.7060   -4.8110   -7.0510 N   0  0  0  0  0  0  0  0  0  0  0  0
  1  2  1  0
  2  3  1  0
  3  4  1  0
  4  5  1  0
  5  6  1  0
  6  7  2  0
  6  8  2  0
  6  9  1  0
  9 10  1  0
 10 11  2  0
 10 12  1  0
 12 13  1  0
 13 14  1  0
 14 15  2  0
 15 16  1  0
 16 17  2  0
 17 18  1  0
 18 19  2  0
 19 20  1  0
 20 21  2  0
 21 22  1  0
 22 14  1  0
 22 17  1  0
M  END
>  <pair>  (130) 
x1594_0A-x1919_0A

>  <sucos>  (130) 
0.5538510416701974

>  <ref_mols>  (130) 
x1594_0A,x1919_0A

>  <original SMILES>  (130) 
CCCCCS(=O)(=O)CC(=O)NCc1nnc2ccccn12

>  <cmpd_ids>  (130) 
ENAMINE:Z1090896058

>  <ref_url>  (130) 
https://github.com/stephwills/fragment_network_merges

>  <submitter_name>  (130) 
Steph Wills

>  <submitter_institution>  (130) 
University of Oxford

>  <submitter_email>  (130) 
stephanie.wills@balliol.ox.ac.uk

>  <generation_date>  (130) 
2023-09-06

>  <method>  (130) 
fragNetMergingIt3

>  <ref_pdb>  (130) 
x1594_0A,x1919_0A

$$$$
x1140-0A-x0980-0B-48
     RDKit          3D

 23 25  0  0  0  0  0  0  0  0999 V2000
   -5.8580   -5.4910   -3.1020 O   0  0  0  0  0  0  0  0  0  0  0  0
   -6.4090   -6.5400   -3.4290 C   0  0  0  0  0  0  0  0  0  0  0  0
   -5.7200   -7.8890   -3.3390 C   0  0  0  0  0  0  0  0  0  0  0  0
   -5.1700   -8.1110   -1.9540 C   0  0  0  0  0  0  0  0  0  0  0  0
   -5.8930   -8.8660   -0.9970 C   0  0  0  0  0  0  0  0  0  0  0  0
   -5.3820   -9.0680    0.2880 C   0  0  0  0  0  0  0  0  0  0  0  0
   -6.2670   -9.9860    1.4400 Cl  0  0  0  0  0  0  0  0  0  0  0  0
   -4.1580   -8.5160    0.6010 C   0  0  0  0  0  0  0  0  0  0  0  0
   -3.4600   -7.7880   -0.3280 C   0  0  0  0  0  0  0  0  0  0  0  0
   -3.9310   -7.5660   -1.6030 C   0  0  0  0  0  0  0  0  0  0  0  0
   -2.2790   -7.3290    0.1510 O   0  0  0  0  0  0  0  0  0  0  0  0
   -2.2950   -7.8470    1.4860 C   0  0  0  0  0  0  0  0  0  0  0  0
   -3.4910   -8.5940    1.7860 O   0  0  0  0  0  0  0  0  0  0  0  0
   -7.7030   -6.5920   -3.8920 N   0  0  0  0  0  0  0  0  0  0  0  0
   -8.4500   -5.3780   -4.1960 C   0  0  0  0  0  0  0  0  0  0  0  0
   -9.3430   -5.5200   -5.4400 C   0  0  1  0  0  0  0  0  0  0  0  0
  -10.5200   -4.7180   -5.2640 O   0  0  0  0  0  0  0  0  0  0  0  0
   -8.6180   -5.1030   -6.7070 C   0  0  0  0  0  0  0  0  0  0  0  0
   -7.8560   -5.9900   -7.3940 C   0  0  0  0  0  0  0  0  0  0  0  0
   -7.2360   -5.5360   -8.5260 C   0  0  0  0  0  0  0  0  0  0  0  0
   -7.3890   -4.2370   -8.9340 C   0  0  0  0  0  0  0  0  0  0  0  0
   -8.1650   -3.4180   -8.1980 C   0  0  0  0  0  0  0  0  0  0  0  0
   -8.7810   -3.8170   -7.0960 N   0  0  0  0  0  0  0  0  0  0  0  0
  1  2  2  0
  2  3  1  0
  3  4  1  0
  4  5  2  0
  5  6  1  0
  6  7  1  0
  6  8  2  0
  8  9  1  0
  9 10  2  0
  9 11  1  0
 11 12  1  0
 12 13  1  0
  2 14  1  0
 14 15  1  0
 15 16  1  0
 16 17  1  1
 16 18  1  0
 18 19  2  0
 19 20  1  0
 20 21  2  0
 21 22  1  0
 22 23  2  0
 10  4  1  0
 23 18  1  0
 13  8  1  0
M  END
>  <pair>  (131) 
x1140_0A-x0980_0B

>  <sucos>  (131) 
0.40044276614768004

>  <ref_mols>  (131) 
x1140_0A,x0980_0B

>  <original SMILES>  (131) 
O=C(Cc1cc(Cl)c2c(c1)OCO2)NCC(O)c1ccccn1

>  <cmpd_ids>  (131) 
ENAMINE:Z4349472744

>  <ref_url>  (131) 
https://github.com/stephwills/fragment_network_merges

>  <submitter_name>  (131) 
Steph Wills

>  <submitter_institution>  (131) 
University of Oxford

>  <submitter_email>  (131) 
stephanie.wills@balliol.ox.ac.uk

>  <generation_date>  (131) 
2023-09-06

>  <method>  (131) 
fragNetMergingIt3

>  <ref_pdb>  (131) 
x1140_0A,x0980_0B

$$$$
x1052-1A-x1604-0A-160
     RDKit          3D

 23 26  0  0  0  0  0  0  0  0999 V2000
  -10.5330   -1.9200   -3.7380 O   0  0  0  0  0  0  0  0  0  0  0  0
  -10.4020   -3.1320   -3.5960 C   0  0  0  0  0  0  0  0  0  0  0  0
  -11.4510   -4.1080   -4.0930 C   0  0  0  0  0  0  0  0  0  0  0  0
  -11.8140   -4.1130   -5.5240 N   0  0  0  0  0  0  0  0  0  0  0  0
  -11.2380   -3.1190   -6.4220 C   0  0  0  0  0  0  0  0  0  0  0  0
  -10.0860   -3.6210   -7.0500 C   0  0  0  0  0  0  0  0  0  0  0  0
   -9.1040   -2.9560   -7.7330 C   0  0  0  0  0  0  0  0  0  0  0  0
   -7.9950   -3.5940   -8.3040 C   0  0  0  0  0  0  0  0  0  0  0  0
   -7.7920   -4.9160   -8.2320 C   0  0  0  0  0  0  0  0  0  0  0  0
   -8.7350   -5.6160   -7.5730 C   0  0  0  0  0  0  0  0  0  0  0  0
   -9.8330   -4.9900   -7.0130 C   0  0  0  0  0  0  0  0  0  0  0  0
  -10.6820   -5.8680   -6.3970 O   0  0  0  0  0  0  0  0  0  0  0  0
  -11.8930   -5.3850   -6.0200 C   0  0  0  0  0  0  0  0  0  0  0  0
  -12.9040   -6.0620   -6.1220 O   0  0  0  0  0  0  0  0  0  0  0  0
   -9.3030   -3.6800   -2.9320 N   0  0  0  0  0  0  0  0  0  0  0  0
   -8.2350   -4.5500   -3.4390 C   0  0  0  0  0  0  0  0  0  0  0  0
   -7.3370   -4.0160   -2.5060 C   0  0  0  0  0  0  0  0  0  0  0  0
   -6.8470   -5.1050   -1.7340 C   0  0  0  0  0  0  0  0  0  0  0  0
   -5.5900   -5.7720   -2.2200 C   0  0  0  0  0  0  0  0  0  0  0  0
   -5.4180   -6.7450   -1.2680 C   0  0  0  0  0  0  0  0  0  0  0  0
   -6.4250   -6.6790   -0.3360 O   0  0  0  0  0  0  0  0  0  0  0  0
   -7.3240   -5.6480   -0.6240 N   0  0  0  0  0  0  0  0  0  0  0  0
   -8.4550   -3.1480   -1.8870 C   0  0  0  0  0  0  0  0  0  0  0  0
  1  2  2  0
  2  3  1  0
  3  4  1  0
  4  5  1  0
  5  6  1  0
  6  7  2  0
  7  8  1  0
  8  9  2  0
  9 10  1  0
 10 11  2  0
 11 12  1  0
 12 13  1  0
 13 14  2  0
  2 15  1  0
 15 16  1  0
 16 17  1  0
 17 18  1  0
 18 19  1  0
 19 20  2  0
 20 21  1  0
 21 22  1  0
 17 23  1  0
 13  4  1  0
 23 15  1  0
 11  6  1  0
 22 18  2  0
M  END
>  <pair>  (132) 
x1052_1A-x1604_0A

>  <sucos>  (132) 
0.4006281840844597

>  <ref_mols>  (132) 
x1052_1A,x1604_0A

>  <original SMILES>  (132) 
O=C(CN1Cc2ccccc2OC1=O)N1CC(c2ccon2)C1

>  <cmpd_ids>  (132) 
ENAMINE:Z4219461341

>  <ref_url>  (132) 
https://github.com/stephwills/fragment_network_merges

>  <submitter_name>  (132) 
Steph Wills

>  <submitter_institution>  (132) 
University of Oxford

>  <submitter_email>  (132) 
stephanie.wills@balliol.ox.ac.uk

>  <generation_date>  (132) 
2023-09-06

>  <method>  (132) 
fragNetMergingIt3

>  <ref_pdb>  (132) 
x1052_1A,x1604_0A

$$$$
x1594-0A-x1052-1A-183
     RDKit          3D

 23 25  0  0  0  0  0  0  0  0999 V2000
   -6.2890   -6.4040   -8.9020 C   0  0  0  0  0  0  0  0  0  0  0  0
   -6.9710   -5.0470   -8.8380 C   0  0  0  0  0  0  0  0  0  0  0  0
   -7.6410   -4.9570   -7.5500 C   0  0  0  0  0  0  0  0  0  0  0  0
   -7.1690   -5.5300   -6.5300 N   0  0  0  0  0  0  0  0  0  0  0  0
   -7.9580   -5.2260   -5.5150 N   0  0  0  0  0  0  0  0  0  0  0  0
   -8.9290   -4.4730   -5.9260 C   0  0  0  0  0  0  0  0  0  0  0  0
  -10.0330   -3.8550   -5.2870 C   0  0  0  0  0  0  0  0  0  0  0  0
  -10.1770   -4.0120   -3.9200 C   0  0  0  0  0  0  0  0  0  0  0  0
  -11.0860   -4.6990   -3.4390 O   0  0  0  0  0  0  0  0  0  0  0  0
   -9.2440   -3.3470   -3.1470 N   0  0  0  0  0  0  0  0  0  0  0  0
   -8.6140   -3.9530   -1.9680 C   0  0  2  0  0  0  0  0  0  0  0  0
   -8.9610   -3.1720   -0.7540 C   0  0  0  0  0  0  0  0  0  0  0  0
   -7.0830   -4.0710   -2.1480 C   0  0  0  0  0  0  0  0  0  0  0  0
   -6.5680   -5.3400   -1.6280 C   0  0  0  0  0  0  0  0  0  0  0  0
   -5.4920   -5.9460   -2.1870 C   0  0  0  0  0  0  0  0  0  0  0  0
   -4.9820   -7.1840   -1.6960 C   0  0  0  0  0  0  0  0  0  0  0  0
   -5.6600   -7.7210   -0.6190 C   0  0  0  0  0  0  0  0  0  0  0  0
   -6.8000   -7.0200   -0.0790 C   0  0  0  0  0  0  0  0  0  0  0  0
   -7.2410   -5.8530   -0.5730 N   0  0  0  0  0  0  0  0  0  0  0  0
  -10.9420   -3.1180   -5.9540 C   0  0  0  0  0  0  0  0  0  0  0  0
  -10.8240   -2.9330   -7.2510 C   0  0  0  0  0  0  0  0  0  0  0  0
   -9.6370   -3.5640   -7.9300 C   0  0  0  0  0  0  0  0  0  0  0  0
   -8.7720   -4.2920   -7.2300 N   0  0  0  0  0  0  0  0  0  0  0  0
  1  2  1  0
  2  3  1  0
  3  4  2  0
  4  5  1  0
  5  6  2  0
  6  7  1  0
  7  8  1  0
  8  9  2  0
  8 10  1  0
 10 11  1  0
 11 12  1  1
 11 13  1  0
 13 14  1  0
 14 15  2  0
 15 16  1  0
 16 17  2  0
 17 18  1  0
 18 19  2  0
  7 20  2  0
 20 21  1  0
 21 22  2  0
 22 23  1  0
 23  3  1  0
 23  6  1  0
 19 14  1  0
M  END
>  <pair>  (133) 
x1594_0A-x1052_1A

>  <sucos>  (133) 
0.40072532093487045

>  <ref_mols>  (133) 
x1594_0A,x1052_1A

>  <original SMILES>  (133) 
CCc1nnc2c(C(=O)NC(C)Cc3ccccn3)cccn12

>  <cmpd_ids>  (133) 
ENAMINE:Z4406527311

>  <ref_url>  (133) 
https://github.com/stephwills/fragment_network_merges

>  <submitter_name>  (133) 
Steph Wills

>  <submitter_institution>  (133) 
University of Oxford

>  <submitter_email>  (133) 
stephanie.wills@balliol.ox.ac.uk

>  <generation_date>  (133) 
2023-09-06

>  <method>  (133) 
fragNetMergingIt3

>  <ref_pdb>  (133) 
x1594_0A,x1052_1A

$$$$
x1020-0A-x0130-0A-93
     RDKit          3D

 22 23  0  0  0  0  0  0  0  0999 V2000
   -8.7820  -12.6960    3.2960 C   0  0  0  0  0  0  0  0  0  0  0  0
   -7.8350  -13.0980    4.3790 C   0  0  0  0  0  0  0  0  0  0  0  0
   -6.9780  -12.0920    5.0330 C   0  0  0  0  0  0  0  0  0  0  0  0
   -6.2310  -12.3230    5.9700 O   0  0  0  0  0  0  0  0  0  0  0  0
   -7.1310  -10.9070    4.3980 N   0  0  0  0  0  0  0  0  0  0  0  0
   -6.1660  -10.6130    3.5150 C   0  0  0  0  0  0  0  0  0  0  0  0
   -5.0050  -11.3390    3.8130 C   0  0  0  0  0  0  0  0  0  0  0  0
   -3.7780  -11.2150    2.9900 C   0  0  0  0  0  0  0  0  0  0  0  0
   -3.9790  -10.2570    1.8840 C   0  0  0  0  0  0  0  0  0  0  0  0
   -5.1810   -9.5650    1.6520 C   0  0  0  0  0  0  0  0  0  0  0  0
   -5.0640   -8.6850    0.4860 C   0  0  0  0  0  0  0  0  0  0  0  0
   -5.8970   -8.0040   -0.3160 N   0  0  0  0  0  0  0  0  0  0  0  0
   -4.9760   -7.4050   -1.2060 O   0  0  0  0  0  0  0  0  0  0  0  0
   -3.7200   -7.8300   -0.7890 C   0  0  0  0  0  0  0  0  0  0  0  0
   -2.4440   -7.5910   -1.2550 C   0  0  0  0  0  0  0  0  0  0  0  0
   -1.4060   -7.7490   -0.3730 C   0  0  0  0  0  0  0  0  0  0  0  0
   -1.4220   -8.1370    1.1370 C   0  0  0  0  0  0  0  0  0  0  0  0
   -2.7610   -8.0130    1.8690 C   0  0  0  0  0  0  0  0  0  0  0  0
   -0.7820   -9.5240    1.3350 C   0  0  0  0  0  0  0  0  0  0  0  0
   -0.5610   -7.2330    1.8610 N   0  0  0  0  0  0  0  0  0  0  0  0
   -3.7970   -8.5760    0.2010 N   0  0  0  0  0  0  0  0  0  0  0  0
   -6.2770   -9.7350    2.4590 C   0  0  0  0  0  0  0  0  0  0  0  0
  1  2  1  0
  2  3  1  0
  3  4  2  0
  3  5  1  0
  5  6  1  0
  6  7  2  0
  7  8  1  0
  8  9  2  0
  9 10  1  0
 10 11  1  0
 11 12  2  0
 12 13  1  0
 13 14  1  0
 14 15  1  0
 15 16  2  3
 16 17  1  0
 17 18  1  0
 17 19  1  0
 17 20  1  0
 14 21  2  0
 10 22  2  0
 22  6  1  0
 21 11  1  0
M  END
>  <pair>  (134) 
x1020_0A-x0130_0A

>  <sucos>  (134) 
0.40139501527794264

>  <ref_mols>  (134) 
x1020_0A,x0130_0A

>  <original SMILES>  (134) 
CCC(=O)Nc1cccc(-c2noc(C=CC(C)(C)N)n2)c1

>  <cmpd_ids>  (134) 
ENAMINE:Z3346418913

>  <ref_url>  (134) 
https://github.com/stephwills/fragment_network_merges

>  <submitter_name>  (134) 
Steph Wills

>  <submitter_institution>  (134) 
University of Oxford

>  <submitter_email>  (134) 
stephanie.wills@balliol.ox.ac.uk

>  <generation_date>  (134) 
2023-09-06

>  <method>  (134) 
fragNetMergingIt3

>  <ref_pdb>  (134) 
x1020_0A,x0130_0A

$$$$
x1071-0A-x0980-0B-132
     RDKit          3D

 23 25  0  0  0  0  0  0  0  0999 V2000
   -7.6950    0.2010   -1.0130 C   0  0  0  0  0  0  0  0  0  0  0  0
   -6.3100   -0.9200   -1.0590 S   0  0  0  0  0  6  0  0  0  0  0  0
   -5.2480   -0.2580   -1.7890 O   0  0  0  0  0  0  0  0  0  0  0  0
   -6.1350   -1.4680    0.2700 O   0  0  0  0  0  0  0  0  0  0  0  0
   -6.8460   -2.2140   -2.0130 N   0  0  0  0  0  0  0  0  0  0  0  0
   -6.1170   -3.4990   -2.0150 C   0  0  0  0  0  0  0  0  0  0  0  0
   -6.7370   -4.4000   -2.8530 C   0  0  0  0  0  0  0  0  0  0  0  0
   -6.8590   -4.1760   -4.0580 O   0  0  0  0  0  0  0  0  0  0  0  0
   -7.2590   -5.5700   -2.3410 N   0  0  0  0  0  0  0  0  0  0  0  0
   -8.6680   -5.7700   -2.6670 C   0  0  0  0  0  0  0  0  0  0  0  0
   -8.5800   -7.0810   -3.3390 C   0  0  2  0  0  0  0  0  0  0  0  0
   -7.7300   -7.8050   -2.3750 C   0  0  0  0  0  0  0  0  0  0  0  0
   -6.6030   -6.8780   -2.5320 C   0  0  1  0  0  0  0  0  0  0  0  0
   -6.2490   -6.8970   -3.9190 C   0  0  0  0  0  0  0  0  0  0  0  0
   -7.5960   -6.8860   -4.4690 N   0  0  0  0  0  0  0  0  0  0  0  0
   -7.8960   -7.2380   -5.7830 C   0  0  0  0  0  0  0  0  0  0  0  0
   -7.5480   -8.2990   -6.2880 O   0  0  0  0  0  0  0  0  0  0  0  0
   -8.7350   -6.2610   -6.4860 C   0  0  0  0  0  0  0  0  0  0  0  0
   -8.3640   -5.1850   -7.2820 N   0  0  0  0  0  0  0  0  0  0  0  0
   -9.0370   -3.9970   -7.2290 C   0  0  0  0  0  0  0  0  0  0  0  0
   -8.4390   -3.1820   -8.1230 C   0  0  0  0  0  0  0  0  0  0  0  0
   -7.4110   -3.9580   -8.6790 C   0  0  0  0  0  0  0  0  0  0  0  0
   -7.3500   -5.1850   -8.1720 N   0  0  0  0  0  0  0  0  0  0  0  0
  1  2  1  0
  2  3  2  0
  2  4  2  0
  2  5  1  0
  5  6  1  0
  6  7  1  0
  7  8  2  0
  7  9  1  0
  9 10  1  0
 11 10  1  1
 11 12  1  0
 12 13  1  0
 13 14  1  6
 14 15  1  0
 15 16  1  0
 16 17  2  0
 16 18  1  0
 18 19  1  0
 19 20  1  0
 20 21  2  0
 21 22  1  0
 22 23  2  0
 13  9  1  0
 23 19  1  0
 15 11  1  0
M  END
>  <pair>  (135) 
x1071_0A-x0980_0B

>  <sucos>  (135) 
0.40162868868614054

>  <ref_mols>  (135) 
x1071_0A,x0980_0B

>  <original SMILES>  (135) 
CS(=O)(=O)NCC(=O)N1CC2CC1CN2C(=O)Cn1cccn1

>  <cmpd_ids>  (135) 
ENAMINE:PV-002747815324

>  <ref_url>  (135) 
https://github.com/stephwills/fragment_network_merges

>  <submitter_name>  (135) 
Steph Wills

>  <submitter_institution>  (135) 
University of Oxford

>  <submitter_email>  (135) 
stephanie.wills@balliol.ox.ac.uk

>  <generation_date>  (135) 
2023-09-06

>  <method>  (135) 
fragNetMergingIt3

>  <ref_pdb>  (135) 
x1071_0A,x0980_0B

$$$$
x1140-0A-x1594-0A-71
     RDKit          3D

 23 26  0  0  0  0  0  0  0  0999 V2000
   -3.2500   -9.2810   -4.5070 C   0  0  0  0  0  0  0  0  0  0  0  0
   -4.3250   -8.3730   -4.2170 O   0  0  0  0  0  0  0  0  0  0  0  0
   -4.4680   -8.1870   -2.8810 C   0  0  0  0  0  0  0  0  0  0  0  0
   -3.2550   -8.1770   -1.9690 C   0  0  0  0  0  0  0  0  0  0  0  0
   -3.4490   -8.0340   -0.6410 C   0  0  0  0  0  0  0  0  0  0  0  0
   -4.7300   -7.9100   -0.1120 C   0  0  0  0  0  0  0  0  0  0  0  0
   -5.8900   -7.8890   -0.9350 C   0  0  0  0  0  0  0  0  0  0  0  0
   -5.7780   -8.0170   -2.3850 C   0  0  0  0  0  0  0  0  0  0  0  0
   -6.9780   -7.9800   -3.4230 C   0  0  0  0  0  0  0  0  0  0  0  0
   -6.5620   -7.6490   -4.8630 N   0  0  0  0  0  0  0  0  0  0  0  0
   -7.2360   -6.6130   -5.6950 C   0  0  0  0  0  0  0  0  0  0  0  0
   -8.4000   -6.0840   -5.2390 C   0  0  0  0  0  0  0  0  0  0  0  0
   -9.0520   -5.0800   -5.9590 C   0  0  0  0  0  0  0  0  0  0  0  0
  -10.2310   -4.5970   -5.4180 C   0  0  0  0  0  0  0  0  0  0  0  0
  -10.9320   -3.5870   -6.0520 C   0  0  0  0  0  0  0  0  0  0  0  0
  -10.4600   -3.0510   -7.2260 C   0  0  0  0  0  0  0  0  0  0  0  0
   -9.2760   -3.5390   -7.7760 C   0  0  0  0  0  0  0  0  0  0  0  0
   -8.5520   -4.5610   -7.1710 C   0  0  0  0  0  0  0  0  0  0  0  0
   -7.3880   -5.1020   -7.6620 N   0  0  0  0  0  0  0  0  0  0  0  0
   -6.7900   -6.1140   -6.8960 N   0  0  0  0  0  0  0  0  0  0  0  0
   -4.6560   -7.8170    1.2520 O   0  0  0  0  0  0  0  0  0  0  0  0
   -3.2290   -7.9180    1.4940 C   0  0  0  0  0  0  0  0  0  0  0  0
   -2.4610   -8.0080    0.2910 O   0  0  0  0  0  0  0  0  0  0  0  0
  1  2  1  0
  2  3  1  0
  3  4  2  0
  4  5  1  0
  5  6  2  0
  6  7  1  0
  7  8  2  0
  8  9  1  0
  9 10  1  0
 10 11  1  0
 11 12  2  0
 12 13  1  0
 13 14  2  0
 14 15  1  0
 15 16  2  0
 16 17  1  0
 17 18  2  0
 18 19  1  0
 19 20  2  0
  6 21  1  0
 21 22  1  0
 22 23  1  0
  8  3  1  0
 20 11  1  0
 23  5  1  0
 18 13  1  0
M  END
>  <pair>  (136) 
x1140_0A-x1594_0A

>  <sucos>  (136) 
0.40242601295426744

>  <ref_mols>  (136) 
x1140_0A,x1594_0A

>  <original SMILES>  (136) 
COc1cc2c(cc1CNc1cc3ccccc3nn1)OCO2

>  <cmpd_ids>  (136) 
ENAMINE:PV-003404708269

>  <ref_url>  (136) 
https://github.com/stephwills/fragment_network_merges

>  <submitter_name>  (136) 
Steph Wills

>  <submitter_institution>  (136) 
University of Oxford

>  <submitter_email>  (136) 
stephanie.wills@balliol.ox.ac.uk

>  <generation_date>  (136) 
2023-09-06

>  <method>  (136) 
fragNetMergingIt3

>  <ref_pdb>  (136) 
x1140_0A,x1594_0A

$$$$
x0147-0A-x1052-1A-87
     RDKit          3D

 22 25  0  0  0  0  0  0  0  0999 V2000
   -6.5890   -4.2340   -3.8460 O   0  0  0  0  0  0  0  0  0  0  0  0
   -7.4900   -4.9620   -3.4490 C   0  0  0  0  0  0  0  0  0  0  0  0
   -8.7690   -5.0740   -4.0430 N   0  0  0  0  0  0  0  0  0  0  0  0
   -8.9230   -4.4370   -5.2620 C   0  0  0  0  0  0  0  0  0  0  0  0
   -9.7070   -3.3860   -5.5300 N   0  0  0  0  0  0  0  0  0  0  0  0
   -9.4890   -3.0100   -6.8370 N   0  0  0  0  0  0  0  0  0  0  0  0
   -8.5970   -3.8510   -7.2810 C   0  0  0  0  0  0  0  0  0  0  0  0
   -7.9140   -3.9050   -8.5870 C   0  0  0  0  0  0  0  0  0  0  0  0
   -7.0700   -4.8180   -8.9080 N   0  0  0  0  0  0  0  0  0  0  0  0
   -6.8210   -5.7580   -7.9670 C   0  0  0  0  0  0  0  0  0  0  0  0
   -7.3540   -5.7630   -6.7440 C   0  0  0  0  0  0  0  0  0  0  0  0
   -8.2460   -4.7820   -6.3810 N   0  0  0  0  0  0  0  0  0  0  0  0
   -7.1980   -5.7570   -2.2200 C   0  0  0  0  0  0  0  0  0  0  0  0
   -7.9950   -5.4120   -1.1660 C   0  0  0  0  0  0  0  0  0  0  0  0
   -7.9520   -5.9780    0.0470 N   0  0  0  0  0  0  0  0  0  0  0  0
   -7.0530   -6.9530    0.2300 C   0  0  0  0  0  0  0  0  0  0  0  0
   -6.1870   -7.3800   -0.7410 C   0  0  0  0  0  0  0  0  0  0  0  0
   -6.2410   -6.7780   -2.0080 C   0  0  0  0  0  0  0  0  0  0  0  0
   -5.3590   -7.2440   -2.9080 C   0  0  0  0  0  0  0  0  0  0  0  0
   -3.9820   -7.3010   -2.2480 C   0  0  0  0  0  0  0  0  0  0  0  0
   -3.9480   -7.8970   -0.8490 C   0  0  0  0  0  0  0  0  0  0  0  0
   -5.1890   -8.4540   -0.4830 C   0  0  0  0  0  0  0  0  0  0  0  0
  1  2  2  0
  2  3  1  0
  3  4  1  0
  4  5  2  0
  5  6  1  0
  6  7  2  0
  7  8  1  0
  8  9  2  0
  9 10  1  0
 10 11  2  0
 11 12  1  0
  2 13  1  0
 13 14  2  0
 14 15  1  0
 15 16  2  0
 16 17  1  0
 17 18  2  0
 18 19  1  0
 19 20  1  0
 20 21  1  0
 21 22  1  0
 12  4  1  0
 18 13  1  0
 12  7  1  0
 22 17  1  0
M  END
>  <pair>  (137) 
x0147_0A-x1052_1A

>  <sucos>  (137) 
0.40516197448431174

>  <ref_mols>  (137) 
x0147_0A,x1052_1A

>  <original SMILES>  (137) 
O=C(Nc1nnc2cnccn12)c1cncc2c1CCCC2

>  <cmpd_ids>  (137) 
ENAMINE:Z3358695034

>  <ref_url>  (137) 
https://github.com/stephwills/fragment_network_merges

>  <submitter_name>  (137) 
Steph Wills

>  <submitter_institution>  (137) 
University of Oxford

>  <submitter_email>  (137) 
stephanie.wills@balliol.ox.ac.uk

>  <generation_date>  (137) 
2023-09-06

>  <method>  (137) 
fragNetMergingIt3

>  <ref_pdb>  (137) 
x0147_0A,x1052_1A

$$$$
x1594-0A-x1052-1A-73
     RDKit          3D

 23 25  0  0  0  0  0  0  0  0999 V2000
   -8.8630   -7.7480   -4.1320 C   0  0  0  0  0  0  0  0  0  0  0  0
   -8.6900   -6.4520   -3.4710 N   0  0  0  0  0  0  0  0  0  0  0  0
   -9.6180   -5.4390   -3.8780 C   0  0  0  0  0  0  0  0  0  0  0  0
  -10.5790   -5.0530   -3.2060 O   0  0  0  0  0  0  0  0  0  0  0  0
   -9.3630   -4.8170   -5.2680 C   0  0  0  0  0  0  0  0  0  0  0  0
   -9.8950   -3.5550   -5.8450 C   0  0  0  0  0  0  0  0  0  0  0  0
   -9.4570   -3.1350   -7.0540 C   0  0  0  0  0  0  0  0  0  0  0  0
   -8.4570   -4.0050   -7.7250 C   0  0  0  0  0  0  0  0  0  0  0  0
   -7.8490   -3.8350   -8.8620 N   0  0  0  0  0  0  0  0  0  0  0  0
   -7.0290   -4.9170   -9.0680 N   0  0  0  0  0  0  0  0  0  0  0  0
   -7.1260   -5.7430   -8.0590 C   0  0  0  0  0  0  0  0  0  0  0  0
   -6.4890   -7.0060   -7.7770 C   0  0  0  0  0  0  0  0  0  0  0  0
   -6.8920   -7.7670   -6.7470 C   0  0  0  0  0  0  0  0  0  0  0  0
   -6.4290   -7.9080   -8.9820 C   0  0  0  0  0  0  0  0  0  0  0  0
   -5.0060   -6.8260   -7.6260 C   0  0  0  0  0  0  0  0  0  0  0  0
   -8.0280   -5.1850   -7.1660 N   0  0  0  0  0  0  0  0  0  0  0  0
   -8.4940   -5.5690   -5.9480 C   0  0  0  0  0  0  0  0  0  0  0  0
   -7.5620   -6.3800   -2.5290 C   0  0  0  0  0  0  0  0  0  0  0  0
   -6.5590   -7.3650   -2.4880 C   0  0  0  0  0  0  0  0  0  0  0  0
   -5.5290   -7.2760   -1.5830 C   0  0  0  0  0  0  0  0  0  0  0  0
   -5.5110   -6.2070   -0.7290 C   0  0  0  0  0  0  0  0  0  0  0  0
   -6.4360   -5.2290   -0.7220 N   0  0  0  0  0  0  0  0  0  0  0  0
   -7.4270   -5.3380   -1.6150 C   0  0  0  0  0  0  0  0  0  0  0  0
  1  2  1  0
  2  3  1  0
  3  4  2  0
  3  5  1  0
  5  6  1  0
  6  7  2  0
  7  8  1  0
  8  9  2  0
  9 10  1  0
 10 11  2  0
 11 12  1  0
 12 13  1  0
 12 14  1  0
 12 15  1  0
 11 16  1  0
 16 17  1  0
  2 18  1  0
 18 19  2  0
 19 20  1  0
 20 21  2  0
 21 22  1  0
 22 23  2  0
 17  5  2  0
 23 18  1  0
 16  8  1  0
M  END
>  <pair>  (138) 
x1594_0A-x1052_1A

>  <sucos>  (138) 
0.4083005015872806

>  <ref_mols>  (138) 
x1594_0A,x1052_1A

>  <original SMILES>  (138) 
CN(C(=O)c1ccc2nnc(C(C)(C)C)n2c1)c1cccnc1

>  <cmpd_ids>  (138) 
ENAMINE:Z1712700058

>  <ref_url>  (138) 
https://github.com/stephwills/fragment_network_merges

>  <submitter_name>  (138) 
Steph Wills

>  <submitter_institution>  (138) 
University of Oxford

>  <submitter_email>  (138) 
stephanie.wills@balliol.ox.ac.uk

>  <generation_date>  (138) 
2023-09-06

>  <method>  (138) 
fragNetMergingIt3

>  <ref_pdb>  (138) 
x1594_0A,x1052_1A

$$$$
x1052-1A-x1594-0A-56
     RDKit          3D

 21 23  0  0  0  0  0  0  0  0999 V2000
   -9.3130   -3.8790   -0.8510 C   0  0  0  0  0  0  0  0  0  0  0  0
   -7.8810   -4.1270   -1.0570 C   0  0  0  0  0  0  0  0  0  0  0  0
   -7.1820   -5.3040   -1.0000 C   0  0  0  0  0  0  0  0  0  0  0  0
   -7.2940   -6.0820    0.0700 N   0  0  0  0  0  0  0  0  0  0  0  0
   -6.4750   -7.1670   -0.1550 O   0  0  0  0  0  0  0  0  0  0  0  0
   -5.8880   -7.0400   -1.3640 C   0  0  0  0  0  0  0  0  0  0  0  0
   -6.3120   -5.8720   -1.9460 C   0  0  0  0  0  0  0  0  0  0  0  0
   -5.9870   -5.3020   -3.2420 C   0  0  0  0  0  0  0  0  0  0  0  0
   -7.0980   -5.5370   -4.1820 N   0  0  0  0  0  0  0  0  0  0  0  0
   -7.0410   -6.8490   -4.8130 C   0  0  0  0  0  0  0  0  0  0  0  0
   -8.3530   -4.8960   -4.1640 C   0  0  0  0  0  0  0  0  0  0  0  0
   -9.0040   -4.6970   -3.1370 O   0  0  0  0  0  0  0  0  0  0  0  0
   -8.9420   -4.4510   -5.4650 C   0  0  0  0  0  0  0  0  0  0  0  0
  -10.2030   -3.8350   -5.4800 C   0  0  0  0  0  0  0  0  0  0  0  0
  -10.7110   -3.4410   -6.6970 C   0  0  0  0  0  0  0  0  0  0  0  0
  -10.0030   -3.6400   -7.8110 C   0  0  0  0  0  0  0  0  0  0  0  0
   -8.7620   -4.2460   -7.7720 N   0  0  0  0  0  0  0  0  0  0  0  0
   -7.8210   -4.5720   -8.7060 C   0  0  0  0  0  0  0  0  0  0  0  0
   -6.8040   -5.1540   -8.2040 N   0  0  0  0  0  0  0  0  0  0  0  0
   -7.0750   -5.2090   -6.8900 N   0  0  0  0  0  0  0  0  0  0  0  0
   -8.2230   -4.6640   -6.6370 C   0  0  0  0  0  0  0  0  0  0  0  0
  1  2  1  0
  2  3  1  0
  3  4  2  0
  4  5  1  0
  5  6  1  0
  6  7  2  0
  7  8  1  0
  8  9  1  0
  9 10  1  0
  9 11  1  0
 11 12  2  0
 11 13  1  0
 13 14  2  0
 14 15  1  0
 15 16  2  0
 16 17  1  0
 17 18  1  0
 18 19  2  0
 19 20  1  0
 20 21  2  0
  7  3  1  0
 21 13  1  0
 21 17  1  0
M  END
>  <pair>  (139) 
x1052_1A-x1594_0A

>  <sucos>  (139) 
0.4095861685324251

>  <ref_mols>  (139) 
x1052_1A,x1594_0A

>  <original SMILES>  (139) 
CCc1nocc1CN(C)C(=O)c1cccn2cnnc12

>  <cmpd_ids>  (139) 
ENAMINE:Z3551628152

>  <ref_url>  (139) 
https://github.com/stephwills/fragment_network_merges

>  <submitter_name>  (139) 
Steph Wills

>  <submitter_institution>  (139) 
University of Oxford

>  <submitter_email>  (139) 
stephanie.wills@balliol.ox.ac.uk

>  <generation_date>  (139) 
2023-09-06

>  <method>  (139) 
fragNetMergingIt3

>  <ref_pdb>  (139) 
x1052_1A,x1594_0A

$$$$
x1020-0A-x0130-0A-188
     RDKit          3D

 23 25  0  0  0  0  0  0  0  0999 V2000
   -0.6120   -8.5470    2.7350 N   0  0  0  0  0  0  0  0  0  0  0  0
    0.1240   -9.7990    2.5980 C   0  0  0  0  0  0  0  0  0  0  0  0
   -0.8590  -10.9620    2.6150 C   0  0  0  0  0  0  0  0  0  0  0  0
   -2.1530  -10.6790    2.5890 N   0  0  0  0  0  0  0  0  0  0  0  0
   -3.2080  -11.4660    2.8930 C   0  0  0  0  0  0  0  0  0  0  0  0
   -4.4730  -10.6360    2.7070 C   0  0  0  0  0  0  0  0  0  0  0  0
   -5.7610  -11.0650    2.9240 N   0  0  0  0  0  0  0  0  0  0  0  0
   -6.1180  -11.7810    4.0440 C   0  0  0  0  0  0  0  0  0  0  0  0
   -5.5890  -11.6760    5.1470 O   0  0  0  0  0  0  0  0  0  0  0  0
   -7.2550  -12.7380    3.7790 C   0  0  0  0  0  0  0  0  0  0  0  0
   -8.4830  -12.1540    3.2500 C   0  0  0  0  0  0  0  0  0  0  0  0
   -8.3000  -11.9790    1.8520 C   0  0  0  0  0  0  0  0  0  0  0  0
   -8.9860  -10.8760    1.0190 C   0  0  0  0  0  0  0  0  0  0  0  0
   -8.8340  -10.6890   -0.3020 N   0  0  0  0  0  0  0  0  0  0  0  0
   -8.0120  -11.5450   -0.9400 C   0  0  0  0  0  0  0  0  0  0  0  0
   -7.8100  -11.3840   -2.4100 C   0  0  0  0  0  0  0  0  0  0  0  0
   -6.8900  -12.3480   -3.1240 C   0  0  0  0  0  0  0  0  0  0  0  0
   -6.2620  -13.3470   -2.4030 C   0  0  0  0  0  0  0  0  0  0  0  0
   -6.4690  -13.4700   -1.0260 C   0  0  0  0  0  0  0  0  0  0  0  0
   -7.3130  -12.6110   -0.2960 C   0  0  0  0  0  0  0  0  0  0  0  0
   -7.4670  -12.8120    1.0940 C   0  0  0  0  0  0  0  0  0  0  0  0
   -3.9200   -9.4070    2.2870 C   0  0  0  0  0  0  0  0  0  0  0  0
   -2.5670   -9.4320    2.2200 N   0  0  0  0  0  0  0  0  0  0  0  0
  1  2  1  0
  2  3  1  0
  3  4  1  0
  4  5  1  0
  5  6  2  0
  6  7  1  0
  7  8  1  0
  8  9  2  0
  8 10  1  0
 10 11  1  0
 11 12  1  0
 12 13  2  0
 13 14  1  0
 14 15  2  0
 15 16  1  0
 16 17  2  0
 17 18  1  0
 18 19  2  0
 19 20  1  0
 20 21  2  0
  6 22  1  0
 22 23  2  0
 23  4  1  0
 21 12  1  0
 20 15  1  0
M  END
>  <pair>  (140) 
x1020_0A-x0130_0A

>  <sucos>  (140) 
0.41226353781215014

>  <ref_mols>  (140) 
x1020_0A,x0130_0A

>  <original SMILES>  (140) 
NCCn1cc(NC(=O)CCc2cnc3ccccc3c2)cn1

>  <cmpd_ids>  (140) 
ENAMINE:PV-002785069270

>  <ref_url>  (140) 
https://github.com/stephwills/fragment_network_merges

>  <submitter_name>  (140) 
Steph Wills

>  <submitter_institution>  (140) 
University of Oxford

>  <submitter_email>  (140) 
stephanie.wills@balliol.ox.ac.uk

>  <generation_date>  (140) 
2023-09-06

>  <method>  (140) 
fragNetMergingIt3

>  <ref_pdb>  (140) 
x1020_0A,x0130_0A

$$$$
x1140-0A-x1594-0A-52
     RDKit          3D

 21 24  0  0  0  0  0  0  0  0999 V2000
   -5.3220   -7.4240   -4.1510 C   0  0  0  0  0  0  0  0  0  0  0  0
   -5.2480   -7.5230   -2.6720 C   0  0  0  0  0  0  0  0  0  0  0  0
   -4.0020   -7.7300   -2.0870 C   0  0  0  0  0  0  0  0  0  0  0  0
   -3.8980   -7.8580   -0.7350 C   0  0  0  0  0  0  0  0  0  0  0  0
   -5.0050   -7.7990    0.0620 C   0  0  0  0  0  0  0  0  0  0  0  0
   -6.3010   -7.5690   -0.4920 C   0  0  0  0  0  0  0  0  0  0  0  0
   -6.4190   -7.4060   -1.9310 C   0  0  0  0  0  0  0  0  0  0  0  0
   -7.5810   -7.0980   -2.8520 N   0  0  0  0  0  0  0  0  0  0  0  0
   -7.4280   -6.0560   -3.8940 C   0  0  0  0  0  0  0  0  0  0  0  0
   -6.3480   -5.5030   -3.9650 O   0  0  0  0  0  0  0  0  0  0  0  0
   -8.4320   -5.4440   -4.9120 C   0  0  0  0  0  0  0  0  0  0  0  0
   -9.7090   -4.9600   -4.7310 C   0  0  0  0  0  0  0  0  0  0  0  0
  -10.4740   -4.2740   -6.1250 S   0  0  0  0  0  0  0  0  0  0  0  0
   -9.0750   -4.6160   -7.0650 C   0  0  0  0  0  0  0  0  0  0  0  0
   -8.8380   -4.3470   -8.3780 N   0  0  0  0  0  0  0  0  0  0  0  0
   -7.6730   -4.7390   -8.7720 N   0  0  0  0  0  0  0  0  0  0  0  0
   -6.8640   -5.4650   -7.5420 S   0  0  0  0  0  0  0  0  0  0  0  0
   -8.1090   -5.2270   -6.3420 C   0  0  0  0  0  0  0  0  0  0  0  0
   -4.6450   -7.9760    1.3780 O   0  0  0  0  0  0  0  0  0  0  0  0
   -3.2000   -7.8960    1.2950 C   0  0  0  0  0  0  0  0  0  0  0  0
   -2.7350   -8.0540   -0.0500 O   0  0  0  0  0  0  0  0  0  0  0  0
  1  2  1  0
  2  3  2  0
  3  4  1  0
  4  5  2  0
  5  6  1  0
  6  7  2  0
  7  8  1  0
  8  9  1  0
  9 10  2  0
  9 11  1  0
 11 12  2  0
 12 13  1  0
 13 14  1  0
 14 15  1  0
 15 16  2  0
 16 17  1  0
 17 18  1  0
  5 19  1  0
 19 20  1  0
 20 21  1  0
  7  2  1  0
 18 11  1  0
 21  4  1  0
 18 14  2  0
M  END
>  <pair>  (141) 
x1140_0A-x1594_0A

>  <sucos>  (141) 
0.41235614719786823

>  <ref_mols>  (141) 
x1140_0A,x1594_0A

>  <original SMILES>  (141) 
Cc1cc2c(cc1NC(=O)c1csc3nnsc13)OCO2

>  <cmpd_ids>  (141) 
ENAMINE:PV-002857243255

>  <ref_url>  (141) 
https://github.com/stephwills/fragment_network_merges

>  <submitter_name>  (141) 
Steph Wills

>  <submitter_institution>  (141) 
University of Oxford

>  <submitter_email>  (141) 
stephanie.wills@balliol.ox.ac.uk

>  <generation_date>  (141) 
2023-09-06

>  <method>  (141) 
fragNetMergingIt3

>  <ref_pdb>  (141) 
x1140_0A,x1594_0A

$$$$
x1052-1A-x1140-0A-62
     RDKit          3D

 22 24  0  0  0  0  0  0  0  0999 V2000
   -3.9900   -5.8270   -0.6370 C   0  0  0  0  0  0  0  0  0  0  0  0
   -5.3350   -6.0270   -1.1270 C   0  0  0  0  0  0  0  0  0  0  0  0
   -5.9520   -6.4090   -2.3610 C   0  0  0  0  0  0  0  0  0  0  0  0
   -7.3220   -6.4160   -2.1880 C   0  0  0  0  0  0  0  0  0  0  0  0
   -8.2540   -6.7370   -3.1110 O   0  0  0  0  0  0  0  0  0  0  0  0
   -8.3320   -8.1470   -3.3350 C   0  0  0  0  0  0  0  0  0  0  0  0
   -8.5280   -8.9660   -2.1310 C   0  0  0  0  0  0  0  0  0  0  0  0
   -9.5790   -9.0630   -1.5050 O   0  0  0  0  0  0  0  0  0  0  0  0
   -7.3630   -9.6150   -1.8120 O   0  0  0  0  0  0  0  0  0  0  0  0
   -6.9740   -9.5940   -0.4190 C   0  0  0  0  0  0  0  0  0  0  0  0
   -5.6900   -9.0870   -0.3140 C   0  0  0  0  0  0  0  0  0  0  0  0
   -5.0750   -8.5150   -1.4190 C   0  0  0  0  0  0  0  0  0  0  0  0
   -3.7940   -8.0190   -1.2710 C   0  0  0  0  0  0  0  0  0  0  0  0
   -3.1850   -8.1220   -0.0280 C   0  0  0  0  0  0  0  0  0  0  0  0
   -3.8690   -8.7090    1.0220 C   0  0  0  0  0  0  0  0  0  0  0  0
   -5.0950   -9.1870    0.9080 N   0  0  0  0  0  0  0  0  0  0  0  0
   -3.3480   -8.8640    2.2830 O   0  0  0  0  0  0  0  0  0  0  0  0
   -1.9360   -8.6660    2.2890 C   0  0  0  0  0  0  0  0  0  0  0  0
   -1.6040   -7.4370    1.4770 C   0  0  0  0  0  0  0  0  0  0  0  0
   -1.9340   -7.6460    0.1040 O   0  0  0  0  0  0  0  0  0  0  0  0
   -7.6190   -6.0490   -0.9280 N   0  0  0  0  0  0  0  0  0  0  0  0
   -6.3890   -5.8200   -0.2790 O   0  0  0  0  0  0  0  0  0  0  0  0
  1  2  1  0
  2  3  2  0
  3  4  1  0
  4  5  1  0
  5  6  1  0
  6  7  1  0
  7  8  2  0
  7  9  1  0
  9 10  1  0
 10 11  1  0
 11 12  2  0
 12 13  1  0
 13 14  2  0
 14 15  1  0
 15 16  2  0
 15 17  1  0
 17 18  1  0
 18 19  1  0
 19 20  1  0
  4 21  2  0
 21 22  1  0
 22  2  1  0
 16 11  1  0
 20 14  1  0
M  END
>  <pair>  (142) 
x1052_1A-x1140_0A

>  <sucos>  (142) 
0.413010280847916

>  <ref_mols>  (142) 
x1052_1A,x1140_0A

>  <original SMILES>  (142) 
Cc1cc(OCC(=O)OCc2ccc3c(n2)OCCO3)no1

>  <cmpd_ids>  (142) 
ENAMINE:Z4459726583

>  <ref_url>  (142) 
https://github.com/stephwills/fragment_network_merges

>  <submitter_name>  (142) 
Steph Wills

>  <submitter_institution>  (142) 
University of Oxford

>  <submitter_email>  (142) 
stephanie.wills@balliol.ox.ac.uk

>  <generation_date>  (142) 
2023-09-06

>  <method>  (142) 
fragNetMergingIt3

>  <ref_pdb>  (142) 
x1052_1A,x1140_0A

$$$$
x1052-1A-x1594-0A-162
     RDKit          3D

 19 21  0  0  0  0  0  0  0  0999 V2000
   -3.4180   -7.0870   -1.7410 C   0  0  0  0  0  0  0  0  0  0  0  0
   -4.5950   -6.5570   -2.4610 C   0  0  0  0  0  0  0  0  0  0  0  0
   -5.8570   -6.4250   -1.9900 C   0  0  0  0  0  0  0  0  0  0  0  0
   -5.8530   -6.3500   -0.6130 C   0  0  0  0  0  0  0  0  0  0  0  0
   -7.0920   -6.2270   -0.1410 N   0  0  0  0  0  0  0  0  0  0  0  0
   -7.9260   -6.2160   -1.2520 O   0  0  0  0  0  0  0  0  0  0  0  0
   -7.2040   -6.3290   -2.4010 C   0  0  0  0  0  0  0  0  0  0  0  0
   -7.8810   -6.3100   -3.7090 N   0  0  0  0  0  0  0  0  0  0  0  0
   -7.7690   -5.1050   -4.3810 C   0  0  0  0  0  0  0  0  0  0  0  0
   -6.8990   -4.3160   -4.0100 O   0  0  0  0  0  0  0  0  0  0  0  0
   -8.5910   -4.6310   -5.5150 C   0  0  0  0  0  0  0  0  0  0  0  0
   -9.7820   -3.9500   -5.2780 C   0  0  0  0  0  0  0  0  0  0  0  0
  -10.4870   -3.2960   -6.4040 C   0  0  0  0  0  0  0  0  0  0  0  0
   -9.9070   -3.3600   -7.6610 C   0  0  0  0  0  0  0  0  0  0  0  0
   -8.7310   -4.0890   -7.8850 C   0  0  0  0  0  0  0  0  0  0  0  0
   -8.0300   -4.3330   -8.9520 N   0  0  0  0  0  0  0  0  0  0  0  0
   -6.9930   -5.1600   -8.6410 N   0  0  0  0  0  0  0  0  0  0  0  0
   -7.0770   -5.3930   -7.3690 C   0  0  0  0  0  0  0  0  0  0  0  0
   -8.1350   -4.7250   -6.8210 N   0  0  0  0  0  0  0  0  0  0  0  0
  1  2  1  0
  2  3  1  0
  3  4  1  0
  4  5  2  0
  5  6  1  0
  6  7  1  0
  7  8  1  0
  8  9  1  0
  9 10  2  0
  9 11  1  0
 11 12  2  0
 12 13  1  0
 13 14  2  0
 14 15  1  0
 15 16  2  0
 16 17  1  0
 17 18  2  0
 18 19  1  0
  7  3  2  0
 19 11  1  0
 19 15  1  0
M  END
>  <pair>  (143) 
x1052_1A-x1594_0A

>  <sucos>  (143) 
0.4132212255280297

>  <ref_mols>  (143) 
x1052_1A,x1594_0A

>  <original SMILES>  (143) 
CCc1cnoc1NC(=O)c1cccc2nncn12

>  <cmpd_ids>  (143) 
ENAMINE:PV-002878598824

>  <ref_url>  (143) 
https://github.com/stephwills/fragment_network_merges

>  <submitter_name>  (143) 
Steph Wills

>  <submitter_institution>  (143) 
University of Oxford

>  <submitter_email>  (143) 
stephanie.wills@balliol.ox.ac.uk

>  <generation_date>  (143) 
2023-09-06

>  <method>  (143) 
fragNetMergingIt3

>  <ref_pdb>  (143) 
x1052_1A,x1594_0A

$$$$
x1052-1A-x1594-0A-171
     RDKit          3D

 22 25  0  0  0  0  0  0  0  0999 V2000
   -8.6990   -6.9660   -4.6190 O   0  0  0  0  0  0  0  0  0  0  0  0
   -8.6000   -5.7540   -4.4780 C   0  0  0  0  0  0  0  0  0  0  0  0
   -8.1310   -5.0520   -3.3520 N   0  0  0  0  0  0  0  0  0  0  0  0
   -7.4010   -5.5980   -2.2800 C   0  0  0  0  0  0  0  0  0  0  0  0
   -6.0890   -5.9900   -2.3630 C   0  0  0  0  0  0  0  0  0  0  0  0
   -5.7670   -6.4770   -1.0790 C   0  0  0  0  0  0  0  0  0  0  0  0
   -4.4830   -7.0070   -0.6550 C   0  0  0  0  0  0  0  0  0  0  0  0
   -3.5730   -7.1330   -1.6500 C   0  0  0  0  0  0  0  0  0  0  0  0
   -2.2840   -7.6500   -1.1750 C   0  0  0  0  0  0  0  0  0  0  0  0
   -2.3530   -7.9080    0.3420 C   0  0  0  0  0  0  0  0  0  0  0  0
   -3.9140   -7.5070    0.9730 S   0  0  0  0  0  0  0  0  0  0  0  0
   -6.8630   -6.3620   -0.2940 O   0  0  0  0  0  0  0  0  0  0  0  0
   -7.8740   -5.8110   -1.0410 N   0  0  0  0  0  0  0  0  0  0  0  0
   -9.0110   -4.8430   -5.6100 C   0  0  0  0  0  0  0  0  0  0  0  0
  -10.1220   -3.9970   -5.4610 C   0  0  0  0  0  0  0  0  0  0  0  0
  -10.4740   -3.0990   -6.4570 C   0  0  0  0  0  0  0  0  0  0  0  0
   -9.7090   -3.0250   -7.6210 C   0  0  0  0  0  0  0  0  0  0  0  0
   -8.6090   -3.8720   -7.8180 C   0  0  0  0  0  0  0  0  0  0  0  0
   -7.7550   -4.0230   -8.8050 N   0  0  0  0  0  0  0  0  0  0  0  0
   -6.9110   -4.9960   -8.4980 N   0  0  0  0  0  0  0  0  0  0  0  0
   -7.2270   -5.4530   -7.3100 C   0  0  0  0  0  0  0  0  0  0  0  0
   -8.3010   -4.7670   -6.8130 N   0  0  0  0  0  0  0  0  0  0  0  0
  1  2  2  0
  2  3  1  0
  3  4  1  0
  4  5  1  0
  5  6  2  0
  6  7  1  0
  7  8  2  0
  8  9  1  0
  9 10  2  0
 10 11  1  0
  6 12  1  0
 12 13  1  0
  2 14  1  0
 14 15  2  0
 15 16  1  0
 16 17  2  0
 17 18  1  0
 18 19  2  0
 19 20  1  0
 20 21  2  0
 21 22  1  0
 13  4  2  0
 22 14  1  0
 11  7  1  0
 22 18  1  0
M  END
>  <pair>  (144) 
x1052_1A-x1594_0A

>  <sucos>  (144) 
0.41463478454504915

>  <ref_mols>  (144) 
x1052_1A,x1594_0A

>  <original SMILES>  (144) 
O=C(Nc1cc(-c2cccs2)on1)c1cccc2nncn12

>  <cmpd_ids>  (144) 
ENAMINE:PV-002773505304

>  <ref_url>  (144) 
https://github.com/stephwills/fragment_network_merges

>  <submitter_name>  (144) 
Steph Wills

>  <submitter_institution>  (144) 
University of Oxford

>  <submitter_email>  (144) 
stephanie.wills@balliol.ox.ac.uk

>  <generation_date>  (144) 
2023-09-06

>  <method>  (144) 
fragNetMergingIt3

>  <ref_pdb>  (144) 
x1052_1A,x1594_0A

$$$$
x1594-0A-x2021-0A-26
     RDKit          3D

 23 24  0  0  0  0  0  0  0  0999 V2000
   -4.1560   -7.3550   -2.0490 C   0  0  0  0  0  0  0  0  0  0  0  0
   -5.0630   -7.5370   -3.2500 C   0  0  0  0  0  0  0  0  0  0  0  0
   -5.6210   -6.2750   -3.6580 O   0  0  0  0  0  0  0  0  0  0  0  0
   -6.9300   -6.1840   -3.4290 C   0  0  0  0  0  0  0  0  0  0  0  0
   -7.7590   -7.0810   -3.4260 O   0  0  0  0  0  0  0  0  0  0  0  0
   -7.3280   -4.7810   -3.1700 C   0  0  2  0  0  0  0  0  0  0  0  0
   -6.7660   -4.1760   -1.8800 C   0  0  0  0  0  0  0  0  0  0  0  0
   -6.6950   -2.6510   -1.9600 C   0  0  0  0  0  0  0  0  0  0  0  0
   -6.4030   -1.9510   -0.6550 C   0  0  0  0  0  0  0  0  0  0  0  0
   -6.3940   -0.5460   -0.8210 O   0  0  0  0  0  0  0  0  0  0  0  0
   -5.3090   -0.1190   -1.6310 C   0  0  0  0  0  0  0  0  0  0  0  0
   -8.7640   -4.9930   -3.1970 N   0  0  0  0  0  0  0  0  0  0  0  0
   -9.3290   -5.5640   -4.3560 C   0  0  0  0  0  0  0  0  0  0  0  0
   -9.7370   -6.7190   -4.3950 O   0  0  0  0  0  0  0  0  0  0  0  0
   -9.4220   -4.6720   -5.5760 C   0  0  0  0  0  0  0  0  0  0  0  0
  -10.4090   -3.7520   -5.5680 C   0  0  0  0  0  0  0  0  0  0  0  0
  -10.5430   -2.8090   -6.6570 C   0  0  0  0  0  0  0  0  0  0  0  0
   -9.7000   -2.8160   -7.6930 C   0  0  0  0  0  0  0  0  0  0  0  0
   -8.6630   -3.7850   -7.7590 C   0  0  0  0  0  0  0  0  0  0  0  0
   -7.7360   -4.0180   -8.6620 N   0  0  0  0  0  0  0  0  0  0  0  0
   -6.9970   -5.0940   -8.2460 N   0  0  0  0  0  0  0  0  0  0  0  0
   -7.4890   -5.4900   -7.0900 C   0  0  0  0  0  0  0  0  0  0  0  0
   -8.5530   -4.6970   -6.7090 N   0  0  0  0  0  0  0  0  0  0  0  0
  1  2  1  0
  2  3  1  0
  3  4  1  0
  4  5  2  0
  4  6  1  0
  6  7  1  1
  7  8  1  0
  8  9  1  0
  9 10  1  0
 10 11  1  0
  6 12  1  0
 12 13  1  0
 13 14  2  0
 13 15  1  0
 15 16  2  0
 16 17  1  0
 17 18  2  0
 18 19  1  0
 19 20  2  0
 20 21  1  0
 21 22  2  0
 22 23  1  0
 23 15  1  0
 23 19  1  0
M  END
>  <pair>  (145) 
x1594_0A-x2021_0A

>  <sucos>  (145) 
0.4146921560942973

>  <ref_mols>  (145) 
x1594_0A,x2021_0A

>  <original SMILES>  (145) 
CCOC(=O)C(CCCOC)NC(=O)c1cccc2nncn12

>  <cmpd_ids>  (145) 
ENAMINE:Z3638561787

>  <ref_url>  (145) 
https://github.com/stephwills/fragment_network_merges

>  <submitter_name>  (145) 
Steph Wills

>  <submitter_institution>  (145) 
University of Oxford

>  <submitter_email>  (145) 
stephanie.wills@balliol.ox.ac.uk

>  <generation_date>  (145) 
2023-09-06

>  <method>  (145) 
fragNetMergingIt3

>  <ref_pdb>  (145) 
x1594_0A,x2021_0A

$$$$
x0147-0A-x1140-0A-59
     RDKit          3D

 20 22  0  0  0  0  0  0  0  0999 V2000
   -6.6800   -4.2370   -0.9150 C   0  0  0  0  0  0  0  0  0  0  0  0
   -7.0890   -4.6310   -2.5860 S   0  0  0  0  0  6  0  0  0  0  0  0
   -6.3140   -3.7970   -3.4790 O   0  0  0  0  0  0  0  0  0  0  0  0
   -8.5240   -4.7530   -2.6840 O   0  0  0  0  0  0  0  0  0  0  0  0
   -6.5290   -6.2130   -2.6250 N   0  0  0  0  0  0  0  0  0  0  0  0
   -7.5340   -7.1860   -3.0580 C   0  0  0  0  0  0  0  0  0  0  0  0
   -7.7730   -6.8480   -4.5090 C   0  0  1  0  0  0  0  0  0  0  0  0
   -6.9230   -7.7060   -5.4120 C   0  0  0  0  0  0  0  0  0  0  0  0
   -7.8360   -8.0780   -6.5740 C   0  0  0  0  0  0  0  0  0  0  0  0
   -8.8520   -7.0460   -6.5020 N   0  0  0  0  0  0  0  0  0  0  0  0
   -8.6350   -5.8220   -7.1370 C   0  0  0  0  0  0  0  0  0  0  0  0
   -7.5430   -5.4930   -7.8800 C   0  0  0  0  0  0  0  0  0  0  0  0
   -7.3330   -4.2690   -8.5040 N   0  0  0  0  0  0  0  0  0  0  0  0
   -8.2610   -3.3790   -8.3550 C   0  0  0  0  0  0  0  0  0  0  0  0
   -9.4320   -3.6120   -7.6080 C   0  0  0  0  0  0  0  0  0  0  0  0
  -10.4380   -2.8070   -7.3790 N   0  0  0  0  0  0  0  0  0  0  0  0
  -11.3260   -3.5150   -6.5970 N   0  0  0  0  0  0  0  0  0  0  0  0
  -10.8120   -4.7130   -6.3900 C   0  0  0  0  0  0  0  0  0  0  0  0
   -9.6030   -4.8190   -7.0160 N   0  0  0  0  0  0  0  0  0  0  0  0
   -9.1750   -7.0630   -5.0680 C   0  0  0  0  0  0  0  0  0  0  0  0
  1  2  1  0
  2  3  2  0
  2  4  2  0
  2  5  1  0
  5  6  1  0
  7  6  1  1
  7  8  1  0
  8  9  1  0
  9 10  1  0
 10 11  1  0
 11 12  2  0
 12 13  1  0
 13 14  2  0
 14 15  1  0
 15 16  2  0
 16 17  1  0
 17 18  2  0
 18 19  1  0
 10 20  1  0
 20  7  1  0
 19 11  1  0
 19 15  1  0
M  END
>  <pair>  (146) 
x0147_0A-x1140_0A

>  <sucos>  (146) 
0.41603695786183853

>  <ref_mols>  (146) 
x0147_0A,x1140_0A

>  <original SMILES>  (146) 
CS(=O)(=O)NCC1CCN(c2cncc3nncn23)C1

>  <cmpd_ids>  (146) 
ENAMINE:Z2792856926

>  <ref_url>  (146) 
https://github.com/stephwills/fragment_network_merges

>  <submitter_name>  (146) 
Steph Wills

>  <submitter_institution>  (146) 
University of Oxford

>  <submitter_email>  (146) 
stephanie.wills@balliol.ox.ac.uk

>  <generation_date>  (146) 
2023-09-06

>  <method>  (146) 
fragNetMergingIt3

>  <ref_pdb>  (146) 
x0147_0A,x1140_0A

$$$$
x1140-0A-x0980-0B-76
     RDKit          3D

 21 23  0  0  0  0  0  0  0  0999 V2000
   -5.3440   -7.7120   -4.4230 C   0  0  0  0  0  0  0  0  0  0  0  0
   -6.2980   -6.8450   -3.7610 N   0  0  0  0  0  0  0  0  0  0  0  0
   -6.8260   -7.4970   -2.5560 C   0  0  0  0  0  0  0  0  0  0  0  0
   -5.9240   -7.8670   -1.5080 C   0  0  0  0  0  0  0  0  0  0  0  0
   -6.3690   -8.7750   -0.4220 C   0  0  0  0  0  0  0  0  0  0  0  0
   -5.5400   -9.1400    0.6200 C   0  0  0  0  0  0  0  0  0  0  0  0
   -4.1240   -8.5840    0.6410 C   0  0  0  0  0  0  0  0  0  0  0  0
   -3.7510   -7.7560   -0.3940 C   0  0  0  0  0  0  0  0  0  0  0  0
   -4.5840   -7.3810   -1.4550 C   0  0  0  0  0  0  0  0  0  0  0  0
   -2.4590   -7.3680   -0.2120 O   0  0  0  0  0  0  0  0  0  0  0  0
   -2.2540   -7.7560    1.1640 C   0  0  0  0  0  0  0  0  0  0  0  0
   -3.1600   -8.8000    1.5660 O   0  0  0  0  0  0  0  0  0  0  0  0
   -7.3880   -5.9370   -4.7090 S   0  0  0  0  0  6  0  0  0  0  0  0
   -7.0170   -4.5380   -4.5260 O   0  0  0  0  0  0  0  0  0  0  0  0
   -8.7190   -6.3630   -4.3280 O   0  0  0  0  0  0  0  0  0  0  0  0
   -7.1890   -6.3640   -6.4710 C   0  0  0  0  0  0  0  0  0  0  0  0
   -7.5960   -5.3060   -7.2690 C   0  0  0  0  0  0  0  0  0  0  0  0
   -8.8240   -4.6680   -7.0290 C   0  0  0  0  0  0  0  0  0  0  0  0
   -8.8850   -3.6930   -7.9750 C   0  0  0  0  0  0  0  0  0  0  0  0
   -7.7650   -3.7300   -8.7470 O   0  0  0  0  0  0  0  0  0  0  0  0
   -6.9280   -4.7560   -8.3200 N   0  0  0  0  0  0  0  0  0  0  0  0
  1  2  1  0
  2  3  1  0
  3  4  1  0
  4  5  2  0
  5  6  1  0
  6  7  2  0
  7  8  1  0
  8  9  2  0
  8 10  1  0
 10 11  1  0
 11 12  1  0
  2 13  1  0
 13 14  2  0
 13 15  2  0
 13 16  1  0
 16 17  1  0
 17 18  1  0
 18 19  2  0
 19 20  1  0
 20 21  1  0
  9  4  1  0
 21 17  2  0
 12  7  1  0
M  END
>  <pair>  (147) 
x1140_0A-x0980_0B

>  <sucos>  (147) 
0.4180872342439798

>  <ref_mols>  (147) 
x1140_0A,x0980_0B

>  <original SMILES>  (147) 
CN(Cc1ccc2c(c1)OCO2)S(=O)(=O)Cc1ccon1

>  <cmpd_ids>  (147) 
ENAMINE:Z1255632472

>  <ref_url>  (147) 
https://github.com/stephwills/fragment_network_merges

>  <submitter_name>  (147) 
Steph Wills

>  <submitter_institution>  (147) 
University of Oxford

>  <submitter_email>  (147) 
stephanie.wills@balliol.ox.ac.uk

>  <generation_date>  (147) 
2023-09-06

>  <method>  (147) 
fragNetMergingIt3

>  <ref_pdb>  (147) 
x1140_0A,x0980_0B

$$$$
x0147-0A-x1052-1A-165
     RDKit          3D

 21 24  0  0  0  0  0  0  0  0999 V2000
   -6.9210   -7.3010   -8.2440 C   0  0  0  0  0  0  0  0  0  0  0  0
   -7.5160   -6.7460   -7.0680 N   0  0  0  0  0  0  0  0  0  0  0  0
   -7.9050   -5.5150   -7.3920 C   0  0  0  0  0  0  0  0  0  0  0  0
   -6.9930   -5.0060   -8.1850 N   0  0  0  0  0  0  0  0  0  0  0  0
   -7.1760   -3.8070   -8.6500 C   0  0  0  0  0  0  0  0  0  0  0  0
   -8.3830   -2.9810   -8.3430 C   0  0  0  0  0  0  0  0  0  0  0  0
   -9.2900   -3.5220   -7.5540 N   0  0  0  0  0  0  0  0  0  0  0  0
  -10.4570   -3.0470   -7.1030 C   0  0  0  0  0  0  0  0  0  0  0  0
  -11.0150   -3.9470   -6.3430 N   0  0  0  0  0  0  0  0  0  0  0  0
  -10.1710   -5.0490   -6.3030 N   0  0  0  0  0  0  0  0  0  0  0  0
   -9.1190   -4.7670   -7.0480 C   0  0  0  0  0  0  0  0  0  0  0  0
   -8.1080   -7.5180   -5.9770 C   0  0  2  0  0  0  0  0  0  0  0  0
   -8.5770   -6.7100   -4.7640 C   0  0  0  0  0  0  0  0  0  0  0  0
   -7.8430   -7.6720   -3.7780 C   0  0  2  0  0  0  0  0  0  0  0  0
   -7.0780   -7.0800   -2.8200 C   0  0  0  0  0  0  0  0  0  0  0  0
   -5.7390   -7.0980   -2.8540 C   0  0  0  0  0  0  0  0  0  0  0  0
   -4.9800   -6.4820   -1.8920 C   0  0  0  0  0  0  0  0  0  0  0  0
   -5.6240   -5.8360   -0.8750 C   0  0  0  0  0  0  0  0  0  0  0  0
   -6.9160   -5.7710   -0.7470 N   0  0  0  0  0  0  0  0  0  0  0  0
   -7.6150   -6.3930   -1.7160 C   0  0  0  0  0  0  0  0  0  0  0  0
   -7.0670   -8.1800   -5.0210 C   0  0  0  0  0  0  0  0  0  0  0  0
  1  2  1  0
  2  3  1  0
  3  4  2  0
  4  5  1  0
  5  6  2  0
  6  7  1  0
  7  8  1  0
  8  9  2  0
  9 10  1  0
 10 11  2  0
 12  2  1  6
 12 13  1  0
 14 13  1  6
 14 15  1  0
 15 16  2  0
 16 17  1  0
 17 18  2  0
 18 19  1  0
 19 20  2  0
 14 21  1  0
 11  3  1  0
 21 12  1  0
 11  7  1  0
 20 15  1  0
M  END
>  <pair>  (148) 
x0147_0A-x1052_1A

>  <sucos>  (148) 
0.41852109674934435

>  <ref_mols>  (148) 
x0147_0A,x1052_1A

>  <original SMILES>  (148) 
CN(c1nccn2cnnc12)C1CC(c2cccnc2)C1

>  <cmpd_ids>  (148) 
ENAMINE:Z3561983518

>  <ref_url>  (148) 
https://github.com/stephwills/fragment_network_merges

>  <submitter_name>  (148) 
Steph Wills

>  <submitter_institution>  (148) 
University of Oxford

>  <submitter_email>  (148) 
stephanie.wills@balliol.ox.ac.uk

>  <generation_date>  (148) 
2023-09-06

>  <method>  (148) 
fragNetMergingIt3

>  <ref_pdb>  (148) 
x0147_0A,x1052_1A

$$$$
x1052-1A-x1594-0A-86
     RDKit          3D

 21 24  0  0  0  0  0  0  0  0999 V2000
   -2.5170   -7.7840   -1.3170 C   0  0  0  0  0  0  0  0  0  0  0  0
   -2.6300   -7.5910    0.1140 C   0  0  0  0  0  0  0  0  0  0  0  0
   -3.8570   -7.0970    0.3920 O   0  0  0  0  0  0  0  0  0  0  0  0
   -4.5020   -6.9800   -0.8330 C   0  0  0  0  0  0  0  0  0  0  0  0
   -5.7830   -6.4970   -0.9670 C   0  0  0  0  0  0  0  0  0  0  0  0
   -6.0530   -5.9430   -2.1420 C   0  0  0  0  0  0  0  0  0  0  0  0
   -7.4050   -5.4710   -2.1880 C   0  0  0  0  0  0  0  0  0  0  0  0
   -8.2010   -4.7820   -3.2680 C   0  0  0  0  0  0  0  0  0  0  0  0
   -8.6330   -5.5590   -4.4750 N   0  0  0  0  0  0  0  0  0  0  0  0
   -9.0510   -4.7780   -5.5710 C   0  0  0  0  0  0  0  0  0  0  0  0
  -10.2160   -3.9180   -5.4830 C   0  0  0  0  0  0  0  0  0  0  0  0
  -10.5530   -3.0900   -6.5330 C   0  0  0  0  0  0  0  0  0  0  0  0
   -9.7840   -3.0490   -7.6850 C   0  0  0  0  0  0  0  0  0  0  0  0
   -8.6720   -3.8820   -7.8260 C   0  0  0  0  0  0  0  0  0  0  0  0
   -7.8150   -4.0490   -8.8080 N   0  0  0  0  0  0  0  0  0  0  0  0
   -6.9250   -5.0140   -8.4610 N   0  0  0  0  0  0  0  0  0  0  0  0
   -7.2500   -5.4150   -7.2600 C   0  0  0  0  0  0  0  0  0  0  0  0
   -8.3430   -4.7260   -6.7950 N   0  0  0  0  0  0  0  0  0  0  0  0
   -7.9150   -5.7770   -0.9560 N   0  0  0  0  0  0  0  0  0  0  0  0
   -6.9000   -6.4220   -0.1960 O   0  0  0  0  0  0  0  0  0  0  0  0
   -3.7100   -7.3950   -1.8820 C   0  0  0  0  0  0  0  0  0  0  0  0
  1  2  2  0
  2  3  1  0
  3  4  1  0
  4  5  1  0
  5  6  2  0
  6  7  1  0
  7  8  1  0
  8  9  1  0
  9 10  1  0
 10 11  2  0
 11 12  1  0
 12 13  2  0
 13 14  1  0
 14 15  2  0
 15 16  1  0
 16 17  2  0
 17 18  1  0
  7 19  2  0
 19 20  1  0
  4 21  2  0
 21  1  1  0
 20  5  1  0
 18 10  1  0
 18 14  1  0
M  END
>  <pair>  (149) 
x1052_1A-x1594_0A

>  <sucos>  (149) 
0.41932365897781443

>  <ref_mols>  (149) 
x1052_1A,x1594_0A

>  <original SMILES>  (149) 
c1coc(-c2cc(CNc3cccc4nncn34)no2)c1

>  <cmpd_ids>  (149) 
ENAMINE:PV-002710203059

>  <ref_url>  (149) 
https://github.com/stephwills/fragment_network_merges

>  <submitter_name>  (149) 
Steph Wills

>  <submitter_institution>  (149) 
University of Oxford

>  <submitter_email>  (149) 
stephanie.wills@balliol.ox.ac.uk

>  <generation_date>  (149) 
2023-09-06

>  <method>  (149) 
fragNetMergingIt3

>  <ref_pdb>  (149) 
x1052_1A,x1594_0A

$$$$
x1594-0A-x1052-1A-123
     RDKit          3D

 20 22  0  0  0  0  0  0  0  0999 V2000
   -6.8150   -6.6110   -7.8590 C   0  0  0  0  0  0  0  0  0  0  0  0
   -7.5380   -5.3330   -7.8970 C   0  0  0  0  0  0  0  0  0  0  0  0
   -7.2600   -4.4080   -8.9060 N   0  0  0  0  0  0  0  0  0  0  0  0
   -8.0190   -3.3240   -8.7530 N   0  0  0  0  0  0  0  0  0  0  0  0
   -8.7560   -3.6020   -7.6510 C   0  0  0  0  0  0  0  0  0  0  0  0
   -9.7480   -2.7620   -7.0420 C   0  0  0  0  0  0  0  0  0  0  0  0
  -10.3630   -3.2290   -5.8700 C   0  0  0  0  0  0  0  0  0  0  0  0
   -9.9790   -4.5530   -5.3140 C   0  0  0  0  0  0  0  0  0  0  0  0
  -10.5130   -5.0600   -4.1190 C   0  0  0  0  0  0  0  0  0  0  0  0
  -11.7040   -5.3380   -4.0050 O   0  0  0  0  0  0  0  0  0  0  0  0
   -9.5690   -5.2130   -3.0990 O   0  0  0  0  0  0  0  0  0  0  0  0
   -8.1380   -5.3570   -3.4100 C   0  0  1  0  0  0  0  0  0  0  0  0
   -7.6550   -4.0480   -3.7590 C   0  0  0  0  0  0  0  0  0  0  0  0
   -7.2500   -5.9200   -2.3030 C   0  0  0  0  0  0  0  0  0  0  0  0
   -5.8120   -6.2040   -2.4010 C   0  0  0  0  0  0  0  0  0  0  0  0
   -5.2160   -6.8490   -0.9430 S   0  0  0  0  0  0  0  0  0  0  0  0
   -6.8000   -6.7270   -0.2820 C   0  0  0  0  0  0  0  0  0  0  0  0
   -7.7560   -6.2370   -1.0520 N   0  0  0  0  0  0  0  0  0  0  0  0
   -9.0790   -5.3150   -5.9550 C   0  0  0  0  0  0  0  0  0  0  0  0
   -8.4760   -4.8310   -7.0920 N   0  0  0  0  0  0  0  0  0  0  0  0
  1  2  1  0
  2  3  2  0
  3  4  1  0
  4  5  2  0
  5  6  1  0
  6  7  2  0
  7  8  1  0
  8  9  1  0
  9 10  2  0
  9 11  1  0
 11 12  1  0
 12 13  1  1
 12 14  1  0
 14 15  2  0
 15 16  1  0
 16 17  1  0
 17 18  2  0
  8 19  2  0
 19 20  1  0
 20  2  1  0
 20  5  1  0
 18 14  1  0
M  END
>  <pair>  (150) 
x1594_0A-x1052_1A

>  <sucos>  (150) 
0.41953680474973165

>  <ref_mols>  (150) 
x1594_0A,x1052_1A

>  <original SMILES>  (150) 
Cc1nnc2ccc(C(=O)OC(C)c3cscn3)cn12

>  <cmpd_ids>  (150) 
ENAMINE:PV-003560458492

>  <ref_url>  (150) 
https://github.com/stephwills/fragment_network_merges

>  <submitter_name>  (150) 
Steph Wills

>  <submitter_institution>  (150) 
University of Oxford

>  <submitter_email>  (150) 
stephanie.wills@balliol.ox.ac.uk

>  <generation_date>  (150) 
2023-09-06

>  <method>  (150) 
fragNetMergingIt3

>  <ref_pdb>  (150) 
x1594_0A,x1052_1A

$$$$
x1052-1A-x1594-0A-36
     RDKit          3D

 19 21  0  0  0  0  0  0  0  0999 V2000
   -4.0270   -7.4410   -0.9480 C   0  0  0  0  0  0  0  0  0  0  0  0
   -5.2060   -6.6460   -1.3340 C   0  0  0  0  0  0  0  0  0  0  0  0
   -5.5360   -5.9280   -2.4510 C   0  0  0  0  0  0  0  0  0  0  0  0
   -6.8310   -5.3820   -2.1950 C   0  0  0  0  0  0  0  0  0  0  0  0
   -7.5940   -4.5520   -3.0810 N   0  0  0  0  0  0  0  0  0  0  0  0
   -7.8470   -3.2210   -2.5360 C   0  0  0  0  0  0  0  0  0  0  0  0
   -8.5490   -5.1810   -3.9390 C   0  0  0  0  0  0  0  0  0  0  0  0
   -9.1020   -6.2470   -3.6500 O   0  0  0  0  0  0  0  0  0  0  0  0
   -8.9880   -4.6060   -5.2990 C   0  0  0  0  0  0  0  0  0  0  0  0
  -10.1590   -3.9300   -5.3520 C   0  0  0  0  0  0  0  0  0  0  0  0
  -10.6600   -3.3980   -6.5840 C   0  0  0  0  0  0  0  0  0  0  0  0
   -9.9380   -3.5790   -7.6880 C   0  0  0  0  0  0  0  0  0  0  0  0
   -8.7370   -4.2610   -7.6340 N   0  0  0  0  0  0  0  0  0  0  0  0
   -7.8140   -4.5710   -8.5910 C   0  0  0  0  0  0  0  0  0  0  0  0
   -6.8330   -5.2390   -8.1090 N   0  0  0  0  0  0  0  0  0  0  0  0
   -7.1170   -5.3700   -6.7930 N   0  0  0  0  0  0  0  0  0  0  0  0
   -8.2410   -4.7830   -6.4980 C   0  0  0  0  0  0  0  0  0  0  0  0
   -7.2280   -5.7770   -0.9690 N   0  0  0  0  0  0  0  0  0  0  0  0
   -6.2250   -6.5600   -0.4400 O   0  0  0  0  0  0  0  0  0  0  0  0
  1  2  1  0
  2  3  2  0
  3  4  1  0
  4  5  1  0
  5  6  1  0
  5  7  1  0
  7  8  2  0
  7  9  1  0
  9 10  2  0
 10 11  1  0
 11 12  2  0
 12 13  1  0
 13 14  1  0
 14 15  2  0
 15 16  1  0
 16 17  2  0
  4 18  2  0
 18 19  1  0
 19  2  1  0
 17  9  1  0
 17 13  1  0
M  END
>  <pair>  (151) 
x1052_1A-x1594_0A

>  <sucos>  (151) 
0.42102993658834964

>  <ref_mols>  (151) 
x1052_1A,x1594_0A

>  <original SMILES>  (151) 
Cc1cc(N(C)C(=O)c2cccn3cnnc23)no1

>  <cmpd_ids>  (151) 
ENAMINE:PV-003328839470

>  <ref_url>  (151) 
https://github.com/stephwills/fragment_network_merges

>  <submitter_name>  (151) 
Steph Wills

>  <submitter_institution>  (151) 
University of Oxford

>  <submitter_email>  (151) 
stephanie.wills@balliol.ox.ac.uk

>  <generation_date>  (151) 
2023-09-06

>  <method>  (151) 
fragNetMergingIt3

>  <ref_pdb>  (151) 
x1052_1A,x1594_0A

$$$$
x1052-1A-x1140-0A-113
     RDKit          3D

 22 24  0  0  0  0  0  0  0  0999 V2000
   -4.8560   -6.5600   -0.5350 C   0  0  0  0  0  0  0  0  0  0  0  0
   -6.1920   -6.0120   -0.7170 C   0  0  0  0  0  0  0  0  0  0  0  0
   -7.1110   -6.2750    0.2470 O   0  0  0  0  0  0  0  0  0  0  0  0
   -8.3060   -5.6700   -0.0850 N   0  0  0  0  0  0  0  0  0  0  0  0
   -8.0730   -5.0670   -1.2470 C   0  0  0  0  0  0  0  0  0  0  0  0
   -6.7580   -5.2540   -1.6900 C   0  0  0  0  0  0  0  0  0  0  0  0
   -6.1370   -4.7510   -2.9200 C   0  0  0  0  0  0  0  0  0  0  0  0
   -5.8730   -5.8620   -3.7000 N   0  0  0  0  0  0  0  0  0  0  0  0
   -6.8120   -6.6760   -4.3600 C   0  0  0  0  0  0  0  0  0  0  0  0
   -7.5200   -6.3310   -5.2990 O   0  0  0  0  0  0  0  0  0  0  0  0
   -6.8160   -7.9070   -3.7970 N   0  0  0  0  0  0  0  0  0  0  0  0
   -5.5390   -8.5390   -3.6280 C   0  0  0  0  0  0  0  0  0  0  0  0
   -5.0740   -8.6030   -2.1630 C   0  0  0  0  0  0  0  0  0  0  0  0
   -5.8300   -9.3060   -1.2270 C   0  0  0  0  0  0  0  0  0  0  0  0
   -5.4110   -9.3850    0.1090 C   0  0  0  0  0  0  0  0  0  0  0  0
   -4.2270   -8.7570    0.5180 C   0  0  0  0  0  0  0  0  0  0  0  0
   -3.4550   -8.0420   -0.3980 C   0  0  0  0  0  0  0  0  0  0  0  0
   -3.8860   -7.9730   -1.7280 C   0  0  0  0  0  0  0  0  0  0  0  0
   -2.2910   -7.3990   -0.0620 O   0  0  0  0  0  0  0  0  0  0  0  0
   -1.8630   -7.6810    1.2730 C   0  0  0  0  0  0  0  0  0  0  0  0
   -3.0290   -7.8140    2.2400 C   0  0  0  0  0  0  0  0  0  0  0  0
   -3.8850   -8.8870    1.8330 O   0  0  0  0  0  0  0  0  0  0  0  0
  1  2  1  0
  2  3  1  0
  3  4  1  0
  4  5  2  0
  5  6  1  0
  6  7  1  0
  7  8  1  0
  8  9  1  0
  9 10  2  0
  9 11  1  0
 11 12  1  0
 12 13  1  0
 13 14  2  0
 14 15  1  0
 15 16  2  0
 16 17  1  0
 17 18  2  0
 17 19  1  0
 19 20  1  0
 20 21  1  0
 21 22  1  0
  6  2  2  0
 18 13  1  0
 22 16  1  0
M  END
>  <pair>  (152) 
x1052_1A-x1140_0A

>  <sucos>  (152) 
0.42140538929518256

>  <ref_mols>  (152) 
x1052_1A,x1140_0A

>  <original SMILES>  (152) 
Cc1oncc1CNC(=O)NCc1ccc2c(c1)OCCO2

>  <cmpd_ids>  (152) 
ENAMINE:Z3548563461

>  <ref_url>  (152) 
https://github.com/stephwills/fragment_network_merges

>  <submitter_name>  (152) 
Steph Wills

>  <submitter_institution>  (152) 
University of Oxford

>  <submitter_email>  (152) 
stephanie.wills@balliol.ox.ac.uk

>  <generation_date>  (152) 
2023-09-06

>  <method>  (152) 
fragNetMergingIt3

>  <ref_pdb>  (152) 
x1052_1A,x1140_0A

$$$$
x1083-0A-x1498-0A-186
     RDKit          3D

 22 23  0  0  0  0  0  0  0  0999 V2000
   -4.4240   -7.8990   -2.6060 C   0  0  0  0  0  0  0  0  0  0  0  0
   -5.0500   -6.7390   -1.8500 C   0  0  1  0  0  0  0  0  0  0  0  0
   -6.4410   -6.4930   -2.4200 N   0  0  0  0  0  0  0  0  0  0  0  0
   -6.7560   -5.7100   -3.6030 C   0  0  0  0  0  0  0  0  0  0  0  0
   -6.4620   -4.5040   -3.6980 O   0  0  0  0  0  0  0  0  0  0  0  0
   -7.5180   -6.4170   -4.7600 C   0  0  0  0  0  0  0  0  0  0  0  0
   -7.8790   -5.5670   -6.0210 C   0  0  0  0  0  0  0  0  0  0  0  0
   -7.1330   -5.7270   -7.3320 C   0  0  0  0  0  0  0  0  0  0  0  0
   -7.7460   -4.7430   -8.3110 C   0  0  0  0  0  0  0  0  0  0  0  0
   -8.7530   -4.0000   -7.8320 N   0  0  0  0  0  0  0  0  0  0  0  0
   -9.0820   -4.3650   -6.2340 S   0  0  0  0  0  0  0  0  0  0  0  0
   -4.8580   -6.8580   -0.2410 C   0  0  0  0  0  0  0  0  0  0  0  0
   -5.8710   -7.7310    0.5380 C   0  0  0  0  0  0  0  0  0  0  0  0
   -5.3250   -8.3050    1.8480 C   0  0  0  0  0  0  0  0  0  0  0  0
   -4.1410   -9.0840    1.6010 N   0  0  0  0  0  0  0  0  0  0  0  0
   -4.1290  -10.4050    2.0840 C   0  0  0  0  0  0  0  0  0  0  0  0
   -3.0800  -10.9210    2.4800 O   0  0  0  0  0  0  0  0  0  0  0  0
   -5.4510  -11.1920    2.1050 C   0  0  0  0  0  0  0  0  0  0  0  0
   -6.0210  -11.2450    3.3440 F   0  0  0  0  0  0  0  0  0  0  0  0
   -5.2910  -12.4920    1.7200 F   0  0  0  0  0  0  0  0  0  0  0  0
   -3.3190   -8.6380    0.4990 C   0  0  0  0  0  0  0  0  0  0  0  0
   -3.4270   -7.1940    0.2300 C   0  0  0  0  0  0  0  0  0  0  0  0
  2  1  1  6
  2  3  1  0
  3  4  1  0
  4  5  2  0
  4  6  1  0
  6  7  1  0
  7  8  2  0
  8  9  1  0
  9 10  2  0
 10 11  1  0
  2 12  1  0
 12 13  1  0
 13 14  1  0
 14 15  1  0
 15 16  1  0
 16 17  2  0
 16 18  1  0
 18 19  1  0
 18 20  1  0
 15 21  1  0
 21 22  1  0
 11  7  1  0
 22 12  1  0
M  END
>  <pair>  (153) 
x1083_0A-x1498_0A

>  <sucos>  (153) 
0.42244624200500513

>  <ref_mols>  (153) 
x1083_0A,x1498_0A

>  <original SMILES>  (153) 
CC(NC(=O)Cc1ccns1)C1CCN(C(=O)C(F)F)CC1

>  <cmpd_ids>  (153) 
ENAMINE:PV-003185075619

>  <ref_url>  (153) 
https://github.com/stephwills/fragment_network_merges

>  <submitter_name>  (153) 
Steph Wills

>  <submitter_institution>  (153) 
University of Oxford

>  <submitter_email>  (153) 
stephanie.wills@balliol.ox.ac.uk

>  <generation_date>  (153) 
2023-09-06

>  <method>  (153) 
fragNetMergingIt3

>  <ref_pdb>  (153) 
x1083_0A,x1498_0A

$$$$
x1020-0A-x0130-0A-55
     RDKit          3D

 20 21  0  0  0  0  0  0  0  0999 V2000
    0.5130  -10.3660    3.3670 C   0  0  0  0  0  0  0  0  0  0  0  0
   -0.4890   -9.7860    2.3770 C   0  0  2  0  0  0  0  0  0  0  0  0
   -0.4290   -8.3370    2.4260 N   0  0  0  0  0  0  0  0  0  0  0  0
   -1.9270  -10.1280    2.5770 C   0  0  0  0  0  0  0  0  0  0  0  0
   -2.9190   -8.9690    2.7060 C   0  0  0  0  0  0  0  0  0  0  0  0
   -4.2610   -9.2420    2.8900 C   0  0  0  0  0  0  0  0  0  0  0  0
   -4.6860  -10.5670    2.9540 C   0  0  0  0  0  0  0  0  0  0  0  0
   -6.0100  -10.9360    3.1470 N   0  0  0  0  0  0  0  0  0  0  0  0
   -6.3900  -11.8150    4.1200 C   0  0  0  0  0  0  0  0  0  0  0  0
   -5.9190  -11.8810    5.2490 O   0  0  0  0  0  0  0  0  0  0  0  0
   -7.4820  -12.7420    3.6210 C   0  0  0  0  0  0  0  0  0  0  0  0
   -8.8680  -12.1520    3.8260 C   0  0  0  0  0  0  0  0  0  0  0  0
   -9.4660  -11.3820    2.7220 N   0  0  0  0  0  0  0  0  0  0  0  0
   -9.1160   -9.9550    2.6580 C   0  0  0  0  0  0  0  0  0  0  0  0
  -10.0200   -9.1830    1.7600 C   0  0  0  0  0  0  0  0  0  0  0  0
  -10.7100  -10.0110    0.8170 O   0  0  0  0  0  0  0  0  0  0  0  0
   -9.8880  -11.0630    0.2860 C   0  0  0  0  0  0  0  0  0  0  0  0
   -9.4730  -12.0400    1.4040 C   0  0  0  0  0  0  0  0  0  0  0  0
   -3.7790  -11.6370    2.8330 C   0  0  0  0  0  0  0  0  0  0  0  0
   -2.4140  -11.4250    2.6470 C   0  0  0  0  0  0  0  0  0  0  0  0
  2  1  1  1
  2  3  1  0
  2  4  1  0
  4  5  2  0
  5  6  1  0
  6  7  2  0
  7  8  1  0
  8  9  1  0
  9 10  2  0
  9 11  1  0
 11 12  1  0
 12 13  1  0
 13 14  1  0
 14 15  1  0
 15 16  1  0
 16 17  1  0
 17 18  1  0
  7 19  1  0
 19 20  2  0
 20  4  1  0
 18 13  1  0
M  END
>  <pair>  (154) 
x1020_0A-x0130_0A

>  <sucos>  (154) 
0.42410365184400795

>  <ref_mols>  (154) 
x1020_0A,x0130_0A

>  <original SMILES>  (154) 
CC(N)c1ccc(NC(=O)CCN2CCOCC2)cc1

>  <cmpd_ids>  (154) 
ENAMINE:Z4055116087

>  <ref_url>  (154) 
https://github.com/stephwills/fragment_network_merges

>  <submitter_name>  (154) 
Steph Wills

>  <submitter_institution>  (154) 
University of Oxford

>  <submitter_email>  (154) 
stephanie.wills@balliol.ox.ac.uk

>  <generation_date>  (154) 
2023-09-06

>  <method>  (154) 
fragNetMergingIt3

>  <ref_pdb>  (154) 
x1020_0A,x0130_0A

$$$$
x1052-1A-x1140-0A-49
     RDKit          3D

 21 23  0  0  0  0  0  0  0  0999 V2000
   -5.8990   -3.7770   -1.7150 C   0  0  0  0  0  0  0  0  0  0  0  0
   -6.5530   -5.0820   -1.6190 C   0  0  0  0  0  0  0  0  0  0  0  0
   -6.7150   -6.1330   -2.6120 C   0  0  0  0  0  0  0  0  0  0  0  0
   -7.4270   -7.1490   -2.0160 C   0  0  0  0  0  0  0  0  0  0  0  0
   -7.7490   -8.2700   -2.7420 C   0  0  0  0  0  0  0  0  0  0  0  0
   -6.7790   -8.4280   -3.8940 C   0  0  0  0  0  0  0  0  0  0  0  0
   -7.1890   -8.5930   -5.0410 O   0  0  0  0  0  0  0  0  0  0  0  0
   -5.4700   -8.3620   -3.4640 N   0  0  0  0  0  0  0  0  0  0  0  0
   -5.0650   -8.3720   -2.1170 C   0  0  0  0  0  0  0  0  0  0  0  0
   -5.7080   -9.2920   -1.2910 C   0  0  0  0  0  0  0  0  0  0  0  0
   -5.4160   -9.4150    0.0670 C   0  0  0  0  0  0  0  0  0  0  0  0
   -4.4540   -8.6110    0.6630 C   0  0  0  0  0  0  0  0  0  0  0  0
   -3.7640   -7.6630   -0.0970 C   0  0  0  0  0  0  0  0  0  0  0  0
   -4.0950   -7.5470   -1.5630 C   0  0  0  0  0  0  0  0  0  0  0  0
   -2.8080   -6.8070    0.3520 O   0  0  0  0  0  0  0  0  0  0  0  0
   -1.7670   -7.3560    1.1430 C   0  0  0  0  0  0  0  0  0  0  0  0
   -2.2180   -7.8750    2.4840 C   0  0  0  0  0  0  0  0  0  0  0  0
   -2.9770   -9.1650    2.3760 C   0  0  0  0  0  0  0  0  0  0  0  0
   -4.3010   -8.8680    1.9950 O   0  0  0  0  0  0  0  0  0  0  0  0
   -7.6990   -6.8120   -0.7240 O   0  0  0  0  0  0  0  0  0  0  0  0
   -7.1590   -5.5210   -0.4820 N   0  0  0  0  0  0  0  0  0  0  0  0
  1  2  1  0
  2  3  1  0
  3  4  2  0
  4  5  1  0
  5  6  1  0
  6  7  2  0
  6  8  1  0
  8  9  1  0
  9 10  2  0
 10 11  1  0
 11 12  2  0
 12 13  1  0
 13 14  2  0
 13 15  1  0
 15 16  1  0
 16 17  1  0
 17 18  1  0
 18 19  1  0
  4 20  1  0
 20 21  1  0
 21  2  2  0
 14  9  1  0
 19 12  1  0
M  END
>  <pair>  (155) 
x1052_1A-x1140_0A

>  <sucos>  (155) 
0.4270237562775911

>  <ref_mols>  (155) 
x1052_1A,x1140_0A

>  <original SMILES>  (155) 
Cc1cc(CC(=O)Nc2ccc3c(c2)OCCCO3)on1

>  <cmpd_ids>  (155) 
ENAMINE:Z2477443118

>  <ref_url>  (155) 
https://github.com/stephwills/fragment_network_merges

>  <submitter_name>  (155) 
Steph Wills

>  <submitter_institution>  (155) 
University of Oxford

>  <submitter_email>  (155) 
stephanie.wills@balliol.ox.ac.uk

>  <generation_date>  (155) 
2023-09-06

>  <method>  (155) 
fragNetMergingIt3

>  <ref_pdb>  (155) 
x1052_1A,x1140_0A

$$$$
x0147-0A-x1052-1A-11
     RDKit          3D

 21 24  0  0  0  0  0  0  0  0999 V2000
   -9.9960   -8.5490   -5.4330 O   0  0  0  0  0  0  0  0  0  0  0  0
   -9.6420   -7.3820   -5.3410 C   0  0  0  0  0  0  0  0  0  0  0  0
  -10.3730   -6.2520   -5.6640 N   0  0  0  0  0  0  0  0  0  0  0  0
   -9.9300   -5.2020   -6.4160 C   0  0  0  0  0  0  0  0  0  0  0  0
  -10.5680   -4.0350   -6.4980 N   0  0  0  0  0  0  0  0  0  0  0  0
   -9.8560   -3.2160   -7.3320 N   0  0  0  0  0  0  0  0  0  0  0  0
   -8.8280   -3.9210   -7.7150 C   0  0  0  0  0  0  0  0  0  0  0  0
   -7.8060   -3.5410   -8.5730 C   0  0  0  0  0  0  0  0  0  0  0  0
   -6.8110   -4.3140   -8.9000 N   0  0  0  0  0  0  0  0  0  0  0  0
   -6.8150   -5.5710   -8.3460 C   0  0  0  0  0  0  0  0  0  0  0  0
   -7.7600   -6.0120   -7.5160 C   0  0  0  0  0  0  0  0  0  0  0  0
   -8.8030   -5.1620   -7.1880 N   0  0  0  0  0  0  0  0  0  0  0  0
   -8.2760   -7.0540   -4.8210 C   0  0  2  0  0  0  0  0  0  0  0  0
   -7.0440   -7.8680   -5.1240 C   0  0  0  0  0  0  0  0  0  0  0  0
   -7.6510   -7.9430   -3.7490 C   0  0  1  0  0  0  0  0  0  0  0  0
   -7.1280   -7.1840   -2.5620 C   0  0  0  0  0  0  0  0  0  0  0  0
   -7.2610   -7.6820   -1.2730 C   0  0  0  0  0  0  0  0  0  0  0  0
   -6.7900   -6.9220   -0.2340 C   0  0  0  0  0  0  0  0  0  0  0  0
   -6.2130   -5.7220   -0.4060 N   0  0  0  0  0  0  0  0  0  0  0  0
   -6.0820   -5.2560   -1.6430 C   0  0  0  0  0  0  0  0  0  0  0  0
   -6.5120   -5.9420   -2.7360 C   0  0  0  0  0  0  0  0  0  0  0  0
  1  2  2  0
  2  3  1  0
  3  4  1  0
  4  5  2  0
  5  6  1  0
  6  7  2  0
  7  8  1  0
  8  9  2  0
  9 10  1  0
 10 11  2  0
 11 12  1  0
 13  2  1  6
 13 14  1  0
 15 14  1  6
 15 16  1  0
 16 17  2  0
 17 18  1  0
 18 19  2  0
 19 20  1  0
 20 21  2  0
 12  4  1  0
 15 13  1  0
 21 16  1  0
 12  7  1  0
M  END
>  <pair>  (156) 
x0147_0A-x1052_1A

>  <sucos>  (156) 
0.4270651837443532

>  <ref_mols>  (156) 
x0147_0A,x1052_1A

>  <original SMILES>  (156) 
O=C(Nc1nnc2cnccn12)C1CC1c1ccncc1

>  <cmpd_ids>  (156) 
ENAMINE:PV-003396789523

>  <ref_url>  (156) 
https://github.com/stephwills/fragment_network_merges

>  <submitter_name>  (156) 
Steph Wills

>  <submitter_institution>  (156) 
University of Oxford

>  <submitter_email>  (156) 
stephanie.wills@balliol.ox.ac.uk

>  <generation_date>  (156) 
2023-09-06

>  <method>  (156) 
fragNetMergingIt3

>  <ref_pdb>  (156) 
x0147_0A,x1052_1A

$$$$
x1594-0A-x2021-0A-46
     RDKit          3D

 22 23  0  0  0  0  0  0  0  0999 V2000
   -5.9200   -1.0520   -0.6850 C   0  0  0  0  0  0  0  0  0  0  0  0
   -6.3270   -2.3750   -0.3300 O   0  0  0  0  0  0  0  0  0  0  0  0
   -7.1590   -3.0420   -1.3130 C   0  0  0  0  0  0  0  0  0  0  0  0
   -6.3610   -4.0870   -2.1030 C   0  0  2  0  0  0  0  0  0  0  0  0
   -5.1390   -3.3290   -2.4910 C   0  0  0  0  0  0  0  0  0  0  0  0
   -6.9530   -4.5300   -3.3680 O   0  0  0  0  0  0  0  0  0  0  0  0
   -8.1020   -5.2820   -3.3400 C   0  0  0  0  0  0  0  0  0  0  0  0
   -9.1300   -4.9350   -2.8000 O   0  0  0  0  0  0  0  0  0  0  0  0
   -8.0270   -6.5060   -3.9760 N   0  0  0  0  0  0  0  0  0  0  0  0
   -7.2820   -6.8730   -5.1620 C   0  0  1  0  0  0  0  0  0  0  0  0
   -7.5030   -5.8330   -6.3180 C   0  0  0  0  0  0  0  0  0  0  0  0
   -6.7620   -5.5370   -7.4060 N   0  0  0  0  0  0  0  0  0  0  0  0
   -7.3610   -4.5140   -8.1300 N   0  0  0  0  0  0  0  0  0  0  0  0
   -8.4670   -4.1950   -7.5060 C   0  0  0  0  0  0  0  0  0  0  0  0
   -9.4790   -3.2240   -7.7490 C   0  0  0  0  0  0  0  0  0  0  0  0
  -10.5440   -3.1290   -6.9420 C   0  0  0  0  0  0  0  0  0  0  0  0
  -10.6880   -4.0060   -5.8020 C   0  0  0  0  0  0  0  0  0  0  0  0
   -9.7280   -4.9080   -5.5480 C   0  0  0  0  0  0  0  0  0  0  0  0
   -8.6190   -5.0040   -6.3830 N   0  0  0  0  0  0  0  0  0  0  0  0
   -5.8880   -7.2570   -4.6170 C   0  0  0  0  0  0  0  0  0  0  0  0
   -5.4890   -6.4480   -3.3820 C   0  0  0  0  0  0  0  0  0  0  0  0
   -5.8710   -8.7070   -4.1160 C   0  0  0  0  0  0  0  0  0  0  0  0
  1  2  1  0
  2  3  1  0
  3  4  1  0
  4  5  1  6
  4  6  1  0
  6  7  1  0
  7  8  2  0
  7  9  1  0
 10  9  1  1
 10 11  1  0
 11 12  2  0
 12 13  1  0
 13 14  2  0
 14 15  1  0
 15 16  2  0
 16 17  1  0
 17 18  2  0
 18 19  1  0
 10 20  1  0
 20 21  1  0
 20 22  1  0
 19 11  1  0
 19 14  1  0
M  END
>  <pair>  (157) 
x1594_0A-x2021_0A

>  <sucos>  (157) 
0.42723393250972

>  <ref_mols>  (157) 
x1594_0A,x2021_0A

>  <original SMILES>  (157) 
COCC(C)OC(=O)NC(c1nnc2ccccn12)C(C)C

>  <cmpd_ids>  (157) 
ENAMINE:Z2773574132

>  <ref_url>  (157) 
https://github.com/stephwills/fragment_network_merges

>  <submitter_name>  (157) 
Steph Wills

>  <submitter_institution>  (157) 
University of Oxford

>  <submitter_email>  (157) 
stephanie.wills@balliol.ox.ac.uk

>  <generation_date>  (157) 
2023-09-06

>  <method>  (157) 
fragNetMergingIt3

>  <ref_pdb>  (157) 
x1594_0A,x2021_0A

$$$$
x1020-0A-x0130-0A-142
     RDKit          3D

 20 21  0  0  0  0  0  0  0  0999 V2000
   -2.0590   -7.3610    1.1950 C   0  0  0  0  0  0  0  0  0  0  0  0
   -1.7870   -8.3630    2.2940 C   0  0  2  0  0  0  0  0  0  0  0  0
   -0.7690   -9.3890    2.0740 N   0  0  0  0  0  0  0  0  0  0  0  0
   -3.1040   -8.9970    2.5830 C   0  0  0  0  0  0  0  0  0  0  0  0
   -3.4310   -9.3340    4.0410 C   0  0  0  0  0  0  0  0  0  0  0  0
   -4.7860   -9.9820    4.3090 C   0  0  0  0  0  0  0  0  0  0  0  0
   -5.6790  -10.2310    3.0910 C   0  0  0  0  0  0  0  0  0  0  0  0
   -6.9390  -10.8560    3.4040 N   0  0  0  0  0  0  0  0  0  0  0  0
   -6.6270  -11.9810    4.2860 C   0  0  0  0  0  0  0  0  0  0  0  0
   -5.6920  -12.0440    5.0800 O   0  0  0  0  0  0  0  0  0  0  0  0
   -7.6190  -13.1180    4.1000 C   0  0  0  0  0  0  0  0  0  0  0  0
   -8.9800  -12.6090    3.5360 C   0  0  0  0  0  0  0  0  0  0  0  0
   -9.7140  -13.5100    2.5680 C   0  0  2  0  0  0  0  0  0  0  0  0
  -10.6280  -12.5810    3.3230 C   0  0  0  0  0  0  0  0  0  0  0  0
  -11.9000  -13.0440    3.6510 C   0  0  0  0  0  0  0  0  0  0  0  0
  -12.0170  -14.5370    3.9300 C   0  0  0  0  0  0  0  0  0  0  0  0
  -10.6300  -15.1670    4.0480 C   0  0  0  0  0  0  0  0  0  0  0  0
   -9.7650  -14.8920    2.9390 O   0  0  0  0  0  0  0  0  0  0  0  0
   -5.3190   -9.9000    1.8050 C   0  0  0  0  0  0  0  0  0  0  0  0
   -3.9830   -9.2570    1.5280 C   0  0  0  0  0  0  0  0  0  0  0  0
  2  1  1  6
  2  3  1  0
  2  4  1  0
  4  5  2  0
  5  6  1  0
  6  7  2  0
  7  8  1  0
  8  9  1  0
  9 10  2  0
  9 11  1  0
 11 12  1  0
 13 12  1  1
 13 14  1  0
 14 15  1  0
 15 16  1  0
 16 17  1  0
 17 18  1  0
  7 19  1  0
 19 20  2  0
 20  4  1  0
 18 13  1  0
M  END
>  <pair>  (158) 
x1020_0A-x0130_0A

>  <sucos>  (158) 
0.4280102524896331

>  <ref_mols>  (158) 
x1020_0A,x0130_0A

>  <original SMILES>  (158) 
CC(N)c1ccc(NC(=O)CCC2CCCCO2)cc1

>  <cmpd_ids>  (158) 
ENAMINE:Z2392722915

>  <ref_url>  (158) 
https://github.com/stephwills/fragment_network_merges

>  <submitter_name>  (158) 
Steph Wills

>  <submitter_institution>  (158) 
University of Oxford

>  <submitter_email>  (158) 
stephanie.wills@balliol.ox.ac.uk

>  <generation_date>  (158) 
2023-09-06

>  <method>  (158) 
fragNetMergingIt3

>  <ref_pdb>  (158) 
x1020_0A,x0130_0A

$$$$
x1594-0A-x1052-1A-191
     RDKit          3D

 21 23  0  0  0  0  0  0  0  0999 V2000
   -6.8920   -4.4230   -3.4410 C   0  0  0  0  0  0  0  0  0  0  0  0
   -6.8170   -5.9350   -3.3450 C   0  0  0  0  0  0  0  0  0  0  0  0
   -5.4960   -6.4550   -3.8450 C   0  0  0  0  0  0  0  0  0  0  0  0
   -7.8620   -6.5990   -4.2500 C   0  0  0  0  0  0  0  0  0  0  0  0
   -9.0610   -6.6660   -4.0000 O   0  0  0  0  0  0  0  0  0  0  0  0
   -7.2880   -7.1310   -5.3970 N   0  0  0  0  0  0  0  0  0  0  0  0
   -7.8670   -7.1460   -6.7200 C   0  0  0  0  0  0  0  0  0  0  0  0
   -7.8590   -5.8140   -7.3450 C   0  0  0  0  0  0  0  0  0  0  0  0
   -6.9900   -5.2710   -8.1910 N   0  0  0  0  0  0  0  0  0  0  0  0
   -7.4410   -3.9950   -8.4910 N   0  0  0  0  0  0  0  0  0  0  0  0
   -8.5610   -3.7950   -7.8250 C   0  0  0  0  0  0  0  0  0  0  0  0
   -9.4230   -2.7540   -7.7340 C   0  0  0  0  0  0  0  0  0  0  0  0
  -10.5310   -2.8130   -6.9590 C   0  0  0  0  0  0  0  0  0  0  0  0
  -10.8280   -4.0130   -6.1930 C   0  0  0  0  0  0  0  0  0  0  0  0
   -9.9760   -5.0370   -6.2830 C   0  0  0  0  0  0  0  0  0  0  0  0
   -8.8570   -4.9220   -7.0920 N   0  0  0  0  0  0  0  0  0  0  0  0
   -6.6110   -6.4260   -1.9590 C   0  0  0  0  0  0  0  0  0  0  0  0
   -5.3530   -6.9420   -1.5930 C   0  0  0  0  0  0  0  0  0  0  0  0
   -5.3990   -7.4710    0.0010 S   0  0  0  0  0  0  0  0  0  0  0  0
   -7.0470   -6.9750    0.1100 C   0  0  0  0  0  0  0  0  0  0  0  0
   -7.5730   -6.4400   -0.9680 N   0  0  0  0  0  0  0  0  0  0  0  0
  1  2  1  0
  2  3  1  0
  2  4  1  0
  4  5  2  0
  4  6  1  0
  6  7  1  0
  7  8  1  0
  8  9  2  0
  9 10  1  0
 10 11  2  0
 11 12  1  0
 12 13  2  0
 13 14  1  0
 14 15  2  0
 15 16  1  0
  2 17  1  0
 17 18  2  0
 18 19  1  0
 19 20  1  0
 20 21  2  0
 16  8  1  0
 21 17  1  0
 16 11  1  0
M  END
>  <pair>  (159) 
x1594_0A-x1052_1A

>  <sucos>  (159) 
0.431219551547217

>  <ref_mols>  (159) 
x1594_0A,x1052_1A

>  <original SMILES>  (159) 
CC(C)(C(=O)NCc1nnc2ccccn12)c1cscn1

>  <cmpd_ids>  (159) 
ENAMINE:Z3833223125

>  <ref_url>  (159) 
https://github.com/stephwills/fragment_network_merges

>  <submitter_name>  (159) 
Steph Wills

>  <submitter_institution>  (159) 
University of Oxford

>  <submitter_email>  (159) 
stephanie.wills@balliol.ox.ac.uk

>  <generation_date>  (159) 
2023-09-06

>  <method>  (159) 
fragNetMergingIt3

>  <ref_pdb>  (159) 
x1594_0A,x1052_1A

$$$$
x0147-0A-x1140-0A-94
     RDKit          3D

 23 25  0  0  0  0  0  0  0  0999 V2000
   -9.7020   -8.1410   -4.7440 C   0  0  0  0  0  0  0  0  0  0  0  0
   -8.8870   -6.8810   -4.4810 C   0  0  1  0  0  0  0  0  0  0  0  0
   -8.2240   -6.8560   -3.0950 C   0  0  0  0  0  0  0  0  0  0  0  0
   -6.9250   -6.2260   -3.1000 N   0  0  0  0  0  0  0  0  0  0  0  0
   -6.6650   -4.8840   -2.7760 C   0  0  0  0  0  0  0  0  0  0  0  0
   -6.4410   -3.9560   -3.5560 O   0  0  0  0  0  0  0  0  0  0  0  0
   -6.6710   -4.6260   -1.2890 C   0  0  0  0  0  0  0  0  0  0  0  0
   -6.4810   -5.5810   -0.5450 O   0  0  0  0  0  0  0  0  0  0  0  0
   -6.8980   -3.3100   -0.8560 N   0  0  0  0  0  0  0  0  0  0  0  0
   -8.1510   -3.1570   -0.1490 C   0  0  0  0  0  0  0  0  0  0  0  0
   -5.9860   -2.3600   -1.2090 C   0  0  0  0  0  0  0  0  0  0  0  0
   -5.9890   -6.9480   -3.8960 C   0  0  0  0  0  0  0  0  0  0  0  0
   -6.5280   -7.2960   -5.1740 C   0  0  0  0  0  0  0  0  0  0  0  0
   -7.8580   -6.7620   -5.5370 N   0  0  0  0  0  0  0  0  0  0  0  0
   -7.9250   -5.8920   -6.6010 C   0  0  0  0  0  0  0  0  0  0  0  0
   -7.0730   -6.1530   -7.5380 N   0  0  0  0  0  0  0  0  0  0  0  0
   -6.9720   -5.3190   -8.5850 C   0  0  0  0  0  0  0  0  0  0  0  0
   -7.6790   -4.2090   -8.7260 C   0  0  0  0  0  0  0  0  0  0  0  0
   -8.6320   -3.9170   -7.7990 N   0  0  0  0  0  0  0  0  0  0  0  0
   -9.5540   -2.9230   -7.6690 C   0  0  0  0  0  0  0  0  0  0  0  0
  -10.2620   -3.1220   -6.5820 N   0  0  0  0  0  0  0  0  0  0  0  0
   -9.7850   -4.2740   -5.9860 N   0  0  0  0  0  0  0  0  0  0  0  0
   -8.7970   -4.7310   -6.7380 C   0  0  0  0  0  0  0  0  0  0  0  0
  2  1  1  6
  2  3  1  0
  3  4  1  0
  4  5  1  0
  5  6  2  0
  5  7  1  0
  7  8  2  0
  7  9  1  0
  9 10  1  0
  9 11  1  0
  4 12  1  0
 12 13  1  0
 13 14  1  0
 14 15  1  0
 15 16  2  0
 16 17  1  0
 17 18  2  0
 18 19  1  0
 19 20  1  0
 20 21  2  0
 21 22  1  0
 22 23  2  0
 14  2  1  0
 23 15  1  0
 23 19  1  0
M  END
>  <pair>  (160) 
x0147_0A-x1140_0A

>  <sucos>  (160) 
0.4321224462874629

>  <ref_mols>  (160) 
x0147_0A,x1140_0A

>  <original SMILES>  (160) 
CC1CN(C(=O)C(=O)N(C)C)CCN1c1nccn2cnnc12

>  <cmpd_ids>  (160) 
ENAMINE:Z3352240638

>  <ref_url>  (160) 
https://github.com/stephwills/fragment_network_merges

>  <submitter_name>  (160) 
Steph Wills

>  <submitter_institution>  (160) 
University of Oxford

>  <submitter_email>  (160) 
stephanie.wills@balliol.ox.ac.uk

>  <generation_date>  (160) 
2023-09-06

>  <method>  (160) 
fragNetMergingIt3

>  <ref_pdb>  (160) 
x0147_0A,x1140_0A

$$$$
x1020-0A-x0130-0A-24
     RDKit          3D

 21 22  0  0  0  0  0  0  0  0999 V2000
   -8.5400  -12.0580    3.6010 C   0  0  0  0  0  0  0  0  0  0  0  0
   -7.0770  -12.5020    3.5900 C   0  0  2  0  0  0  0  0  0  0  0  0
   -6.1700  -11.3330    4.0060 C   0  0  0  0  0  0  0  0  0  0  0  0
   -5.2290  -11.5540    4.7780 O   0  0  0  0  0  0  0  0  0  0  0  0
   -6.5190  -10.0940    3.4730 N   0  0  0  0  0  0  0  0  0  0  0  0
   -6.0020   -9.3670    2.3950 C   0  0  0  0  0  0  0  0  0  0  0  0
   -6.8100   -8.6500    1.5260 C   0  0  0  0  0  0  0  0  0  0  0  0
   -5.9460   -8.0580    0.5900 C   0  0  0  0  0  0  0  0  0  0  0  0
   -4.6660   -8.3570    0.8220 N   0  0  0  0  0  0  0  0  0  0  0  0
   -4.7070   -9.1560    1.9250 N   0  0  0  0  0  0  0  0  0  0  0  0
   -3.4280   -9.6380    2.4060 C   0  0  0  0  0  0  0  0  0  0  0  0
   -2.2910   -8.6060    2.3940 C   0  0  0  0  0  0  0  0  0  0  0  0
   -1.0020   -9.0970    2.9430 N   0  0  0  0  0  0  0  0  0  0  0  0
   -1.1450   -9.5900    4.3100 C   0  0  0  0  0  0  0  0  0  0  0  0
   -0.4210  -10.1640    2.1330 C   0  0  0  0  0  0  0  0  0  0  0  0
   -6.7220  -13.0790    2.2420 C   0  0  0  0  0  0  0  0  0  0  0  0
   -5.5740  -13.8450    2.1000 C   0  0  0  0  0  0  0  0  0  0  0  0
   -5.2740  -14.3520    0.8500 C   0  0  0  0  0  0  0  0  0  0  0  0
   -6.1140  -14.0840   -0.2250 C   0  0  0  0  0  0  0  0  0  0  0  0
   -7.2370  -13.3190   -0.0060 C   0  0  0  0  0  0  0  0  0  0  0  0
   -7.5620  -12.8120    1.2000 N   0  0  0  0  0  0  0  0  0  0  0  0
  2  1  1  6
  2  3  1  0
  3  4  2  0
  3  5  1  0
  5  6  1  0
  6  7  2  0
  7  8  1  0
  8  9  2  0
  9 10  1  0
 10 11  1  0
 11 12  1  0
 12 13  1  0
 13 14  1  0
 13 15  1  0
  2 16  1  0
 16 17  2  0
 17 18  1  0
 18 19  2  0
 19 20  1  0
 20 21  2  0
 10  6  1  0
 21 16  1  0
M  END
>  <pair>  (161) 
x1020_0A-x0130_0A

>  <sucos>  (161) 
0.4355471548866238

>  <ref_mols>  (161) 
x1020_0A,x0130_0A

>  <original SMILES>  (161) 
CC(C(=O)Nc1ccnn1CCN(C)C)c1ccccn1

>  <cmpd_ids>  (161) 
ENAMINE:Z2232314496

>  <ref_url>  (161) 
https://github.com/stephwills/fragment_network_merges

>  <submitter_name>  (161) 
Steph Wills

>  <submitter_institution>  (161) 
University of Oxford

>  <submitter_email>  (161) 
stephanie.wills@balliol.ox.ac.uk

>  <generation_date>  (161) 
2023-09-06

>  <method>  (161) 
fragNetMergingIt3

>  <ref_pdb>  (161) 
x1020_0A,x0130_0A

$$$$
x1594-0A-x2021-0A-192
     RDKit          3D

 22 23  0  0  0  0  0  0  0  0999 V2000
   -5.4910   -0.5330   -2.1450 C   0  0  0  0  0  0  0  0  0  0  0  0
   -5.8980   -0.8420   -0.7080 C   0  0  0  0  0  0  0  0  0  0  0  0
   -5.9300   -2.2600   -0.4890 O   0  0  0  0  0  0  0  0  0  0  0  0
   -6.6020   -3.0000   -1.5240 C   0  0  0  0  0  0  0  0  0  0  0  0
   -5.9730   -4.3600   -1.8170 C   0  0  0  0  0  0  0  0  0  0  0  0
   -6.9950   -5.3210   -2.0840 O   0  0  0  0  0  0  0  0  0  0  0  0
   -7.2500   -5.3740   -3.4120 C   0  0  0  0  0  0  0  0  0  0  0  0
   -7.5390   -6.8200   -3.8120 C   0  0  0  0  0  0  0  0  0  0  0  0
   -6.7410   -7.3090   -4.9410 N   0  0  0  0  0  0  0  0  0  0  0  0
   -5.9470   -8.4510   -4.4900 C   0  0  0  0  0  0  0  0  0  0  0  0
   -7.2350   -7.2850   -6.3030 C   0  0  0  0  0  0  0  0  0  0  0  0
   -7.4610   -8.3600   -6.8670 O   0  0  0  0  0  0  0  0  0  0  0  0
   -7.5070   -6.0370   -6.9900 C   0  0  0  0  0  0  0  0  0  0  0  0
   -6.7790   -5.3690   -7.8950 N   0  0  0  0  0  0  0  0  0  0  0  0
   -7.4570   -4.2050   -8.2320 N   0  0  0  0  0  0  0  0  0  0  0  0
   -8.5750   -4.1860   -7.5340 C   0  0  0  0  0  0  0  0  0  0  0  0
   -9.6580   -3.2580   -7.4140 C   0  0  0  0  0  0  0  0  0  0  0  0
   -9.7010   -1.9500   -8.0530 C   0  0  0  0  0  0  0  0  0  0  0  0
  -10.6990   -3.5460   -6.6140 C   0  0  0  0  0  0  0  0  0  0  0  0
  -10.7730   -4.7610   -5.8570 C   0  0  0  0  0  0  0  0  0  0  0  0
   -9.7480   -5.6140   -5.9380 C   0  0  0  0  0  0  0  0  0  0  0  0
   -8.6590   -5.3270   -6.7640 N   0  0  0  0  0  0  0  0  0  0  0  0
  1  2  1  0
  2  3  1  0
  3  4  1  0
  4  5  1  0
  5  6  1  0
  6  7  1  0
  7  8  1  0
  8  9  1  0
  9 10  1  0
  9 11  1  0
 11 12  2  0
 11 13  1  0
 13 14  2  0
 14 15  1  0
 15 16  2  0
 16 17  1  0
 17 18  1  0
 17 19  2  0
 19 20  1  0
 20 21  2  0
 21 22  1  0
 22 13  1  0
 22 16  1  0
M  END
>  <pair>  (162) 
x1594_0A-x2021_0A

>  <sucos>  (162) 
0.43595613414420226

>  <ref_mols>  (162) 
x1594_0A,x2021_0A

>  <original SMILES>  (162) 
CCOCCOCCN(C)C(=O)c1nnc2c(C)cccn12

>  <cmpd_ids>  (162) 
ENAMINE:Z4291030780

>  <ref_url>  (162) 
https://github.com/stephwills/fragment_network_merges

>  <submitter_name>  (162) 
Steph Wills

>  <submitter_institution>  (162) 
University of Oxford

>  <submitter_email>  (162) 
stephanie.wills@balliol.ox.ac.uk

>  <generation_date>  (162) 
2023-09-06

>  <method>  (162) 
fragNetMergingIt3

>  <ref_pdb>  (162) 
x1594_0A,x2021_0A

$$$$
x1052-1A-x1140-0A-5
     RDKit          3D

 22 24  0  0  0  0  0  0  0  0999 V2000
   -6.0550   -3.6110   -1.9910 C   0  0  0  0  0  0  0  0  0  0  0  0
   -6.5830   -4.8830   -1.4870 C   0  0  0  0  0  0  0  0  0  0  0  0
   -6.3300   -6.1900   -1.9450 C   0  0  0  0  0  0  0  0  0  0  0  0
   -7.1110   -6.9780   -1.1170 C   0  0  0  0  0  0  0  0  0  0  0  0
   -7.4030   -8.4240   -0.9820 C   0  0  0  0  0  0  0  0  0  0  0  0
   -7.8830   -9.0570   -2.2990 C   0  0  0  0  0  0  0  0  0  0  0  0
   -7.8310   -8.1630   -3.4410 N   0  0  0  0  0  0  0  0  0  0  0  0
   -6.6360   -7.6800   -3.9490 C   0  0  0  0  0  0  0  0  0  0  0  0
   -6.5710   -6.6790   -4.6600 O   0  0  0  0  0  0  0  0  0  0  0  0
   -5.3980   -8.4850   -3.5850 C   0  0  0  0  0  0  0  0  0  0  0  0
   -4.9710   -8.5020   -2.1220 C   0  0  0  0  0  0  0  0  0  0  0  0
   -5.6080   -9.3620   -1.2090 C   0  0  0  0  0  0  0  0  0  0  0  0
   -5.2260   -9.4050    0.1340 C   0  0  0  0  0  0  0  0  0  0  0  0
   -4.2000   -8.5990    0.5900 C   0  0  0  0  0  0  0  0  0  0  0  0
   -3.5510   -7.7390   -0.2930 C   0  0  0  0  0  0  0  0  0  0  0  0
   -3.9280   -7.6790   -1.6420 C   0  0  0  0  0  0  0  0  0  0  0  0
   -2.5320   -6.9370    0.1160 O   0  0  0  0  0  0  0  0  0  0  0  0
   -1.8880   -7.4920    1.2620 C   0  0  0  0  0  0  0  0  0  0  0  0
   -2.8900   -7.7960    2.3610 C   0  0  0  0  0  0  0  0  0  0  0  0
   -3.8890   -8.7190    1.9210 O   0  0  0  0  0  0  0  0  0  0  0  0
   -7.7520   -6.1930   -0.2280 O   0  0  0  0  0  0  0  0  0  0  0  0
   -7.4300   -4.8780   -0.4590 N   0  0  0  0  0  0  0  0  0  0  0  0
  1  2  1  0
  2  3  1  0
  3  4  2  0
  4  5  1  0
  5  6  1  0
  6  7  1  0
  7  8  1  0
  8  9  2  0
  8 10  1  0
 10 11  1  0
 11 12  2  0
 12 13  1  0
 13 14  2  0
 14 15  1  0
 15 16  2  0
 15 17  1  0
 17 18  1  0
 18 19  1  0
 19 20  1  0
  4 21  1  0
 21 22  1  0
 22  2  2  0
 16 11  1  0
 20 14  1  0
M  END
>  <pair>  (163) 
x1052_1A-x1140_0A

>  <sucos>  (163) 
0.4379847064855104

>  <ref_mols>  (163) 
x1052_1A,x1140_0A

>  <original SMILES>  (163) 
Cc1cc(CCNC(=O)Cc2ccc3c(c2)OCCO3)on1

>  <cmpd_ids>  (163) 
ENAMINE:Z2078494079

>  <ref_url>  (163) 
https://github.com/stephwills/fragment_network_merges

>  <submitter_name>  (163) 
Steph Wills

>  <submitter_institution>  (163) 
University of Oxford

>  <submitter_email>  (163) 
stephanie.wills@balliol.ox.ac.uk

>  <generation_date>  (163) 
2023-09-06

>  <method>  (163) 
fragNetMergingIt3

>  <ref_pdb>  (163) 
x1052_1A,x1140_0A

$$$$
x0147-0A-x1052-1A-131
     RDKit          3D

 23 26  0  0  0  0  0  0  0  0999 V2000
   -6.0910   -5.3220   -1.7820 C   0  0  0  0  0  0  0  0  0  0  0  0
   -6.2620   -6.3960   -2.6750 C   0  0  0  0  0  0  0  0  0  0  0  0
   -6.9730   -7.4640   -2.2360 C   0  0  0  0  0  0  0  0  0  0  0  0
   -7.2530   -8.6640   -3.1260 C   0  0  0  0  0  0  0  0  0  0  0  0
   -8.6830   -9.1080   -2.9150 C   0  0  0  0  0  0  0  0  0  0  0  0
   -9.6220   -8.9140   -4.0550 N   0  0  0  0  0  0  0  0  0  0  0  0
  -10.6870   -7.8920   -3.8380 C   0  0  0  0  0  0  0  0  0  0  0  0
  -10.8230   -6.9630   -4.8180 C   0  0  0  0  0  0  0  0  0  0  0  0
   -9.6570   -6.3800   -5.2870 C   0  0  0  0  0  0  0  0  0  0  0  0
   -9.5990   -5.2440   -6.0930 C   0  0  0  0  0  0  0  0  0  0  0  0
  -10.3840   -4.1600   -6.1490 N   0  0  0  0  0  0  0  0  0  0  0  0
   -9.8590   -3.3110   -7.1110 N   0  0  0  0  0  0  0  0  0  0  0  0
   -8.8070   -3.9290   -7.5730 C   0  0  0  0  0  0  0  0  0  0  0  0
   -7.8430   -3.5250   -8.5850 C   0  0  0  0  0  0  0  0  0  0  0  0
   -6.8340   -4.2680   -8.9420 N   0  0  0  0  0  0  0  0  0  0  0  0
   -6.7210   -5.4810   -8.3120 C   0  0  0  0  0  0  0  0  0  0  0  0
   -7.5440   -5.9120   -7.3740 C   0  0  0  0  0  0  0  0  0  0  0  0
   -8.6100   -5.1180   -6.9930 N   0  0  0  0  0  0  0  0  0  0  0  0
   -8.7260   -7.4730   -5.8470 C   0  0  0  0  0  0  0  0  0  0  0  0
   -9.0230   -8.9030   -5.3810 C   0  0  0  0  0  0  0  0  0  0  0  0
   -7.4890   -7.4870   -0.9480 C   0  0  0  0  0  0  0  0  0  0  0  0
   -7.2720   -6.4080   -0.1460 C   0  0  0  0  0  0  0  0  0  0  0  0
   -6.5890   -5.3230   -0.5370 N   0  0  0  0  0  0  0  0  0  0  0  0
  1  2  2  0
  2  3  1  0
  3  4  1  0
  4  5  1  0
  5  6  1  0
  6  7  1  0
  7  8  1  0
  8  9  1  0
  9 10  1  0
 10 11  2  0
 11 12  1  0
 12 13  2  0
 13 14  1  0
 14 15  2  0
 15 16  1  0
 16 17  2  0
 17 18  1  0
  9 19  1  0
 19 20  1  0
  3 21  2  0
 21 22  1  0
 22 23  2  0
 23  1  1  0
 20  6  1  0
 18 10  1  0
 18 13  1  0
M  END
>  <pair>  (164) 
x0147_0A-x1052_1A

>  <sucos>  (164) 
0.43847103547071553

>  <ref_mols>  (164) 
x0147_0A,x1052_1A

>  <original SMILES>  (164) 
c1cc(CCN2CCC(c3nnc4cnccn34)CC2)ccn1

>  <cmpd_ids>  (164) 
ENAMINE:Z2169006152

>  <ref_url>  (164) 
https://github.com/stephwills/fragment_network_merges

>  <submitter_name>  (164) 
Steph Wills

>  <submitter_institution>  (164) 
University of Oxford

>  <submitter_email>  (164) 
stephanie.wills@balliol.ox.ac.uk

>  <generation_date>  (164) 
2023-09-06

>  <method>  (164) 
fragNetMergingIt3

>  <ref_pdb>  (164) 
x0147_0A,x1052_1A

$$$$
x1052-1A-x1594-0A-34
     RDKit          3D

 22 24  0  0  0  0  0  0  0  0999 V2000
   -3.6710   -7.2530   -0.8790 C   0  0  0  0  0  0  0  0  0  0  0  0
   -5.0690   -6.9230   -1.2060 C   0  0  0  0  0  0  0  0  0  0  0  0
   -5.8040   -6.9750   -2.3460 C   0  0  0  0  0  0  0  0  0  0  0  0
   -7.1080   -6.5340   -1.9720 C   0  0  0  0  0  0  0  0  0  0  0  0
   -8.2190   -6.4630   -2.8530 N   0  0  0  0  0  0  0  0  0  0  0  0
   -9.1670   -5.3700   -2.6440 C   0  0  0  0  0  0  0  0  0  0  0  0
   -8.1520   -7.2310   -4.0300 C   0  0  0  0  0  0  0  0  0  0  0  0
   -8.6170   -8.3670   -4.1910 O   0  0  0  0  0  0  0  0  0  0  0  0
   -7.4410   -6.6020   -5.2190 C   0  0  2  0  0  0  0  0  0  0  0  0
   -7.4520   -5.1010   -4.9590 C   0  0  0  0  0  0  0  0  0  0  0  0
   -7.8470   -6.8930   -6.6700 C   0  0  0  0  0  0  0  0  0  0  0  0
   -7.9600   -5.6360   -7.3390 N   0  0  0  0  0  0  0  0  0  0  0  0
   -7.0890   -5.1960   -8.2730 N   0  0  0  0  0  0  0  0  0  0  0  0
   -7.5010   -4.0010   -8.6210 N   0  0  0  0  0  0  0  0  0  0  0  0
   -8.6310   -3.7340   -7.8820 C   0  0  0  0  0  0  0  0  0  0  0  0
   -9.4820   -2.6160   -7.8220 C   0  0  0  0  0  0  0  0  0  0  0  0
  -10.5810   -2.6450   -6.9540 C   0  0  0  0  0  0  0  0  0  0  0  0
  -10.8360   -3.7550   -6.1550 C   0  0  0  0  0  0  0  0  0  0  0  0
  -10.0020   -4.8600   -6.1980 C   0  0  0  0  0  0  0  0  0  0  0  0
   -8.9270   -4.7880   -7.0710 C   0  0  0  0  0  0  0  0  0  0  0  0
   -7.1230   -6.2180   -0.6710 N   0  0  0  0  0  0  0  0  0  0  0  0
   -5.8590   -6.4680   -0.2030 O   0  0  0  0  0  0  0  0  0  0  0  0
  1  2  1  0
  2  3  2  0
  3  4  1  0
  4  5  1  0
  5  6  1  0
  5  7  1  0
  7  8  2  0
  7  9  1  0
  9 10  1  1
  9 11  1  0
 11 12  1  0
 12 13  1  0
 13 14  2  0
 14 15  1  0
 15 16  2  0
 16 17  1  0
 17 18  2  0
 18 19  1  0
 19 20  2  0
  4 21  2  0
 21 22  1  0
 22  2  1  0
 20 12  1  0
 20 15  1  0
M  END
>  <pair>  (165) 
x1052_1A-x1594_0A

>  <sucos>  (165) 
0.44026849776337457

>  <ref_mols>  (165) 
x1052_1A,x1594_0A

>  <original SMILES>  (165) 
Cc1cc(N(C)C(=O)C(C)Cn2nnc3ccccc32)no1

>  <cmpd_ids>  (165) 
ENAMINE:Z4033267528

>  <ref_url>  (165) 
https://github.com/stephwills/fragment_network_merges

>  <submitter_name>  (165) 
Steph Wills

>  <submitter_institution>  (165) 
University of Oxford

>  <submitter_email>  (165) 
stephanie.wills@balliol.ox.ac.uk

>  <generation_date>  (165) 
2023-09-06

>  <method>  (165) 
fragNetMergingIt3

>  <ref_pdb>  (165) 
x1052_1A,x1594_0A

$$$$
x0147-0A-x1052-1A-89
     RDKit          3D

 23 26  0  0  0  0  0  0  0  0999 V2000
   -9.1660   -8.9680   -6.6550 O   0  0  0  0  0  0  0  0  0  0  0  0
   -8.9910   -8.0650   -5.8840 C   0  0  0  0  0  0  0  0  0  0  0  0
   -9.8270   -6.9030   -5.6740 N   0  0  0  0  0  0  0  0  0  0  0  0
   -9.7280   -5.6560   -6.3100 C   0  0  0  0  0  0  0  0  0  0  0  0
  -10.5190   -4.5770   -6.2640 N   0  0  0  0  0  0  0  0  0  0  0  0
   -9.9920   -3.5870   -7.0700 N   0  0  0  0  0  0  0  0  0  0  0  0
   -8.9160   -4.1060   -7.5650 C   0  0  0  0  0  0  0  0  0  0  0  0
   -7.9140   -3.5140   -8.5160 C   0  0  0  0  0  0  0  0  0  0  0  0
   -6.8950   -4.1860   -8.9020 N   0  0  0  0  0  0  0  0  0  0  0  0
   -6.7560   -5.4740   -8.4160 C   0  0  0  0  0  0  0  0  0  0  0  0
   -7.5930   -6.0690   -7.5740 C   0  0  0  0  0  0  0  0  0  0  0  0
   -8.6950   -5.3690   -7.1410 N   0  0  0  0  0  0  0  0  0  0  0  0
   -7.8420   -8.2430   -5.0430 C   0  0  0  0  0  0  0  0  0  0  0  0
   -6.7240   -9.0700   -4.9900 C   0  0  0  0  0  0  0  0  0  0  0  0
   -5.9560   -8.7770   -3.9260 C   0  0  0  0  0  0  0  0  0  0  0  0
   -6.6450   -7.7530   -3.3330 C   0  0  0  0  0  0  0  0  0  0  0  0
   -6.6460   -6.8680   -2.2560 C   0  0  0  0  0  0  0  0  0  0  0  0
   -6.1510   -5.5960   -2.4520 C   0  0  0  0  0  0  0  0  0  0  0  0
   -6.2330   -4.7570   -1.4520 C   0  0  0  0  0  0  0  0  0  0  0  0
   -6.7580   -5.0820   -0.2790 N   0  0  0  0  0  0  0  0  0  0  0  0
   -7.2160   -6.3310   -0.0850 C   0  0  0  0  0  0  0  0  0  0  0  0
   -7.1820   -7.2640   -1.0530 C   0  0  0  0  0  0  0  0  0  0  0  0
   -7.7650   -7.4420   -4.0090 O   0  0  0  0  0  0  0  0  0  0  0  0
  1  2  2  0
  2  3  1  0
  3  4  1  0
  4  5  2  0
  5  6  1  0
  6  7  2  0
  7  8  1  0
  8  9  2  0
  9 10  1  0
 10 11  2  0
 11 12  1  0
  2 13  1  0
 13 14  2  0
 14 15  1  0
 15 16  2  0
 16 17  1  0
 17 18  2  0
 18 19  1  0
 19 20  2  0
 20 21  1  0
 21 22  2  0
 16 23  1  0
 12  4  1  0
 23 13  1  0
 12  7  1  0
 22 17  1  0
M  END
>  <pair>  (166) 
x0147_0A-x1052_1A

>  <sucos>  (166) 
0.45021963008258364

>  <ref_mols>  (166) 
x0147_0A,x1052_1A

>  <original SMILES>  (166) 
O=C(Nc1nnc2cnccn12)c1ccc(-c2ccncc2)o1

>  <cmpd_ids>  (166) 
ENAMINE:PV-002410109751

>  <ref_url>  (166) 
https://github.com/stephwills/fragment_network_merges

>  <submitter_name>  (166) 
Steph Wills

>  <submitter_institution>  (166) 
University of Oxford

>  <submitter_email>  (166) 
stephanie.wills@balliol.ox.ac.uk

>  <generation_date>  (166) 
2023-09-06

>  <method>  (166) 
fragNetMergingIt3

>  <ref_pdb>  (166) 
x0147_0A,x1052_1A

$$$$
x1020-0A-x0130-0A-182
     RDKit          3D

 19 20  0  0  0  0  0  0  0  0999 V2000
   -0.6030   -8.1980    2.4940 N   0  0  0  0  0  0  0  0  0  0  0  0
   -1.9500   -8.7520    2.4990 C   0  0  0  0  0  0  0  0  0  0  0  0
   -2.9190   -8.1170    1.4860 C   0  0  0  0  0  0  0  0  0  0  0  0
   -4.2350   -8.6610    1.6520 N   0  0  0  0  0  0  0  0  0  0  0  0
   -4.6030   -9.5380    2.5860 C   0  0  0  0  0  0  0  0  0  0  0  0
   -6.0470   -9.8660    2.4420 C   0  0  0  0  0  0  0  0  0  0  0  0
   -6.8440  -10.7100    3.1740 N   0  0  0  0  0  0  0  0  0  0  0  0
   -6.4180  -11.6390    4.0290 C   0  0  0  0  0  0  0  0  0  0  0  0
   -5.4200  -11.5770    4.7450 O   0  0  0  0  0  0  0  0  0  0  0  0
   -7.2730  -12.7510    4.0310 C   0  0  0  0  0  0  0  0  0  0  0  0
   -8.5530  -12.6330    3.4680 C   0  0  0  0  0  0  0  0  0  0  0  0
   -9.4030  -13.6660    3.0860 N   0  0  0  0  0  0  0  0  0  0  0  0
  -10.1410  -14.4150    3.9920 C   0  0  0  0  0  0  0  0  0  0  0  0
  -10.3920  -15.8170    3.4590 C   0  0  0  0  0  0  0  0  0  0  0  0
  -10.0720  -15.6950    1.6770 S   0  0  0  0  0  0  0  0  0  0  0  0
   -9.5970  -14.0100    1.7670 C   0  0  0  0  0  0  0  0  0  0  0  0
   -9.4710  -13.2920    0.7900 O   0  0  0  0  0  0  0  0  0  0  0  0
   -6.3570   -9.0440    1.3220 C   0  0  0  0  0  0  0  0  0  0  0  0
   -5.2890   -8.3310    0.8520 N   0  0  0  0  0  0  0  0  0  0  0  0
  1  2  1  0
  2  3  1  0
  3  4  1  0
  4  5  1  0
  5  6  2  0
  6  7  1  0
  7  8  1  0
  8  9  2  0
  8 10  1  0
 10 11  1  0
 11 12  1  0
 12 13  1  0
 13 14  1  0
 14 15  1  0
 15 16  1  0
 16 17  2  0
  6 18  1  0
 18 19  2  0
 19  4  1  0
 16 12  1  0
M  END
>  <pair>  (167) 
x1020_0A-x0130_0A

>  <sucos>  (167) 
0.4600622351131079

>  <ref_mols>  (167) 
x1020_0A,x0130_0A

>  <original SMILES>  (167) 
NCCn1cc(NC(=O)CCN2CCSC2=O)cn1

>  <cmpd_ids>  (167) 
ENAMINE:Z3700588165

>  <ref_url>  (167) 
https://github.com/stephwills/fragment_network_merges

>  <submitter_name>  (167) 
Steph Wills

>  <submitter_institution>  (167) 
University of Oxford

>  <submitter_email>  (167) 
stephanie.wills@balliol.ox.ac.uk

>  <generation_date>  (167) 
2023-09-06

>  <method>  (167) 
fragNetMergingIt3

>  <ref_pdb>  (167) 
x1020_0A,x0130_0A

$$$$
x1594-0A-x1052-1A-143
     RDKit          3D

 23 26  0  0  0  0  0  0  0  0999 V2000
   -5.5580   -9.4920   -2.8010 O   0  0  0  0  0  0  0  0  0  0  0  0
   -5.9370   -8.2930   -3.5120 S   0  0  0  0  0  6  0  0  0  0  0  0
   -5.1240   -7.6380   -4.4880 O   0  0  0  0  0  0  0  0  0  0  0  0
   -6.3210   -7.1400   -2.2560 C   0  0  0  0  0  0  0  0  0  0  0  0
   -6.3280   -5.6330   -2.0940 C   0  0  0  0  0  0  0  0  0  0  0  0
   -6.7910   -5.2210   -0.8690 N   0  0  0  0  0  0  0  0  0  0  0  0
   -7.0950   -6.2930   -0.1510 C   0  0  0  0  0  0  0  0  0  0  0  0
   -6.8620   -7.8400   -0.8210 S   0  0  0  0  0  0  0  0  0  0  0  0
   -7.4930   -8.5440   -4.1950 N   0  0  0  0  0  0  0  0  0  0  0  0
   -7.5570   -9.1440   -5.5540 C   0  0  0  0  0  0  0  0  0  0  0  0
   -7.7970   -8.1620   -6.4770 C   0  0  0  0  0  0  0  0  0  0  0  0
   -7.1850   -6.7810   -6.1500 C   0  0  0  0  0  0  0  0  0  0  0  0
   -7.6290   -5.5790   -6.9910 C   0  0  0  0  0  0  0  0  0  0  0  0
   -6.9110   -5.0310   -8.0910 N   0  0  0  0  0  0  0  0  0  0  0  0
   -7.5620   -3.9500   -8.5550 N   0  0  0  0  0  0  0  0  0  0  0  0
   -8.6650   -3.7910   -7.7950 C   0  0  0  0  0  0  0  0  0  0  0  0
   -9.6600   -2.8080   -7.8390 C   0  0  0  0  0  0  0  0  0  0  0  0
  -10.7060   -2.9390   -6.9040 C   0  0  0  0  0  0  0  0  0  0  0  0
  -10.7600   -4.0140   -5.9490 C   0  0  0  0  0  0  0  0  0  0  0  0
   -9.7460   -4.9130   -5.9600 C   0  0  0  0  0  0  0  0  0  0  0  0
   -8.7380   -4.8180   -6.8290 N   0  0  0  0  0  0  0  0  0  0  0  0
   -7.5260   -6.3520   -4.7190 C   0  0  0  0  0  0  0  0  0  0  0  0
   -8.2560   -7.2910   -4.1180 C   0  0  0  0  0  0  0  0  0  0  0  0
  1  2  2  0
  2  3  2  0
  2  4  1  0
  4  5  2  0
  5  6  1  0
  6  7  2  0
  7  8  1  0
  2  9  1  0
  9 10  1  0
 10 11  1  0
 11 12  1  0
 12 13  1  0
 13 14  2  0
 14 15  1  0
 15 16  2  0
 16 17  1  0
 17 18  2  0
 18 19  1  0
 19 20  2  0
 20 21  1  0
 12 22  1  0
 22 23  1  0
  8  4  1  0
 23  9  1  0
 21 13  1  0
 21 16  1  0
M  END
>  <pair>  (168) 
x1594_0A-x1052_1A

>  <sucos>  (168) 
0.4605394715835504

>  <ref_mols>  (168) 
x1594_0A,x1052_1A

>  <original SMILES>  (168) 
O=S(=O)(c1cncs1)N1CCC(c2nnc3ccccn23)CC1

>  <cmpd_ids>  (168) 
ENAMINE:Z3656150994

>  <ref_url>  (168) 
https://github.com/stephwills/fragment_network_merges

>  <submitter_name>  (168) 
Steph Wills

>  <submitter_institution>  (168) 
University of Oxford

>  <submitter_email>  (168) 
stephanie.wills@balliol.ox.ac.uk

>  <generation_date>  (168) 
2023-09-06

>  <method>  (168) 
fragNetMergingIt3

>  <ref_pdb>  (168) 
x1594_0A,x1052_1A

$$$$
x1140-0A-x1594-0A-18
     RDKit          3D

 22 25  0  0  0  0  0  0  0  0999 V2000
   -6.4070   -4.9370   -3.4950 C   0  0  0  0  0  0  0  0  0  0  0  0
   -5.6400   -6.1260   -3.7170 O   0  0  0  0  0  0  0  0  0  0  0  0
   -5.3630   -6.8170   -2.5780 C   0  0  0  0  0  0  0  0  0  0  0  0
   -4.0920   -6.9230   -1.9890 C   0  0  0  0  0  0  0  0  0  0  0  0
   -3.9340   -7.6090   -0.8210 C   0  0  0  0  0  0  0  0  0  0  0  0
   -4.9960   -8.2120   -0.2060 C   0  0  0  0  0  0  0  0  0  0  0  0
   -6.3060   -8.1480   -0.7760 C   0  0  0  0  0  0  0  0  0  0  0  0
   -6.5140   -7.4060   -2.0330 C   0  0  0  0  0  0  0  0  0  0  0  0
   -7.9070   -7.1880   -2.8270 C   0  0  0  0  0  0  0  0  0  0  0  0
   -7.8630   -6.7120   -4.3190 N   0  0  0  0  0  0  0  0  0  0  0  0
   -8.5530   -5.6550   -5.1570 C   0  0  0  0  0  0  0  0  0  0  0  0
   -9.6440   -4.8780   -4.8230 C   0  0  0  0  0  0  0  0  0  0  0  0
  -10.1900   -3.8290   -5.7240 C   0  0  0  0  0  0  0  0  0  0  0  0
   -9.6580   -3.5590   -6.9260 C   0  0  0  0  0  0  0  0  0  0  0  0
   -8.5610   -4.3220   -7.3570 C   0  0  0  0  0  0  0  0  0  0  0  0
   -7.8710   -4.2890   -8.4750 N   0  0  0  0  0  0  0  0  0  0  0  0
   -6.9190   -5.2640   -8.4020 N   0  0  0  0  0  0  0  0  0  0  0  0
   -7.0470   -5.8610   -7.2400 C   0  0  0  0  0  0  0  0  0  0  0  0
   -8.0620   -5.3260   -6.4920 N   0  0  0  0  0  0  0  0  0  0  0  0
   -4.5720   -8.8230    0.9570 O   0  0  0  0  0  0  0  0  0  0  0  0
   -3.2780   -8.1820    1.1230 C   0  0  0  0  0  0  0  0  0  0  0  0
   -2.7570   -7.7650   -0.1460 O   0  0  0  0  0  0  0  0  0  0  0  0
  1  2  1  0
  2  3  1  0
  3  4  2  0
  4  5  1  0
  5  6  2  0
  6  7  1  0
  7  8  2  0
  8  9  1  0
  9 10  1  0
 10 11  1  0
 11 12  2  0
 12 13  1  0
 13 14  2  0
 14 15  1  0
 15 16  2  0
 16 17  1  0
 17 18  2  0
 18 19  1  0
  6 20  1  0
 20 21  1  0
 21 22  1  0
  8  3  1  0
 19 11  1  0
 22  5  1  0
 19 15  1  0
M  END
>  <pair>  (169) 
x1140_0A-x1594_0A

>  <sucos>  (169) 
0.4633654849580182

>  <ref_mols>  (169) 
x1140_0A,x1594_0A

>  <original SMILES>  (169) 
COc1cc2c(cc1CNc1cccc3nncn13)OCO2

>  <cmpd_ids>  (169) 
ENAMINE:PV-003768228483

>  <ref_url>  (169) 
https://github.com/stephwills/fragment_network_merges

>  <submitter_name>  (169) 
Steph Wills

>  <submitter_institution>  (169) 
University of Oxford

>  <submitter_email>  (169) 
stephanie.wills@balliol.ox.ac.uk

>  <generation_date>  (169) 
2023-09-06

>  <method>  (169) 
fragNetMergingIt3

>  <ref_pdb>  (169) 
x1140_0A,x1594_0A

$$$$
x0147-0A-x1052-1A-23
     RDKit          3D

 19 21  0  0  0  0  0  0  0  0999 V2000
   -9.2730   -8.0950   -4.6080 O   0  0  0  0  0  0  0  0  0  0  0  0
   -9.1490   -6.9000   -4.8610 C   0  0  0  0  0  0  0  0  0  0  0  0
   -7.8790   -6.1010   -4.5230 C   0  0  0  0  0  0  0  0  0  0  0  0
   -6.7130   -6.8970   -3.9080 C   0  0  0  0  0  0  0  0  0  0  0  0
   -6.4830   -6.5220   -2.4850 C   0  0  0  0  0  0  0  0  0  0  0  0
   -6.7920   -5.2970   -1.8590 C   0  0  0  0  0  0  0  0  0  0  0  0
   -6.4780   -5.3000   -0.5780 N   0  0  0  0  0  0  0  0  0  0  0  0
   -5.9340   -6.5510   -0.3290 O   0  0  0  0  0  0  0  0  0  0  0  0
   -5.9370   -7.2720   -1.4710 C   0  0  0  0  0  0  0  0  0  0  0  0
  -10.0990   -6.0940   -5.4780 N   0  0  0  0  0  0  0  0  0  0  0  0
   -9.7340   -5.0850   -6.3110 C   0  0  0  0  0  0  0  0  0  0  0  0
  -10.3700   -3.9240   -6.4340 N   0  0  0  0  0  0  0  0  0  0  0  0
   -9.6860   -3.1680   -7.3560 N   0  0  0  0  0  0  0  0  0  0  0  0
   -8.6790   -3.9100   -7.7400 C   0  0  0  0  0  0  0  0  0  0  0  0
   -7.6740   -3.6110   -8.6560 C   0  0  0  0  0  0  0  0  0  0  0  0
   -6.7140   -4.4340   -8.9630 N   0  0  0  0  0  0  0  0  0  0  0  0
   -6.7200   -5.6500   -8.3410 C   0  0  0  0  0  0  0  0  0  0  0  0
   -7.6420   -6.0130   -7.4510 C   0  0  0  0  0  0  0  0  0  0  0  0
   -8.6510   -5.1140   -7.1390 N   0  0  0  0  0  0  0  0  0  0  0  0
  1  2  2  0
  2  3  1  0
  3  4  1  0
  4  5  1  0
  5  6  1  0
  6  7  2  0
  7  8  1  0
  8  9  1  0
  2 10  1  0
 10 11  1  0
 11 12  2  0
 12 13  1  0
 13 14  2  0
 14 15  1  0
 15 16  2  0
 16 17  1  0
 17 18  2  0
 18 19  1  0
  9  5  2  0
 19 11  1  0
 19 14  1  0
M  END
>  <pair>  (170) 
x0147_0A-x1052_1A

>  <sucos>  (170) 
0.4658090999228086

>  <ref_mols>  (170) 
x0147_0A,x1052_1A

>  <original SMILES>  (170) 
O=C(CCc1cnoc1)Nc1nnc2cnccn12

>  <cmpd_ids>  (170) 
ENAMINE:PV-002178427073

>  <ref_url>  (170) 
https://github.com/stephwills/fragment_network_merges

>  <submitter_name>  (170) 
Steph Wills

>  <submitter_institution>  (170) 
University of Oxford

>  <submitter_email>  (170) 
stephanie.wills@balliol.ox.ac.uk

>  <generation_date>  (170) 
2023-09-06

>  <method>  (170) 
fragNetMergingIt3

>  <ref_pdb>  (170) 
x0147_0A,x1052_1A

$$$$
x1140-0A-x1594-0A-96
     RDKit          3D

 24 26  0  0  0  0  0  0  0  0999 V2000
   -7.1390   -3.4000   -0.7480 C   0  0  0  0  0  0  0  0  0  0  0  0
   -6.7640   -4.6820   -1.1760 C   0  0  0  0  0  0  0  0  0  0  0  0
   -7.1360   -4.9050   -2.9030 S   0  0  0  0  0  6  0  0  0  0  0  0
   -6.2620   -4.0090   -3.6260 O   0  0  0  0  0  0  0  0  0  0  0  0
   -8.5680   -4.7770   -3.0400 O   0  0  0  0  0  0  0  0  0  0  0  0
   -6.6780   -6.5370   -3.2320 N   0  0  0  0  0  0  0  0  0  0  0  0
   -5.2490   -6.8840   -3.1100 C   0  0  0  0  0  0  0  0  0  0  0  0
   -7.6380   -7.6550   -2.9270 C   0  0  0  0  0  0  0  0  0  0  0  0
   -8.8310   -7.2420   -2.4290 C   0  0  0  0  0  0  0  0  0  0  0  0
   -9.9570   -7.0410   -3.4220 C   0  0  0  0  0  0  0  0  0  0  0  0
   -9.4620   -6.9350   -4.8060 N   0  0  0  0  0  0  0  0  0  0  0  0
  -10.2780   -6.4180   -5.7980 C   0  0  0  0  0  0  0  0  0  0  0  0
  -11.3380   -6.9410   -6.1110 O   0  0  0  0  0  0  0  0  0  0  0  0
   -9.8980   -5.1580   -6.4800 C   0  0  0  0  0  0  0  0  0  0  0  0
  -10.7680   -4.0880   -6.2670 C   0  0  0  0  0  0  0  0  0  0  0  0
  -10.5010   -2.8610   -6.8770 C   0  0  0  0  0  0  0  0  0  0  0  0
   -9.4270   -2.6850   -7.6670 C   0  0  0  0  0  0  0  0  0  0  0  0
   -8.5300   -3.7370   -7.9060 C   0  0  0  0  0  0  0  0  0  0  0  0
   -7.4310   -3.8230   -8.6230 N   0  0  0  0  0  0  0  0  0  0  0  0
   -6.9430   -5.1010   -8.5010 N   0  0  0  0  0  0  0  0  0  0  0  0
   -7.7570   -5.7670   -7.7140 C   0  0  0  0  0  0  0  0  0  0  0  0
   -8.7850   -4.9570   -7.3030 N   0  0  0  0  0  0  0  0  0  0  0  0
   -8.4280   -7.8960   -5.2250 C   0  0  0  0  0  0  0  0  0  0  0  0
   -7.8200   -8.5630   -4.1570 C   0  0  0  0  0  0  0  0  0  0  0  0
  1  2  1  0
  2  3  1  0
  3  4  2  0
  3  5  2  0
  3  6  1  0
  6  7  1  0
  6  8  1  0
  8  9  1  0
  9 10  1  0
 10 11  1  0
 11 12  1  0
 12 13  2  0
 12 14  1  0
 14 15  2  0
 15 16  1  0
 16 17  2  0
 17 18  1  0
 18 19  2  0
 19 20  1  0
 20 21  2  0
 21 22  1  0
 11 23  1  0
 23 24  1  0
 24  8  1  0
 22 14  1  0
 22 18  1  0
M  END
>  <pair>  (171) 
x1140_0A-x1594_0A

>  <sucos>  (171) 
0.46764615868078563

>  <ref_mols>  (171) 
x1140_0A,x1594_0A

>  <original SMILES>  (171) 
CCS(=O)(=O)N(C)C1CCN(C(=O)c2cccc3nncn23)CC1

>  <cmpd_ids>  (171) 
ENAMINE:Z3442847086

>  <ref_url>  (171) 
https://github.com/stephwills/fragment_network_merges

>  <submitter_name>  (171) 
Steph Wills

>  <submitter_institution>  (171) 
University of Oxford

>  <submitter_email>  (171) 
stephanie.wills@balliol.ox.ac.uk

>  <generation_date>  (171) 
2023-09-06

>  <method>  (171) 
fragNetMergingIt3

>  <ref_pdb>  (171) 
x1140_0A,x1594_0A

$$$$
x0147-0A-x1052-1A-90
     RDKit          3D

 23 26  0  0  0  0  0  0  0  0999 V2000
   -9.3610   -7.9270   -6.2140 O   0  0  0  0  0  0  0  0  0  0  0  0
   -9.9380   -7.1950   -5.4250 C   0  0  0  0  0  0  0  0  0  0  0  0
  -10.6400   -6.1200   -5.7090 N   0  0  0  0  0  0  0  0  0  0  0  0
  -10.0750   -5.1190   -6.4670 C   0  0  0  0  0  0  0  0  0  0  0  0
  -10.6610   -3.9320   -6.5950 N   0  0  0  0  0  0  0  0  0  0  0  0
   -9.8870   -3.1500   -7.4020 N   0  0  0  0  0  0  0  0  0  0  0  0
   -8.8680   -3.8910   -7.7320 C   0  0  0  0  0  0  0  0  0  0  0  0
   -7.8100   -3.5380   -8.5540 C   0  0  0  0  0  0  0  0  0  0  0  0
   -6.8060   -4.3380   -8.8420 N   0  0  0  0  0  0  0  0  0  0  0  0
   -6.8610   -5.5860   -8.2740 C   0  0  0  0  0  0  0  0  0  0  0  0
   -7.8530   -6.0030   -7.4720 C   0  0  0  0  0  0  0  0  0  0  0  0
   -8.8980   -5.1290   -7.1910 N   0  0  0  0  0  0  0  0  0  0  0  0
   -9.8250   -7.5330   -3.9810 C   0  0  0  0  0  0  0  0  0  0  0  0
  -10.7860   -8.2300   -3.2610 C   0  0  0  0  0  0  0  0  0  0  0  0
  -10.5750   -8.5320   -1.7800 C   0  0  0  0  0  0  0  0  0  0  0  0
   -9.2680   -8.0130   -1.2160 C   0  0  0  0  0  0  0  0  0  0  0  0
   -8.3720   -7.3210   -2.0400 C   0  0  0  0  0  0  0  0  0  0  0  0
   -7.1380   -6.8000   -1.6090 N   0  0  0  0  0  0  0  0  0  0  0  0
   -5.9170   -7.4250   -1.5530 C   0  0  0  0  0  0  0  0  0  0  0  0
   -5.0320   -6.4930   -1.1170 C   0  0  0  0  0  0  0  0  0  0  0  0
   -5.8030   -5.3400   -0.9290 C   0  0  0  0  0  0  0  0  0  0  0  0
   -7.0720   -5.5120   -1.2130 N   0  0  0  0  0  0  0  0  0  0  0  0
   -8.6570   -7.0960   -3.3790 C   0  0  0  0  0  0  0  0  0  0  0  0
  1  2  2  0
  2  3  1  0
  3  4  1  0
  4  5  2  0
  5  6  1  0
  6  7  2  0
  7  8  1  0
  8  9  2  0
  9 10  1  0
 10 11  2  0
 11 12  1  0
  2 13  1  0
 13 14  2  0
 14 15  1  0
 15 16  2  0
 16 17  1  0
 17 18  1  0
 18 19  1  0
 19 20  2  0
 20 21  1  0
 21 22  2  0
 17 23  2  0
 12  4  1  0
 23 13  1  0
 12  7  1  0
 22 18  1  0
M  END
>  <pair>  (172) 
x0147_0A-x1052_1A

>  <sucos>  (172) 
0.4681623056724972

>  <ref_mols>  (172) 
x0147_0A,x1052_1A

>  <original SMILES>  (172) 
O=C(Nc1nnc2cnccn12)c1cccc(-n2cccn2)c1

>  <cmpd_ids>  (172) 
ENAMINE:PV-002209327531

>  <ref_url>  (172) 
https://github.com/stephwills/fragment_network_merges

>  <submitter_name>  (172) 
Steph Wills

>  <submitter_institution>  (172) 
University of Oxford

>  <submitter_email>  (172) 
stephanie.wills@balliol.ox.ac.uk

>  <generation_date>  (172) 
2023-09-06

>  <method>  (172) 
fragNetMergingIt3

>  <ref_pdb>  (172) 
x0147_0A,x1052_1A

$$$$
x1052-1A-x1594-0A-2
     RDKit          3D

 24 26  0  0  0  0  0  0  0  0999 V2000
   -5.6670   -8.6750   -3.8880 C   0  0  0  0  0  0  0  0  0  0  0  0
   -6.6560   -7.5480   -4.1560 C   0  0  2  0  0  0  0  0  0  0  0  0
   -7.3880   -7.7470   -5.5020 C   0  0  0  0  0  0  0  0  0  0  0  0
   -7.3300   -6.6410   -6.4440 N   0  0  0  0  0  0  0  0  0  0  0  0
   -8.5160   -6.1350   -6.8570 C   0  0  0  0  0  0  0  0  0  0  0  0
   -9.5780   -6.7070   -6.6800 O   0  0  0  0  0  0  0  0  0  0  0  0
   -8.5050   -4.8790   -7.4830 C   0  0  0  0  0  0  0  0  0  0  0  0
   -7.5780   -4.3880   -8.3470 N   0  0  0  0  0  0  0  0  0  0  0  0
   -8.0130   -3.2030   -8.6630 N   0  0  0  0  0  0  0  0  0  0  0  0
   -9.1990   -2.9500   -8.0090 N   0  0  0  0  0  0  0  0  0  0  0  0
  -10.0570   -1.8680   -8.0140 C   0  0  0  0  0  0  0  0  0  0  0  0
  -11.1840   -1.8850   -7.2610 C   0  0  0  0  0  0  0  0  0  0  0  0
  -11.4730   -3.0420   -6.4530 C   0  0  0  0  0  0  0  0  0  0  0  0
  -10.6570   -4.0660   -6.4580 C   0  0  0  0  0  0  0  0  0  0  0  0
   -9.4970   -4.0220   -7.2560 C   0  0  0  0  0  0  0  0  0  0  0  0
   -5.9320   -6.2840   -4.0930 N   0  0  0  0  0  0  0  0  0  0  0  0
   -6.2640   -5.2960   -3.1840 C   0  0  0  0  0  0  0  0  0  0  0  0
   -6.4910   -4.1090   -3.4650 O   0  0  0  0  0  0  0  0  0  0  0  0
   -6.2840   -5.8920   -1.8680 C   0  0  0  0  0  0  0  0  0  0  0  0
   -7.2940   -5.7110   -0.9920 N   0  0  0  0  0  0  0  0  0  0  0  0
   -6.9460   -6.4660    0.1050 O   0  0  0  0  0  0  0  0  0  0  0  0
   -5.7570   -7.0700   -0.1130 C   0  0  0  0  0  0  0  0  0  0  0  0
   -5.2940   -6.7390   -1.3320 C   0  0  0  0  0  0  0  0  0  0  0  0
   -3.8420   -7.2820   -1.9870 Cl  0  0  0  0  0  0  0  0  0  0  0  0
  2  1  1  6
  2  3  1  0
  3  4  1  0
  4  5  1  0
  5  6  2  0
  5  7  1  0
  7  8  1  0
  8  9  2  0
  9 10  1  0
 10 11  1  0
 11 12  2  0
 12 13  1  0
 13 14  2  0
 14 15  1  0
  2 16  1  0
 16 17  1  0
 17 18  2  0
 17 19  1  0
 19 20  2  0
 20 21  1  0
 21 22  1  0
 22 23  2  0
 23 24  1  0
 15  7  2  0
 23 19  1  0
 15 10  1  0
M  END
>  <pair>  (173) 
x1052_1A-x1594_0A

>  <sucos>  (173) 
0.4699498836382639

>  <ref_mols>  (173) 
x1052_1A,x1594_0A

>  <original SMILES>  (173) 
CC(CNC(=O)c1nnn2ccccc12)NC(=O)c1nocc1Cl

>  <cmpd_ids>  (173) 
ENAMINE:PV-003094852727

>  <ref_url>  (173) 
https://github.com/stephwills/fragment_network_merges

>  <submitter_name>  (173) 
Steph Wills

>  <submitter_institution>  (173) 
University of Oxford

>  <submitter_email>  (173) 
stephanie.wills@balliol.ox.ac.uk

>  <generation_date>  (173) 
2023-09-06

>  <method>  (173) 
fragNetMergingIt3

>  <ref_pdb>  (173) 
x1052_1A,x1594_0A

$$$$
x0147-0A-x1140-0A-81
     RDKit          3D

 21 23  0  0  0  0  0  0  0  0999 V2000
   -6.4790   -5.0180   -1.1320 C   0  0  0  0  0  0  0  0  0  0  0  0
   -6.7650   -5.0780   -2.8850 S   0  0  0  0  0  6  0  0  0  0  0  0
   -6.2540   -3.8590   -3.4750 O   0  0  0  0  0  0  0  0  0  0  0  0
   -8.1240   -5.4960   -3.1100 O   0  0  0  0  0  0  0  0  0  0  0  0
   -5.7310   -6.3390   -3.3220 N   0  0  0  0  0  0  0  0  0  0  0  0
   -6.2750   -7.7110   -3.2790 C   0  0  0  0  0  0  0  0  0  0  0  0
   -7.3320   -7.7900   -4.3790 C   0  0  0  0  0  0  0  0  0  0  0  0
   -8.7080   -7.5290   -3.7880 C   0  0  0  0  0  0  0  0  0  0  0  0
   -9.6660   -7.2960   -4.9150 C   0  0  0  0  0  0  0  0  0  0  0  0
   -8.9860   -7.4950   -6.2130 N   0  0  0  0  0  0  0  0  0  0  0  0
   -8.5570   -6.4800   -6.9120 C   0  0  0  0  0  0  0  0  0  0  0  0
   -7.4490   -6.6790   -7.5670 N   0  0  0  0  0  0  0  0  0  0  0  0
   -6.9130   -5.6880   -8.3260 C   0  0  0  0  0  0  0  0  0  0  0  0
   -7.4440   -4.4620   -8.4640 C   0  0  0  0  0  0  0  0  0  0  0  0
   -8.6130   -4.2000   -7.7970 N   0  0  0  0  0  0  0  0  0  0  0  0
   -9.4360   -3.0930   -7.7030 C   0  0  0  0  0  0  0  0  0  0  0  0
  -10.4570   -3.3740   -6.9220 N   0  0  0  0  0  0  0  0  0  0  0  0
  -10.3050   -4.6850   -6.4930 N   0  0  0  0  0  0  0  0  0  0  0  0
   -9.1940   -5.1620   -7.0270 C   0  0  0  0  0  0  0  0  0  0  0  0
   -8.2930   -8.8120   -6.3440 C   0  0  0  0  0  0  0  0  0  0  0  0
   -7.4790   -9.1150   -5.0960 C   0  0  0  0  0  0  0  0  0  0  0  0
  1  2  1  0
  2  3  2  0
  2  4  2  0
  2  5  1  0
  5  6  1  0
  6  7  1  0
  7  8  1  0
  8  9  1  0
  9 10  1  0
 10 11  1  0
 11 12  2  0
 12 13  1  0
 13 14  2  0
 14 15  1  0
 15 16  1  0
 16 17  2  0
 17 18  1  0
 18 19  2  0
 10 20  1  0
 20 21  1  0
 21  7  1  0
 19 11  1  0
 19 15  1  0
M  END
>  <pair>  (174) 
x0147_0A-x1140_0A

>  <sucos>  (174) 
0.48048077904627573

>  <ref_mols>  (174) 
x0147_0A,x1140_0A

>  <original SMILES>  (174) 
CS(=O)(=O)NCC1CCN(c2nccn3cnnc23)CC1

>  <cmpd_ids>  (174) 
ENAMINE:Z2094268623

>  <ref_url>  (174) 
https://github.com/stephwills/fragment_network_merges

>  <submitter_name>  (174) 
Steph Wills

>  <submitter_institution>  (174) 
University of Oxford

>  <submitter_email>  (174) 
stephanie.wills@balliol.ox.ac.uk

>  <generation_date>  (174) 
2023-09-06

>  <method>  (174) 
fragNetMergingIt3

>  <ref_pdb>  (174) 
x0147_0A,x1140_0A

$$$$
x1052-1A-x1594-0A-132
     RDKit          3D

 19 21  0  0  0  0  0  0  0  0999 V2000
  -10.0410   -7.5130   -5.3040 O   0  0  0  0  0  0  0  0  0  0  0  0
   -9.1050   -6.7300   -5.4250 C   0  0  0  0  0  0  0  0  0  0  0  0
   -7.8310   -6.9500   -4.8960 N   0  0  0  0  0  0  0  0  0  0  0  0
   -7.5860   -7.9480   -3.8380 C   0  0  0  0  0  0  0  0  0  0  0  0
   -6.2740   -7.9820   -3.3690 C   0  0  0  0  0  0  0  0  0  0  0  0
   -6.3750   -7.0320   -2.3210 C   0  0  0  0  0  0  0  0  0  0  0  0
   -5.6690   -5.9070   -2.4250 C   0  0  0  0  0  0  0  0  0  0  0  0
   -5.9320   -5.0190   -1.2340 C   0  0  0  0  0  0  0  0  0  0  0  0
   -6.9040   -5.8350   -0.4300 N   0  0  0  0  0  0  0  0  0  0  0  0
   -7.1130   -7.0450   -1.1540 O   0  0  0  0  0  0  0  0  0  0  0  0
   -9.2670   -5.4400   -6.1780 C   0  0  0  0  0  0  0  0  0  0  0  0
  -10.3110   -4.6320   -5.8630 C   0  0  0  0  0  0  0  0  0  0  0  0
  -10.4980   -3.2980   -6.5990 C   0  0  0  0  0  0  0  0  0  0  0  0
   -9.5840   -2.9550   -7.5750 C   0  0  0  0  0  0  0  0  0  0  0  0
   -8.5090   -3.8360   -7.8790 C   0  0  0  0  0  0  0  0  0  0  0  0
   -7.5050   -3.7630   -8.7620 N   0  0  0  0  0  0  0  0  0  0  0  0
   -6.7620   -4.8750   -8.6460 N   0  0  0  0  0  0  0  0  0  0  0  0
   -7.2890   -5.6250   -7.7100 C   0  0  0  0  0  0  0  0  0  0  0  0
   -8.3980   -5.0270   -7.1800 N   0  0  0  0  0  0  0  0  0  0  0  0
  1  2  2  0
  2  3  1  0
  3  4  1  0
  4  5  1  0
  5  6  1  0
  6  7  2  0
  7  8  1  0
  8  9  2  0
  9 10  1  0
  2 11  1  0
 11 12  2  0
 12 13  1  0
 13 14  2  0
 14 15  1  0
 15 16  2  0
 16 17  1  0
 17 18  2  0
 18 19  1  0
 10  6  1  0
 19 11  1  0
 19 15  1  0
M  END
>  <pair>  (175) 
x1052_1A-x1594_0A

>  <sucos>  (175) 
0.4823571451655625

>  <ref_mols>  (175) 
x1052_1A,x1594_0A

>  <original SMILES>  (175) 
O=C(NCCc1ccno1)c1cccc2nncn12

>  <cmpd_ids>  (175) 
ENAMINE:PV-003477658701

>  <ref_url>  (175) 
https://github.com/stephwills/fragment_network_merges

>  <submitter_name>  (175) 
Steph Wills

>  <submitter_institution>  (175) 
University of Oxford

>  <submitter_email>  (175) 
stephanie.wills@balliol.ox.ac.uk

>  <generation_date>  (175) 
2023-09-06

>  <method>  (175) 
fragNetMergingIt3

>  <ref_pdb>  (175) 
x1052_1A,x1594_0A

$$$$
x1052-1A-x1594-0A-177
     RDKit          3D

 20 22  0  0  0  0  0  0  0  0999 V2000
   -5.6640   -2.6670   -2.2580 C   0  0  0  0  0  0  0  0  0  0  0  0
   -6.6670   -3.7540   -2.3440 C   0  0  0  0  0  0  0  0  0  0  0  0
   -6.5850   -5.0580   -1.9100 C   0  0  0  0  0  0  0  0  0  0  0  0
   -6.2910   -5.3220   -0.6410 N   0  0  0  0  0  0  0  0  0  0  0  0
   -6.2660   -6.7010   -0.4980 O   0  0  0  0  0  0  0  0  0  0  0  0
   -6.5540   -7.2720   -1.6880 C   0  0  0  0  0  0  0  0  0  0  0  0
   -6.7740   -6.2750   -2.6060 C   0  0  0  0  0  0  0  0  0  0  0  0
   -7.1510   -6.6600   -4.0470 C   0  0  0  0  0  0  0  0  0  0  0  0
   -8.5790   -6.4790   -4.1820 O   0  0  0  0  0  0  0  0  0  0  0  0
   -9.1440   -6.6620   -5.4190 C   0  0  0  0  0  0  0  0  0  0  0  0
   -9.4590   -7.7540   -5.8790 O   0  0  0  0  0  0  0  0  0  0  0  0
   -9.3260   -5.4410   -6.1160 C   0  0  0  0  0  0  0  0  0  0  0  0
  -10.3730   -4.5560   -5.8060 C   0  0  0  0  0  0  0  0  0  0  0  0
  -10.5160   -3.2730   -6.5530 C   0  0  0  0  0  0  0  0  0  0  0  0
   -9.6050   -2.9760   -7.5480 C   0  0  0  0  0  0  0  0  0  0  0  0
   -8.5840   -3.8790   -7.8380 N   0  0  0  0  0  0  0  0  0  0  0  0
   -7.6250   -3.7690   -8.7610 N   0  0  0  0  0  0  0  0  0  0  0  0
   -6.8730   -4.8550   -8.7050 N   0  0  0  0  0  0  0  0  0  0  0  0
   -7.3380   -5.6690   -7.7420 C   0  0  0  0  0  0  0  0  0  0  0  0
   -8.4260   -5.0910   -7.1590 C   0  0  0  0  0  0  0  0  0  0  0  0
  1  2  1  0
  2  3  1  0
  3  4  2  0
  4  5  1  0
  5  6  1  0
  6  7  2  0
  7  8  1  0
  8  9  1  0
  9 10  1  0
 10 11  2  0
 10 12  1  0
 12 13  2  0
 13 14  1  0
 14 15  2  0
 15 16  1  0
 16 17  1  0
 17 18  2  0
 18 19  1  0
 19 20  2  0
  7  3  1  0
 20 12  1  0
 20 16  1  0
M  END
>  <pair>  (176) 
x1052_1A-x1594_0A

>  <sucos>  (176) 
0.4898094238224798

>  <ref_mols>  (176) 
x1052_1A,x1594_0A

>  <original SMILES>  (176) 
CCc1nocc1COC(=O)c1cccn2nncc12

>  <cmpd_ids>  (176) 
ENAMINE:PV-003511022646

>  <ref_url>  (176) 
https://github.com/stephwills/fragment_network_merges

>  <submitter_name>  (176) 
Steph Wills

>  <submitter_institution>  (176) 
University of Oxford

>  <submitter_email>  (176) 
stephanie.wills@balliol.ox.ac.uk

>  <generation_date>  (176) 
2023-09-06

>  <method>  (176) 
fragNetMergingIt3

>  <ref_pdb>  (176) 
x1052_1A,x1594_0A

$$$$
x1052-1A-x1594-0A-94
     RDKit          3D

 23 26  0  0  0  0  0  0  0  0999 V2000
   -9.3320   -7.6640   -6.0810 O   0  0  0  0  0  0  0  0  0  0  0  0
   -8.0960   -7.6390   -6.1020 C   0  0  0  0  0  0  0  0  0  0  0  0
   -7.3850   -6.9610   -7.2230 C   0  0  0  0  0  0  0  0  0  0  0  0
   -7.8720   -5.6300   -7.5610 N   0  0  0  0  0  0  0  0  0  0  0  0
   -7.2450   -4.9580   -8.5300 N   0  0  0  0  0  0  0  0  0  0  0  0
   -7.7840   -3.8070   -8.6880 N   0  0  0  0  0  0  0  0  0  0  0  0
   -8.7950   -3.7490   -7.8020 C   0  0  0  0  0  0  0  0  0  0  0  0
   -9.6950   -2.7690   -7.5460 C   0  0  0  0  0  0  0  0  0  0  0  0
  -10.7350   -2.8800   -6.5400 C   0  0  0  0  0  0  0  0  0  0  0  0
  -10.7830   -4.0720   -5.8160 C   0  0  0  0  0  0  0  0  0  0  0  0
   -9.8600   -5.1090   -6.0570 C   0  0  0  0  0  0  0  0  0  0  0  0
   -8.8920   -4.9040   -7.0530 C   0  0  0  0  0  0  0  0  0  0  0  0
   -7.3270   -8.2620   -5.1040 N   0  0  0  0  0  0  0  0  0  0  0  0
   -6.1640   -9.0120   -5.5340 C   0  0  0  0  0  0  0  0  0  0  0  0
   -5.0160   -8.6790   -4.7200 C   0  0  0  0  0  0  0  0  0  0  0  0
   -5.1250   -8.9460   -3.3650 C   0  0  0  0  0  0  0  0  0  0  0  0
   -6.4360   -8.4480   -2.7120 C   0  0  1  0  0  0  0  0  0  0  0  0
   -6.2800   -7.1250   -2.0430 C   0  0  0  0  0  0  0  0  0  0  0  0
   -5.4730   -6.0290   -2.2240 C   0  0  0  0  0  0  0  0  0  0  0  0
   -5.9050   -5.1360   -1.2350 C   0  0  0  0  0  0  0  0  0  0  0  0
   -6.8940   -5.6350   -0.4930 N   0  0  0  0  0  0  0  0  0  0  0  0
   -7.1260   -6.8930   -0.9990 O   0  0  0  0  0  0  0  0  0  0  0  0
   -7.6640   -8.4020   -3.6720 C   0  0  0  0  0  0  0  0  0  0  0  0
  1  2  2  0
  2  3  1  0
  3  4  1  0
  4  5  1  0
  5  6  2  0
  6  7  1  0
  7  8  2  0
  8  9  1  0
  9 10  2  0
 10 11  1  0
 11 12  2  0
  2 13  1  0
 13 14  1  0
 14 15  1  0
 15 16  1  0
 17 16  1  6
 17 18  1  0
 18 19  2  0
 19 20  1  0
 20 21  2  0
 21 22  1  0
 17 23  1  0
 12  4  1  0
 23 13  1  0
 12  7  1  0
 22 18  1  0
M  END
>  <pair>  (177) 
x1052_1A-x1594_0A

>  <sucos>  (177) 
0.49475599851769103

>  <ref_mols>  (177) 
x1052_1A,x1594_0A

>  <original SMILES>  (177) 
O=C(Cn1nnc2ccccc21)N1CCCC(c2ccno2)C1

>  <cmpd_ids>  (177) 
ENAMINE:Z4227360865

>  <ref_url>  (177) 
https://github.com/stephwills/fragment_network_merges

>  <submitter_name>  (177) 
Steph Wills

>  <submitter_institution>  (177) 
University of Oxford

>  <submitter_email>  (177) 
stephanie.wills@balliol.ox.ac.uk

>  <generation_date>  (177) 
2023-09-06

>  <method>  (177) 
fragNetMergingIt3

>  <ref_pdb>  (177) 
x1052_1A,x1594_0A

$$$$
x1594-0A-x1052-1A-179
     RDKit          3D

 23 25  0  0  0  0  0  0  0  0999 V2000
   -7.8420   -8.9520   -6.5630 C   0  0  0  0  0  0  0  0  0  0  0  0
   -7.2640   -7.5640   -6.7850 C   0  0  0  0  0  0  0  0  0  0  0  0
   -6.8660   -7.1840   -8.2280 C   0  0  0  0  0  0  0  0  0  0  0  0
   -8.0590   -6.4860   -6.1440 C   0  0  1  0  0  0  0  0  0  0  0  0
   -7.4330   -6.1200   -4.9230 N   0  0  0  0  0  0  0  0  0  0  0  0
   -8.3640   -5.7460   -3.8480 C   0  0  0  0  0  0  0  0  0  0  0  0
   -9.2640   -6.4720   -3.4290 O   0  0  0  0  0  0  0  0  0  0  0  0
   -8.0500   -4.3390   -3.3350 C   0  0  0  0  0  0  0  0  0  0  0  0
   -6.8560   -4.2850   -2.6420 C   0  0  0  0  0  0  0  0  0  0  0  0
   -6.6470   -5.4370   -1.6360 C   0  0  0  0  0  0  0  0  0  0  0  0
   -5.4410   -6.1210   -2.2260 C   0  0  0  0  0  0  0  0  0  0  0  0
   -5.1260   -7.4320   -1.1850 S   0  0  0  0  0  0  0  0  0  0  0  0
   -6.4810   -6.9780   -0.2010 C   0  0  0  0  0  0  0  0  0  0  0  0
   -7.1880   -5.9080   -0.5500 N   0  0  0  0  0  0  0  0  0  0  0  0
   -8.0860   -5.2990   -7.0190 C   0  0  0  0  0  0  0  0  0  0  0  0
   -7.2390   -4.8620   -7.9490 N   0  0  0  0  0  0  0  0  0  0  0  0
   -7.7610   -3.6850   -8.4480 N   0  0  0  0  0  0  0  0  0  0  0  0
   -8.8920   -3.4540   -7.8020 C   0  0  0  0  0  0  0  0  0  0  0  0
   -9.8160   -2.4730   -7.8400 C   0  0  0  0  0  0  0  0  0  0  0  0
  -10.9470   -2.5100   -7.0250 C   0  0  0  0  0  0  0  0  0  0  0  0
  -11.1360   -3.5270   -6.1790 C   0  0  0  0  0  0  0  0  0  0  0  0
  -10.1900   -4.5080   -6.1350 C   0  0  0  0  0  0  0  0  0  0  0  0
   -9.1110   -4.4700   -6.9130 N   0  0  0  0  0  0  0  0  0  0  0  0
  1  2  1  0
  2  3  1  0
  2  4  1  0
  4  5  1  1
  5  6  1  0
  6  7  2  0
  6  8  1  0
  8  9  1  0
  9 10  1  0
 10 11  2  0
 11 12  1  0
 12 13  1  0
 13 14  2  0
  4 15  1  0
 15 16  2  0
 16 17  1  0
 17 18  2  0
 18 19  1  0
 19 20  2  0
 20 21  1  0
 21 22  2  0
 22 23  1  0
 14 10  1  0
 23 15  1  0
 23 18  1  0
M  END
>  <pair>  (178) 
x1594_0A-x1052_1A

>  <sucos>  (178) 
0.5024241578267828

>  <ref_mols>  (178) 
x1594_0A,x1052_1A

>  <original SMILES>  (178) 
CC(C)C(NC(=O)CCc1cscn1)c1nnc2ccccn12

>  <cmpd_ids>  (178) 
ENAMINE:Z1014190606

>  <ref_url>  (178) 
https://github.com/stephwills/fragment_network_merges

>  <submitter_name>  (178) 
Steph Wills

>  <submitter_institution>  (178) 
University of Oxford

>  <submitter_email>  (178) 
stephanie.wills@balliol.ox.ac.uk

>  <generation_date>  (178) 
2023-09-06

>  <method>  (178) 
fragNetMergingIt3

>  <ref_pdb>  (178) 
x1594_0A,x1052_1A

$$$$
x1052-1A-x1594-0A-119
     RDKit          3D

 23 25  0  0  0  0  0  0  0  0999 V2000
   -3.8680   -6.9170   -2.0140 C   0  0  0  0  0  0  0  0  0  0  0  0
   -5.2670   -6.5640   -1.5000 C   0  0  0  0  0  0  0  0  0  0  0  0
   -5.8160   -5.2650   -0.9940 C   0  0  0  0  0  0  0  0  0  0  0  0
   -7.1020   -5.4060   -0.6280 N   0  0  0  0  0  0  0  0  0  0  0  0
   -7.4630   -6.7650   -0.8720 O   0  0  0  0  0  0  0  0  0  0  0  0
   -6.4240   -7.5010   -1.3980 C   0  0  0  0  0  0  0  0  0  0  0  0
   -6.3910   -8.9220   -1.8100 C   0  0  0  0  0  0  0  0  0  0  0  0
   -6.0540   -9.8680   -0.8870 O   0  0  0  0  0  0  0  0  0  0  0  0
   -6.7100   -9.2460   -3.1420 N   0  0  0  0  0  0  0  0  0  0  0  0
   -5.8640   -8.8480   -4.2510 C   0  0  0  0  0  0  0  0  0  0  0  0
   -8.1430   -9.3280   -3.4730 C   0  0  0  0  0  0  0  0  0  0  0  0
   -8.4510   -8.8920   -4.8800 C   0  0  0  0  0  0  0  0  0  0  0  0
   -8.6470   -7.4530   -5.0520 N   0  0  0  0  0  0  0  0  0  0  0  0
   -9.7710   -6.9440   -5.6820 C   0  0  0  0  0  0  0  0  0  0  0  0
  -10.8280   -7.5510   -5.6640 O   0  0  0  0  0  0  0  0  0  0  0  0
   -9.5880   -5.6330   -6.3600 C   0  0  0  0  0  0  0  0  0  0  0  0
  -10.4460   -4.5660   -6.1770 C   0  0  0  0  0  0  0  0  0  0  0  0
  -10.0340   -3.1520   -7.0700 S   0  0  0  0  0  0  0  0  0  0  0  0
   -8.6560   -3.9870   -7.7310 C   0  0  0  0  0  0  0  0  0  0  0  0
   -7.7060   -3.5660   -8.6070 N   0  0  0  0  0  0  0  0  0  0  0  0
   -6.8360   -4.4940   -8.8570 N   0  0  0  0  0  0  0  0  0  0  0  0
   -7.1390   -5.9130   -8.0370 S   0  0  0  0  0  0  0  0  0  0  0  0
   -8.5500   -5.2760   -7.2690 C   0  0  0  0  0  0  0  0  0  0  0  0
  1  2  1  0
  2  3  1  0
  3  4  2  0
  4  5  1  0
  5  6  1  0
  6  7  1  0
  7  8  2  0
  7  9  1  0
  9 10  1  0
  9 11  1  0
 11 12  1  0
 12 13  1  0
 13 14  1  0
 14 15  2  0
 14 16  1  0
 16 17  2  0
 17 18  1  0
 18 19  1  0
 19 20  1  0
 20 21  2  0
 21 22  1  0
 22 23  1  0
  6  2  2  0
 23 16  1  0
 23 19  2  0
M  END
>  <pair>  (179) 
x1052_1A-x1594_0A

>  <sucos>  (179) 
0.5034607227996393

>  <ref_mols>  (179) 
x1052_1A,x1594_0A

>  <original SMILES>  (179) 
Cc1cnoc1C(=O)N(C)CCNC(=O)c1csc2nnsc12

>  <cmpd_ids>  (179) 
ENAMINE:PV-002738881130

>  <ref_url>  (179) 
https://github.com/stephwills/fragment_network_merges

>  <submitter_name>  (179) 
Steph Wills

>  <submitter_institution>  (179) 
University of Oxford

>  <submitter_email>  (179) 
stephanie.wills@balliol.ox.ac.uk

>  <generation_date>  (179) 
2023-09-06

>  <method>  (179) 
fragNetMergingIt3

>  <ref_pdb>  (179) 
x1052_1A,x1594_0A

$$$$
x1020-0A-x0130-0A-189
     RDKit          3D

 22 23  0  0  0  0  0  0  0  0999 V2000
   -2.9860   -7.7970    1.2270 C   0  0  0  0  0  0  0  0  0  0  0  0
   -2.3230   -8.2080    2.5270 C   0  0  0  0  0  0  0  0  0  0  0  0
   -0.9020   -8.5960    2.4190 N   0  0  0  0  0  0  0  0  0  0  0  0
   -0.2210   -7.7570    1.4240 C   0  0  0  0  0  0  0  0  0  0  0  0
    0.0580   -8.4950    0.1100 C   0  0  0  0  0  0  0  0  0  0  0  0
   -0.6420  -10.0520    2.3080 C   0  0  0  0  0  0  0  0  0  0  0  0
   -1.9120  -10.9030    2.6210 C   0  0  0  0  0  0  0  0  0  0  0  0
   -3.1480  -10.5370    2.3500 N   0  0  0  0  0  0  0  0  0  0  0  0
   -4.0640  -10.9480    3.2170 C   0  0  0  0  0  0  0  0  0  0  0  0
   -5.3850  -10.4690    2.8020 C   0  0  0  0  0  0  0  0  0  0  0  0
   -6.4940  -10.7410    3.5020 N   0  0  0  0  0  0  0  0  0  0  0  0
   -6.5200  -11.7760    4.4010 C   0  0  0  0  0  0  0  0  0  0  0  0
   -5.7650  -11.8850    5.3680 O   0  0  0  0  0  0  0  0  0  0  0  0
   -7.4830  -12.7390    4.1290 C   0  0  1  0  0  0  0  0  0  0  0  0
   -8.7190  -12.3020    3.6530 C   0  0  0  0  0  0  0  0  0  0  0  0
   -6.9090  -13.7440    3.2050 C   0  0  0  0  0  0  0  0  0  0  0  0
   -6.0340  -14.7160    3.6160 N   0  0  0  0  0  0  0  0  0  0  0  0
   -5.7320  -15.4170    2.5390 N   0  0  0  0  0  0  0  0  0  0  0  0
   -6.4290  -14.8460    1.5470 N   0  0  0  0  0  0  0  0  0  0  0  0
   -7.1870  -13.7970    1.8950 N   0  0  0  0  0  0  0  0  0  0  0  0
   -5.0560   -9.7630    1.6190 C   0  0  0  0  0  0  0  0  0  0  0  0
   -3.7070   -9.8030    1.3480 N   0  0  0  0  0  0  0  0  0  0  0  0
  1  2  1  0
  2  3  1  0
  3  4  1  0
  4  5  1  0
  3  6  1  0
  6  7  1  0
  7  8  1  0
  8  9  1  0
  9 10  2  0
 10 11  1  0
 11 12  1  0
 12 13  2  0
 12 14  1  0
 14 15  1  6
 14 16  1  0
 16 17  1  0
 17 18  2  0
 18 19  1  0
 19 20  1  0
 10 21  1  0
 21 22  2  0
 22  8  1  0
 20 16  2  0
M  END
>  <pair>  (180) 
x1020_0A-x0130_0A

>  <sucos>  (180) 
0.5035932739393584

>  <ref_mols>  (180) 
x1020_0A,x0130_0A

>  <original SMILES>  (180) 
CCN(CC)CCn1cc(NC(=O)C(C)c2nn[nH]n2)cn1

>  <cmpd_ids>  (180) 
ENAMINE:PV-003535130868

>  <ref_url>  (180) 
https://github.com/stephwills/fragment_network_merges

>  <submitter_name>  (180) 
Steph Wills

>  <submitter_institution>  (180) 
University of Oxford

>  <submitter_email>  (180) 
stephanie.wills@balliol.ox.ac.uk

>  <generation_date>  (180) 
2023-09-06

>  <method>  (180) 
fragNetMergingIt3

>  <ref_pdb>  (180) 
x1020_0A,x0130_0A

$$$$
x1594-0A-x1052-1A-44
     RDKit          3D

 22 24  0  0  0  0  0  0  0  0999 V2000
  -11.6070   -1.9300   -6.6100 C   0  0  0  0  0  0  0  0  0  0  0  0
  -10.5510   -2.9680   -6.8140 C   0  0  0  0  0  0  0  0  0  0  0  0
  -10.7000   -4.1790   -6.0240 C   0  0  0  0  0  0  0  0  0  0  0  0
   -9.7930   -5.1510   -6.1390 C   0  0  0  0  0  0  0  0  0  0  0  0
   -8.7280   -4.9830   -7.0130 N   0  0  0  0  0  0  0  0  0  0  0  0
   -7.6910   -5.8160   -7.2970 C   0  0  0  0  0  0  0  0  0  0  0  0
   -7.4990   -7.1230   -6.6910 C   0  0  0  0  0  0  0  0  0  0  0  0
   -7.3620   -8.1610   -7.3080 O   0  0  0  0  0  0  0  0  0  0  0  0
   -7.5000   -7.1580   -5.2960 N   0  0  0  0  0  0  0  0  0  0  0  0
   -6.2540   -7.2390   -4.5490 C   0  0  0  0  0  0  0  0  0  0  0  0
   -6.0170   -8.6000   -3.8850 C   0  0  0  0  0  0  0  0  0  0  0  0
   -5.2320   -8.4110   -2.5860 C   0  0  0  0  0  0  0  0  0  0  0  0
   -5.9040   -7.3290   -1.8090 C   0  0  0  0  0  0  0  0  0  0  0  0
   -5.6700   -5.9960   -2.1360 C   0  0  0  0  0  0  0  0  0  0  0  0
   -6.3280   -5.0190   -1.4200 C   0  0  0  0  0  0  0  0  0  0  0  0
   -7.1870   -5.2870   -0.4180 N   0  0  0  0  0  0  0  0  0  0  0  0
   -7.3830   -6.5860   -0.1140 C   0  0  0  0  0  0  0  0  0  0  0  0
   -6.7740   -7.6300   -0.7710 C   0  0  0  0  0  0  0  0  0  0  0  0
   -6.9120   -5.2400   -8.2030 N   0  0  0  0  0  0  0  0  0  0  0  0
   -7.4510   -4.0080   -8.5160 N   0  0  0  0  0  0  0  0  0  0  0  0
   -8.5430   -3.8580   -7.7930 C   0  0  0  0  0  0  0  0  0  0  0  0
   -9.5100   -2.8180   -7.6680 C   0  0  0  0  0  0  0  0  0  0  0  0
  1  2  1  0
  2  3  1  0
  3  4  2  0
  4  5  1  0
  5  6  1  0
  6  7  1  0
  7  8  2  0
  7  9  1  0
  9 10  1  0
 10 11  1  0
 11 12  1  0
 12 13  1  0
 13 14  2  0
 14 15  1  0
 15 16  2  0
 16 17  1  0
 17 18  2  0
  6 19  2  0
 19 20  1  0
 20 21  2  0
 21 22  1  0
 22  2  2  0
 21  5  1  0
 18 13  1  0
M  END
>  <pair>  (181) 
x1594_0A-x1052_1A

>  <sucos>  (181) 
0.513292129842594

>  <ref_mols>  (181) 
x1594_0A,x1052_1A

>  <original SMILES>  (181) 
Cc1ccn2c(C(=O)NCCCc3ccncc3)nnc2c1

>  <cmpd_ids>  (181) 
ENAMINE:Z4295411146

>  <ref_url>  (181) 
https://github.com/stephwills/fragment_network_merges

>  <submitter_name>  (181) 
Steph Wills

>  <submitter_institution>  (181) 
University of Oxford

>  <submitter_email>  (181) 
stephanie.wills@balliol.ox.ac.uk

>  <generation_date>  (181) 
2023-09-06

>  <method>  (181) 
fragNetMergingIt3

>  <ref_pdb>  (181) 
x1594_0A,x1052_1A

$$$$
x1140-0A-x1594-0A-24
     RDKit          3D

 23 26  0  0  0  0  0  0  0  0999 V2000
   -8.5550   -6.2040   -3.3110 O   0  0  0  0  0  0  0  0  0  0  0  0
   -7.6190   -6.3670   -4.0820 C   0  0  0  0  0  0  0  0  0  0  0  0
   -6.3730   -7.0450   -3.7460 N   0  0  0  0  0  0  0  0  0  0  0  0
   -5.7360   -7.4910   -2.4500 C   0  0  0  0  0  0  0  0  0  0  0  0
   -4.4040   -7.1510   -2.0580 C   0  0  0  0  0  0  0  0  0  0  0  0
   -3.8730   -7.6050   -0.8380 C   0  0  0  0  0  0  0  0  0  0  0  0
   -4.5860   -8.3800    0.0330 C   0  0  0  0  0  0  0  0  0  0  0  0
   -5.8790   -8.7590   -0.2710 C   0  0  0  0  0  0  0  0  0  0  0  0
   -6.4470   -8.3180   -1.5020 C   0  0  0  0  0  0  0  0  0  0  0  0
   -8.0710   -8.8200   -1.8400 Cl  0  0  0  0  0  0  0  0  0  0  0  0
   -3.8750   -8.6990    1.1640 O   0  0  0  0  0  0  0  0  0  0  0  0
   -2.7040   -7.8690    0.9830 C   0  0  0  0  0  0  0  0  0  0  0  0
   -2.6170   -7.3540   -0.3590 O   0  0  0  0  0  0  0  0  0  0  0  0
   -7.8230   -5.7870   -5.5170 C   0  0  0  0  0  0  0  0  0  0  0  0
   -6.8970   -6.1790   -6.4320 C   0  0  0  0  0  0  0  0  0  0  0  0
   -6.8200   -5.8150   -7.7220 N   0  0  0  0  0  0  0  0  0  0  0  0
   -7.7320   -4.9970   -8.1790 N   0  0  0  0  0  0  0  0  0  0  0  0
   -8.6770   -4.5930   -7.3490 C   0  0  0  0  0  0  0  0  0  0  0  0
   -9.5590   -3.7930   -7.8880 C   0  0  0  0  0  0  0  0  0  0  0  0
  -10.6110   -3.2800   -7.1950 C   0  0  0  0  0  0  0  0  0  0  0  0
  -10.7840   -3.5910   -5.8700 C   0  0  0  0  0  0  0  0  0  0  0  0
   -9.8860   -4.4170   -5.2600 C   0  0  0  0  0  0  0  0  0  0  0  0
   -8.8160   -4.9310   -5.9970 C   0  0  0  0  0  0  0  0  0  0  0  0
  1  2  2  0
  2  3  1  0
  3  4  1  0
  4  5  2  0
  5  6  1  0
  6  7  2  0
  7  8  1  0
  8  9  2  0
  9 10  1  0
  7 11  1  0
 11 12  1  0
 12 13  1  0
  2 14  1  0
 14 15  2  0
 15 16  1  0
 16 17  2  0
 17 18  1  0
 18 19  2  0
 19 20  1  0
 20 21  2  0
 21 22  1  0
 22 23  2  0
  9  4  1  0
 23 14  1  0
 13  6  1  0
 23 18  1  0
M  END
>  <pair>  (182) 
x1140_0A-x1594_0A

>  <sucos>  (182) 
0.5197332919377817

>  <ref_mols>  (182) 
x1140_0A,x1594_0A

>  <original SMILES>  (182) 
O=C(Nc1cc2c(cc1Cl)OCO2)c1cnnc2ccccc12

>  <cmpd_ids>  (182) 
ENAMINE:PV-002222775277

>  <ref_url>  (182) 
https://github.com/stephwills/fragment_network_merges

>  <submitter_name>  (182) 
Steph Wills

>  <submitter_institution>  (182) 
University of Oxford

>  <submitter_email>  (182) 
stephanie.wills@balliol.ox.ac.uk

>  <generation_date>  (182) 
2023-09-06

>  <method>  (182) 
fragNetMergingIt3

>  <ref_pdb>  (182) 
x1140_0A,x1594_0A

$$$$
x1052-1A-x1594-0A-129
     RDKit          3D

 24 26  0  0  0  0  0  0  0  0999 V2000
   -8.1880   -8.3870   -6.4110 C   0  0  0  0  0  0  0  0  0  0  0  0
   -8.9860   -7.5180   -5.5540 N   0  0  0  0  0  0  0  0  0  0  0  0
   -8.9510   -7.8900   -4.1460 C   0  0  0  0  0  0  0  0  0  0  0  0
   -7.7090   -7.6930   -3.6240 C   0  0  0  0  0  0  0  0  0  0  0  0
   -6.9740   -6.7250   -4.4110 N   0  0  0  0  0  0  0  0  0  0  0  0
   -6.3780   -5.6450   -3.8120 C   0  0  0  0  0  0  0  0  0  0  0  0
   -6.7290   -4.4670   -3.9920 O   0  0  0  0  0  0  0  0  0  0  0  0
   -5.2710   -6.0340   -2.9350 C   0  0  0  0  0  0  0  0  0  0  0  0
   -5.8100   -6.3150   -1.7430 C   0  0  0  0  0  0  0  0  0  0  0  0
   -6.8480   -5.3530   -1.3410 C   0  0  0  0  0  0  0  0  0  0  0  0
   -7.3300   -5.7260   -0.1640 N   0  0  0  0  0  0  0  0  0  0  0  0
   -6.6220   -6.8900    0.1950 O   0  0  0  0  0  0  0  0  0  0  0  0
   -5.7100   -7.2330   -0.7600 C   0  0  0  0  0  0  0  0  0  0  0  0
  -10.0770   -6.7480   -5.9570 C   0  0  0  0  0  0  0  0  0  0  0  0
  -11.2340   -7.1470   -5.8380 O   0  0  0  0  0  0  0  0  0  0  0  0
   -9.8490   -5.3870   -6.5420 C   0  0  0  0  0  0  0  0  0  0  0  0
  -10.7800   -4.3920   -6.2740 C   0  0  0  0  0  0  0  0  0  0  0  0
  -10.6250   -3.1100   -6.8170 C   0  0  0  0  0  0  0  0  0  0  0  0
   -9.5290   -2.8210   -7.6400 C   0  0  0  0  0  0  0  0  0  0  0  0
   -8.6030   -3.8260   -7.8940 N   0  0  0  0  0  0  0  0  0  0  0  0
   -7.4830   -3.7690   -8.6450 N   0  0  0  0  0  0  0  0  0  0  0  0
   -6.8910   -4.9480   -8.6110 N   0  0  0  0  0  0  0  0  0  0  0  0
   -7.6250   -5.7780   -7.8380 C   0  0  0  0  0  0  0  0  0  0  0  0
   -8.7230   -5.1060   -7.3670 C   0  0  0  0  0  0  0  0  0  0  0  0
  1  2  1  0
  2  3  1  0
  3  4  1  0
  4  5  1  0
  5  6  1  0
  6  7  2  0
  6  8  1  0
  8  9  1  0
  9 10  1  0
 10 11  2  0
 11 12  1  0
 12 13  1  0
  2 14  1  0
 14 15  2  0
 14 16  1  0
 16 17  2  0
 17 18  1  0
 18 19  2  0
 19 20  1  0
 20 21  1  0
 21 22  2  0
 22 23  1  0
 23 24  2  0
 13  9  2  0
 24 16  1  0
 24 20  1  0
M  END
>  <pair>  (183) 
x1052_1A-x1594_0A

>  <sucos>  (183) 
0.5232715016355388

>  <ref_mols>  (183) 
x1052_1A,x1594_0A

>  <original SMILES>  (183) 
CN(CCNC(=O)Cc1cnoc1)C(=O)c1cccn2nncc12

>  <cmpd_ids>  (183) 
ENAMINE:PV-002762924263

>  <ref_url>  (183) 
https://github.com/stephwills/fragment_network_merges

>  <submitter_name>  (183) 
Steph Wills

>  <submitter_institution>  (183) 
University of Oxford

>  <submitter_email>  (183) 
stephanie.wills@balliol.ox.ac.uk

>  <generation_date>  (183) 
2023-09-06

>  <method>  (183) 
fragNetMergingIt3

>  <ref_pdb>  (183) 
x1052_1A,x1594_0A

$$$$
x1594-0A-x1052-1A-37
     RDKit          3D

 21 23  0  0  0  0  0  0  0  0999 V2000
   -8.2190   -8.3270   -5.8270 C   0  0  0  0  0  0  0  0  0  0  0  0
   -7.5260   -7.0600   -5.9020 N   0  0  0  0  0  0  0  0  0  0  0  0
   -7.0140   -6.7010   -7.2220 C   0  0  0  0  0  0  0  0  0  0  0  0
   -7.5490   -5.4090   -7.6620 C   0  0  0  0  0  0  0  0  0  0  0  0
   -6.9570   -4.6660   -8.5630 N   0  0  0  0  0  0  0  0  0  0  0  0
   -7.6920   -3.5350   -8.7320 N   0  0  0  0  0  0  0  0  0  0  0  0
   -8.7260   -3.6040   -7.9340 C   0  0  0  0  0  0  0  0  0  0  0  0
   -9.8030   -2.7210   -7.6930 C   0  0  0  0  0  0  0  0  0  0  0  0
  -10.7460   -3.0550   -6.7980 C   0  0  0  0  0  0  0  0  0  0  0  0
  -10.6900   -4.3140   -6.0690 C   0  0  0  0  0  0  0  0  0  0  0  0
   -9.6660   -5.1540   -6.2940 C   0  0  0  0  0  0  0  0  0  0  0  0
   -8.6910   -4.7940   -7.2220 N   0  0  0  0  0  0  0  0  0  0  0  0
   -6.9570   -6.5590   -4.7400 C   0  0  0  0  0  0  0  0  0  0  0  0
   -7.2790   -5.4860   -4.2430 O   0  0  0  0  0  0  0  0  0  0  0  0
   -5.9920   -7.3430   -4.1760 N   0  0  0  0  0  0  0  0  0  0  0  0
   -5.1260   -6.7500   -3.1840 C   0  0  0  0  0  0  0  0  0  0  0  0
   -5.9340   -6.5290   -1.9950 C   0  0  0  0  0  0  0  0  0  0  0  0
   -6.6280   -5.4120   -1.5940 C   0  0  0  0  0  0  0  0  0  0  0  0
   -7.3170   -5.5500   -0.4160 N   0  0  0  0  0  0  0  0  0  0  0  0
   -7.1220   -6.7690    0.0470 C   0  0  0  0  0  0  0  0  0  0  0  0
   -6.1200   -7.7940   -0.8700 S   0  0  0  0  0  0  0  0  0  0  0  0
  1  2  1  0
  2  3  1  0
  3  4  1  0
  4  5  2  0
  5  6  1  0
  6  7  2  0
  7  8  1  0
  8  9  2  0
  9 10  1  0
 10 11  2  0
 11 12  1  0
  2 13  1  0
 13 14  2  0
 13 15  1  0
 15 16  1  0
 16 17  1  0
 17 18  2  0
 18 19  1  0
 19 20  2  0
 20 21  1  0
 12  4  1  0
 21 17  1  0
 12  7  1  0
M  END
>  <pair>  (184) 
x1594_0A-x1052_1A

>  <sucos>  (184) 
0.5235223075195905

>  <ref_mols>  (184) 
x1594_0A,x1052_1A

>  <original SMILES>  (184) 
CN(Cc1nnc2ccccn12)C(=O)NCc1cncs1

>  <cmpd_ids>  (184) 
ENAMINE:Z1674727672

>  <ref_url>  (184) 
https://github.com/stephwills/fragment_network_merges

>  <submitter_name>  (184) 
Steph Wills

>  <submitter_institution>  (184) 
University of Oxford

>  <submitter_email>  (184) 
stephanie.wills@balliol.ox.ac.uk

>  <generation_date>  (184) 
2023-09-06

>  <method>  (184) 
fragNetMergingIt3

>  <ref_pdb>  (184) 
x1594_0A,x1052_1A

$$$$
x1052-1A-x1594-0A-64
     RDKit          3D

 21 23  0  0  0  0  0  0  0  0999 V2000
   -7.6070   -2.9710   -0.3560 C   0  0  0  0  0  0  0  0  0  0  0  0
   -6.5310   -3.3220   -1.2940 C   0  0  0  0  0  0  0  0  0  0  0  0
   -6.3070   -2.8190   -2.5460 C   0  0  0  0  0  0  0  0  0  0  0  0
   -6.5200   -4.8110   -1.4580 C   0  0  0  0  0  0  0  0  0  0  0  0
   -6.0440   -5.5330   -2.6220 C   0  0  0  0  0  0  0  0  0  0  0  0
   -6.2670   -6.8390   -2.3330 C   0  0  0  0  0  0  0  0  0  0  0  0
   -6.0250   -8.1070   -3.1680 C   0  0  0  0  0  0  0  0  0  0  0  0
   -6.9750   -8.2070   -4.3200 N   0  0  0  0  0  0  0  0  0  0  0  0
   -7.5070   -6.9290   -4.8940 C   0  0  0  0  0  0  0  0  0  0  0  0
   -7.1920   -6.7660   -6.4020 C   0  0  0  0  0  0  0  0  0  0  0  0
   -7.6430   -5.5640   -7.0730 N   0  0  0  0  0  0  0  0  0  0  0  0
   -6.9020   -5.0700   -8.0870 N   0  0  0  0  0  0  0  0  0  0  0  0
   -7.5200   -3.9590   -8.5180 N   0  0  0  0  0  0  0  0  0  0  0  0
   -8.6350   -3.8090   -7.7410 C   0  0  0  0  0  0  0  0  0  0  0  0
   -9.6140   -2.8290   -7.7490 C   0  0  0  0  0  0  0  0  0  0  0  0
  -10.6680   -2.9150   -6.8410 C   0  0  0  0  0  0  0  0  0  0  0  0
  -10.7390   -3.9690   -5.9360 C   0  0  0  0  0  0  0  0  0  0  0  0
   -9.7600   -4.9570   -5.9090 C   0  0  0  0  0  0  0  0  0  0  0  0
   -8.7340   -4.8330   -6.8210 C   0  0  0  0  0  0  0  0  0  0  0  0
   -6.8120   -6.9400   -1.0760 O   0  0  0  0  0  0  0  0  0  0  0  0
   -6.9740   -5.6700   -0.5310 N   0  0  0  0  0  0  0  0  0  0  0  0
  1  2  1  0
  2  3  1  0
  2  4  1  0
  4  5  1  0
  5  6  2  0
  6  7  1  0
  7  8  1  0
  8  9  1  0
  9 10  1  0
 10 11  1  0
 11 12  1  0
 12 13  2  0
 13 14  1  0
 14 15  2  0
 15 16  1  0
 16 17  2  0
 17 18  1  0
 18 19  2  0
  6 20  1  0
 20 21  1  0
 21  4  2  0
 19 11  1  0
 19 14  1  0
M  END
>  <pair>  (185) 
x1052_1A-x1594_0A

>  <sucos>  (185) 
0.5281662346004806

>  <ref_mols>  (185) 
x1052_1A,x1594_0A

>  <original SMILES>  (185) 
CC(C)c1cc(CNCCn2nnc3ccccc32)on1

>  <cmpd_ids>  (185) 
ENAMINE:Z3804177787

>  <ref_url>  (185) 
https://github.com/stephwills/fragment_network_merges

>  <submitter_name>  (185) 
Steph Wills

>  <submitter_institution>  (185) 
University of Oxford

>  <submitter_email>  (185) 
stephanie.wills@balliol.ox.ac.uk

>  <generation_date>  (185) 
2023-09-06

>  <method>  (185) 
fragNetMergingIt3

>  <ref_pdb>  (185) 
x1052_1A,x1594_0A

$$$$
x0147-0A-x1919-0A-51
     RDKit          3D

 23 26  0  0  0  0  0  0  0  0999 V2000
   -6.9450   -5.0860   -3.7260 C   0  0  0  0  0  0  0  0  0  0  0  0
   -7.1600   -6.5540   -4.1030 C   0  0  2  0  0  0  0  0  0  0  0  0
   -5.8510   -7.3790   -3.9930 C   0  0  0  0  0  0  0  0  0  0  0  0
   -5.3640   -7.8390   -2.6080 C   0  0  0  0  0  0  0  0  0  0  0  0
   -6.2360   -8.8370   -1.8500 C   0  0  0  0  0  0  0  0  0  0  0  0
   -5.7370   -9.2810   -0.4700 C   0  0  0  0  0  0  0  0  0  0  0  0
   -4.4260   -8.7100    0.0410 C   0  0  0  0  0  0  0  0  0  0  0  0
   -3.7230   -7.8200   -0.7450 C   0  0  0  0  0  0  0  0  0  0  0  0
   -4.1560   -7.3860   -2.0160 C   0  0  0  0  0  0  0  0  0  0  0  0
   -2.5360   -7.3270   -0.2790 O   0  0  0  0  0  0  0  0  0  0  0  0
   -2.1940   -7.6930    1.0790 C   0  0  0  0  0  0  0  0  0  0  0  0
   -3.2510   -8.0080    1.8380 C   0  0  0  0  0  0  0  0  0  0  0  0
   -3.9800   -9.0950    1.2670 O   0  0  0  0  0  0  0  0  0  0  0  0
   -7.7830   -6.6620   -5.4750 N   0  0  0  0  0  0  0  0  0  0  0  0
   -7.8210   -5.6960   -6.5270 C   0  0  0  0  0  0  0  0  0  0  0  0
   -6.9140   -5.6840   -7.5230 C   0  0  0  0  0  0  0  0  0  0  0  0
   -6.8660   -4.8080   -8.5470 N   0  0  0  0  0  0  0  0  0  0  0  0
   -7.7910   -3.9180   -8.5360 C   0  0  0  0  0  0  0  0  0  0  0  0
   -8.8020   -3.8720   -7.5690 C   0  0  0  0  0  0  0  0  0  0  0  0
   -9.8210   -3.0560   -7.4630 N   0  0  0  0  0  0  0  0  0  0  0  0
  -10.5070   -3.4180   -6.3490 N   0  0  0  0  0  0  0  0  0  0  0  0
   -9.8640   -4.4410   -5.8420 C   0  0  0  0  0  0  0  0  0  0  0  0
   -8.7710   -4.7710   -6.5880 N   0  0  0  0  0  0  0  0  0  0  0  0
  2  1  1  6
  2  3  1  0
  3  4  1  0
  4  5  2  0
  5  6  1  0
  6  7  2  0
  7  8  1  0
  8  9  2  0
  8 10  1  0
 10 11  1  0
 11 12  1  0
 12 13  1  0
  2 14  1  0
 14 15  1  0
 15 16  2  0
 16 17  1  0
 17 18  2  0
 18 19  1  0
 19 20  2  0
 20 21  1  0
 21 22  2  0
 22 23  1  0
  9  4  1  0
 23 15  1  0
 13  7  1  0
 23 19  1  0
M  END
>  <pair>  (186) 
x0147_0A-x1919_0A

>  <sucos>  (186) 
0.5568277147267184

>  <ref_mols>  (186) 
x0147_0A,x1919_0A

>  <original SMILES>  (186) 
CC(Cc1ccc2c(c1)OCCO2)Nc1cncc2nncn12

>  <cmpd_ids>  (186) 
ENAMINE:Z3650710956

>  <ref_url>  (186) 
https://github.com/stephwills/fragment_network_merges

>  <submitter_name>  (186) 
Steph Wills

>  <submitter_institution>  (186) 
University of Oxford

>  <submitter_email>  (186) 
stephanie.wills@balliol.ox.ac.uk

>  <generation_date>  (186) 
2023-09-06

>  <method>  (186) 
fragNetMergingIt3

>  <ref_pdb>  (186) 
x0147_0A,x1919_0A

$$$$
x1594-0A-x1052-1A-56
     RDKit          3D

 23 25  0  0  0  0  0  0  0  0999 V2000
   -8.6700   -4.2080   -3.8090 C   0  0  0  0  0  0  0  0  0  0  0  0
   -9.1430   -3.4520   -2.5780 C   0  0  1  0  0  0  0  0  0  0  0  0
  -10.5330   -3.9360   -2.1140 C   0  0  0  0  0  0  0  0  0  0  0  0
  -11.6140   -3.8020   -3.2010 C   0  0  0  0  0  0  0  0  0  0  0  0
  -11.6020   -4.9430   -4.1000 N   0  0  0  0  0  0  0  0  0  0  0  0
  -11.8770   -4.8060   -5.4400 C   0  0  0  0  0  0  0  0  0  0  0  0
  -12.9840   -4.9830   -5.9380 O   0  0  0  0  0  0  0  0  0  0  0  0
  -10.7220   -4.4230   -6.3000 C   0  0  0  0  0  0  0  0  0  0  0  0
  -10.6290   -3.1600   -6.9010 C   0  0  0  0  0  0  0  0  0  0  0  0
   -9.5470   -2.8490   -7.7070 C   0  0  0  0  0  0  0  0  0  0  0  0
   -8.5280   -3.8130   -7.9230 C   0  0  0  0  0  0  0  0  0  0  0  0
   -7.4200   -3.8150   -8.6210 N   0  0  0  0  0  0  0  0  0  0  0  0
   -6.8220   -5.0420   -8.4500 N   0  0  0  0  0  0  0  0  0  0  0  0
   -7.5770   -5.7540   -7.6600 C   0  0  0  0  0  0  0  0  0  0  0  0
   -8.6730   -5.0310   -7.2960 N   0  0  0  0  0  0  0  0  0  0  0  0
   -9.7530   -5.3450   -6.4910 C   0  0  0  0  0  0  0  0  0  0  0  0
   -8.2280   -3.6360   -1.4430 N   0  0  0  0  0  0  0  0  0  0  0  0
   -6.8330   -3.8340   -1.8390 C   0  0  0  0  0  0  0  0  0  0  0  0
   -6.4850   -5.2040   -1.4890 C   0  0  0  0  0  0  0  0  0  0  0  0
   -5.5560   -5.9490   -2.1350 C   0  0  0  0  0  0  0  0  0  0  0  0
   -5.4120   -7.5050   -1.4340 S   0  0  0  0  0  0  0  0  0  0  0  0
   -6.6210   -7.0900   -0.3010 C   0  0  0  0  0  0  0  0  0  0  0  0
   -7.1300   -5.8160   -0.4280 N   0  0  0  0  0  0  0  0  0  0  0  0
  2  1  1  6
  2  3  1  0
  3  4  1  0
  4  5  1  0
  5  6  1  0
  6  7  2  0
  6  8  1  0
  8  9  1  0
  9 10  2  0
 10 11  1  0
 11 12  2  0
 12 13  1  0
 13 14  2  0
 14 15  1  0
 15 16  1  0
  2 17  1  0
 17 18  1  0
 18 19  1  0
 19 20  2  0
 20 21  1  0
 21 22  1  0
 22 23  2  0
 16  8  2  0
 23 19  1  0
 15 11  1  0
M  END
>  <pair>  (187) 
x1594_0A-x1052_1A

>  <sucos>  (187) 
0.5748516187203401

>  <ref_mols>  (187) 
x1594_0A,x1052_1A

>  <original SMILES>  (187) 
CC(CCNC(=O)c1ccc2nncn2c1)NCc1cscn1

>  <cmpd_ids>  (187) 
ENAMINE:PV-000793259027,ENAMINE:PV-000969967078

>  <ref_url>  (187) 
https://github.com/stephwills/fragment_network_merges

>  <submitter_name>  (187) 
Steph Wills

>  <submitter_institution>  (187) 
University of Oxford

>  <submitter_email>  (187) 
stephanie.wills@balliol.ox.ac.uk

>  <generation_date>  (187) 
2023-09-06

>  <method>  (187) 
fragNetMergingIt3

>  <ref_pdb>  (187) 
x1594_0A,x1052_1A

$$$$
x1052-1A-x1594-0A-1
     RDKit          3D

 24 26  0  0  0  0  0  0  0  0999 V2000
  -10.5090   -7.2950   -2.2300 C   0  0  0  0  0  0  0  0  0  0  0  0
   -9.6800   -6.6910   -3.3610 C   0  0  2  0  0  0  0  0  0  0  0  0
   -9.1740   -5.2760   -3.0300 C   0  0  0  0  0  0  0  0  0  0  0  0
   -7.8620   -4.9260   -3.7350 C   0  0  0  0  0  0  0  0  0  0  0  0
   -7.2470   -3.7480   -3.1730 N   0  0  0  0  0  0  0  0  0  0  0  0
   -6.6480   -3.7640   -1.9340 C   0  0  0  0  0  0  0  0  0  0  0  0
   -6.4150   -2.7560   -1.2700 O   0  0  0  0  0  0  0  0  0  0  0  0
   -6.3170   -5.1100   -1.4730 C   0  0  0  0  0  0  0  0  0  0  0  0
   -5.2880   -5.9660   -1.9430 C   0  0  0  0  0  0  0  0  0  0  0  0
   -5.4110   -7.0950   -1.1830 C   0  0  0  0  0  0  0  0  0  0  0  0
   -6.4400   -6.9460   -0.3120 O   0  0  0  0  0  0  0  0  0  0  0  0
   -7.0150   -5.7010   -0.4900 N   0  0  0  0  0  0  0  0  0  0  0  0
  -10.4700   -6.6620   -4.5920 N   0  0  0  0  0  0  0  0  0  0  0  0
   -9.8570   -6.6950   -5.8230 C   0  0  0  0  0  0  0  0  0  0  0  0
   -9.4520   -7.7210   -6.3570 O   0  0  0  0  0  0  0  0  0  0  0  0
   -9.7120   -5.3690   -6.4760 C   0  0  0  0  0  0  0  0  0  0  0  0
  -10.6590   -4.4380   -6.2170 C   0  0  0  0  0  0  0  0  0  0  0  0
  -10.5590   -3.1220   -6.8380 C   0  0  0  0  0  0  0  0  0  0  0  0
   -9.5430   -2.8150   -7.6650 C   0  0  0  0  0  0  0  0  0  0  0  0
   -8.5450   -3.7940   -7.9390 C   0  0  0  0  0  0  0  0  0  0  0  0
   -7.4660   -3.7820   -8.6870 N   0  0  0  0  0  0  0  0  0  0  0  0
   -6.8660   -5.0120   -8.5800 N   0  0  0  0  0  0  0  0  0  0  0  0
   -7.5860   -5.7440   -7.7740 C   0  0  0  0  0  0  0  0  0  0  0  0
   -8.6680   -5.0340   -7.3320 N   0  0  0  0  0  0  0  0  0  0  0  0
  2  1  1  1
  2  3  1  0
  3  4  1  0
  4  5  1  0
  5  6  1  0
  6  7  2  0
  6  8  1  0
  8  9  1  0
  9 10  2  0
 10 11  1  0
 11 12  1  0
  2 13  1  0
 13 14  1  0
 14 15  2  0
 14 16  1  0
 16 17  2  0
 17 18  1  0
 18 19  2  0
 19 20  1  0
 20 21  2  0
 21 22  1  0
 22 23  2  0
 23 24  1  0
 12  8  2  0
 24 16  1  0
 24 20  1  0
M  END
>  <pair>  (188) 
x1052_1A-x1594_0A

>  <sucos>  (188) 
0.579731453801765

>  <ref_mols>  (188) 
x1052_1A,x1594_0A

>  <original SMILES>  (188) 
CC(CCNC(=O)c1ccon1)NC(=O)c1cccc2nncn12

>  <cmpd_ids>  (188) 
ENAMINE:PV-002730707850,ENAMINE:PV-002730707851

>  <ref_url>  (188) 
https://github.com/stephwills/fragment_network_merges

>  <submitter_name>  (188) 
Steph Wills

>  <submitter_institution>  (188) 
University of Oxford

>  <submitter_email>  (188) 
stephanie.wills@balliol.ox.ac.uk

>  <generation_date>  (188) 
2023-09-06

>  <method>  (188) 
fragNetMergingIt3

>  <ref_pdb>  (188) 
x1052_1A,x1594_0A

$$$$
x1140-0A-x1594-0A-43
     RDKit          3D

 23 26  0  0  0  0  0  0  0  0999 V2000
   -8.9930   -7.7220   -4.7410 O   0  0  0  0  0  0  0  0  0  0  0  0
   -8.4060   -6.6500   -4.6560 C   0  0  0  0  0  0  0  0  0  0  0  0
   -7.3680   -6.4380   -3.7240 O   0  0  0  0  0  0  0  0  0  0  0  0
   -6.2570   -7.4210   -3.6500 C   0  0  0  0  0  0  0  0  0  0  0  0
   -5.6490   -7.7790   -2.2460 C   0  0  0  0  0  0  0  0  0  0  0  0
   -4.3190   -7.3630   -1.9220 C   0  0  0  0  0  0  0  0  0  0  0  0
   -3.7650   -7.6870   -0.6790 C   0  0  0  0  0  0  0  0  0  0  0  0
   -4.4590   -8.3950    0.2630 C   0  0  0  0  0  0  0  0  0  0  0  0
   -5.7450   -8.8270    0.0170 C   0  0  0  0  0  0  0  0  0  0  0  0
   -6.3370   -8.5230   -1.2320 C   0  0  0  0  0  0  0  0  0  0  0  0
   -7.9490   -9.0970   -1.4740 Cl  0  0  0  0  0  0  0  0  0  0  0  0
   -3.7370   -8.6020    1.4060 O   0  0  0  0  0  0  0  0  0  0  0  0
   -2.5440   -7.8400    1.1150 C   0  0  0  0  0  0  0  0  0  0  0  0
   -2.5160   -7.3660   -0.2440 O   0  0  0  0  0  0  0  0  0  0  0  0
   -8.7890   -5.4670   -5.5910 C   0  0  0  0  0  0  0  0  0  0  0  0
   -9.8210   -4.6350   -5.2310 C   0  0  0  0  0  0  0  0  0  0  0  0
  -10.2470   -3.4830   -6.0390 C   0  0  0  0  0  0  0  0  0  0  0  0
   -9.6040   -3.2190   -7.1840 C   0  0  0  0  0  0  0  0  0  0  0  0
   -8.5680   -4.0530   -7.5800 N   0  0  0  0  0  0  0  0  0  0  0  0
   -7.8220   -3.9610   -8.6920 N   0  0  0  0  0  0  0  0  0  0  0  0
   -6.9630   -4.9500   -8.7100 N   0  0  0  0  0  0  0  0  0  0  0  0
   -7.1420   -5.6950   -7.5940 C   0  0  0  0  0  0  0  0  0  0  0  0
   -8.1460   -5.1650   -6.8360 C   0  0  0  0  0  0  0  0  0  0  0  0
  1  2  2  0
  2  3  1  0
  3  4  1  0
  4  5  1  0
  5  6  2  0
  6  7  1  0
  7  8  2  0
  8  9  1  0
  9 10  2  0
 10 11  1  0
  8 12  1  0
 12 13  1  0
 13 14  1  0
  2 15  1  0
 15 16  2  0
 16 17  1  0
 17 18  2  0
 18 19  1  0
 19 20  1  0
 20 21  2  0
 21 22  1  0
 22 23  2  0
 10  5  1  0
 23 15  1  0
 14  7  1  0
 23 19  1  0
M  END
>  <pair>  (189) 
x1140_0A-x1594_0A

>  <sucos>  (189) 
0.6079411964417926

>  <ref_mols>  (189) 
x1140_0A,x1594_0A

>  <original SMILES>  (189) 
O=C(OCc1cc2c(cc1Cl)OCO2)c1cccn2nncc12

>  <cmpd_ids>  (189) 
ENAMINE:PV-002956863267

>  <ref_url>  (189) 
https://github.com/stephwills/fragment_network_merges

>  <submitter_name>  (189) 
Steph Wills

>  <submitter_institution>  (189) 
University of Oxford

>  <submitter_email>  (189) 
stephanie.wills@balliol.ox.ac.uk

>  <generation_date>  (189) 
2023-09-06

>  <method>  (189) 
fragNetMergingIt3

>  <ref_pdb>  (189) 
x1140_0A,x1594_0A

$$$$
x1594-0A-x2021-0A-81
     RDKit          3D

 23 24  0  0  0  0  0  0  0  0999 V2000
   -5.8460   -0.8370   -0.3080 C   0  0  0  0  0  0  0  0  0  0  0  0
   -6.0870   -2.2470   -0.3570 O   0  0  0  0  0  0  0  0  0  0  0  0
   -6.1940   -2.6860   -1.6420 C   0  0  0  0  0  0  0  0  0  0  0  0
   -5.9750   -1.9870   -2.6180 O   0  0  0  0  0  0  0  0  0  0  0  0
   -6.5790   -4.1470   -1.7280 C   0  0  0  0  0  0  0  0  0  0  0  0
   -7.6640   -4.3920   -2.7940 C   0  0  2  0  0  0  0  0  0  0  0  0
   -9.1040   -4.2420   -2.2440 C   0  0  0  0  0  0  0  0  0  0  0  0
  -10.2830   -4.2250   -3.1910 N   0  0  0  0  0  0  0  0  0  0  0  0
  -10.5090   -3.4180   -4.3530 C   0  0  0  0  0  0  0  0  0  0  0  0
  -11.1960   -2.4040   -4.3890 O   0  0  0  0  0  0  0  0  0  0  0  0
   -9.8040   -3.9860   -5.5400 C   0  0  0  0  0  0  0  0  0  0  0  0
   -9.6510   -5.4200   -5.5080 C   0  0  0  0  0  0  0  0  0  0  0  0
   -8.9100   -6.0280   -6.4160 C   0  0  0  0  0  0  0  0  0  0  0  0
   -8.2990   -5.2720   -7.3800 N   0  0  0  0  0  0  0  0  0  0  0  0
   -7.4330   -5.6450   -8.3530 C   0  0  0  0  0  0  0  0  0  0  0  0
   -7.1010   -4.6090   -9.0660 N   0  0  0  0  0  0  0  0  0  0  0  0
   -7.7620   -3.5150   -8.5550 N   0  0  0  0  0  0  0  0  0  0  0  0
   -8.4730   -3.9080   -7.5260 C   0  0  0  0  0  0  0  0  0  0  0  0
   -9.2970   -3.2360   -6.5620 C   0  0  0  0  0  0  0  0  0  0  0  0
   -7.5060   -5.6910   -3.5510 C   0  0  0  0  0  0  0  0  0  0  0  0
   -6.5880   -6.5380   -3.0290 F   0  0  0  0  0  0  0  0  0  0  0  0
   -7.1090   -5.4310   -4.8040 F   0  0  0  0  0  0  0  0  0  0  0  0
   -8.6720   -6.3610   -3.5940 F   0  0  0  0  0  0  0  0  0  0  0  0
  1  2  1  0
  2  3  1  0
  3  4  2  0
  3  5  1  0
  6  5  1  1
  6  7  1  0
  7  8  1  0
  8  9  1  0
  9 10  2  0
  9 11  1  0
 11 12  1  0
 12 13  2  0
 13 14  1  0
 14 15  1  0
 15 16  2  0
 16 17  1  0
 17 18  2  0
 18 19  1  0
  6 20  1  0
 20 21  1  0
 20 22  1  0
 20 23  1  0
 19 11  2  0
 18 14  1  0
M  END
>  <pair>  (190) 
x1594_0A-x2021_0A

>  <sucos>  (190) 
0.401542130139851

>  <ref_mols>  (190) 
x1594_0A,x2021_0A

>  <original SMILES>  (190) 
COC(=O)CC(CNC(=O)c1ccn2cnnc2c1)C(F)(F)F

>  <cmpd_ids>  (190) 
ENAMINE:Z4294604989

>  <ref_url>  (190) 
https://github.com/stephwills/fragment_network_merges

>  <submitter_name>  (190) 
Steph Wills

>  <submitter_institution>  (190) 
University of Oxford

>  <submitter_email>  (190) 
stephanie.wills@balliol.ox.ac.uk

>  <generation_date>  (190) 
2023-09-06

>  <method>  (190) 
fragNetMergingIt3

>  <ref_pdb>  (190) 
x1594_0A,x2021_0A

$$$$
x1594-0A-x1052-1A-121
     RDKit          3D

 21 23  0  0  0  0  0  0  0  0999 V2000
   -7.3460   -7.0140   -7.0840 C   0  0  0  0  0  0  0  0  0  0  0  0
   -7.6230   -5.6340   -7.6300 C   0  0  0  0  0  0  0  0  0  0  0  0
   -6.9680   -4.9890   -8.5660 N   0  0  0  0  0  0  0  0  0  0  0  0
   -7.5680   -3.7730   -8.7400 N   0  0  0  0  0  0  0  0  0  0  0  0
   -8.5800   -3.6990   -7.9070 C   0  0  0  0  0  0  0  0  0  0  0  0
   -9.5530   -2.7030   -7.6330 C   0  0  0  0  0  0  0  0  0  0  0  0
  -10.5360   -2.9650   -6.6130 C   0  0  0  0  0  0  0  0  0  0  0  0
  -10.5230   -4.2320   -5.8770 C   0  0  0  0  0  0  0  0  0  0  0  0
  -11.4260   -4.5870   -4.8390 C   0  0  0  0  0  0  0  0  0  0  0  0
  -12.5620   -4.1490   -4.7400 O   0  0  0  0  0  0  0  0  0  0  0  0
  -10.8370   -5.4770   -3.9870 O   0  0  0  0  0  0  0  0  0  0  0  0
   -9.6390   -4.9950   -3.3370 C   0  0  0  0  0  0  0  0  0  0  0  0
   -8.5060   -6.0270   -3.4640 C   0  0  0  0  0  0  0  0  0  0  0  0
   -7.5750   -6.2570   -2.3890 C   0  0  0  0  0  0  0  0  0  0  0  0
   -6.2230   -5.9630   -2.5390 C   0  0  0  0  0  0  0  0  0  0  0  0
   -5.4010   -6.2110   -1.4660 C   0  0  0  0  0  0  0  0  0  0  0  0
   -5.8250   -6.7110   -0.3020 N   0  0  0  0  0  0  0  0  0  0  0  0
   -7.1260   -6.9820   -0.1780 C   0  0  0  0  0  0  0  0  0  0  0  0
   -8.0390   -6.7770   -1.1830 C   0  0  0  0  0  0  0  0  0  0  0  0
   -9.5850   -5.1360   -6.1930 C   0  0  0  0  0  0  0  0  0  0  0  0
   -8.6470   -4.8670   -7.1750 N   0  0  0  0  0  0  0  0  0  0  0  0
  1  2  1  0
  2  3  2  0
  3  4  1  0
  4  5  2  0
  5  6  1  0
  6  7  2  0
  7  8  1  0
  8  9  1  0
  9 10  2  0
  9 11  1  0
 11 12  1  0
 12 13  1  0
 13 14  1  0
 14 15  2  0
 15 16  1  0
 16 17  2  0
 17 18  1  0
 18 19  2  0
  8 20  2  0
 20 21  1  0
 21  2  1  0
 21  5  1  0
 19 14  1  0
M  END
>  <pair>  (191) 
x1594_0A-x1052_1A

>  <sucos>  (191) 
0.40364308158013745

>  <ref_mols>  (191) 
x1594_0A,x1052_1A

>  <original SMILES>  (191) 
Cc1nnc2ccc(C(=O)OCCc3ccncc3)cn12

>  <cmpd_ids>  (191) 
ENAMINE:PV-003353058263

>  <ref_url>  (191) 
https://github.com/stephwills/fragment_network_merges

>  <submitter_name>  (191) 
Steph Wills

>  <submitter_institution>  (191) 
University of Oxford

>  <submitter_email>  (191) 
stephanie.wills@balliol.ox.ac.uk

>  <generation_date>  (191) 
2023-09-06

>  <method>  (191) 
fragNetMergingIt3

>  <ref_pdb>  (191) 
x1594_0A,x1052_1A

$$$$
x1594-0A-x2021-0A-186
     RDKit          3D

 21 22  0  0  0  0  0  0  0  0999 V2000
   -5.3930   -0.5070   -2.1350 C   0  0  0  0  0  0  0  0  0  0  0  0
   -5.8710   -0.8210   -0.7190 C   0  0  0  0  0  0  0  0  0  0  0  0
   -6.0280   -2.2270   -0.5080 O   0  0  0  0  0  0  0  0  0  0  0  0
   -6.5600   -2.9350   -1.6350 C   0  0  0  0  0  0  0  0  0  0  0  0
   -6.4480   -4.4510   -1.4360 C   0  0  0  0  0  0  0  0  0  0  0  0
   -6.1230   -5.1430   -2.6330 O   0  0  0  0  0  0  0  0  0  0  0  0
   -7.2350   -5.3580   -3.5060 C   0  0  0  0  0  0  0  0  0  0  0  0
   -7.2130   -6.6140   -3.9850 C   0  0  0  0  0  0  0  0  0  0  0  0
   -8.5660   -7.1270   -4.1320 N   0  0  0  0  0  0  0  0  0  0  0  0
   -9.7040   -6.3100   -4.3790 C   0  0  0  0  0  0  0  0  0  0  0  0
  -10.7640   -6.4010   -3.7660 O   0  0  0  0  0  0  0  0  0  0  0  0
   -9.5010   -5.3090   -5.4810 C   0  0  0  0  0  0  0  0  0  0  0  0
  -10.0920   -3.9560   -5.6640 C   0  0  0  0  0  0  0  0  0  0  0  0
   -9.6810   -3.2090   -6.6950 C   0  0  0  0  0  0  0  0  0  0  0  0
   -8.6570   -3.7200   -7.6440 C   0  0  0  0  0  0  0  0  0  0  0  0
   -8.0590   -3.2410   -8.6850 N   0  0  0  0  0  0  0  0  0  0  0  0
   -7.2110   -4.2010   -9.1520 N   0  0  0  0  0  0  0  0  0  0  0  0
   -7.3170   -5.2300   -8.3930 C   0  0  0  0  0  0  0  0  0  0  0  0
   -6.4500   -6.6750   -8.6330 S   0  0  0  0  0  0  0  0  0  0  0  0
   -8.2050   -4.9940   -7.4040 N   0  0  0  0  0  0  0  0  0  0  0  0
   -8.6190   -5.7640   -6.3590 C   0  0  0  0  0  0  0  0  0  0  0  0
  1  2  1  0
  2  3  1  0
  3  4  1  0
  4  5  1  0
  5  6  1  0
  6  7  1  0
  7  8  1  0
  8  9  1  0
  9 10  1  0
 10 11  2  0
 10 12  1  0
 12 13  1  0
 13 14  2  0
 14 15  1  0
 15 16  2  0
 16 17  1  0
 17 18  2  0
 18 19  1  0
 18 20  1  0
 20 21  1  0
 21 12  2  0
 20 15  1  0
M  END
>  <pair>  (192) 
x1594_0A-x2021_0A

>  <sucos>  (192) 
0.4047963272524921

>  <ref_mols>  (192) 
x1594_0A,x2021_0A

>  <original SMILES>  (192) 
CCOCCOCCNC(=O)c1ccc2nnc(S)n2c1

>  <cmpd_ids>  (192) 
ENAMINE:Z2962959470

>  <ref_url>  (192) 
https://github.com/stephwills/fragment_network_merges

>  <submitter_name>  (192) 
Steph Wills

>  <submitter_institution>  (192) 
University of Oxford

>  <submitter_email>  (192) 
stephanie.wills@balliol.ox.ac.uk

>  <generation_date>  (192) 
2023-09-06

>  <method>  (192) 
fragNetMergingIt3

>  <ref_pdb>  (192) 
x1594_0A,x2021_0A

$$$$
x1052-1A-x1594-0A-134
     RDKit          3D

 21 24  0  0  0  0  0  0  0  0999 V2000
  -11.3770   -3.4030   -6.1430 C   0  0  0  0  0  0  0  0  0  0  0  0
  -10.9060   -2.4670   -7.1290 C   0  0  0  0  0  0  0  0  0  0  0  0
   -9.7610   -2.4650   -7.8630 C   0  0  0  0  0  0  0  0  0  0  0  0
   -8.9530   -3.6070   -7.5520 C   0  0  0  0  0  0  0  0  0  0  0  0
   -7.7340   -3.8470   -8.1780 N   0  0  0  0  0  0  0  0  0  0  0  0
   -6.9910   -4.9220   -7.8250 N   0  0  0  0  0  0  0  0  0  0  0  0
   -7.4330   -5.7620   -6.8590 C   0  0  0  0  0  0  0  0  0  0  0  0
   -6.7790   -6.8590   -6.3620 N   0  0  0  0  0  0  0  0  0  0  0  0
   -6.6270   -7.0270   -4.8820 C   0  0  0  0  0  0  0  0  0  0  0  0
   -7.0730   -5.8560   -3.9710 C   0  0  0  0  0  0  0  0  0  0  0  0
   -6.5860   -6.0760   -2.5610 C   0  0  0  0  0  0  0  0  0  0  0  0
   -5.3660   -6.5280   -2.1430 C   0  0  0  0  0  0  0  0  0  0  0  0
   -5.3010   -6.6270   -0.8030 C   0  0  0  0  0  0  0  0  0  0  0  0
   -4.2330   -7.0550   -0.0260 C   0  0  0  0  0  0  0  0  0  0  0  0
   -3.3280   -7.8770   -0.4760 C   0  0  0  0  0  0  0  0  0  0  0  0
   -4.0680   -8.6570    0.2820 C   0  0  0  0  0  0  0  0  0  0  0  0
   -6.5190   -6.2160   -0.3510 O   0  0  0  0  0  0  0  0  0  0  0  0
   -7.3390   -5.8610   -1.4530 N   0  0  0  0  0  0  0  0  0  0  0  0
   -8.6040   -5.5960   -6.2510 C   0  0  0  0  0  0  0  0  0  0  0  0
   -9.3920   -4.5350   -6.5690 C   0  0  0  0  0  0  0  0  0  0  0  0
  -10.5740   -4.4530   -5.8770 C   0  0  0  0  0  0  0  0  0  0  0  0
  1  2  2  0
  2  3  1  0
  3  4  2  0
  4  5  1  0
  5  6  2  0
  6  7  1  0
  7  8  1  0
  8  9  1  0
  9 10  1  0
 10 11  1  0
 11 12  1  0
 12 13  2  0
 13 14  1  0
 14 15  1  0
 15 16  1  0
 13 17  1  0
 17 18  1  0
  7 19  2  0
 19 20  1  0
 20 21  2  0
 21  1  1  0
 20  4  1  0
 18 11  2  0
 16 14  1  0
M  END
>  <pair>  (193) 
x1052_1A-x1594_0A

>  <sucos>  (193) 
0.40549402268061874

>  <ref_mols>  (193) 
x1052_1A,x1594_0A

>  <original SMILES>  (193) 
c1ccc2nnc(NCCc3cc(C4CC4)on3)cc2c1

>  <cmpd_ids>  (193) 
ENAMINE:Z4233696390

>  <ref_url>  (193) 
https://github.com/stephwills/fragment_network_merges

>  <submitter_name>  (193) 
Steph Wills

>  <submitter_institution>  (193) 
University of Oxford

>  <submitter_email>  (193) 
stephanie.wills@balliol.ox.ac.uk

>  <generation_date>  (193) 
2023-09-06

>  <method>  (193) 
fragNetMergingIt3

>  <ref_pdb>  (193) 
x1052_1A,x1594_0A

$$$$
x0147-0A-x1052-1A-65
     RDKit          3D

 20 23  0  0  0  0  0  0  0  0999 V2000
   -6.4860   -5.3670   -0.7960 C   0  0  0  0  0  0  0  0  0  0  0  0
   -5.2570   -6.2520   -0.5930 C   0  0  0  0  0  0  0  0  0  0  0  0
   -5.2050   -7.4030   -1.8320 S   0  0  0  0  0  0  0  0  0  0  0  0
   -6.6360   -6.7280   -2.4810 C   0  0  0  0  0  0  0  0  0  0  0  0
   -7.1400   -7.2720   -3.6660 N   0  0  0  0  0  0  0  0  0  0  0  0
   -7.1020   -6.6270   -4.8780 C   0  0  0  0  0  0  0  0  0  0  0  0
   -7.6450   -7.4250   -5.8000 C   0  0  0  0  0  0  0  0  0  0  0  0
   -7.7420   -7.0700   -7.1040 N   0  0  0  0  0  0  0  0  0  0  0  0
   -7.8570   -5.7940   -7.5500 C   0  0  0  0  0  0  0  0  0  0  0  0
   -6.9300   -5.2420   -8.2880 N   0  0  0  0  0  0  0  0  0  0  0  0
   -7.1330   -3.9810   -8.6830 C   0  0  0  0  0  0  0  0  0  0  0  0
   -8.1650   -3.2380   -8.4210 C   0  0  0  0  0  0  0  0  0  0  0  0
   -9.1300   -3.7390   -7.6740 N   0  0  0  0  0  0  0  0  0  0  0  0
  -10.2860   -3.2190   -7.2320 C   0  0  0  0  0  0  0  0  0  0  0  0
  -10.9050   -4.1190   -6.5160 N   0  0  0  0  0  0  0  0  0  0  0  0
  -10.1160   -5.2650   -6.4960 N   0  0  0  0  0  0  0  0  0  0  0  0
   -9.0390   -4.9970   -7.2120 C   0  0  0  0  0  0  0  0  0  0  0  0
   -8.0200   -8.5820   -5.0790 C   0  0  0  0  0  0  0  0  0  0  0  0
   -7.7160   -8.4980   -3.7700 N   0  0  0  0  0  0  0  0  0  0  0  0
   -7.2200   -5.7010   -1.8800 N   0  0  0  0  0  0  0  0  0  0  0  0
  1  2  2  0
  2  3  1  0
  3  4  1  0
  4  5  1  0
  5  6  1  0
  6  7  2  0
  7  8  1  0
  8  9  1  0
  9 10  2  0
 10 11  1  0
 11 12  2  0
 12 13  1  0
 13 14  1  0
 14 15  2  0
 15 16  1  0
 16 17  2  0
  7 18  1  0
 18 19  2  0
  4 20  2  0
 20  1  1  0
 19  5  1  0
 17  9  1  0
 17 13  1  0
M  END
>  <pair>  (194) 
x0147_0A-x1052_1A

>  <sucos>  (194) 
0.4056758364570804

>  <ref_mols>  (194) 
x0147_0A,x1052_1A

>  <original SMILES>  (194) 
c1csc(-n2cc(Nc3nccn4cnnc34)cn2)n1

>  <cmpd_ids>  (194) 
ENAMINE:Z1576989364

>  <ref_url>  (194) 
https://github.com/stephwills/fragment_network_merges

>  <submitter_name>  (194) 
Steph Wills

>  <submitter_institution>  (194) 
University of Oxford

>  <submitter_email>  (194) 
stephanie.wills@balliol.ox.ac.uk

>  <generation_date>  (194) 
2023-09-06

>  <method>  (194) 
fragNetMergingIt3

>  <ref_pdb>  (194) 
x0147_0A,x1052_1A

$$$$
x1052-1A-x1604-0A-180
     RDKit          3D

 22 24  0  0  0  0  0  0  0  0999 V2000
   -7.7830   -5.1530   -4.5830 C   0  0  0  0  0  0  0  0  0  0  0  0
   -7.9390   -4.7120   -3.1950 N   0  0  0  0  0  0  0  0  0  0  0  0
   -9.1310   -4.0360   -2.8200 C   0  0  0  0  0  0  0  0  0  0  0  0
   -9.2990   -3.4580   -1.7460 O   0  0  0  0  0  0  0  0  0  0  0  0
  -10.1850   -4.0440   -3.7680 N   0  0  0  0  0  0  0  0  0  0  0  0
  -10.2910   -2.9700   -4.7800 C   0  0  0  0  0  0  0  0  0  0  0  0
  -11.4230   -2.9500   -5.6120 C   0  0  2  0  0  0  0  0  0  0  0  0
  -12.0120   -4.2290   -5.5690 C   0  0  0  0  0  0  0  0  0  0  0  0
  -11.3690   -5.3570   -6.2310 C   0  0  0  0  0  0  0  0  0  0  0  0
  -11.8220   -6.4940   -6.2050 O   0  0  0  0  0  0  0  0  0  0  0  0
  -10.1310   -4.9810   -6.9340 C   0  0  0  0  0  0  0  0  0  0  0  0
   -9.1260   -5.9030   -7.2540 C   0  0  0  0  0  0  0  0  0  0  0  0
   -7.9760   -5.4770   -7.9240 C   0  0  0  0  0  0  0  0  0  0  0  0
   -7.8400   -4.1340   -8.2680 C   0  0  0  0  0  0  0  0  0  0  0  0
   -8.8450   -3.2180   -7.9430 C   0  0  0  0  0  0  0  0  0  0  0  0
   -9.9920   -3.6390   -7.2730 C   0  0  0  0  0  0  0  0  0  0  0  0
  -10.9470   -2.7030   -6.9610 O   0  0  0  0  0  0  0  0  0  0  0  0
   -7.1090   -5.3980   -2.2420 C   0  0  0  0  0  0  0  0  0  0  0  0
   -5.7200   -5.9150   -2.3600 C   0  0  0  0  0  0  0  0  0  0  0  0
   -5.4110   -6.5390   -1.0760 C   0  0  0  0  0  0  0  0  0  0  0  0
   -6.4690   -6.4280   -0.2510 O   0  0  0  0  0  0  0  0  0  0  0  0
   -7.4980   -5.7320   -0.9520 N   0  0  0  0  0  0  0  0  0  0  0  0
  1  2  1  0
  2  3  1  0
  3  4  2  0
  3  5  1  0
  5  6  1  0
  7  6  1  1
  7  8  1  0
  8  9  1  0
  9 10  2  0
  9 11  1  0
 11 12  2  0
 12 13  1  0
 13 14  2  0
 14 15  1  0
 15 16  2  0
 16 17  1  0
  2 18  1  0
 18 19  1  0
 19 20  2  0
 20 21  1  0
 21 22  1  0
 17  7  1  0
 22 18  2  0
 16 11  1  0
M  END
>  <pair>  (195) 
x1052_1A-x1604_0A

>  <sucos>  (195) 
0.4058022826369353

>  <ref_mols>  (195) 
x1052_1A,x1604_0A

>  <original SMILES>  (195) 
CN(C(=O)NCC1CC(=O)c2ccccc2O1)c1ccon1

>  <cmpd_ids>  (195) 
ENAMINE:Z4117752719

>  <ref_url>  (195) 
https://github.com/stephwills/fragment_network_merges

>  <submitter_name>  (195) 
Steph Wills

>  <submitter_institution>  (195) 
University of Oxford

>  <submitter_email>  (195) 
stephanie.wills@balliol.ox.ac.uk

>  <generation_date>  (195) 
2023-09-06

>  <method>  (195) 
fragNetMergingIt3

>  <ref_pdb>  (195) 
x1052_1A,x1604_0A

$$$$
x1052-1A-x1594-0A-21
     RDKit          3D

 23 25  0  0  0  0  0  0  0  0999 V2000
   -4.0200   -7.3090    0.1000 C   0  0  0  0  0  0  0  0  0  0  0  0
   -5.0550   -6.7430   -0.7830 C   0  0  0  0  0  0  0  0  0  0  0  0
   -5.0800   -6.4240   -2.1100 C   0  0  0  0  0  0  0  0  0  0  0  0
   -6.3720   -5.9250   -2.3340 C   0  0  0  0  0  0  0  0  0  0  0  0
   -6.9150   -5.4790   -3.5210 N   0  0  0  0  0  0  0  0  0  0  0  0
   -7.6290   -6.3090   -4.3790 C   0  0  0  0  0  0  0  0  0  0  0  0
   -8.8310   -6.5400   -4.2670 O   0  0  0  0  0  0  0  0  0  0  0  0
   -6.8180   -6.9760   -5.5200 C   0  0  0  0  0  0  0  0  0  0  0  0
   -7.2360   -6.4910   -6.8550 N   0  0  0  0  0  0  0  0  0  0  0  0
   -6.2830   -6.0530   -7.8860 C   0  0  0  0  0  0  0  0  0  0  0  0
   -8.4870   -5.9660   -6.8650 C   0  0  0  0  0  0  0  0  0  0  0  0
   -9.4640   -6.5330   -6.3790 O   0  0  0  0  0  0  0  0  0  0  0  0
   -8.6150   -4.7160   -7.4690 C   0  0  0  0  0  0  0  0  0  0  0  0
   -7.7230   -4.1530   -8.3180 N   0  0  0  0  0  0  0  0  0  0  0  0
   -8.2260   -3.0190   -8.6400 N   0  0  0  0  0  0  0  0  0  0  0  0
   -9.4280   -2.8560   -8.0140 N   0  0  0  0  0  0  0  0  0  0  0  0
  -10.3340   -1.8360   -8.0640 C   0  0  0  0  0  0  0  0  0  0  0  0
  -11.4740   -1.8920   -7.3390 C   0  0  0  0  0  0  0  0  0  0  0  0
  -11.7140   -3.0540   -6.5110 C   0  0  0  0  0  0  0  0  0  0  0  0
  -10.8420   -4.0340   -6.4790 C   0  0  0  0  0  0  0  0  0  0  0  0
   -9.6700   -3.9360   -7.2550 C   0  0  0  0  0  0  0  0  0  0  0  0
   -7.0960   -5.9300   -1.1990 N   0  0  0  0  0  0  0  0  0  0  0  0
   -6.2640   -6.4510   -0.2270 O   0  0  0  0  0  0  0  0  0  0  0  0
  1  2  1  0
  2  3  2  0
  3  4  1  0
  4  5  1  0
  5  6  1  0
  6  7  2  0
  6  8  1  0
  8  9  1  0
  9 10  1  0
  9 11  1  0
 11 12  2  0
 11 13  1  0
 13 14  1  0
 14 15  2  0
 15 16  1  0
 16 17  1  0
 17 18  2  0
 18 19  1  0
 19 20  2  0
 20 21  1  0
  4 22  2  0
 22 23  1  0
 23  2  1  0
 21 13  2  0
 21 16  1  0
M  END
>  <pair>  (196) 
x1052_1A-x1594_0A

>  <sucos>  (196) 
0.4060931262577862

>  <ref_mols>  (196) 
x1052_1A,x1594_0A

>  <original SMILES>  (196) 
Cc1cc(NC(=O)CN(C)C(=O)c2nnn3ccccc23)no1

>  <cmpd_ids>  (196) 
ENAMINE:PV-002350083141

>  <ref_url>  (196) 
https://github.com/stephwills/fragment_network_merges

>  <submitter_name>  (196) 
Steph Wills

>  <submitter_institution>  (196) 
University of Oxford

>  <submitter_email>  (196) 
stephanie.wills@balliol.ox.ac.uk

>  <generation_date>  (196) 
2023-09-06

>  <method>  (196) 
fragNetMergingIt3

>  <ref_pdb>  (196) 
x1052_1A,x1594_0A

$$$$
x1052-1A-x1140-0A-43
     RDKit          3D

 24 26  0  0  0  0  0  0  0  0999 V2000
   -7.5850   -7.8700   -5.6440 O   0  0  0  0  0  0  0  0  0  0  0  0
   -7.6240   -8.8810   -4.9550 C   0  0  0  0  0  0  0  0  0  0  0  0
   -6.4200   -9.4450   -4.1660 C   0  0  0  0  0  0  0  0  0  0  0  0
   -5.5250   -8.2830   -3.6730 C   0  0  0  0  0  0  0  0  0  0  0  0
   -5.0900   -8.4540   -2.2270 C   0  0  0  0  0  0  0  0  0  0  0  0
   -5.7660   -9.3760   -1.4170 C   0  0  0  0  0  0  0  0  0  0  0  0
   -5.4050   -9.5640   -0.0900 C   0  0  0  0  0  0  0  0  0  0  0  0
   -4.3610   -8.8390    0.4580 C   0  0  0  0  0  0  0  0  0  0  0  0
   -3.6690   -7.9120   -0.3190 C   0  0  0  0  0  0  0  0  0  0  0  0
   -4.0240   -7.7110   -1.6600 C   0  0  0  0  0  0  0  0  0  0  0  0
   -2.6370   -7.1740    0.1710 O   0  0  0  0  0  0  0  0  0  0  0  0
   -2.2260   -7.6010    1.4800 C   0  0  0  0  0  0  0  0  0  0  0  0
   -3.3800   -8.0210    2.3600 C   0  0  0  0  0  0  0  0  0  0  0  0
   -4.0810   -9.1060    1.7670 O   0  0  0  0  0  0  0  0  0  0  0  0
   -8.7290   -9.6600   -4.7850 O   0  0  0  0  0  0  0  0  0  0  0  0
   -9.7510   -9.1320   -3.9140 C   0  0  0  0  0  0  0  0  0  0  0  0
   -9.2460   -7.9190   -3.1310 C   0  0  0  0  0  0  0  0  0  0  0  0
   -9.1000   -8.2050   -1.3310 S   0  0  0  0  0  0  0  0  0  0  0  0
   -7.3040   -8.0420   -1.0600 C   0  0  0  0  0  0  0  0  0  0  0  0
   -6.8330   -6.7260   -1.1980 C   0  0  0  0  0  0  0  0  0  0  0  0
   -5.8860   -6.0550   -1.9480 C   0  0  0  0  0  0  0  0  0  0  0  0
   -6.0150   -4.7280   -1.5330 C   0  0  0  0  0  0  0  0  0  0  0  0
   -6.9610   -4.5840   -0.6040 N   0  0  0  0  0  0  0  0  0  0  0  0
   -7.4650   -5.8460   -0.3900 O   0  0  0  0  0  0  0  0  0  0  0  0
  1  2  2  0
  2  3  1  0
  3  4  1  0
  4  5  1  0
  5  6  2  0
  6  7  1  0
  7  8  2  0
  8  9  1  0
  9 10  2  0
  9 11  1  0
 11 12  1  0
 12 13  1  0
 13 14  1  0
  2 15  1  0
 15 16  1  0
 16 17  1  0
 17 18  1  0
 18 19  1  0
 19 20  1  0
 20 21  2  0
 21 22  1  0
 22 23  2  0
 23 24  1  0
 10  5  1  0
 24 20  1  0
 14  8  1  0
M  END
>  <pair>  (197) 
x1052_1A-x1140_0A

>  <sucos>  (197) 
0.40784439765460295

>  <ref_mols>  (197) 
x1052_1A,x1140_0A

>  <original SMILES>  (197) 
O=C(CCc1ccc2c(c1)OCCO2)OCCSCc1ccno1

>  <cmpd_ids>  (197) 
ENAMINE:Z4349076023

>  <ref_url>  (197) 
https://github.com/stephwills/fragment_network_merges

>  <submitter_name>  (197) 
Steph Wills

>  <submitter_institution>  (197) 
University of Oxford

>  <submitter_email>  (197) 
stephanie.wills@balliol.ox.ac.uk

>  <generation_date>  (197) 
2023-09-06

>  <method>  (197) 
fragNetMergingIt3

>  <ref_pdb>  (197) 
x1052_1A,x1140_0A

$$$$
x1020-0A-x0130-0A-39
     RDKit          3D

 22 24  0  0  0  0  0  0  0  0999 V2000
   -1.3310   -9.3940    2.1230 N   0  0  0  0  0  0  0  0  0  0  0  0
   -2.5320   -8.5860    2.4000 C   0  0  0  0  0  0  0  0  0  0  0  0
   -3.7770   -9.0960    1.6710 C   0  0  0  0  0  0  0  0  0  0  0  0
   -4.0540   -8.6000    0.3880 C   0  0  0  0  0  0  0  0  0  0  0  0
   -5.1790   -9.0350   -0.3140 C   0  0  0  0  0  0  0  0  0  0  0  0
   -6.0570   -9.9690    0.2420 C   0  0  0  0  0  0  0  0  0  0  0  0
   -5.8410  -10.5040    1.5230 C   0  0  0  0  0  0  0  0  0  0  0  0
   -6.8740  -11.5290    2.0660 C   0  0  0  0  0  0  0  0  0  0  0  0
   -6.4030  -12.3230    3.2770 C   0  0  0  0  0  0  0  0  0  0  0  0
   -6.0010  -11.3650    4.3630 C   0  0  0  0  0  0  0  0  0  0  0  0
   -5.3760  -11.7190    5.3500 O   0  0  0  0  0  0  0  0  0  0  0  0
   -6.4490  -10.1010    4.0260 N   0  0  0  0  0  0  0  0  0  0  0  0
   -6.9940   -9.1630    4.8890 C   0  0  0  0  0  0  0  0  0  0  0  0
   -6.8280   -9.1470    6.2150 N   0  0  0  0  0  0  0  0  0  0  0  0
   -7.5190   -8.0800    6.6360 N   0  0  0  0  0  0  0  0  0  0  0  0
   -8.1390   -7.3850    5.6350 C   0  0  0  0  0  0  0  0  0  0  0  0
   -8.9350   -6.2430    5.6440 C   0  0  0  0  0  0  0  0  0  0  0  0
   -9.3830   -5.8440    4.3930 C   0  0  0  0  0  0  0  0  0  0  0  0
   -9.1020   -6.4750    3.2290 N   0  0  0  0  0  0  0  0  0  0  0  0
   -8.3190   -7.5870    3.2540 C   0  0  0  0  0  0  0  0  0  0  0  0
   -7.8160   -8.0720    4.4690 C   0  0  0  0  0  0  0  0  0  0  0  0
   -4.6800  -10.0540    2.2340 C   0  0  0  0  0  0  0  0  0  0  0  0
  1  2  1  0
  2  3  1  0
  3  4  2  0
  4  5  1  0
  5  6  2  0
  6  7  1  0
  7  8  1  0
  8  9  1  0
  9 10  1  0
 10 11  2  0
 10 12  1  0
 12 13  1  0
 13 14  2  0
 14 15  1  0
 15 16  1  0
 16 17  2  0
 17 18  1  0
 18 19  2  0
 19 20  1  0
 20 21  2  0
  7 22  2  0
 22  3  1  0
 21 13  1  0
 21 16  1  0
M  END
>  <pair>  (198) 
x1020_0A-x0130_0A

>  <sucos>  (198) 
0.4104827918723736

>  <ref_mols>  (198) 
x1020_0A,x0130_0A

>  <original SMILES>  (198) 
NCc1cccc(CCC(=O)Nc2n[nH]c3ccncc23)c1

>  <cmpd_ids>  (198) 
ENAMINE:PV-003628075638

>  <ref_url>  (198) 
https://github.com/stephwills/fragment_network_merges

>  <submitter_name>  (198) 
Steph Wills

>  <submitter_institution>  (198) 
University of Oxford

>  <submitter_email>  (198) 
stephanie.wills@balliol.ox.ac.uk

>  <generation_date>  (198) 
2023-09-06

>  <method>  (198) 
fragNetMergingIt3

>  <ref_pdb>  (198) 
x1020_0A,x0130_0A

$$$$
x1020-0A-x0130-0A-44
     RDKit          3D

 22 24  0  0  0  0  0  0  0  0999 V2000
   -6.2730  -13.0470    2.5150 C   0  0  0  0  0  0  0  0  0  0  0  0
   -5.3460  -12.5210    3.6100 C   0  0  2  0  0  0  0  0  0  0  0  0
   -5.9730  -11.2160    4.1220 C   0  0  0  0  0  0  0  0  0  0  0  0
   -6.1060  -10.9610    5.3100 O   0  0  0  0  0  0  0  0  0  0  0  0
   -6.3580  -10.3440    3.0030 N   0  0  0  0  0  0  0  0  0  0  0  0
   -7.5170   -9.4380    2.9900 C   0  0  0  0  0  0  0  0  0  0  0  0
   -8.2300   -9.3690    1.6250 C   0  0  0  0  0  0  0  0  0  0  0  0
   -7.2980   -8.1700    1.2450 C   0  0  0  0  0  0  0  0  0  0  0  0
   -6.0210   -8.4960    0.4870 C   0  0  0  0  0  0  0  0  0  0  0  0
   -5.6180   -7.2820   -0.3160 C   0  0  0  0  0  0  0  0  0  0  0  0
   -6.9380   -6.5620   -0.6050 C   0  0  0  0  0  0  0  0  0  0  0  0
   -7.9670   -7.0310    0.4570 C   0  0  0  0  0  0  0  0  0  0  0  0
   -7.1430   -7.9530    2.7800 C   0  0  0  0  0  0  0  0  0  0  0  0
   -3.9400  -12.1710    3.2520 N   0  0  0  0  0  0  0  0  0  0  0  0
   -3.4390  -10.9450    2.8850 C   0  0  0  0  0  0  0  0  0  0  0  0
   -2.0680  -11.1200    2.6690 C   0  0  0  0  0  0  0  0  0  0  0  0
   -1.0480  -10.1000    2.2530 C   0  0  0  0  0  0  0  0  0  0  0  0
   -1.5910   -8.7140    2.1900 N   0  0  0  0  0  0  0  0  0  0  0  0
   -2.7040   -8.4620    3.0830 C   0  0  0  0  0  0  0  0  0  0  0  0
   -2.0070   -8.2610    0.8640 C   0  0  0  0  0  0  0  0  0  0  0  0
   -1.7940  -12.4500    2.9100 N   0  0  0  0  0  0  0  0  0  0  0  0
   -2.9350  -13.0770    3.2610 N   0  0  0  0  0  0  0  0  0  0  0  0
  2  1  1  6
  2  3  1  0
  3  4  2  0
  3  5  1  0
  5  6  1  0
  6  7  1  0
  7  8  1  0
  8  9  1  0
  9 10  1  0
 10 11  1  0
 11 12  1  0
  8 13  1  0
  2 14  1  0
 14 15  1  0
 15 16  2  0
 16 17  1  0
 17 18  1  0
 18 19  1  0
 18 20  1  0
 16 21  1  0
 21 22  2  0
 13  6  1  0
 22 14  1  0
 12  8  1  0
M  END
>  <pair>  (199) 
x1020_0A-x0130_0A

>  <sucos>  (199) 
0.4109510217055267

>  <ref_mols>  (199) 
x1020_0A,x0130_0A

>  <original SMILES>  (199) 
CC(C(=O)NC1CC2(CCCC2)C1)n1cc(CN(C)C)nn1

>  <cmpd_ids>  (199) 
ENAMINE:PV-002913339661

>  <ref_url>  (199) 
https://github.com/stephwills/fragment_network_merges

>  <submitter_name>  (199) 
Steph Wills

>  <submitter_institution>  (199) 
University of Oxford

>  <submitter_email>  (199) 
stephanie.wills@balliol.ox.ac.uk

>  <generation_date>  (199) 
2023-09-06

>  <method>  (199) 
fragNetMergingIt3

>  <ref_pdb>  (199) 
x1020_0A,x0130_0A

$$$$
x1594-0A-x1052-1A-29
     RDKit          3D

 23 25  0  0  0  0  0  0  0  0999 V2000
  -10.2690   -5.4580   -2.8370 O   0  0  0  0  0  0  0  0  0  0  0  0
   -9.3430   -4.8720   -3.3950 C   0  0  0  0  0  0  0  0  0  0  0  0
   -9.4770   -3.4660   -3.9680 C   0  0  0  0  0  0  0  0  0  0  0  0
  -10.8890   -2.9480   -4.2890 C   0  0  0  0  0  0  0  0  0  0  0  0
  -10.9370   -2.0640   -5.4820 N   0  0  0  0  0  0  0  0  0  0  0  0
  -10.2240   -2.3180   -6.6490 C   0  0  0  0  0  0  0  0  0  0  0  0
   -9.8990   -1.4930   -7.5000 O   0  0  0  0  0  0  0  0  0  0  0  0
   -9.8390   -3.7310   -6.7730 C   0  0  0  0  0  0  0  0  0  0  0  0
  -10.6380   -4.5780   -6.1140 C   0  0  0  0  0  0  0  0  0  0  0  0
  -10.3750   -5.9900   -6.0510 C   0  0  0  0  0  0  0  0  0  0  0  0
   -9.2900   -6.4660   -6.6680 C   0  0  0  0  0  0  0  0  0  0  0  0
   -8.4820   -5.5970   -7.3800 N   0  0  0  0  0  0  0  0  0  0  0  0
   -7.3590   -5.8300   -8.1120 C   0  0  0  0  0  0  0  0  0  0  0  0
   -6.9330   -4.7110   -8.6280 N   0  0  0  0  0  0  0  0  0  0  0  0
   -7.7770   -3.7070   -8.2370 N   0  0  0  0  0  0  0  0  0  0  0  0
   -8.7080   -4.2370   -7.4780 C   0  0  0  0  0  0  0  0  0  0  0  0
   -8.0420   -5.3700   -3.5980 N   0  0  0  0  0  0  0  0  0  0  0  0
   -7.1420   -5.8490   -2.6100 C   0  0  0  0  0  0  0  0  0  0  0  0
   -5.9290   -6.4380   -2.9990 C   0  0  0  0  0  0  0  0  0  0  0  0
   -5.0410   -6.9180   -2.0390 C   0  0  0  0  0  0  0  0  0  0  0  0
   -5.4040   -6.7940   -0.7140 C   0  0  0  0  0  0  0  0  0  0  0  0
   -6.5610   -6.2340   -0.3150 N   0  0  0  0  0  0  0  0  0  0  0  0
   -7.3950   -5.7760   -1.2590 C   0  0  0  0  0  0  0  0  0  0  0  0
  1  2  2  0
  2  3  1  0
  3  4  1  0
  4  5  1  0
  5  6  1  0
  6  7  2  0
  6  8  1  0
  8  9  2  0
  9 10  1  0
 10 11  2  0
 11 12  1  0
 12 13  1  0
 13 14  2  0
 14 15  1  0
 15 16  2  0
  2 17  1  0
 17 18  1  0
 18 19  2  0
 19 20  1  0
 20 21  2  0
 21 22  1  0
 22 23  2  0
 16  8  1  0
 23 18  1  0
 16 12  1  0
M  END
>  <pair>  (200) 
x1594_0A-x1052_1A

>  <sucos>  (200) 
0.4112784617271398

>  <ref_mols>  (200) 
x1594_0A,x1052_1A

>  <original SMILES>  (200) 
O=C(CCNC(=O)c1cccn2cnnc12)Nc1cccnc1

>  <cmpd_ids>  (200) 
ENAMINE:PV-003900748210

>  <ref_url>  (200) 
https://github.com/stephwills/fragment_network_merges

>  <submitter_name>  (200) 
Steph Wills

>  <submitter_institution>  (200) 
University of Oxford

>  <submitter_email>  (200) 
stephanie.wills@balliol.ox.ac.uk

>  <generation_date>  (200) 
2023-09-06

>  <method>  (200) 
fragNetMergingIt3

>  <ref_pdb>  (200) 
x1594_0A,x1052_1A

$$$$
x1052-1A-x1594-0A-33
     RDKit          3D

 20 23  0  0  0  0  0  0  0  0999 V2000
   -4.3470   -7.1640    0.0040 C   0  0  0  0  0  0  0  0  0  0  0  0
   -5.3840   -6.7090   -0.9390 C   0  0  0  0  0  0  0  0  0  0  0  0
   -5.4220   -6.6180   -2.2970 C   0  0  0  0  0  0  0  0  0  0  0  0
   -6.7090   -6.1160   -2.6090 C   0  0  0  0  0  0  0  0  0  0  0  0
   -7.1890   -5.8800   -4.0440 C   0  0  1  0  0  0  0  0  0  0  0  0
   -6.5990   -7.0250   -4.8770 C   0  0  0  0  0  0  0  0  0  0  0  0
   -7.6330   -8.1200   -4.6950 C   0  0  0  0  0  0  0  0  0  0  0  0
   -8.9610   -7.3630   -4.6750 C   0  0  0  0  0  0  0  0  0  0  0  0
   -8.6120   -5.9310   -4.5730 N   0  0  0  0  0  0  0  0  0  0  0  0
   -9.0370   -4.9890   -5.5770 C   0  0  0  0  0  0  0  0  0  0  0  0
  -10.1150   -4.1670   -5.4330 C   0  0  0  0  0  0  0  0  0  0  0  0
  -10.4730   -3.1790   -6.4440 C   0  0  0  0  0  0  0  0  0  0  0  0
   -9.7540   -3.0280   -7.5620 C   0  0  0  0  0  0  0  0  0  0  0  0
   -8.6380   -3.8690   -7.7830 C   0  0  0  0  0  0  0  0  0  0  0  0
   -7.7900   -3.9460   -8.7810 N   0  0  0  0  0  0  0  0  0  0  0  0
   -6.9040   -4.9500   -8.5190 N   0  0  0  0  0  0  0  0  0  0  0  0
   -7.2280   -5.4590   -7.3560 C   0  0  0  0  0  0  0  0  0  0  0  0
   -8.3200   -4.8190   -6.8110 N   0  0  0  0  0  0  0  0  0  0  0  0
   -7.4190   -5.8980   -1.4800 N   0  0  0  0  0  0  0  0  0  0  0  0
   -6.5760   -6.2780   -0.4360 O   0  0  0  0  0  0  0  0  0  0  0  0
  1  2  1  0
  2  3  2  0
  3  4  1  0
  5  4  1  0
  5  6  1  6
  6  7  1  0
  7  8  1  0
  8  9  1  0
  9 10  1  0
 10 11  2  0
 11 12  1  0
 12 13  2  0
 13 14  1  0
 14 15  2  0
 15 16  1  0
 16 17  2  0
 17 18  1  0
  4 19  2  0
 19 20  1  0
 20  2  1  0
  9  5  1  0
 18 10  1  0
 18 14  1  0
M  END
>  <pair>  (201) 
x1052_1A-x1594_0A

>  <sucos>  (201) 
0.41154735874366893

>  <ref_mols>  (201) 
x1052_1A,x1594_0A

>  <original SMILES>  (201) 
Cc1cc(C2CCCN2c2cccc3nncn23)no1

>  <cmpd_ids>  (201) 
ENAMINE:Z2967929871

>  <ref_url>  (201) 
https://github.com/stephwills/fragment_network_merges

>  <submitter_name>  (201) 
Steph Wills

>  <submitter_institution>  (201) 
University of Oxford

>  <submitter_email>  (201) 
stephanie.wills@balliol.ox.ac.uk

>  <generation_date>  (201) 
2023-09-06

>  <method>  (201) 
fragNetMergingIt3

>  <ref_pdb>  (201) 
x1052_1A,x1594_0A

$$$$
x0130-0A-x2021-0A-159
     RDKit          3D

 23 24  0  0  0  0  0  0  0  0999 V2000
   -2.9350   -4.5870    0.1550 C   0  0  0  0  0  0  0  0  0  0  0  0
   -4.3480   -4.9180    0.2960 N   0  0  0  0  0  0  0  0  0  0  0  0
   -4.6520   -5.7450    1.5140 C   0  0  0  0  0  0  0  0  0  0  0  0
   -4.7530   -7.2640    1.2700 C   0  0  0  0  0  0  0  0  0  0  0  0
   -5.5600   -8.0200    2.3710 C   0  0  0  0  0  0  0  0  0  0  0  0
   -5.4830   -9.4580    1.7560 C   0  0  0  0  0  0  0  0  0  0  0  0
   -4.8180   -9.9080    0.4890 C   0  0  0  0  0  0  0  0  0  0  0  0
   -4.1690   -9.0090   -0.2680 C   0  0  0  0  0  0  0  0  0  0  0  0
   -3.4850   -9.1530   -1.4430 N   0  0  0  0  0  0  0  0  0  0  0  0
   -2.9890   -7.9520   -1.8380 C   0  0  0  0  0  0  0  0  0  0  0  0
   -3.3700   -7.0440   -0.9000 C   0  0  0  0  0  0  0  0  0  0  0  0
   -4.1260   -7.7210    0.1010 C   0  0  0  0  0  0  0  0  0  0  0  0
   -5.3340   -4.1310   -0.3800 C   0  0  0  0  0  0  0  0  0  0  0  0
   -5.9290   -3.1910    0.1590 O   0  0  0  0  0  0  0  0  0  0  0  0
   -5.5830   -4.4290   -1.7260 C   0  0  0  0  0  0  0  0  0  0  0  0
   -6.6580   -5.2460   -2.0920 C   0  0  0  0  0  0  0  0  0  0  0  0
   -6.8930   -5.4510   -3.5740 C   0  0  0  0  0  0  0  0  0  0  0  0
   -7.0420   -4.5490   -4.3840 O   0  0  0  0  0  0  0  0  0  0  0  0
   -6.8960   -6.7810   -3.8590 O   0  0  0  0  0  0  0  0  0  0  0  0
   -5.6590   -7.5360   -3.8310 C   0  0  0  0  0  0  0  0  0  0  0  0
   -5.6650   -8.4380   -2.7980 C   0  0  0  0  0  0  0  0  0  0  0  0
   -4.4350   -6.6110   -3.7970 C   0  0  0  0  0  0  0  0  0  0  0  0
   -5.6460   -8.3080   -5.1590 C   0  0  0  0  0  0  0  0  0  0  0  0
  1  2  1  0
  2  3  1  0
  3  4  1  0
  4  5  2  0
  5  6  1  0
  6  7  2  0
  7  8  1  0
  8  9  1  0
  9 10  1  0
 10 11  2  0
 11 12  1  0
  2 13  1  0
 13 14  2  0
 13 15  1  0
 15 16  1  0
 16 17  1  0
 17 18  2  0
 17 19  1  0
 19 20  1  0
 20 21  1  0
 20 22  1  0
 20 23  1  0
 12  4  1  0
 12  8  2  0
M  END
>  <pair>  (202) 
x0130_0A-x2021_0A

>  <sucos>  (202) 
0.41227899562196346

>  <ref_mols>  (202) 
x0130_0A,x2021_0A

>  <original SMILES>  (202) 
CN(Cc1cccc2[nH]ccc12)C(=O)CCC(=O)OC(C)(C)C

>  <cmpd_ids>  (202) 
ENAMINE:Z1874263503

>  <ref_url>  (202) 
https://github.com/stephwills/fragment_network_merges

>  <submitter_name>  (202) 
Steph Wills

>  <submitter_institution>  (202) 
University of Oxford

>  <submitter_email>  (202) 
stephanie.wills@balliol.ox.ac.uk

>  <generation_date>  (202) 
2023-09-06

>  <method>  (202) 
fragNetMergingIt3

>  <ref_pdb>  (202) 
x0130_0A,x2021_0A

$$$$
x1594-0A-x1052-1A-33
     RDKit          3D

 23 25  0  0  0  0  0  0  0  0999 V2000
   -7.3200   -3.3520   -0.5430 N   0  0  0  0  0  0  0  0  0  0  0  0
   -7.1740   -3.5380   -1.6790 C   0  0  0  0  0  0  0  0  0  0  0  0
   -6.9910   -3.7380   -3.1230 C   0  0  0  0  0  0  0  0  0  0  0  0
   -6.5590   -5.1650   -3.4660 C   0  0  0  0  0  0  0  0  0  0  0  0
   -7.5160   -5.9810   -4.2470 N   0  0  0  0  0  0  0  0  0  0  0  0
   -8.0310   -6.9200   -3.2740 C   0  0  0  0  0  0  0  0  0  0  0  0
   -7.0060   -7.0160   -2.1530 C   0  0  0  0  0  0  0  0  0  0  0  0
   -5.6380   -7.0380   -2.4500 C   0  0  0  0  0  0  0  0  0  0  0  0
   -4.7290   -7.1480   -1.4160 C   0  0  0  0  0  0  0  0  0  0  0  0
   -5.1930   -7.2370   -0.1230 C   0  0  0  0  0  0  0  0  0  0  0  0
   -6.5640   -7.2040    0.0820 C   0  0  0  0  0  0  0  0  0  0  0  0
   -7.4740   -7.0900   -0.8900 N   0  0  0  0  0  0  0  0  0  0  0  0
   -7.2970   -6.3240   -5.6400 C   0  0  0  0  0  0  0  0  0  0  0  0
   -6.8700   -7.4410   -5.9110 O   0  0  0  0  0  0  0  0  0  0  0  0
   -7.6150   -5.3570   -6.6920 C   0  0  0  0  0  0  0  0  0  0  0  0
   -6.9460   -4.9950   -7.7920 N   0  0  0  0  0  0  0  0  0  0  0  0
   -7.6640   -4.0000   -8.4270 N   0  0  0  0  0  0  0  0  0  0  0  0
   -8.7520   -3.7860   -7.7060 C   0  0  0  0  0  0  0  0  0  0  0  0
   -9.8630   -2.8940   -7.8020 C   0  0  0  0  0  0  0  0  0  0  0  0
  -10.8490   -2.9380   -6.8940 C   0  0  0  0  0  0  0  0  0  0  0  0
  -10.8200   -3.8740   -5.7960 C   0  0  0  0  0  0  0  0  0  0  0  0
   -9.7770   -4.6930   -5.6860 C   0  0  0  0  0  0  0  0  0  0  0  0
   -8.7600   -4.6400   -6.6280 N   0  0  0  0  0  0  0  0  0  0  0  0
  1  2  3  0
  2  3  1  0
  3  4  1  0
  4  5  1  0
  5  6  1  0
  6  7  1  0
  7  8  2  0
  8  9  1  0
  9 10  2  0
 10 11  1  0
 11 12  2  0
  5 13  1  0
 13 14  2  0
 13 15  1  0
 15 16  2  0
 16 17  1  0
 17 18  2  0
 18 19  1  0
 19 20  2  0
 20 21  1  0
 21 22  2  0
 22 23  1  0
 12  7  1  0
 23 15  1  0
 23 18  1  0
M  END
>  <pair>  (203) 
x1594_0A-x1052_1A

>  <sucos>  (203) 
0.41361350760299875

>  <ref_mols>  (203) 
x1594_0A,x1052_1A

>  <original SMILES>  (203) 
N#CCCN(Cc1ccccn1)C(=O)c1nnc2ccccn12

>  <cmpd_ids>  (203) 
ENAMINE:PV-002946979743

>  <ref_url>  (203) 
https://github.com/stephwills/fragment_network_merges

>  <submitter_name>  (203) 
Steph Wills

>  <submitter_institution>  (203) 
University of Oxford

>  <submitter_email>  (203) 
stephanie.wills@balliol.ox.ac.uk

>  <generation_date>  (203) 
2023-09-06

>  <method>  (203) 
fragNetMergingIt3

>  <ref_pdb>  (203) 
x1594_0A,x1052_1A

$$$$
x0147-0A-x1052-1A-199
     RDKit          3D

 20 22  0  0  0  0  0  0  0  0999 V2000
   -6.1030   -6.6490   -8.7850 O   0  0  0  0  0  0  0  0  0  0  0  0
   -6.9270   -6.7000   -7.8870 C   0  0  0  0  0  0  0  0  0  0  0  0
   -7.1210   -7.6460   -6.9060 O   0  0  0  0  0  0  0  0  0  0  0  0
   -6.8550   -7.1630   -5.5520 C   0  0  0  0  0  0  0  0  0  0  0  0
   -6.8070   -8.2300   -4.4240 C   0  0  0  0  0  0  0  0  0  0  0  0
   -5.7110   -7.3510   -3.7320 C   0  0  0  0  0  0  0  0  0  0  0  0
   -5.9970   -6.8700   -2.3210 C   0  0  0  0  0  0  0  0  0  0  0  0
   -6.5080   -5.6220   -2.0990 C   0  0  0  0  0  0  0  0  0  0  0  0
   -6.7270   -5.3320   -0.8220 N   0  0  0  0  0  0  0  0  0  0  0  0
   -6.3140   -6.4950   -0.1680 O   0  0  0  0  0  0  0  0  0  0  0  0
   -5.8740   -7.4100   -1.0770 C   0  0  0  0  0  0  0  0  0  0  0  0
   -7.9670   -5.7520   -7.6060 C   0  0  0  0  0  0  0  0  0  0  0  0
   -7.9560   -4.3090   -8.1090 C   0  0  0  0  0  0  0  0  0  0  0  0
   -9.0520   -3.6200   -7.6800 N   0  0  0  0  0  0  0  0  0  0  0  0
   -9.5160   -2.3670   -7.8290 C   0  0  0  0  0  0  0  0  0  0  0  0
  -10.6980   -2.2040   -7.1630 N   0  0  0  0  0  0  0  0  0  0  0  0
  -10.9830   -3.4070   -6.5730 N   0  0  0  0  0  0  0  0  0  0  0  0
  -10.0090   -4.2240   -6.8890 C   0  0  0  0  0  0  0  0  0  0  0  0
   -9.9310   -5.5660   -6.4810 C   0  0  0  0  0  0  0  0  0  0  0  0
   -8.9620   -6.3040   -6.8220 N   0  0  0  0  0  0  0  0  0  0  0  0
  1  2  2  0
  2  3  1  0
  3  4  1  0
  4  5  1  0
  5  6  1  0
  6  7  1  0
  7  8  1  0
  8  9  2  0
  9 10  1  0
 10 11  1  0
  2 12  1  0
 12 13  2  0
 13 14  1  0
 14 15  1  0
 15 16  2  0
 16 17  1  0
 17 18  2  0
 18 19  1  0
 19 20  2  0
 11  7  2  0
 20 12  1  0
 18 14  1  0
M  END
>  <pair>  (204) 
x0147_0A-x1052_1A

>  <sucos>  (204) 
0.41441777904468774

>  <ref_mols>  (204) 
x0147_0A,x1052_1A

>  <original SMILES>  (204) 
O=C(OCCCc1cnoc1)c1cn2cnnc2cn1

>  <cmpd_ids>  (204) 
ENAMINE:Z3537065813

>  <ref_url>  (204) 
https://github.com/stephwills/fragment_network_merges

>  <submitter_name>  (204) 
Steph Wills

>  <submitter_institution>  (204) 
University of Oxford

>  <submitter_email>  (204) 
stephanie.wills@balliol.ox.ac.uk

>  <generation_date>  (204) 
2023-09-06

>  <method>  (204) 
fragNetMergingIt3

>  <ref_pdb>  (204) 
x0147_0A,x1052_1A

$$$$
x1052-1A-x1604-0A-174
     RDKit          3D

 23 25  0  0  0  0  0  0  0  0999 V2000
   -7.1320   -2.8100   -2.2050 C   0  0  0  0  0  0  0  0  0  0  0  0
   -7.4630   -4.1860   -2.8260 C   0  0  2  0  0  0  0  0  0  0  0  0
   -8.9400   -4.4170   -3.0330 N   0  0  0  0  0  0  0  0  0  0  0  0
   -9.4790   -3.4720   -4.0580 C   0  0  0  0  0  0  0  0  0  0  0  0
  -10.8110   -3.6680   -4.5410 C   0  0  0  0  0  0  0  0  0  0  0  0
  -10.9530   -3.4910   -5.9070 N   0  0  0  0  0  0  0  0  0  0  0  0
  -12.1200   -4.0960   -6.2980 C   0  0  0  0  0  0  0  0  0  0  0  0
  -13.1170   -3.5120   -6.6710 O   0  0  0  0  0  0  0  0  0  0  0  0
  -12.0630   -5.5310   -6.2230 C   0  0  0  0  0  0  0  0  0  0  0  0
  -10.7560   -6.0620   -6.0480 O   0  0  0  0  0  0  0  0  0  0  0  0
   -9.8280   -5.3180   -6.7150 C   0  0  0  0  0  0  0  0  0  0  0  0
   -8.7510   -6.0320   -7.4570 C   0  0  0  0  0  0  0  0  0  0  0  0
   -7.8190   -5.2840   -8.1650 C   0  0  0  0  0  0  0  0  0  0  0  0
   -7.9210   -3.8970   -8.1600 C   0  0  0  0  0  0  0  0  0  0  0  0
   -8.9410   -3.2330   -7.4380 C   0  0  0  0  0  0  0  0  0  0  0  0
   -9.8860   -3.9550   -6.7060 C   0  0  0  0  0  0  0  0  0  0  0  0
   -6.8140   -5.2680   -1.9800 C   0  0  0  0  0  0  0  0  0  0  0  0
   -5.6050   -5.9750   -2.2480 C   0  0  0  0  0  0  0  0  0  0  0  0
   -5.5400   -6.8600   -1.0680 C   0  0  0  0  0  0  0  0  0  0  0  0
   -4.3870   -7.8280   -0.9130 C   0  0  0  0  0  0  0  0  0  0  0  0
   -4.7840   -8.8470   -0.0020 O   0  0  0  0  0  0  0  0  0  0  0  0
   -6.5820   -6.6730   -0.2390 O   0  0  0  0  0  0  0  0  0  0  0  0
   -7.3800   -5.6740   -0.8070 N   0  0  0  0  0  0  0  0  0  0  0  0
  2  1  1  1
  2  3  1  0
  3  4  1  0
  4  5  1  0
  5  6  1  0
  6  7  1  0
  7  8  2  0
  7  9  1  0
  9 10  1  0
 10 11  1  0
 11 12  2  0
 12 13  1  0
 13 14  2  0
 14 15  1  0
 15 16  2  0
  2 17  1  0
 17 18  1  0
 18 19  2  0
 19 20  1  0
 20 21  1  0
 19 22  1  0
 22 23  1  0
 16  6  1  0
 23 17  2  0
 16 11  1  0
M  END
>  <pair>  (205) 
x1052_1A-x1604_0A

>  <sucos>  (205) 
0.4155113523502426

>  <ref_mols>  (205) 
x1052_1A,x1604_0A

>  <original SMILES>  (205) 
CC(NCCN1C(=O)COc2ccccc21)c1cc(CO)on1

>  <cmpd_ids>  (205) 
ENAMINE:Z2926477306

>  <ref_url>  (205) 
https://github.com/stephwills/fragment_network_merges

>  <submitter_name>  (205) 
Steph Wills

>  <submitter_institution>  (205) 
University of Oxford

>  <submitter_email>  (205) 
stephanie.wills@balliol.ox.ac.uk

>  <generation_date>  (205) 
2023-09-06

>  <method>  (205) 
fragNetMergingIt3

>  <ref_pdb>  (205) 
x1052_1A,x1604_0A

$$$$
x1020-0A-x0130-0A-3
     RDKit          3D

 23 25  0  0  0  0  0  0  0  0999 V2000
   -0.7770   -9.4820    2.2650 N   0  0  0  0  0  0  0  0  0  0  0  0
   -2.1900   -9.1440    2.0810 C   0  0  0  0  0  0  0  0  0  0  0  0
   -3.0250  -10.3790    2.1960 C   0  0  0  0  0  0  0  0  0  0  0  0
   -4.3650  -10.6000    1.9110 C   0  0  0  0  0  0  0  0  0  0  0  0
   -4.5700  -11.9180    2.2160 N   0  0  0  0  0  0  0  0  0  0  0  0
   -5.8100  -12.6840    2.1120 C   0  0  0  0  0  0  0  0  0  0  0  0
   -6.4250  -12.9360    3.4760 C   0  0  0  0  0  0  0  0  0  0  0  0
   -6.4660  -11.6360    4.2140 C   0  0  0  0  0  0  0  0  0  0  0  0
   -6.0380  -11.4830    5.3540 O   0  0  0  0  0  0  0  0  0  0  0  0
   -7.0350  -10.6470    3.4510 N   0  0  0  0  0  0  0  0  0  0  0  0
   -7.2780   -9.3070    3.9640 C   0  0  1  0  0  0  0  0  0  0  0  0
   -6.0340   -8.7340    4.6310 C   0  0  0  0  0  0  0  0  0  0  0  0
   -4.8970   -8.4310    3.6380 C   0  0  0  0  0  0  0  0  0  0  0  0
   -5.3290   -8.0350    2.2370 C   0  0  0  0  0  0  0  0  0  0  0  0
   -4.3500   -7.6430    1.2980 C   0  0  0  0  0  0  0  0  0  0  0  0
   -4.7050   -7.2730    0.0010 C   0  0  0  0  0  0  0  0  0  0  0  0
   -6.0400   -7.2830   -0.3870 C   0  0  0  0  0  0  0  0  0  0  0  0
   -7.0250   -7.6650    0.5270 C   0  0  0  0  0  0  0  0  0  0  0  0
   -6.6710   -8.0380    1.8310 C   0  0  0  0  0  0  0  0  0  0  0  0
   -7.7240   -8.4370    2.7910 C   0  0  0  0  0  0  0  0  0  0  0  0
   -8.8950   -8.0740    2.6390 O   0  0  0  0  0  0  0  0  0  0  0  0
   -3.4370  -12.4930    2.6590 N   0  0  0  0  0  0  0  0  0  0  0  0
   -2.4850  -11.5620    2.6510 N   0  0  0  0  0  0  0  0  0  0  0  0
  1  2  1  0
  2  3  1  0
  3  4  2  0
  4  5  1  0
  5  6  1  0
  6  7  1  0
  7  8  1  0
  8  9  2  0
  8 10  1  0
 11 10  1  6
 11 12  1  0
 12 13  1  0
 13 14  1  0
 14 15  2  0
 15 16  1  0
 16 17  2  0
 17 18  1  0
 18 19  2  0
 19 20  1  0
 20 21  2  0
  5 22  1  0
 22 23  2  0
 23  3  1  0
 20 11  1  0
 19 14  1  0
M  END
>  <pair>  (206) 
x1020_0A-x0130_0A

>  <sucos>  (206) 
0.4171943728686328

>  <ref_mols>  (206) 
x1020_0A,x0130_0A

>  <original SMILES>  (206) 
NCc1cn(CCC(=O)NC2CCc3ccccc3C2=O)nn1

>  <cmpd_ids>  (206) 
ENAMINE:PV-002885560964

>  <ref_url>  (206) 
https://github.com/stephwills/fragment_network_merges

>  <submitter_name>  (206) 
Steph Wills

>  <submitter_institution>  (206) 
University of Oxford

>  <submitter_email>  (206) 
stephanie.wills@balliol.ox.ac.uk

>  <generation_date>  (206) 
2023-09-06

>  <method>  (206) 
fragNetMergingIt3

>  <ref_pdb>  (206) 
x1020_0A,x0130_0A

$$$$
x1052-1A-x1594-0A-85
     RDKit          3D

 23 26  0  0  0  0  0  0  0  0999 V2000
   -9.8060   -4.4890   -3.1100 O   0  0  0  0  0  0  0  0  0  0  0  0
   -8.9810   -4.5830   -4.0190 C   0  0  0  0  0  0  0  0  0  0  0  0
   -7.6980   -5.0050   -3.8170 N   0  0  0  0  0  0  0  0  0  0  0  0
   -6.8510   -4.3350   -2.8710 C   0  0  0  0  0  0  0  0  0  0  0  0
   -6.4010   -5.3350   -1.8000 C   0  0  0  0  0  0  0  0  0  0  0  0
   -5.1240   -5.9080   -1.6390 C   0  0  0  0  0  0  0  0  0  0  0  0
   -5.2690   -6.7380   -0.4680 C   0  0  0  0  0  0  0  0  0  0  0  0
   -4.3130   -7.5370    0.2250 C   0  0  0  0  0  0  0  0  0  0  0  0
   -2.9880   -7.5980    0.0900 C   0  0  0  0  0  0  0  0  0  0  0  0
   -2.4210   -8.5040    0.9970 C   0  0  0  0  0  0  0  0  0  0  0  0
   -3.5030   -8.9940    1.6860 C   0  0  0  0  0  0  0  0  0  0  0  0
   -4.6540   -8.4200    1.2260 O   0  0  0  0  0  0  0  0  0  0  0  0
   -6.5640   -6.6290   -0.0510 O   0  0  0  0  0  0  0  0  0  0  0  0
   -7.2640   -5.7610   -0.8660 N   0  0  0  0  0  0  0  0  0  0  0  0
   -9.3370   -4.2420   -5.4260 C   0  0  0  0  0  0  0  0  0  0  0  0
  -10.5220   -3.6570   -5.6140 C   0  0  0  0  0  0  0  0  0  0  0  0
  -10.9510   -3.3060   -6.9180 C   0  0  0  0  0  0  0  0  0  0  0  0
  -10.1360   -3.5690   -7.9290 C   0  0  0  0  0  0  0  0  0  0  0  0
   -8.9000   -4.1790   -7.7360 N   0  0  0  0  0  0  0  0  0  0  0  0
   -7.8800   -4.5620   -8.5770 C   0  0  0  0  0  0  0  0  0  0  0  0
   -6.9170   -5.1100   -7.9310 N   0  0  0  0  0  0  0  0  0  0  0  0
   -7.3080   -5.0840   -6.6300 N   0  0  0  0  0  0  0  0  0  0  0  0
   -8.4820   -4.5260   -6.5190 C   0  0  0  0  0  0  0  0  0  0  0  0
  1  2  2  0
  2  3  1  0
  3  4  1  0
  4  5  1  0
  5  6  1  0
  6  7  2  0
  7  8  1  0
  8  9  2  0
  9 10  1  0
 10 11  2  0
 11 12  1  0
  7 13  1  0
 13 14  1  0
  2 15  1  0
 15 16  2  0
 16 17  1  0
 17 18  2  0
 18 19  1  0
 19 20  1  0
 20 21  2  0
 21 22  1  0
 22 23  2  0
 14  5  2  0
 23 15  1  0
 12  8  1  0
 23 19  1  0
M  END
>  <pair>  (207) 
x1052_1A-x1594_0A

>  <sucos>  (207) 
0.4180517674316401

>  <ref_mols>  (207) 
x1052_1A,x1594_0A

>  <original SMILES>  (207) 
O=C(NCc1cc(-c2ccco2)on1)c1cccn2cnnc12

>  <cmpd_ids>  (207) 
ENAMINE:PV-002864079535

>  <ref_url>  (207) 
https://github.com/stephwills/fragment_network_merges

>  <submitter_name>  (207) 
Steph Wills

>  <submitter_institution>  (207) 
University of Oxford

>  <submitter_email>  (207) 
stephanie.wills@balliol.ox.ac.uk

>  <generation_date>  (207) 
2023-09-06

>  <method>  (207) 
fragNetMergingIt3

>  <ref_pdb>  (207) 
x1052_1A,x1594_0A

$$$$
x1052-1A-x1594-0A-126
     RDKit          3D

 22 25  0  0  0  0  0  0  0  0999 V2000
   -2.2130   -7.3890   -1.3230 C   0  0  0  0  0  0  0  0  0  0  0  0
   -3.4870   -6.8350   -1.4870 O   0  0  0  0  0  0  0  0  0  0  0  0
   -4.2470   -7.0710   -0.3230 C   0  0  0  0  0  0  0  0  0  0  0  0
   -5.5250   -6.8050   -0.6760 C   0  0  0  0  0  0  0  0  0  0  0  0
   -5.8940   -6.9090   -1.9840 C   0  0  0  0  0  0  0  0  0  0  0  0
   -7.3090   -6.5840   -2.0450 C   0  0  0  0  0  0  0  0  0  0  0  0
   -8.1620   -6.5860   -3.2220 C   0  0  0  0  0  0  0  0  0  0  0  0
   -8.9710   -7.5460   -3.6530 N   0  0  0  0  0  0  0  0  0  0  0  0
   -9.5410   -7.0210   -4.8130 O   0  0  0  0  0  0  0  0  0  0  0  0
   -9.0030   -5.7630   -4.9700 C   0  0  0  0  0  0  0  0  0  0  0  0
   -9.2460   -4.8850   -5.9340 C   0  0  0  0  0  0  0  0  0  0  0  0
  -10.3760   -3.9810   -5.8310 C   0  0  0  0  0  0  0  0  0  0  0  0
  -10.6400   -2.9950   -6.7120 C   0  0  0  0  0  0  0  0  0  0  0  0
   -9.7250   -2.8860   -7.7370 C   0  0  0  0  0  0  0  0  0  0  0  0
   -8.6350   -3.7460   -7.9040 N   0  0  0  0  0  0  0  0  0  0  0  0
   -7.7110   -3.7680   -8.8550 N   0  0  0  0  0  0  0  0  0  0  0  0
   -6.8670   -4.7640   -8.6520 N   0  0  0  0  0  0  0  0  0  0  0  0
   -7.2650   -5.3950   -7.5230 C   0  0  0  0  0  0  0  0  0  0  0  0
   -8.3770   -4.7590   -7.0340 C   0  0  0  0  0  0  0  0  0  0  0  0
   -8.1600   -5.4880   -4.0030 N   0  0  0  0  0  0  0  0  0  0  0  0
   -7.7060   -6.2840   -0.7790 N   0  0  0  0  0  0  0  0  0  0  0  0
   -6.5890   -6.4310    0.0690 O   0  0  0  0  0  0  0  0  0  0  0  0
  1  2  1  0
  2  3  1  0
  3  4  1  0
  4  5  2  0
  5  6  1  0
  6  7  1  0
  7  8  2  0
  8  9  1  0
  9 10  1  0
 10 11  1  0
 11 12  2  0
 12 13  1  0
 13 14  2  0
 14 15  1  0
 15 16  1  0
 16 17  2  0
 17 18  1  0
 18 19  2  0
 10 20  2  0
  6 21  2  0
 21 22  1  0
 22  4  1  0
 20  7  1  0
 19 11  1  0
 19 15  1  0
M  END
>  <pair>  (208) 
x1052_1A-x1594_0A

>  <sucos>  (208) 
0.41837668175474263

>  <ref_mols>  (208) 
x1052_1A,x1594_0A

>  <original SMILES>  (208) 
COCc1cc(-c2noc(-c3cccn4nncc34)n2)no1

>  <cmpd_ids>  (208) 
ENAMINE:PV-002961934355

>  <ref_url>  (208) 
https://github.com/stephwills/fragment_network_merges

>  <submitter_name>  (208) 
Steph Wills

>  <submitter_institution>  (208) 
University of Oxford

>  <submitter_email>  (208) 
stephanie.wills@balliol.ox.ac.uk

>  <generation_date>  (208) 
2023-09-06

>  <method>  (208) 
fragNetMergingIt3

>  <ref_pdb>  (208) 
x1052_1A,x1594_0A

$$$$
x1052-1A-x1594-0A-74
     RDKit          3D

 19 21  0  0  0  0  0  0  0  0999 V2000
   -7.4130   -3.9000   -1.4530 C   0  0  0  0  0  0  0  0  0  0  0  0
   -6.9740   -5.2890   -1.2440 C   0  0  0  0  0  0  0  0  0  0  0  0
   -7.1000   -5.8510   -0.0520 N   0  0  0  0  0  0  0  0  0  0  0  0
   -6.5910   -7.1310   -0.1520 O   0  0  0  0  0  0  0  0  0  0  0  0
   -6.1810   -7.3230   -1.4180 C   0  0  0  0  0  0  0  0  0  0  0  0
   -6.4070   -6.1980   -2.1540 C   0  0  0  0  0  0  0  0  0  0  0  0
   -6.1320   -5.9860   -3.5550 C   0  0  0  0  0  0  0  0  0  0  0  0
   -7.0020   -4.8970   -3.9640 N   0  0  0  0  0  0  0  0  0  0  0  0
   -8.3710   -5.0510   -4.0980 C   0  0  0  0  0  0  0  0  0  0  0  0
   -9.0810   -5.5610   -3.2330 O   0  0  0  0  0  0  0  0  0  0  0  0
   -8.9570   -4.5530   -5.3920 C   0  0  0  0  0  0  0  0  0  0  0  0
  -10.3190   -3.8690   -5.3960 C   0  0  0  0  0  0  0  0  0  0  0  0
  -10.8530   -3.4100   -6.6250 C   0  0  0  0  0  0  0  0  0  0  0  0
  -10.0210   -3.6250   -7.8210 C   0  0  0  0  0  0  0  0  0  0  0  0
   -8.7830   -4.2570   -7.7370 N   0  0  0  0  0  0  0  0  0  0  0  0
   -7.8330   -4.5720   -8.6720 C   0  0  0  0  0  0  0  0  0  0  0  0
   -6.8260   -5.1810   -8.1730 N   0  0  0  0  0  0  0  0  0  0  0  0
   -7.1060   -5.2710   -6.8630 N   0  0  0  0  0  0  0  0  0  0  0  0
   -8.2540   -4.7190   -6.5980 C   0  0  0  0  0  0  0  0  0  0  0  0
  1  2  1  0
  2  3  2  0
  3  4  1  0
  4  5  1  0
  5  6  2  0
  6  7  1  0
  7  8  1  0
  8  9  1  0
  9 10  2  0
  9 11  1  0
 11 12  2  0
 12 13  1  0
 13 14  2  0
 14 15  1  0
 15 16  1  0
 16 17  2  0
 17 18  1  0
 18 19  2  0
  6  2  1  0
 19 11  1  0
 19 15  1  0
M  END
>  <pair>  (209) 
x1052_1A-x1594_0A

>  <sucos>  (209) 
0.42068405929165903

>  <ref_mols>  (209) 
x1052_1A,x1594_0A

>  <original SMILES>  (209) 
Cc1nocc1CNC(=O)c1cccn2cnnc12

>  <cmpd_ids>  (209) 
ENAMINE:PV-003512154268

>  <ref_url>  (209) 
https://github.com/stephwills/fragment_network_merges

>  <submitter_name>  (209) 
Steph Wills

>  <submitter_institution>  (209) 
University of Oxford

>  <submitter_email>  (209) 
stephanie.wills@balliol.ox.ac.uk

>  <generation_date>  (209) 
2023-09-06

>  <method>  (209) 
fragNetMergingIt3

>  <ref_pdb>  (209) 
x1052_1A,x1594_0A

$$$$
x0147-0A-x2021-0A-10
     RDKit          3D

 22 23  0  0  0  0  0  0  0  0999 V2000
   -5.4680   -0.7170   -2.2080 C   0  0  0  0  0  0  0  0  0  0  0  0
   -5.8330   -0.8910   -0.7400 C   0  0  0  0  0  0  0  0  0  0  0  0
   -5.8980   -2.2870   -0.3990 O   0  0  0  0  0  0  0  0  0  0  0  0
   -6.7040   -3.0620   -1.1760 C   0  0  0  0  0  0  0  0  0  0  0  0
   -7.8300   -2.7430   -1.5310 O   0  0  0  0  0  0  0  0  0  0  0  0
   -6.0440   -4.3780   -1.5380 C   0  0  0  0  0  0  0  0  0  0  0  0
   -6.9450   -5.5850   -1.7510 C   0  0  0  0  0  0  0  0  0  0  0  0
   -7.6160   -5.6490   -3.1340 C   0  0  0  0  0  0  0  0  0  0  0  0
   -7.2780   -4.3870   -3.9230 C   0  0  0  0  0  0  0  0  0  0  0  0
   -9.1490   -5.6650   -2.9320 C   0  0  0  0  0  0  0  0  0  0  0  0
   -7.2810   -6.8630   -3.8790 N   0  0  0  0  0  0  0  0  0  0  0  0
   -6.5540   -6.8500   -5.0240 C   0  0  0  0  0  0  0  0  0  0  0  0
   -5.4990   -7.4070   -5.1350 O   0  0  0  0  0  0  0  0  0  0  0  0
   -7.2200   -5.9840   -6.1210 C   0  0  0  0  0  0  0  0  0  0  0  0
   -8.1930   -5.1840   -5.6730 C   0  0  0  0  0  0  0  0  0  0  0  0
   -8.8400   -4.3440   -6.4940 N   0  0  0  0  0  0  0  0  0  0  0  0
   -9.8390   -3.4420   -6.2960 C   0  0  0  0  0  0  0  0  0  0  0  0
  -10.1350   -2.8660   -7.4100 N   0  0  0  0  0  0  0  0  0  0  0  0
   -9.2890   -3.4210   -8.3390 N   0  0  0  0  0  0  0  0  0  0  0  0
   -8.5230   -4.3030   -7.7700 C   0  0  0  0  0  0  0  0  0  0  0  0
   -7.4790   -5.1610   -8.2630 C   0  0  0  0  0  0  0  0  0  0  0  0
   -6.8320   -5.9890   -7.4800 N   0  0  0  0  0  0  0  0  0  0  0  0
  1  2  1  0
  2  3  1  0
  3  4  1  0
  4  5  2  0
  4  6  1  0
  6  7  1  0
  7  8  1  0
  8  9  1  0
  8 10  1  0
  8 11  1  0
 11 12  1  0
 12 13  2  0
 12 14  1  0
 14 15  2  0
 15 16  1  0
 16 17  1  0
 17 18  2  0
 18 19  1  0
 19 20  2  0
 20 21  1  0
 21 22  2  0
 22 14  1  0
 20 16  1  0
M  END
>  <pair>  (210) 
x0147_0A-x2021_0A

>  <sucos>  (210) 
0.4239404226461711

>  <ref_mols>  (210) 
x0147_0A,x2021_0A

>  <original SMILES>  (210) 
CCOC(=O)CCC(C)(C)NC(=O)c1cn2cnnc2cn1

>  <cmpd_ids>  (210) 
ENAMINE:Z4050475728

>  <ref_url>  (210) 
https://github.com/stephwills/fragment_network_merges

>  <submitter_name>  (210) 
Steph Wills

>  <submitter_institution>  (210) 
University of Oxford

>  <submitter_email>  (210) 
stephanie.wills@balliol.ox.ac.uk

>  <generation_date>  (210) 
2023-09-06

>  <method>  (210) 
fragNetMergingIt3

>  <ref_pdb>  (210) 
x0147_0A,x2021_0A

$$$$
x1594-0A-x1052-1A-22
     RDKit          3D

 21 24  0  0  0  0  0  0  0  0999 V2000
   -6.3960   -6.9140   -0.4260 C   0  0  0  0  0  0  0  0  0  0  0  0
   -7.5140   -6.2870   -0.1760 N   0  0  0  0  0  0  0  0  0  0  0  0
   -7.6790   -5.1840   -0.9900 C   0  0  0  0  0  0  0  0  0  0  0  0
   -8.9980   -4.4390   -0.7230 C   0  0  0  0  0  0  0  0  0  0  0  0
   -9.2660   -2.9950   -1.2110 C   0  0  0  0  0  0  0  0  0  0  0  0
   -9.9530   -2.9400   -2.5360 C   0  0  0  0  0  0  0  0  0  0  0  0
   -9.4920   -3.4650   -3.5850 N   0  0  0  0  0  0  0  0  0  0  0  0
  -10.3900   -3.1870   -4.5670 C   0  0  0  0  0  0  0  0  0  0  0  0
   -9.8180   -3.7840   -5.7210 C   0  0  0  0  0  0  0  0  0  0  0  0
   -9.7480   -5.2340   -5.6080 C   0  0  0  0  0  0  0  0  0  0  0  0
   -9.0280   -5.9390   -6.4500 C   0  0  0  0  0  0  0  0  0  0  0  0
   -8.3640   -5.2700   -7.4330 N   0  0  0  0  0  0  0  0  0  0  0  0
   -7.4900   -5.7320   -8.3510 C   0  0  0  0  0  0  0  0  0  0  0  0
   -7.1000   -4.7510   -9.1120 N   0  0  0  0  0  0  0  0  0  0  0  0
   -7.7190   -3.6020   -8.6910 N   0  0  0  0  0  0  0  0  0  0  0  0
   -8.4720   -3.9100   -7.6690 C   0  0  0  0  0  0  0  0  0  0  0  0
   -9.2720   -3.1390   -6.7800 C   0  0  0  0  0  0  0  0  0  0  0  0
  -11.4590   -2.4830   -4.1660 N   0  0  0  0  0  0  0  0  0  0  0  0
  -11.1640   -2.3090   -2.7750 O   0  0  0  0  0  0  0  0  0  0  0  0
   -6.6130   -5.0000   -1.8780 C   0  0  0  0  0  0  0  0  0  0  0  0
   -5.4350   -6.2410   -1.6570 S   0  0  0  0  0  0  0  0  0  0  0  0
  1  2  2  0
  2  3  1  0
  3  4  1  0
  4  5  1  0
  5  6  1  0
  6  7  2  0
  7  8  1  0
  8  9  1  0
  9 10  1  0
 10 11  2  0
 11 12  1  0
 12 13  1  0
 13 14  2  0
 14 15  1  0
 15 16  2  0
 16 17  1  0
  8 18  2  0
 18 19  1  0
  3 20  2  0
 20 21  1  0
 21  1  1  0
 19  6  1  0
 17  9  2  0
 16 12  1  0
M  END
>  <pair>  (211) 
x1594_0A-x1052_1A

>  <sucos>  (211) 
0.42490210064469186

>  <ref_mols>  (211) 
x1594_0A,x1052_1A

>  <original SMILES>  (211) 
c1nc(CCc2nc(-c3ccn4cnnc4c3)no2)cs1

>  <cmpd_ids>  (211) 
ENAMINE:PV-002954568961

>  <ref_url>  (211) 
https://github.com/stephwills/fragment_network_merges

>  <submitter_name>  (211) 
Steph Wills

>  <submitter_institution>  (211) 
University of Oxford

>  <submitter_email>  (211) 
stephanie.wills@balliol.ox.ac.uk

>  <generation_date>  (211) 
2023-09-06

>  <method>  (211) 
fragNetMergingIt3

>  <ref_pdb>  (211) 
x1594_0A,x1052_1A

$$$$
x1052-1A-x1140-0A-59
     RDKit          3D

 23 25  0  0  0  0  0  0  0  0999 V2000
   -6.9460   -7.7380    1.4360 C   0  0  0  0  0  0  0  0  0  0  0  0
   -6.8960   -6.9980    0.1570 C   0  0  0  0  0  0  0  0  0  0  0  0
   -6.4110   -7.2670   -1.0570 C   0  0  0  0  0  0  0  0  0  0  0  0
   -6.6990   -6.1540   -1.8330 C   0  0  0  0  0  0  0  0  0  0  0  0
   -6.3100   -6.1770   -3.2020 C   0  0  0  0  0  0  0  0  0  0  0  0
   -6.5730   -5.3320   -4.0500 O   0  0  0  0  0  0  0  0  0  0  0  0
   -5.6130   -7.3550   -3.3120 N   0  0  0  0  0  0  0  0  0  0  0  0
   -5.9290   -8.3280   -4.3210 C   0  0  0  0  0  0  0  0  0  0  0  0
   -7.0570   -9.2870   -3.9720 C   0  0  0  0  0  0  0  0  0  0  0  0
   -7.8820   -9.7810   -5.0030 C   0  0  0  0  0  0  0  0  0  0  0  0
   -8.5490  -10.1760   -5.8680 N   0  0  0  0  0  0  0  0  0  0  0  0
   -5.1040   -7.8640   -2.0550 C   0  0  0  0  0  0  0  0  0  0  0  0
   -5.7840   -8.8440   -1.2990 C   0  0  0  0  0  0  0  0  0  0  0  0
   -5.2720   -9.2790   -0.0610 C   0  0  0  0  0  0  0  0  0  0  0  0
   -4.0850   -8.7430    0.4190 C   0  0  0  0  0  0  0  0  0  0  0  0
   -3.4030   -7.7970   -0.3220 C   0  0  0  0  0  0  0  0  0  0  0  0
   -3.9020   -7.3590   -1.5440 C   0  0  0  0  0  0  0  0  0  0  0  0
   -2.2250   -7.2390    0.0870 O   0  0  0  0  0  0  0  0  0  0  0  0
   -1.8780   -7.4860    1.4570 C   0  0  0  0  0  0  0  0  0  0  0  0
   -3.0180   -8.0710    2.2990 C   0  0  0  0  0  0  0  0  0  0  0  0
   -3.6240   -9.1760    1.6240 O   0  0  0  0  0  0  0  0  0  0  0  0
   -7.3320   -5.2100   -1.1260 N   0  0  0  0  0  0  0  0  0  0  0  0
   -7.4500   -5.7650    0.1340 O   0  0  0  0  0  0  0  0  0  0  0  0
  1  2  1  0
  2  3  2  0
  3  4  1  0
  4  5  1  0
  5  6  2  0
  5  7  1  0
  7  8  1  0
  8  9  1  0
  9 10  1  0
 10 11  3  0
  7 12  1  0
 12 13  2  0
 13 14  1  0
 14 15  2  0
 15 16  1  0
 16 17  2  0
 16 18  1  0
 18 19  1  0
 19 20  1  0
 20 21  1  0
  4 22  2  0
 22 23  1  0
 23  2  1  0
 17 12  1  0
 21 15  1  0
M  END
>  <pair>  (212) 
x1052_1A-x1140_0A

>  <sucos>  (212) 
0.42769965857276443

>  <ref_mols>  (212) 
x1052_1A,x1140_0A

>  <original SMILES>  (212) 
Cc1cc(C(=O)N(CCC#N)c2ccc3c(c2)OCCO3)no1

>  <cmpd_ids>  (212) 
ENAMINE:Z1126915907

>  <ref_url>  (212) 
https://github.com/stephwills/fragment_network_merges

>  <submitter_name>  (212) 
Steph Wills

>  <submitter_institution>  (212) 
University of Oxford

>  <submitter_email>  (212) 
stephanie.wills@balliol.ox.ac.uk

>  <generation_date>  (212) 
2023-09-06

>  <method>  (212) 
fragNetMergingIt3

>  <ref_pdb>  (212) 
x1052_1A,x1140_0A

$$$$
x1594-0A-x1919-0A-62
     RDKit          3D

 19 20  0  0  0  0  0  0  0  0999 V2000
   -5.7960   -0.3260   -0.2720 C   0  0  0  0  0  0  0  0  0  0  0  0
   -6.3540   -1.3290   -1.2650 C   0  0  0  0  0  0  0  0  0  0  0  0
   -5.4800   -1.3020   -2.5180 C   0  0  0  0  0  0  0  0  0  0  0  0
   -6.3500   -2.6330   -0.6430 O   0  0  0  0  0  0  0  0  0  0  0  0
   -7.4000   -3.5000   -1.1310 C   0  0  0  0  0  0  0  0  0  0  0  0
   -6.8470   -4.8490   -1.6420 C   0  0  0  0  0  0  0  0  0  0  0  0
   -6.8300   -4.8990   -3.1740 C   0  0  0  0  0  0  0  0  0  0  0  0
   -6.4030   -3.9410   -3.7950 O   0  0  0  0  0  0  0  0  0  0  0  0
   -7.3240   -6.0670   -3.7810 N   0  0  0  0  0  0  0  0  0  0  0  0
   -6.9950   -6.5770   -5.1360 C   0  0  0  0  0  0  0  0  0  0  0  0
   -7.4560   -5.6480   -6.2840 C   0  0  0  0  0  0  0  0  0  0  0  0
   -6.8220   -5.3760   -7.4490 N   0  0  0  0  0  0  0  0  0  0  0  0
   -7.5490   -4.4620   -8.1870 N   0  0  0  0  0  0  0  0  0  0  0  0
   -8.6280   -4.1870   -7.4950 C   0  0  0  0  0  0  0  0  0  0  0  0
   -9.7310   -3.3190   -7.7240 C   0  0  0  0  0  0  0  0  0  0  0  0
  -10.7310   -3.2410   -6.8390 C   0  0  0  0  0  0  0  0  0  0  0  0
  -10.7130   -4.0320   -5.6300 C   0  0  0  0  0  0  0  0  0  0  0  0
   -9.6690   -4.8410   -5.3910 C   0  0  0  0  0  0  0  0  0  0  0  0
   -8.6300   -4.9200   -6.3090 N   0  0  0  0  0  0  0  0  0  0  0  0
  1  2  1  0
  2  3  1  0
  2  4  1  0
  4  5  1  0
  5  6  1  0
  6  7  1  0
  7  8  2  0
  7  9  1  0
  9 10  1  0
 10 11  1  0
 11 12  2  0
 12 13  1  0
 13 14  2  0
 14 15  1  0
 15 16  2  0
 16 17  1  0
 17 18  2  0
 18 19  1  0
 19 11  1  0
 19 14  1  0
M  END
>  <pair>  (213) 
x1594_0A-x1919_0A

>  <sucos>  (213) 
0.42820931609426466

>  <ref_mols>  (213) 
x1594_0A,x1919_0A

>  <original SMILES>  (213) 
CC(C)OCCC(=O)NCc1nnc2ccccn12

>  <cmpd_ids>  (213) 
ENAMINE:Z365378944

>  <ref_url>  (213) 
https://github.com/stephwills/fragment_network_merges

>  <submitter_name>  (213) 
Steph Wills

>  <submitter_institution>  (213) 
University of Oxford

>  <submitter_email>  (213) 
stephanie.wills@balliol.ox.ac.uk

>  <generation_date>  (213) 
2023-09-06

>  <method>  (213) 
fragNetMergingIt3

>  <ref_pdb>  (213) 
x1594_0A,x1919_0A

$$$$
x1020-0A-x0130-0A-123
     RDKit          3D

 23 24  0  0  0  0  0  0  0  0999 V2000
    0.0080   -9.8590    1.9190 C   0  0  0  0  0  0  0  0  0  0  0  0
   -1.1510   -9.0350    1.5790 N   0  0  0  0  0  0  0  0  0  0  0  0
   -0.7640   -7.6320    1.4590 C   0  0  0  0  0  0  0  0  0  0  0  0
   -2.2230   -9.2160    2.5510 C   0  0  0  0  0  0  0  0  0  0  0  0
   -3.3740   -8.1880    2.5080 C   0  0  0  0  0  0  0  0  0  0  0  0
   -1.6270   -9.2900    3.9690 C   0  0  0  0  0  0  0  0  0  0  0  0
   -2.7630  -10.6150    2.4680 C   0  0  0  0  0  0  0  0  0  0  0  0
   -2.2020  -11.8960    3.0130 C   0  0  0  0  0  0  0  0  0  0  0  0
   -3.1790  -12.8710    2.6350 N   0  0  0  0  0  0  0  0  0  0  0  0
   -3.0960  -14.2050    2.9350 C   0  0  0  0  0  0  0  0  0  0  0  0
   -4.1940  -15.0350    2.3200 C   0  0  0  0  0  0  0  0  0  0  0  0
   -5.5710  -14.3600    2.2320 C   0  0  0  0  0  0  0  0  0  0  0  0
   -6.2140  -14.3370    1.1870 O   0  0  0  0  0  0  0  0  0  0  0  0
   -6.0450  -13.7920    3.4000 N   0  0  0  0  0  0  0  0  0  0  0  0
   -6.8200  -12.5560    3.2700 C   0  0  1  0  0  0  0  0  0  0  0  0
   -8.2900  -12.6600    3.6760 C   0  0  0  0  0  0  0  0  0  0  0  0
   -8.9310  -11.3580    3.1760 C   0  0  0  0  0  0  0  0  0  0  0  0
   -8.2740  -10.1950    3.9270 C   0  0  0  0  0  0  0  0  0  0  0  0
   -6.8310  -10.2560    3.8710 N   0  0  0  0  0  0  0  0  0  0  0  0
   -6.2220  -11.4480    4.1310 C   0  0  0  0  0  0  0  0  0  0  0  0
   -5.3320  -11.5730    4.9690 O   0  0  0  0  0  0  0  0  0  0  0  0
   -4.1820  -12.2880    1.9510 N   0  0  0  0  0  0  0  0  0  0  0  0
   -3.9500  -10.9580    1.8470 N   0  0  0  0  0  0  0  0  0  0  0  0
  1  2  1  0
  2  3  1  0
  2  4  1  0
  4  5  1  0
  4  6  1  0
  4  7  1  0
  7  8  2  0
  8  9  1  0
  9 10  1  0
 10 11  1  0
 11 12  1  0
 12 13  2  0
 12 14  1  0
 15 14  1  1
 15 16  1  0
 16 17  1  0
 17 18  1  0
 18 19  1  0
 19 20  1  0
 20 21  2  0
  9 22  1  0
 22 23  2  0
 23  7  1  0
 20 15  1  0
M  END
>  <pair>  (214) 
x1020_0A-x0130_0A

>  <sucos>  (214) 
0.42821668809249147

>  <ref_mols>  (214) 
x1020_0A,x0130_0A

>  <original SMILES>  (214) 
CN(C)C(C)(C)c1cn(CCC(=O)NC2CCCNC2=O)nn1

>  <cmpd_ids>  (214) 
ENAMINE:PV-002937029673

>  <ref_url>  (214) 
https://github.com/stephwills/fragment_network_merges

>  <submitter_name>  (214) 
Steph Wills

>  <submitter_institution>  (214) 
University of Oxford

>  <submitter_email>  (214) 
stephanie.wills@balliol.ox.ac.uk

>  <generation_date>  (214) 
2023-09-06

>  <method>  (214) 
fragNetMergingIt3

>  <ref_pdb>  (214) 
x1020_0A,x0130_0A

$$$$
x1594-0A-x1052-1A-171
     RDKit          3D

 21 23  0  0  0  0  0  0  0  0999 V2000
   -9.0810   -8.0240   -3.0930 C   0  0  0  0  0  0  0  0  0  0  0  0
   -7.5880   -8.2380   -2.9660 C   0  0  1  0  0  0  0  0  0  0  0  0
   -6.9420   -8.2360   -4.3590 C   0  0  0  0  0  0  0  0  0  0  0  0
   -7.1310   -6.9950   -5.1580 N   0  0  0  0  0  0  0  0  0  0  0  0
   -7.0490   -5.7940   -4.3340 C   0  0  0  0  0  0  0  0  0  0  0  0
   -7.4030   -7.0220   -6.5000 C   0  0  0  0  0  0  0  0  0  0  0  0
   -7.4890   -8.0930   -7.0780 O   0  0  0  0  0  0  0  0  0  0  0  0
   -7.6270   -5.7100   -7.2560 C   0  0  0  0  0  0  0  0  0  0  0  0
   -6.8860   -5.1540   -8.2050 N   0  0  0  0  0  0  0  0  0  0  0  0
   -7.4710   -3.9570   -8.5740 N   0  0  0  0  0  0  0  0  0  0  0  0
   -8.5560   -3.8040   -7.8450 C   0  0  0  0  0  0  0  0  0  0  0  0
   -9.5180   -2.7990   -7.7760 C   0  0  0  0  0  0  0  0  0  0  0  0
  -10.6190   -2.9010   -6.8810 C   0  0  0  0  0  0  0  0  0  0  0  0
  -10.7610   -3.9970   -6.0580 C   0  0  0  0  0  0  0  0  0  0  0  0
   -9.7580   -5.0350   -6.1200 C   0  0  0  0  0  0  0  0  0  0  0  0
   -8.6990   -4.8950   -7.0070 N   0  0  0  0  0  0  0  0  0  0  0  0
   -6.9880   -7.1540   -2.1040 C   0  0  0  0  0  0  0  0  0  0  0  0
   -7.6890   -6.0890   -1.6660 N   0  0  0  0  0  0  0  0  0  0  0  0
   -6.8540   -5.2930   -0.9540 C   0  0  0  0  0  0  0  0  0  0  0  0
   -5.4310   -5.8540   -0.8670 C   0  0  0  0  0  0  0  0  0  0  0  0
   -5.3000   -7.3110   -1.6930 S   0  0  0  0  0  0  0  0  0  0  0  0
  2  1  1  6
  2  3  1  0
  3  4  1  0
  4  5  1  0
  4  6  1  0
  6  7  2  0
  6  8  1  0
  8  9  2  0
  9 10  1  0
 10 11  2  0
 11 12  1  0
 12 13  2  0
 13 14  1  0
 14 15  2  0
 15 16  1  0
  2 17  1  0
 17 18  2  0
 18 19  1  0
 19 20  2  0
 20 21  1  0
 16  8  1  0
 21 17  1  0
 16 11  1  0
M  END
>  <pair>  (215) 
x1594_0A-x1052_1A

>  <sucos>  (215) 
0.4287595471926832

>  <ref_mols>  (215) 
x1594_0A,x1052_1A

>  <original SMILES>  (215) 
CC(CN(C)C(=O)c1nnc2ccccn12)c1nccs1

>  <cmpd_ids>  (215) 
ENAMINE:Z4290374374

>  <ref_url>  (215) 
https://github.com/stephwills/fragment_network_merges

>  <submitter_name>  (215) 
Steph Wills

>  <submitter_institution>  (215) 
University of Oxford

>  <submitter_email>  (215) 
stephanie.wills@balliol.ox.ac.uk

>  <generation_date>  (215) 
2023-09-06

>  <method>  (215) 
fragNetMergingIt3

>  <ref_pdb>  (215) 
x1594_0A,x1052_1A

$$$$
x1052-1A-x1140-0A-50
     RDKit          3D

 22 25  0  0  0  0  0  0  0  0999 V2000
   -8.8090   -9.4990   -2.7870 O   0  0  0  0  0  0  0  0  0  0  0  0
   -7.6420   -9.1310   -2.7360 C   0  0  0  0  0  0  0  0  0  0  0  0
   -7.1990   -7.8850   -3.4710 C   0  0  0  0  0  0  0  0  0  0  0  0
   -7.1380   -6.7020   -2.5500 C   0  0  0  0  0  0  0  0  0  0  0  0
   -6.3280   -5.5520   -2.6100 C   0  0  0  0  0  0  0  0  0  0  0  0
   -6.7440   -4.8270   -1.5300 C   0  0  0  0  0  0  0  0  0  0  0  0
   -6.1890   -3.4550   -1.1580 C   0  0  0  0  0  0  0  0  0  0  0  0
   -6.6250   -2.3040   -1.8440 C   0  0  0  0  0  0  0  0  0  0  0  0
   -7.1900   -2.2170   -0.6480 C   0  0  0  0  0  0  0  0  0  0  0  0
   -7.7000   -5.4210   -0.8120 N   0  0  0  0  0  0  0  0  0  0  0  0
   -7.9520   -6.6150   -1.4540 O   0  0  0  0  0  0  0  0  0  0  0  0
   -6.5980   -9.7260   -2.0690 N   0  0  0  0  0  0  0  0  0  0  0  0
   -5.5770   -9.0430   -1.3960 C   0  0  0  0  0  0  0  0  0  0  0  0
   -4.8440   -8.1010   -2.1170 C   0  0  0  0  0  0  0  0  0  0  0  0
   -3.8160   -7.4100   -1.4790 C   0  0  0  0  0  0  0  0  0  0  0  0
   -3.5730   -7.6940   -0.1530 C   0  0  0  0  0  0  0  0  0  0  0  0
   -4.3600   -8.6450    0.4760 C   0  0  0  0  0  0  0  0  0  0  0  0
   -5.3320   -9.3090   -0.1080 N   0  0  0  0  0  0  0  0  0  0  0  0
   -4.2420   -9.0220    1.7660 O   0  0  0  0  0  0  0  0  0  0  0  0
   -3.4120   -8.1140    2.4940 C   0  0  0  0  0  0  0  0  0  0  0  0
   -2.1990   -7.7360    1.6660 C   0  0  0  0  0  0  0  0  0  0  0  0
   -2.5760   -7.0340    0.4740 O   0  0  0  0  0  0  0  0  0  0  0  0
  1  2  2  0
  2  3  1  0
  3  4  1  0
  4  5  2  0
  5  6  1  0
  6  7  1  0
  7  8  1  0
  8  9  1  0
  6 10  2  0
 10 11  1  0
  2 12  1  0
 12 13  1  0
 13 14  2  0
 14 15  1  0
 15 16  2  0
 16 17  1  0
 17 18  2  0
 17 19  1  0
 19 20  1  0
 20 21  1  0
 21 22  1  0
 11  4  1  0
 18 13  1  0
  9  7  1  0
 22 16  1  0
M  END
>  <pair>  (216) 
x1052_1A-x1140_0A

>  <sucos>  (216) 
0.4293432158816679

>  <ref_mols>  (216) 
x1052_1A,x1140_0A

>  <original SMILES>  (216) 
O=C(Cc1cc(C2CC2)no1)Nc1ccc2c(n1)OCCO2

>  <cmpd_ids>  (216) 
ENAMINE:Z2644751335

>  <ref_url>  (216) 
https://github.com/stephwills/fragment_network_merges

>  <submitter_name>  (216) 
Steph Wills

>  <submitter_institution>  (216) 
University of Oxford

>  <submitter_email>  (216) 
stephanie.wills@balliol.ox.ac.uk

>  <generation_date>  (216) 
2023-09-06

>  <method>  (216) 
fragNetMergingIt3

>  <ref_pdb>  (216) 
x1052_1A,x1140_0A

$$$$
x1052-1A-x1594-0A-178
     RDKit          3D

 22 25  0  0  0  0  0  0  0  0999 V2000
   -7.4240   -6.8850   -7.1020 O   0  0  0  0  0  0  0  0  0  0  0  0
   -7.7960   -5.8920   -6.4960 C   0  0  0  0  0  0  0  0  0  0  0  0
   -7.8450   -5.7810   -5.1180 O   0  0  0  0  0  0  0  0  0  0  0  0
   -6.9200   -6.6570   -4.3840 C   0  0  0  0  0  0  0  0  0  0  0  0
   -6.6920   -6.3360   -2.8560 C   0  0  0  0  0  0  0  0  0  0  0  0
   -6.1840   -7.2680   -1.8340 C   0  0  0  0  0  0  0  0  0  0  0  0
   -6.1390   -6.6540   -0.6280 O   0  0  0  0  0  0  0  0  0  0  0  0
   -6.5820   -5.3540   -0.7710 N   0  0  0  0  0  0  0  0  0  0  0  0
   -6.8970   -5.1640   -2.0630 C   0  0  0  0  0  0  0  0  0  0  0  0
   -7.3670   -3.9540   -2.5100 C   0  0  0  0  0  0  0  0  0  0  0  0
   -8.5710   -3.7140   -1.8520 C   0  0  0  0  0  0  0  0  0  0  0  0
   -8.1520   -2.5730   -1.1500 C   0  0  0  0  0  0  0  0  0  0  0  0
   -6.8670   -2.6290   -1.6830 C   0  0  0  0  0  0  0  0  0  0  0  0
   -8.2210   -4.7240   -7.1990 C   0  0  0  0  0  0  0  0  0  0  0  0
   -7.4860   -4.2250   -8.1950 N   0  0  0  0  0  0  0  0  0  0  0  0
   -8.1480   -3.1460   -8.6390 N   0  0  0  0  0  0  0  0  0  0  0  0
   -9.2900   -2.9850   -7.9170 N   0  0  0  0  0  0  0  0  0  0  0  0
  -10.2930   -2.0280   -8.0020 C   0  0  0  0  0  0  0  0  0  0  0  0
  -11.3930   -2.0830   -7.1410 C   0  0  0  0  0  0  0  0  0  0  0  0
  -11.4310   -3.1330   -6.1950 C   0  0  0  0  0  0  0  0  0  0  0  0
  -10.4630   -4.0380   -6.1190 C   0  0  0  0  0  0  0  0  0  0  0  0
   -9.3530   -3.9860   -6.9950 C   0  0  0  0  0  0  0  0  0  0  0  0
  1  2  2  0
  2  3  1  0
  3  4  1  0
  4  5  1  0
  5  6  2  0
  6  7  1  0
  7  8  1  0
  8  9  2  0
  9 10  1  0
 10 11  1  0
 11 12  1  0
 12 13  1  0
  2 14  1  0
 14 15  1  0
 15 16  2  0
 16 17  1  0
 17 18  1  0
 18 19  2  0
 19 20  1  0
 20 21  2  0
 21 22  1  0
  9  5  1  0
 13 10  1  0
 22 14  2  0
 22 17  1  0
M  END
>  <pair>  (217) 
x1052_1A-x1594_0A

>  <sucos>  (217) 
0.4305272741856301

>  <ref_mols>  (217) 
x1052_1A,x1594_0A

>  <original SMILES>  (217) 
O=C(OCc1conc1C1CCC1)c1nnn2ccccc12

>  <cmpd_ids>  (217) 
ENAMINE:Z3576432988

>  <ref_url>  (217) 
https://github.com/stephwills/fragment_network_merges

>  <submitter_name>  (217) 
Steph Wills

>  <submitter_institution>  (217) 
University of Oxford

>  <submitter_email>  (217) 
stephanie.wills@balliol.ox.ac.uk

>  <generation_date>  (217) 
2023-09-06

>  <method>  (217) 
fragNetMergingIt3

>  <ref_pdb>  (217) 
x1052_1A,x1594_0A

$$$$
x1052-1A-x1594-0A-139
     RDKit          3D

 18 20  0  0  0  0  0  0  0  0999 V2000
   -5.5710   -7.3470   -3.7920 C   0  0  0  0  0  0  0  0  0  0  0  0
   -5.9530   -6.8110   -2.4720 C   0  0  0  0  0  0  0  0  0  0  0  0
   -5.6000   -7.0300   -1.1840 C   0  0  0  0  0  0  0  0  0  0  0  0
   -6.3270   -6.2160   -0.3820 O   0  0  0  0  0  0  0  0  0  0  0  0
   -7.1870   -5.4260   -1.1520 N   0  0  0  0  0  0  0  0  0  0  0  0
   -7.0010   -5.7470   -2.4530 C   0  0  0  0  0  0  0  0  0  0  0  0
   -7.6710   -5.1840   -3.5650 N   0  0  0  0  0  0  0  0  0  0  0  0
   -8.4000   -5.8540   -4.5700 C   0  0  0  0  0  0  0  0  0  0  0  0
   -8.6050   -7.0550   -4.6730 O   0  0  0  0  0  0  0  0  0  0  0  0
   -8.9160   -4.9700   -5.5250 C   0  0  0  0  0  0  0  0  0  0  0  0
  -10.1380   -4.0450   -5.3800 C   0  0  0  0  0  0  0  0  0  0  0  0
  -10.5910   -3.1220   -6.3370 C   0  0  0  0  0  0  0  0  0  0  0  0
   -9.6950   -3.1330   -7.5700 C   0  0  0  0  0  0  0  0  0  0  0  0
   -8.6040   -3.9950   -7.7140 N   0  0  0  0  0  0  0  0  0  0  0  0
   -7.8100   -4.0480   -8.8130 N   0  0  0  0  0  0  0  0  0  0  0  0
   -6.9160   -4.9890   -8.5970 N   0  0  0  0  0  0  0  0  0  0  0  0
   -7.1520   -5.5060   -7.3630 C   0  0  0  0  0  0  0  0  0  0  0  0
   -8.2260   -4.8760   -6.7740 C   0  0  0  0  0  0  0  0  0  0  0  0
  1  2  1  0
  2  3  2  0
  3  4  1  0
  4  5  1  0
  5  6  2  0
  6  7  1  0
  7  8  1  0
  8  9  2  0
  8 10  1  0
 10 11  2  0
 11 12  1  0
 12 13  2  0
 13 14  1  0
 14 15  1  0
 15 16  2  0
 16 17  1  0
 17 18  2  0
  6  2  1  0
 18 10  1  0
 18 14  1  0
M  END
>  <pair>  (218) 
x1052_1A-x1594_0A

>  <sucos>  (218) 
0.4310244489289303

>  <ref_mols>  (218) 
x1052_1A,x1594_0A

>  <original SMILES>  (218) 
Cc1conc1NC(=O)c1cccn2nncc12

>  <cmpd_ids>  (218) 
ENAMINE:PV-002817207985

>  <ref_url>  (218) 
https://github.com/stephwills/fragment_network_merges

>  <submitter_name>  (218) 
Steph Wills

>  <submitter_institution>  (218) 
University of Oxford

>  <submitter_email>  (218) 
stephanie.wills@balliol.ox.ac.uk

>  <generation_date>  (218) 
2023-09-06

>  <method>  (218) 
fragNetMergingIt3

>  <ref_pdb>  (218) 
x1052_1A,x1594_0A

$$$$
x1594-0A-x1052-1A-189
     RDKit          3D

 23 25  0  0  0  0  0  0  0  0999 V2000
   -7.2040   -2.9290   -2.2580 C   0  0  0  0  0  0  0  0  0  0  0  0
   -8.7040   -2.9670   -1.9450 C   0  0  0  0  0  0  0  0  0  0  0  0
   -9.3030   -1.5660   -2.1330 C   0  0  0  0  0  0  0  0  0  0  0  0
   -9.4560   -3.9280   -2.6240 N   0  0  0  0  0  0  0  0  0  0  0  0
   -9.2860   -5.2950   -2.0020 C   0  0  0  0  0  0  0  0  0  0  0  0
   -7.9910   -5.7380   -1.8570 C   0  0  0  0  0  0  0  0  0  0  0  0
   -7.6820   -7.0470   -2.6020 C   0  0  0  0  0  0  0  0  0  0  0  0
   -6.2330   -7.4800   -2.4280 C   0  0  0  0  0  0  0  0  0  0  0  0
   -5.3070   -6.6570   -1.6170 C   0  0  0  0  0  0  0  0  0  0  0  0
   -5.8080   -5.5170   -1.0340 C   0  0  0  0  0  0  0  0  0  0  0  0
   -7.0700   -5.0470   -1.1160 N   0  0  0  0  0  0  0  0  0  0  0  0
  -10.7270   -3.6960   -3.2580 C   0  0  0  0  0  0  0  0  0  0  0  0
  -11.7620   -3.8880   -2.6160 O   0  0  0  0  0  0  0  0  0  0  0  0
  -10.7690   -3.2540   -4.5970 N   0  0  0  0  0  0  0  0  0  0  0  0
   -9.9930   -3.7710   -5.6180 C   0  0  0  0  0  0  0  0  0  0  0  0
   -9.8380   -5.1970   -5.4140 C   0  0  0  0  0  0  0  0  0  0  0  0
   -9.0130   -5.9220   -6.2690 C   0  0  0  0  0  0  0  0  0  0  0  0
   -8.3860   -5.2320   -7.2660 N   0  0  0  0  0  0  0  0  0  0  0  0
   -7.4940   -5.6670   -8.1880 C   0  0  0  0  0  0  0  0  0  0  0  0
   -7.1470   -4.6780   -8.9580 N   0  0  0  0  0  0  0  0  0  0  0  0
   -7.8210   -3.5550   -8.5410 N   0  0  0  0  0  0  0  0  0  0  0  0
   -8.5670   -3.8780   -7.5080 C   0  0  0  0  0  0  0  0  0  0  0  0
   -9.3890   -3.1630   -6.6880 C   0  0  0  0  0  0  0  0  0  0  0  0
  1  2  1  0
  2  3  1  0
  2  4  1  0
  4  5  1  0
  5  6  1  0
  6  7  2  0
  7  8  1  0
  8  9  2  0
  9 10  1  0
 10 11  2  0
  4 12  1  0
 12 13  2  0
 12 14  1  0
 14 15  1  0
 15 16  1  0
 16 17  2  0
 17 18  1  0
 18 19  1  0
 19 20  2  0
 20 21  1  0
 21 22  2  0
 22 23  1  0
 11  6  1  0
 23 15  2  0
 22 18  1  0
M  END
>  <pair>  (219) 
x1594_0A-x1052_1A

>  <sucos>  (219) 
0.43302048732090115

>  <ref_mols>  (219) 
x1594_0A,x1052_1A

>  <original SMILES>  (219) 
CC(C)N(Cc1ccccn1)C(=O)Nc1ccn2cnnc2c1

>  <cmpd_ids>  (219) 
ENAMINE:Z4466932329

>  <ref_url>  (219) 
https://github.com/stephwills/fragment_network_merges

>  <submitter_name>  (219) 
Steph Wills

>  <submitter_institution>  (219) 
University of Oxford

>  <submitter_email>  (219) 
stephanie.wills@balliol.ox.ac.uk

>  <generation_date>  (219) 
2023-09-06

>  <method>  (219) 
fragNetMergingIt3

>  <ref_pdb>  (219) 
x1594_0A,x1052_1A

$$$$
x1594-0A-x2021-0A-40
     RDKit          3D

 21 22  0  0  0  0  0  0  0  0999 V2000
   -5.5510   -7.8920   -3.8990 C   0  0  0  0  0  0  0  0  0  0  0  0
   -6.8680   -7.2070   -3.5680 C   0  0  0  0  0  0  0  0  0  0  0  0
   -6.6760   -5.6990   -3.3530 C   0  0  2  0  0  0  0  0  0  0  0  0
   -6.8430   -5.1480   -1.9470 C   0  0  0  0  0  0  0  0  0  0  0  0
   -5.6240   -4.3330   -1.5800 C   0  0  0  0  0  0  0  0  0  0  0  0
   -5.8380   -2.8460   -1.4210 C   0  0  0  0  0  0  0  0  0  0  0  0
   -6.0920   -2.2740   -0.3700 O   0  0  0  0  0  0  0  0  0  0  0  0
   -5.6560   -2.2300   -2.6130 O   0  0  0  0  0  0  0  0  0  0  0  0
   -5.6090   -0.8090   -2.5140 C   0  0  0  0  0  0  0  0  0  0  0  0
   -7.4950   -4.9180   -4.2240 N   0  0  0  0  0  0  0  0  0  0  0  0
   -8.8450   -5.0740   -4.3160 C   0  0  0  0  0  0  0  0  0  0  0  0
   -9.5780   -5.5980   -3.4780 O   0  0  0  0  0  0  0  0  0  0  0  0
   -9.3120   -4.5140   -5.5910 C   0  0  0  0  0  0  0  0  0  0  0  0
  -10.5010   -3.9180   -5.6750 C   0  0  0  0  0  0  0  0  0  0  0  0
  -10.9170   -3.3680   -6.9100 C   0  0  0  0  0  0  0  0  0  0  0  0
  -10.0810   -3.4590   -7.9410 C   0  0  0  0  0  0  0  0  0  0  0  0
   -8.8420   -4.0900   -7.8250 N   0  0  0  0  0  0  0  0  0  0  0  0
   -7.7890   -4.3390   -8.6710 C   0  0  0  0  0  0  0  0  0  0  0  0
   -6.8430   -4.9890   -8.0990 N   0  0  0  0  0  0  0  0  0  0  0  0
   -7.2710   -5.1670   -6.8360 N   0  0  0  0  0  0  0  0  0  0  0  0
   -8.4490   -4.6240   -6.6840 C   0  0  0  0  0  0  0  0  0  0  0  0
  1  2  1  0
  3  2  1  1
  3  4  1  0
  4  5  1  0
  5  6  1  0
  6  7  2  0
  6  8  1  0
  8  9  1  0
  3 10  1  0
 10 11  1  0
 11 12  2  0
 11 13  1  0
 13 14  2  0
 14 15  1  0
 15 16  2  0
 16 17  1  0
 17 18  1  0
 18 19  2  0
 19 20  1  0
 20 21  2  0
 21 13  1  0
 21 17  1  0
M  END
>  <pair>  (220) 
x1594_0A-x2021_0A

>  <sucos>  (220) 
0.43356036587949454

>  <ref_mols>  (220) 
x1594_0A,x2021_0A

>  <original SMILES>  (220) 
CCC(CCC(=O)OC)NC(=O)c1cccn2cnnc12

>  <cmpd_ids>  (220) 
ENAMINE:Z3612361103

>  <ref_url>  (220) 
https://github.com/stephwills/fragment_network_merges

>  <submitter_name>  (220) 
Steph Wills

>  <submitter_institution>  (220) 
University of Oxford

>  <submitter_email>  (220) 
stephanie.wills@balliol.ox.ac.uk

>  <generation_date>  (220) 
2023-09-06

>  <method>  (220) 
fragNetMergingIt3

>  <ref_pdb>  (220) 
x1594_0A,x2021_0A

$$$$
x0147-0A-x1052-1A-96
     RDKit          3D

 24 27  0  0  0  0  0  0  0  0999 V2000
  -12.7860   -6.1540   -4.3820 O   0  0  0  0  0  0  0  0  0  0  0  0
  -11.6420   -6.2190   -4.8450 C   0  0  0  0  0  0  0  0  0  0  0  0
  -11.2970   -6.1450   -6.1760 N   0  0  0  0  0  0  0  0  0  0  0  0
  -10.5270   -5.0830   -6.8000 C   0  0  0  0  0  0  0  0  0  0  0  0
  -11.0410   -3.8670   -6.9400 N   0  0  0  0  0  0  0  0  0  0  0  0
  -10.1310   -3.0730   -7.5860 N   0  0  0  0  0  0  0  0  0  0  0  0
   -9.1060   -3.8380   -7.8110 C   0  0  0  0  0  0  0  0  0  0  0  0
   -7.8670   -3.4610   -8.5190 C   0  0  0  0  0  0  0  0  0  0  0  0
   -6.8760   -4.2520   -8.6990 N   0  0  0  0  0  0  0  0  0  0  0  0
   -7.0070   -5.5220   -8.2030 C   0  0  0  0  0  0  0  0  0  0  0  0
   -8.1750   -5.9830   -7.5240 C   0  0  0  0  0  0  0  0  0  0  0  0
   -9.2440   -5.0990   -7.3420 N   0  0  0  0  0  0  0  0  0  0  0  0
  -10.4590   -6.3930   -3.9930 C   0  0  0  0  0  0  0  0  0  0  0  0
  -10.1060   -5.2990   -3.0200 C   0  0  0  0  0  0  0  0  0  0  0  0
   -8.9730   -5.4010   -2.3000 N   0  0  0  0  0  0  0  0  0  0  0  0
   -8.2740   -6.4880   -2.3750 C   0  0  0  0  0  0  0  0  0  0  0  0
   -7.0480   -6.5410   -1.7820 C   0  0  0  0  0  0  0  0  0  0  0  0
   -6.6240   -5.4580   -1.2040 N   0  0  0  0  0  0  0  0  0  0  0  0
   -5.3800   -5.7130   -0.7580 C   0  0  0  0  0  0  0  0  0  0  0  0
   -4.8700   -6.9710   -0.9770 C   0  0  0  0  0  0  0  0  0  0  0  0
   -6.0220   -7.9060   -1.7970 S   0  0  0  0  0  0  0  0  0  0  0  0
   -8.6300   -7.6030   -3.0830 N   0  0  0  0  0  0  0  0  0  0  0  0
   -9.5680   -7.5640   -4.0510 C   0  0  0  0  0  0  0  0  0  0  0  0
   -9.6800   -8.4390   -4.9060 O   0  0  0  0  0  0  0  0  0  0  0  0
  1  2  2  0
  2  3  1  0
  3  4  1  0
  4  5  2  0
  5  6  1  0
  6  7  2  0
  7  8  1  0
  8  9  2  0
  9 10  1  0
 10 11  2  0
 11 12  1  0
  2 13  1  0
 13 14  2  0
 14 15  1  0
 15 16  2  0
 16 17  1  0
 17 18  2  0
 18 19  1  0
 19 20  2  0
 20 21  1  0
 16 22  1  0
 22 23  1  0
 23 24  2  0
 12  4  1  0
 23 13  1  0
 12  7  1  0
 21 17  1  0
M  END
>  <pair>  (221) 
x0147_0A-x1052_1A

>  <sucos>  (221) 
0.43457512335158127

>  <ref_mols>  (221) 
x0147_0A,x1052_1A

>  <original SMILES>  (221) 
O=C(Nc1nnc2cnccn12)c1cnc(-c2nccs2)[nH]c1=O

>  <cmpd_ids>  (221) 
ENAMINE:PV-002796754808

>  <ref_url>  (221) 
https://github.com/stephwills/fragment_network_merges

>  <submitter_name>  (221) 
Steph Wills

>  <submitter_institution>  (221) 
University of Oxford

>  <submitter_email>  (221) 
stephanie.wills@balliol.ox.ac.uk

>  <generation_date>  (221) 
2023-09-06

>  <method>  (221) 
fragNetMergingIt3

>  <ref_pdb>  (221) 
x0147_0A,x1052_1A

$$$$
x1594-0A-x1052-1A-196
     RDKit          3D

 22 24  0  0  0  0  0  0  0  0999 V2000
   -4.9700   -7.6780   -3.7460 C   0  0  0  0  0  0  0  0  0  0  0  0
   -6.2200   -8.0860   -3.1750 C   0  0  0  0  0  0  0  0  0  0  0  0
   -6.2950   -9.4010   -2.5700 C   0  0  0  0  0  0  0  0  0  0  0  0
   -7.2850   -8.0570   -4.3060 C   0  0  0  0  0  0  0  0  0  0  0  0
   -8.4030   -8.5570   -4.1740 O   0  0  0  0  0  0  0  0  0  0  0  0
   -6.9100   -7.4400   -5.4980 N   0  0  0  0  0  0  0  0  0  0  0  0
   -7.6010   -7.3110   -6.6790 C   0  0  0  0  0  0  0  0  0  0  0  0
   -7.7820   -5.9720   -7.2320 C   0  0  0  0  0  0  0  0  0  0  0  0
   -7.0040   -5.2890   -8.1060 N   0  0  0  0  0  0  0  0  0  0  0  0
   -7.5720   -4.0490   -8.3430 N   0  0  0  0  0  0  0  0  0  0  0  0
   -8.7520   -4.1000   -7.5100 C   0  0  0  0  0  0  0  0  0  0  0  0
   -9.6900   -3.1260   -7.3480 C   0  0  0  0  0  0  0  0  0  0  0  0
   -9.5470   -1.6790   -8.1260 Cl  0  0  0  0  0  0  0  0  0  0  0  0
  -10.8540   -3.4100   -6.4260 C   0  0  0  0  0  0  0  0  0  0  0  0
  -10.9090   -4.6580   -5.7820 C   0  0  0  0  0  0  0  0  0  0  0  0
   -9.9350   -5.5630   -5.9900 C   0  0  0  0  0  0  0  0  0  0  0  0
   -8.8760   -5.2620   -6.8510 N   0  0  0  0  0  0  0  0  0  0  0  0
   -6.5240   -7.0400   -2.1490 C   0  0  0  0  0  0  0  0  0  0  0  0
   -6.5970   -5.6610   -2.0890 C   0  0  0  0  0  0  0  0  0  0  0  0
   -6.9630   -5.2690   -0.8300 N   0  0  0  0  0  0  0  0  0  0  0  0
   -7.0810   -6.4340   -0.1850 C   0  0  0  0  0  0  0  0  0  0  0  0
   -6.8240   -7.5280   -0.9200 O   0  0  0  0  0  0  0  0  0  0  0  0
  1  2  1  0
  2  3  1  0
  2  4  1  0
  4  5  2  0
  4  6  1  0
  6  7  1  0
  7  8  1  0
  8  9  2  0
  9 10  1  0
 10 11  2  0
 11 12  1  0
 12 13  1  0
 12 14  2  0
 14 15  1  0
 15 16  2  0
 16 17  1  0
  2 18  1  0
 18 19  2  0
 19 20  1  0
 20 21  2  0
 21 22  1  0
 17  8  1  0
 22 18  1  0
 17 11  1  0
M  END
>  <pair>  (222) 
x1594_0A-x1052_1A

>  <sucos>  (222) 
0.4354720009890508

>  <ref_mols>  (222) 
x1594_0A,x1052_1A

>  <original SMILES>  (222) 
CC(C)(C(=O)NCc1nnc2c(Cl)cccn12)c1cnco1

>  <cmpd_ids>  (222) 
ENAMINE:Z4324641434

>  <ref_url>  (222) 
https://github.com/stephwills/fragment_network_merges

>  <submitter_name>  (222) 
Steph Wills

>  <submitter_institution>  (222) 
University of Oxford

>  <submitter_email>  (222) 
stephanie.wills@balliol.ox.ac.uk

>  <generation_date>  (222) 
2023-09-06

>  <method>  (222) 
fragNetMergingIt3

>  <ref_pdb>  (222) 
x1594_0A,x1052_1A

$$$$
x1594-0A-x2021-0A-133
     RDKit          3D

 22 23  0  0  0  0  0  0  0  0999 V2000
   -5.7600   -0.8840   -0.5940 C   0  0  0  0  0  0  0  0  0  0  0  0
   -5.9690   -2.2840   -0.4320 O   0  0  0  0  0  0  0  0  0  0  0  0
   -6.5120   -2.9270   -1.5940 C   0  0  0  0  0  0  0  0  0  0  0  0
   -6.0060   -4.3600   -1.8390 C   0  0  0  0  0  0  0  0  0  0  0  0
   -6.9940   -5.3330   -2.1760 O   0  0  0  0  0  0  0  0  0  0  0  0
   -7.2210   -5.5130   -3.5770 C   0  0  0  0  0  0  0  0  0  0  0  0
   -7.3040   -6.9770   -4.0040 C   0  0  0  0  0  0  0  0  0  0  0  0
   -6.3310   -7.3290   -5.1330 C   0  0  0  0  0  0  0  0  0  0  0  0
   -6.8690   -7.0930   -6.5290 N   0  0  0  0  0  0  0  0  0  0  0  0
   -6.1040   -6.4120   -7.6030 C   0  0  0  0  0  0  0  0  0  0  0  0
   -8.1640   -6.7540   -6.6410 C   0  0  0  0  0  0  0  0  0  0  0  0
   -9.1110   -7.4370   -6.2420 O   0  0  0  0  0  0  0  0  0  0  0  0
   -8.2630   -5.4900   -7.2850 C   0  0  0  0  0  0  0  0  0  0  0  0
   -7.4500   -4.9840   -8.2150 N   0  0  0  0  0  0  0  0  0  0  0  0
   -7.8990   -3.7380   -8.5310 N   0  0  0  0  0  0  0  0  0  0  0  0
   -8.9650   -3.5310   -7.7900 C   0  0  0  0  0  0  0  0  0  0  0  0
   -9.8580   -2.4680   -7.6400 C   0  0  0  0  0  0  0  0  0  0  0  0
   -9.6510   -1.3720   -8.3610 F   0  0  0  0  0  0  0  0  0  0  0  0
  -10.8910   -2.5420   -6.7870 C   0  0  0  0  0  0  0  0  0  0  0  0
  -11.1220   -3.7230   -5.9830 C   0  0  0  0  0  0  0  0  0  0  0  0
  -10.2750   -4.7400   -6.1090 C   0  0  0  0  0  0  0  0  0  0  0  0
   -9.2230   -4.6230   -7.0010 N   0  0  0  0  0  0  0  0  0  0  0  0
  1  2  1  0
  2  3  1  0
  3  4  1  0
  4  5  1  0
  5  6  1  0
  6  7  1  0
  7  8  1  0
  8  9  1  0
  9 10  1  0
  9 11  1  0
 11 12  2  0
 11 13  1  0
 13 14  2  0
 14 15  1  0
 15 16  2  0
 16 17  1  0
 17 18  1  0
 17 19  2  0
 19 20  1  0
 20 21  2  0
 21 22  1  0
 22 13  1  0
 22 16  1  0
M  END
>  <pair>  (223) 
x1594_0A-x2021_0A

>  <sucos>  (223) 
0.4356454431967533

>  <ref_mols>  (223) 
x1594_0A,x2021_0A

>  <original SMILES>  (223) 
COCCOCCCN(C)C(=O)c1nnc2c(F)cccn12

>  <cmpd_ids>  (223) 
ENAMINE:Z4296561203

>  <ref_url>  (223) 
https://github.com/stephwills/fragment_network_merges

>  <submitter_name>  (223) 
Steph Wills

>  <submitter_institution>  (223) 
University of Oxford

>  <submitter_email>  (223) 
stephanie.wills@balliol.ox.ac.uk

>  <generation_date>  (223) 
2023-09-06

>  <method>  (223) 
fragNetMergingIt3

>  <ref_pdb>  (223) 
x1594_0A,x2021_0A

$$$$
x1594-0A-x2021-0A-42
     RDKit          3D

 20 21  0  0  0  0  0  0  0  0999 V2000
   -6.6400   -0.4320    0.8620 C   0  0  0  0  0  0  0  0  0  0  0  0
   -6.0440   -0.9040   -0.4490 C   0  0  0  0  0  0  0  0  0  0  0  0
   -6.0020   -2.3230   -0.4210 O   0  0  0  0  0  0  0  0  0  0  0  0
   -6.3560   -2.9340   -1.6660 C   0  0  0  0  0  0  0  0  0  0  0  0
   -5.8550   -4.3780   -1.8150 C   0  0  0  0  0  0  0  0  0  0  0  0
   -6.8890   -5.3490   -1.9470 O   0  0  0  0  0  0  0  0  0  0  0  0
   -7.3090   -5.5570   -3.2910 C   0  0  0  0  0  0  0  0  0  0  0  0
   -6.7550   -6.8740   -3.8280 C   0  0  0  0  0  0  0  0  0  0  0  0
   -7.3160   -7.1700   -5.1250 N   0  0  0  0  0  0  0  0  0  0  0  0
   -8.6730   -6.9830   -5.4190 C   0  0  0  0  0  0  0  0  0  0  0  0
   -9.5280   -7.8240   -5.1460 O   0  0  0  0  0  0  0  0  0  0  0  0
   -9.0740   -5.6860   -6.1100 C   0  0  0  0  0  0  0  0  0  0  0  0
  -10.2080   -5.0380   -5.7320 C   0  0  0  0  0  0  0  0  0  0  0  0
  -10.6260   -3.8150   -6.3480 C   0  0  0  0  0  0  0  0  0  0  0  0
   -9.8510   -3.3260   -7.3110 C   0  0  0  0  0  0  0  0  0  0  0  0
   -8.7040   -4.0050   -7.6740 N   0  0  0  0  0  0  0  0  0  0  0  0
   -7.7690   -3.7300   -8.5940 C   0  0  0  0  0  0  0  0  0  0  0  0
   -6.8500   -4.6360   -8.6350 N   0  0  0  0  0  0  0  0  0  0  0  0
   -7.1740   -5.5450   -7.7030 N   0  0  0  0  0  0  0  0  0  0  0  0
   -8.2850   -5.1550   -7.1310 C   0  0  0  0  0  0  0  0  0  0  0  0
  1  2  1  0
  2  3  1  0
  3  4  1  0
  4  5  1  0
  5  6  1  0
  6  7  1  0
  7  8  1  0
  8  9  1  0
  9 10  1  0
 10 11  2  0
 10 12  1  0
 12 13  2  0
 13 14  1  0
 14 15  2  0
 15 16  1  0
 16 17  1  0
 17 18  2  0
 18 19  1  0
 19 20  2  0
 20 12  1  0
 20 16  1  0
M  END
>  <pair>  (224) 
x1594_0A-x2021_0A

>  <sucos>  (224) 
0.4378857414456029

>  <ref_mols>  (224) 
x1594_0A,x2021_0A

>  <original SMILES>  (224) 
CCOCCOCCNC(=O)c1cccn2cnnc12

>  <cmpd_ids>  (224) 
ENAMINE:Z3581653521

>  <ref_url>  (224) 
https://github.com/stephwills/fragment_network_merges

>  <submitter_name>  (224) 
Steph Wills

>  <submitter_institution>  (224) 
University of Oxford

>  <submitter_email>  (224) 
stephanie.wills@balliol.ox.ac.uk

>  <generation_date>  (224) 
2023-09-06

>  <method>  (224) 
fragNetMergingIt3

>  <ref_pdb>  (224) 
x1594_0A,x2021_0A

$$$$
x1594-0A-x1052-1A-131
     RDKit          3D

 22 25  0  0  0  0  0  0  0  0999 V2000
   -8.6400   -1.7460   -1.7410 C   0  0  0  0  0  0  0  0  0  0  0  0
   -9.8420   -1.7930   -2.5810 C   0  0  0  0  0  0  0  0  0  0  0  0
  -10.2390   -3.0630   -3.1530 C   0  0  0  0  0  0  0  0  0  0  0  0
  -11.4250   -3.0990   -3.9790 C   0  0  0  0  0  0  0  0  0  0  0  0
  -11.1990   -2.8900   -5.3430 N   0  0  0  0  0  0  0  0  0  0  0  0
  -10.2960   -3.5750   -6.0890 C   0  0  0  0  0  0  0  0  0  0  0  0
  -10.1940   -4.9850   -5.7690 C   0  0  0  0  0  0  0  0  0  0  0  0
   -9.2080   -5.8310   -6.4410 C   0  0  0  0  0  0  0  0  0  0  0  0
   -8.4140   -5.2150   -7.3710 N   0  0  0  0  0  0  0  0  0  0  0  0
   -7.4040   -5.6780   -8.1350 C   0  0  0  0  0  0  0  0  0  0  0  0
   -6.8920   -4.7730   -8.9080 N   0  0  0  0  0  0  0  0  0  0  0  0
   -7.6060   -3.6220   -8.6440 N   0  0  0  0  0  0  0  0  0  0  0  0
   -8.5150   -3.8730   -7.7190 C   0  0  0  0  0  0  0  0  0  0  0  0
   -9.4910   -3.0530   -7.0590 C   0  0  0  0  0  0  0  0  0  0  0  0
   -9.4160   -4.2110   -2.8520 C   0  0  0  0  0  0  0  0  0  0  0  0
   -8.2420   -4.1390   -2.0230 C   0  0  0  0  0  0  0  0  0  0  0  0
   -7.4210   -5.2330   -1.6960 C   0  0  0  0  0  0  0  0  0  0  0  0
   -6.2420   -4.9070   -1.0830 C   0  0  0  0  0  0  0  0  0  0  0  0
   -5.5900   -6.0760   -0.8100 N   0  0  0  0  0  0  0  0  0  0  0  0
   -6.3860   -7.0210   -1.2680 C   0  0  0  0  0  0  0  0  0  0  0  0
   -7.5440   -6.5870   -1.8400 O   0  0  0  0  0  0  0  0  0  0  0  0
   -7.8830   -2.8850   -1.4830 C   0  0  0  0  0  0  0  0  0  0  0  0
  1  2  2  0
  2  3  1  0
  3  4  1  0
  4  5  1  0
  5  6  1  0
  6  7  1  0
  7  8  2  0
  8  9  1  0
  9 10  1  0
 10 11  2  0
 11 12  1  0
 12 13  2  0
 13 14  1  0
  3 15  2  0
 15 16  1  0
 16 17  1  0
 17 18  2  0
 18 19  1  0
 19 20  2  0
 20 21  1  0
 16 22  2  0
 22  1  1  0
 14  6  2  0
 21 17  1  0
 13  9  1  0
M  END
>  <pair>  (225) 
x1594_0A-x1052_1A

>  <sucos>  (225) 
0.44064357313173136

>  <ref_mols>  (225) 
x1594_0A,x1052_1A

>  <original SMILES>  (225) 
c1cc(CNc2ccn3cnnc3c2)cc(-c2cnco2)c1

>  <cmpd_ids>  (225) 
ENAMINE:PV-003011694381

>  <ref_url>  (225) 
https://github.com/stephwills/fragment_network_merges

>  <submitter_name>  (225) 
Steph Wills

>  <submitter_institution>  (225) 
University of Oxford

>  <submitter_email>  (225) 
stephanie.wills@balliol.ox.ac.uk

>  <generation_date>  (225) 
2023-09-06

>  <method>  (225) 
fragNetMergingIt3

>  <ref_pdb>  (225) 
x1594_0A,x1052_1A

$$$$
x1594-0A-x1052-1A-11
     RDKit          3D

 22 25  0  0  0  0  0  0  0  0999 V2000
  -10.2070   -7.9380   -0.5720 C   0  0  0  0  0  0  0  0  0  0  0  0
   -9.3800   -7.7710   -1.8510 C   0  0  2  0  0  0  0  0  0  0  0  0
   -8.0280   -7.1070   -1.6020 C   0  0  0  0  0  0  0  0  0  0  0  0
   -6.7900   -7.5040   -2.1600 C   0  0  0  0  0  0  0  0  0  0  0  0
   -5.6300   -6.7900   -1.8660 C   0  0  0  0  0  0  0  0  0  0  0  0
   -5.7530   -5.7130   -1.0250 C   0  0  0  0  0  0  0  0  0  0  0  0
   -6.8990   -5.3100   -0.4740 N   0  0  0  0  0  0  0  0  0  0  0  0
   -7.9920   -6.0070   -0.7690 C   0  0  0  0  0  0  0  0  0  0  0  0
  -10.0880   -6.9230   -2.8710 C   0  0  0  0  0  0  0  0  0  0  0  0
   -9.5220   -6.3130   -3.8560 N   0  0  0  0  0  0  0  0  0  0  0  0
  -10.5410   -5.6690   -4.4980 C   0  0  0  0  0  0  0  0  0  0  0  0
  -10.0570   -4.9370   -5.6350 C   0  0  0  0  0  0  0  0  0  0  0  0
  -10.4750   -3.6210   -6.1920 C   0  0  0  0  0  0  0  0  0  0  0  0
   -9.8060   -3.0610   -7.2380 C   0  0  0  0  0  0  0  0  0  0  0  0
   -8.7020   -3.7620   -7.8000 C   0  0  0  0  0  0  0  0  0  0  0  0
   -7.8590   -3.5200   -8.7660 N   0  0  0  0  0  0  0  0  0  0  0  0
   -7.0000   -4.5840   -8.8610 N   0  0  0  0  0  0  0  0  0  0  0  0
   -7.3220   -5.4490   -7.9540 C   0  0  0  0  0  0  0  0  0  0  0  0
   -8.3820   -4.9800   -7.2590 N   0  0  0  0  0  0  0  0  0  0  0  0
   -9.0320   -5.5450   -6.2210 C   0  0  0  0  0  0  0  0  0  0  0  0
  -11.7490   -5.8610   -3.9370 N   0  0  0  0  0  0  0  0  0  0  0  0
  -11.4460   -6.7080   -2.8380 O   0  0  0  0  0  0  0  0  0  0  0  0
  2  1  1  1
  2  3  1  0
  3  4  2  0
  4  5  1  0
  5  6  2  0
  6  7  1  0
  7  8  2  0
  2  9  1  0
  9 10  2  0
 10 11  1  0
 11 12  1  0
 12 13  1  0
 13 14  2  0
 14 15  1  0
 15 16  2  0
 16 17  1  0
 17 18  2  0
 18 19  1  0
 19 20  1  0
 11 21  2  0
 21 22  1  0
  8  3  1  0
 22  9  1  0
 20 12  2  0
 19 15  1  0
M  END
>  <pair>  (226) 
x1594_0A-x1052_1A

>  <sucos>  (226) 
0.4407139544087116

>  <ref_mols>  (226) 
x1594_0A,x1052_1A

>  <original SMILES>  (226) 
CC(c1cccnc1)c1nc(-c2ccc3nncn3c2)no1

>  <cmpd_ids>  (226) 
ENAMINE:PV-003217771537

>  <ref_url>  (226) 
https://github.com/stephwills/fragment_network_merges

>  <submitter_name>  (226) 
Steph Wills

>  <submitter_institution>  (226) 
University of Oxford

>  <submitter_email>  (226) 
stephanie.wills@balliol.ox.ac.uk

>  <generation_date>  (226) 
2023-09-06

>  <method>  (226) 
fragNetMergingIt3

>  <ref_pdb>  (226) 
x1594_0A,x1052_1A

$$$$
x0147-0A-x1052-1A-93
     RDKit          3D

 23 26  0  0  0  0  0  0  0  0999 V2000
  -10.7100   -8.6830   -5.4770 O   0  0  0  0  0  0  0  0  0  0  0  0
   -9.9720   -7.7310   -5.2440 C   0  0  0  0  0  0  0  0  0  0  0  0
  -10.3510   -6.3890   -5.3140 N   0  0  0  0  0  0  0  0  0  0  0  0
   -9.9230   -5.3670   -6.1470 C   0  0  0  0  0  0  0  0  0  0  0  0
  -10.6250   -4.2400   -6.2290 N   0  0  0  0  0  0  0  0  0  0  0  0
  -10.0130   -3.3780   -7.1030 N   0  0  0  0  0  0  0  0  0  0  0  0
   -8.9550   -4.0040   -7.5280 C   0  0  0  0  0  0  0  0  0  0  0  0
   -7.9960   -3.5440   -8.4330 C   0  0  0  0  0  0  0  0  0  0  0  0
   -6.9670   -4.2410   -8.7940 N   0  0  0  0  0  0  0  0  0  0  0  0
   -6.8460   -5.5010   -8.2490 C   0  0  0  0  0  0  0  0  0  0  0  0
   -7.7310   -5.9940   -7.3780 C   0  0  0  0  0  0  0  0  0  0  0  0
   -8.8260   -5.2500   -6.9840 N   0  0  0  0  0  0  0  0  0  0  0  0
   -8.5400   -7.9770   -4.7910 C   0  0  2  0  0  0  0  0  0  0  0  0
   -7.7350   -8.9870   -5.5880 C   0  0  0  0  0  0  0  0  0  0  0  0
   -6.7290   -8.3160   -4.6300 C   0  0  0  0  0  0  0  0  0  0  0  0
   -7.2410   -8.3920   -3.2560 N   0  0  0  0  0  0  0  0  0  0  0  0
   -6.9820   -7.3810   -2.3740 C   0  0  0  0  0  0  0  0  0  0  0  0
   -6.2910   -6.2270   -2.7470 C   0  0  0  0  0  0  0  0  0  0  0  0
   -6.0940   -5.2270   -1.8060 C   0  0  0  0  0  0  0  0  0  0  0  0
   -6.5290   -5.3120   -0.5460 N   0  0  0  0  0  0  0  0  0  0  0  0
   -7.1840   -6.4420   -0.2140 C   0  0  0  0  0  0  0  0  0  0  0  0
   -7.4220   -7.4520   -1.0570 C   0  0  0  0  0  0  0  0  0  0  0  0
   -8.5070   -8.6800   -3.4550 C   0  0  0  0  0  0  0  0  0  0  0  0
  1  2  2  0
  2  3  1  0
  3  4  1  0
  4  5  2  0
  5  6  1  0
  6  7  2  0
  7  8  1  0
  8  9  2  0
  9 10  1  0
 10 11  2  0
 11 12  1  0
 13  2  1  6
 13 14  1  0
 14 15  1  0
 15 16  1  0
 16 17  1  0
 17 18  2  0
 18 19  1  0
 19 20  2  0
 20 21  1  0
 21 22  2  0
 16 23  1  0
 12  4  1  0
 23 13  1  0
 12  7  1  0
 22 17  1  0
M  END
>  <pair>  (227) 
x0147_0A-x1052_1A

>  <sucos>  (227) 
0.4430633490931525

>  <ref_mols>  (227) 
x0147_0A,x1052_1A

>  <original SMILES>  (227) 
O=C(Nc1nnc2cnccn12)C1CCN(c2ccncc2)C1

>  <cmpd_ids>  (227) 
ENAMINE:Z2981967273

>  <ref_url>  (227) 
https://github.com/stephwills/fragment_network_merges

>  <submitter_name>  (227) 
Steph Wills

>  <submitter_institution>  (227) 
University of Oxford

>  <submitter_email>  (227) 
stephanie.wills@balliol.ox.ac.uk

>  <generation_date>  (227) 
2023-09-06

>  <method>  (227) 
fragNetMergingIt3

>  <ref_pdb>  (227) 
x0147_0A,x1052_1A

$$$$
x1140-0A-x1498-0A-199
     RDKit          3D

 20 23  0  0  0  0  0  0  0  0999 V2000
   -8.9700   -4.9550   -2.3990 C   0  0  0  0  0  0  0  0  0  0  0  0
   -7.9550   -5.7420   -1.5670 C   0  0  0  0  0  0  0  0  0  0  0  0
   -6.8500   -6.4480   -2.4060 C   0  0  0  0  0  0  0  0  0  0  0  0
   -5.9260   -7.1590   -1.5430 C   0  0  0  0  0  0  0  0  0  0  0  0
   -6.4390   -8.1540   -0.6700 C   0  0  0  0  0  0  0  0  0  0  0  0
   -5.5980   -8.7980    0.2270 C   0  0  0  0  0  0  0  0  0  0  0  0
   -4.2490   -8.4690    0.2720 C   0  0  0  0  0  0  0  0  0  0  0  0
   -3.7550   -7.5520   -0.5670 C   0  0  0  0  0  0  0  0  0  0  0  0
   -4.5330   -6.8770   -1.4890 C   0  0  0  0  0  0  0  0  0  0  0  0
   -2.4240   -7.4470   -0.2990 O   0  0  0  0  0  0  0  0  0  0  0  0
   -2.3800   -8.1120    1.0060 C   0  0  0  0  0  0  0  0  0  0  0  0
   -3.4620   -9.0780    1.1750 O   0  0  0  0  0  0  0  0  0  0  0  0
   -6.8780   -6.3030   -3.8470 C   0  0  0  0  0  0  0  0  0  0  0  0
   -7.8880   -5.5310   -4.5530 C   0  0  0  0  0  0  0  0  0  0  0  0
   -7.8750   -5.4170   -5.9910 N   0  0  0  0  0  0  0  0  0  0  0  0
   -7.5910   -6.4360   -6.8560 C   0  0  0  0  0  0  0  0  0  0  0  0
   -7.6680   -5.8660   -8.1000 C   0  0  0  0  0  0  0  0  0  0  0  0
   -8.0050   -4.5410   -7.9850 C   0  0  0  0  0  0  0  0  0  0  0  0
   -8.1450   -4.2400   -6.6870 N   0  0  0  0  0  0  0  0  0  0  0  0
   -8.9020   -4.8750   -3.8660 C   0  0  0  0  0  0  0  0  0  0  0  0
  1  2  2  0
  2  3  1  0
  3  4  1  0
  4  5  2  0
  5  6  1  0
  6  7  2  0
  7  8  1  0
  8  9  2  0
  8 10  1  0
 10 11  1  0
 11 12  1  0
  3 13  2  0
 13 14  1  0
 14 15  1  0
 15 16  1  0
 16 17  2  0
 17 18  1  0
 18 19  2  0
 14 20  2  0
 20  1  1  0
  9  4  1  0
 19 15  1  0
 12  7  1  0
M  END
>  <pair>  (228) 
x1140_0A-x1498_0A

>  <sucos>  (228) 
0.4436458248977117

>  <ref_mols>  (228) 
x1140_0A,x1498_0A

>  <original SMILES>  (228) 
c1cc(-c2ccc3c(c2)OCO3)cc(-n2cccn2)c1

>  <cmpd_ids>  (228) 
ENAMINE:PV-002735742769

>  <ref_url>  (228) 
https://github.com/stephwills/fragment_network_merges

>  <submitter_name>  (228) 
Steph Wills

>  <submitter_institution>  (228) 
University of Oxford

>  <submitter_email>  (228) 
stephanie.wills@balliol.ox.ac.uk

>  <generation_date>  (228) 
2023-09-06

>  <method>  (228) 
fragNetMergingIt3

>  <ref_pdb>  (228) 
x1140_0A,x1498_0A

$$$$
x1594-0A-x1052-1A-32
     RDKit          3D

 21 24  0  0  0  0  0  0  0  0999 V2000
  -12.1850   -5.6430   -2.5210 C   0  0  0  0  0  0  0  0  0  0  0  0
  -11.2690   -6.3220   -1.6990 C   0  0  0  0  0  0  0  0  0  0  0  0
   -9.9260   -6.4630   -2.0800 C   0  0  0  0  0  0  0  0  0  0  0  0
   -8.9150   -7.2010   -1.1960 C   0  0  0  0  0  0  0  0  0  0  0  0
   -7.5670   -6.6230   -1.2650 N   0  0  0  0  0  0  0  0  0  0  0  0
   -6.3850   -7.2450   -1.6010 C   0  0  0  0  0  0  0  0  0  0  0  0
   -5.4190   -6.2760   -1.5380 C   0  0  0  0  0  0  0  0  0  0  0  0
   -6.1150   -5.1170   -1.1530 C   0  0  0  0  0  0  0  0  0  0  0  0
   -7.4110   -5.3200   -0.9820 N   0  0  0  0  0  0  0  0  0  0  0  0
   -9.5380   -5.8990   -3.3150 C   0  0  0  0  0  0  0  0  0  0  0  0
  -10.4510   -5.2130   -4.1540 C   0  0  0  0  0  0  0  0  0  0  0  0
   -9.9250   -4.6630   -5.4300 C   0  0  0  0  0  0  0  0  0  0  0  0
  -10.2960   -3.4030   -6.1230 C   0  0  0  0  0  0  0  0  0  0  0  0
   -9.6530   -3.0070   -7.2520 C   0  0  0  0  0  0  0  0  0  0  0  0
   -8.6110   -3.8240   -7.7720 C   0  0  0  0  0  0  0  0  0  0  0  0
   -7.8030   -3.7240   -8.7950 N   0  0  0  0  0  0  0  0  0  0  0  0
   -6.9960   -4.8360   -8.8120 N   0  0  0  0  0  0  0  0  0  0  0  0
   -7.3180   -5.5820   -7.8000 C   0  0  0  0  0  0  0  0  0  0  0  0
   -8.3260   -4.9950   -7.1070 N   0  0  0  0  0  0  0  0  0  0  0  0
   -8.9620   -5.4090   -5.9730 C   0  0  0  0  0  0  0  0  0  0  0  0
  -11.7790   -5.0900   -3.7450 C   0  0  0  0  0  0  0  0  0  0  0  0
  1  2  2  0
  2  3  1  0
  3  4  1  0
  4  5  1  0
  5  6  1  0
  6  7  2  0
  7  8  1  0
  8  9  2  0
  3 10  2  0
 10 11  1  0
 11 12  1  0
 12 13  1  0
 13 14  2  0
 14 15  1  0
 15 16  2  0
 16 17  1  0
 17 18  2  0
 18 19  1  0
 19 20  1  0
 11 21  2  0
 21  1  1  0
  9  5  1  0
 20 12  2  0
 19 15  1  0
M  END
>  <pair>  (229) 
x1594_0A-x1052_1A

>  <sucos>  (229) 
0.4447295530888858

>  <ref_mols>  (229) 
x1594_0A,x1052_1A

>  <original SMILES>  (229) 
c1cc(Cn2cccn2)cc(-c2ccc3nncn3c2)c1

>  <cmpd_ids>  (229) 
ENAMINE:Z3484591695

>  <ref_url>  (229) 
https://github.com/stephwills/fragment_network_merges

>  <submitter_name>  (229) 
Steph Wills

>  <submitter_institution>  (229) 
University of Oxford

>  <submitter_email>  (229) 
stephanie.wills@balliol.ox.ac.uk

>  <generation_date>  (229) 
2023-09-06

>  <method>  (229) 
fragNetMergingIt3

>  <ref_pdb>  (229) 
x1594_0A,x1052_1A

$$$$
x1594-0A-x1052-1A-19
     RDKit          3D

 22 25  0  0  0  0  0  0  0  0999 V2000
   -6.8440   -2.1050   -1.5310 C   0  0  0  0  0  0  0  0  0  0  0  0
   -7.8690   -3.2200   -1.2910 C   0  0  2  0  0  0  0  0  0  0  0  0
   -7.1860   -4.6160   -1.2550 C   0  0  0  0  0  0  0  0  0  0  0  0
   -6.1030   -5.0240   -2.0570 C   0  0  0  0  0  0  0  0  0  0  0  0
   -5.5600   -6.2970   -1.9270 C   0  0  0  0  0  0  0  0  0  0  0  0
   -6.1190   -7.1370   -0.9890 C   0  0  0  0  0  0  0  0  0  0  0  0
   -7.1500   -6.7870   -0.2130 N   0  0  0  0  0  0  0  0  0  0  0  0
   -7.6430   -5.5540   -0.3710 C   0  0  0  0  0  0  0  0  0  0  0  0
   -8.9800   -3.1930   -2.3240 C   0  0  0  0  0  0  0  0  0  0  0  0
  -10.2440   -2.6840   -2.2460 N   0  0  0  0  0  0  0  0  0  0  0  0
  -10.8130   -2.9280   -3.5420 O   0  0  0  0  0  0  0  0  0  0  0  0
   -9.8040   -3.5620   -4.2430 C   0  0  0  0  0  0  0  0  0  0  0  0
   -9.4990   -4.1150   -5.5000 C   0  0  0  0  0  0  0  0  0  0  0  0
   -9.4390   -5.5570   -5.5310 C   0  0  0  0  0  0  0  0  0  0  0  0
   -8.8230   -6.1650   -6.5040 C   0  0  0  0  0  0  0  0  0  0  0  0
   -8.2660   -5.3880   -7.4740 N   0  0  0  0  0  0  0  0  0  0  0  0
   -7.4690   -5.7380   -8.4930 C   0  0  0  0  0  0  0  0  0  0  0  0
   -7.1740   -4.6860   -9.1960 N   0  0  0  0  0  0  0  0  0  0  0  0
   -7.7790   -3.5970   -8.6290 N   0  0  0  0  0  0  0  0  0  0  0  0
   -8.4200   -4.0190   -7.5780 C   0  0  0  0  0  0  0  0  0  0  0  0
   -9.1200   -3.3500   -6.5490 C   0  0  0  0  0  0  0  0  0  0  0  0
   -8.7350   -3.7190   -3.4990 N   0  0  0  0  0  0  0  0  0  0  0  0
  2  1  1  6
  2  3  1  0
  3  4  2  0
  4  5  1  0
  5  6  2  0
  6  7  1  0
  7  8  2  0
  2  9  1  0
  9 10  2  0
 10 11  1  0
 11 12  1  0
 12 13  1  0
 13 14  1  0
 14 15  2  0
 15 16  1  0
 16 17  1  0
 17 18  2  0
 18 19  1  0
 19 20  2  0
 20 21  1  0
 12 22  2  0
  8  3  1  0
 22  9  1  0
 21 13  2  0
 20 16  1  0
M  END
>  <pair>  (230) 
x1594_0A-x1052_1A

>  <sucos>  (230) 
0.4453067435564757

>  <ref_mols>  (230) 
x1594_0A,x1052_1A

>  <original SMILES>  (230) 
CC(c1cccnc1)c1noc(-c2ccn3cnnc3c2)n1

>  <cmpd_ids>  (230) 
ENAMINE:PV-002767817024

>  <ref_url>  (230) 
https://github.com/stephwills/fragment_network_merges

>  <submitter_name>  (230) 
Steph Wills

>  <submitter_institution>  (230) 
University of Oxford

>  <submitter_email>  (230) 
stephanie.wills@balliol.ox.ac.uk

>  <generation_date>  (230) 
2023-09-06

>  <method>  (230) 
fragNetMergingIt3

>  <ref_pdb>  (230) 
x1594_0A,x1052_1A

$$$$
x1594-0A-x2021-0A-130
     RDKit          3D

 24 25  0  0  0  0  0  0  0  0999 V2000
   -5.8550   -0.8840   -0.3700 C   0  0  0  0  0  0  0  0  0  0  0  0
   -6.0870   -2.2990   -0.3520 O   0  0  0  0  0  0  0  0  0  0  0  0
   -6.2040   -2.8090   -1.6100 C   0  0  0  0  0  0  0  0  0  0  0  0
   -6.0380   -2.1520   -2.6220 O   0  0  0  0  0  0  0  0  0  0  0  0
   -6.5260   -4.2930   -1.6270 C   0  0  0  0  0  0  0  0  0  0  0  0
   -7.6030   -4.6190   -2.6750 C   0  0  2  0  0  0  0  0  0  0  0  0
   -8.9930   -4.8570   -2.0850 C   0  0  0  0  0  0  0  0  0  0  0  0
  -10.0560   -4.1510   -2.8670 N   0  0  0  0  0  0  0  0  0  0  0  0
  -10.6920   -4.6500   -4.0290 C   0  0  0  0  0  0  0  0  0  0  0  0
  -11.6970   -5.3570   -3.9940 O   0  0  0  0  0  0  0  0  0  0  0  0
  -10.0650   -4.2550   -5.3560 C   0  0  0  0  0  0  0  0  0  0  0  0
  -10.2910   -2.9880   -6.0870 C   0  0  0  0  0  0  0  0  0  0  0  0
   -9.6190   -2.7080   -7.2330 C   0  0  0  0  0  0  0  0  0  0  0  0
   -8.6800   -3.6430   -7.7400 C   0  0  0  0  0  0  0  0  0  0  0  0
   -7.8690   -3.6480   -8.7670 N   0  0  0  0  0  0  0  0  0  0  0  0
   -7.1910   -4.8410   -8.7730 N   0  0  0  0  0  0  0  0  0  0  0  0
   -7.6050   -5.5320   -7.7430 C   0  0  0  0  0  0  0  0  0  0  0  0
   -7.1810   -6.8630   -7.3350 C   0  0  0  0  0  0  0  0  0  0  0  0
   -8.5340   -4.8220   -7.0500 N   0  0  0  0  0  0  0  0  0  0  0  0
   -9.2140   -5.1380   -5.8910 C   0  0  0  0  0  0  0  0  0  0  0  0
   -7.3280   -5.8070   -3.5650 C   0  0  0  0  0  0  0  0  0  0  0  0
   -6.3700   -6.6450   -3.1230 F   0  0  0  0  0  0  0  0  0  0  0  0
   -6.9860   -5.3750   -4.7820 F   0  0  0  0  0  0  0  0  0  0  0  0
   -8.4530   -6.5340   -3.6850 F   0  0  0  0  0  0  0  0  0  0  0  0
  1  2  1  0
  2  3  1  0
  3  4  2  0
  3  5  1  0
  6  5  1  1
  6  7  1  0
  7  8  1  0
  8  9  1  0
  9 10  2  0
  9 11  1  0
 11 12  1  0
 12 13  2  0
 13 14  1  0
 14 15  2  0
 15 16  1  0
 16 17  2  0
 17 18  1  0
 17 19  1  0
 19 20  1  0
  6 21  1  0
 21 22  1  0
 21 23  1  0
 21 24  1  0
 20 11  2  0
 19 14  1  0
M  END
>  <pair>  (231) 
x1594_0A-x2021_0A

>  <sucos>  (231) 
0.4465195384100527

>  <ref_mols>  (231) 
x1594_0A,x2021_0A

>  <original SMILES>  (231) 
COC(=O)CC(CNC(=O)c1ccc2nnc(C)n2c1)C(F)(F)F

>  <cmpd_ids>  (231) 
ENAMINE:Z3209339799

>  <ref_url>  (231) 
https://github.com/stephwills/fragment_network_merges

>  <submitter_name>  (231) 
Steph Wills

>  <submitter_institution>  (231) 
University of Oxford

>  <submitter_email>  (231) 
stephanie.wills@balliol.ox.ac.uk

>  <generation_date>  (231) 
2023-09-06

>  <method>  (231) 
fragNetMergingIt3

>  <ref_pdb>  (231) 
x1594_0A,x2021_0A

$$$$
x1052-1A-x1140-0A-70
     RDKit          3D

 22 25  0  0  0  0  0  0  0  0999 V2000
   -5.8870   -6.9090   -3.5320 C   0  0  0  0  0  0  0  0  0  0  0  0
   -5.7940   -8.1290   -3.0070 C   0  0  0  0  0  0  0  0  0  0  0  0
   -5.1750   -8.3400   -1.7030 C   0  0  0  0  0  0  0  0  0  0  0  0
   -5.8620   -9.1980   -0.8040 C   0  0  0  0  0  0  0  0  0  0  0  0
   -5.2370   -9.3190    0.3820 C   0  0  0  0  0  0  0  0  0  0  0  0
   -4.0220   -8.7040    0.7940 C   0  0  0  0  0  0  0  0  0  0  0  0
   -3.3800   -7.8800   -0.1070 C   0  0  0  0  0  0  0  0  0  0  0  0
   -3.9550   -7.6930   -1.3660 C   0  0  0  0  0  0  0  0  0  0  0  0
   -2.2110   -7.2450    0.1880 O   0  0  0  0  0  0  0  0  0  0  0  0
   -1.6400   -7.7530    1.4010 C   0  0  0  0  0  0  0  0  0  0  0  0
   -2.6840   -7.9670    2.4730 C   0  0  0  0  0  0  0  0  0  0  0  0
   -3.5880   -8.9800    2.0520 O   0  0  0  0  0  0  0  0  0  0  0  0
   -6.4050   -9.3150   -3.7400 C   0  0  0  0  0  0  0  0  0  0  0  0
   -7.4910   -8.9210   -4.7660 C   0  0  0  0  0  0  0  0  0  0  0  0
   -7.8480   -7.5210   -4.5710 N   0  0  0  0  0  0  0  0  0  0  0  0
   -8.3010   -7.3180   -3.1810 C   0  0  0  0  0  0  0  0  0  0  0  0
   -7.4330   -6.4940   -2.2650 C   0  0  0  0  0  0  0  0  0  0  0  0
   -6.2840   -5.7110   -2.3990 C   0  0  0  0  0  0  0  0  0  0  0  0
   -6.0640   -5.2320   -1.1130 C   0  0  0  0  0  0  0  0  0  0  0  0
   -6.9840   -5.6720   -0.2550 N   0  0  0  0  0  0  0  0  0  0  0  0
   -7.8350   -6.4670   -0.9690 O   0  0  0  0  0  0  0  0  0  0  0  0
   -6.6550   -6.7240   -4.7840 C   0  0  0  0  0  0  0  0  0  0  0  0
  1  2  2  0
  2  3  1  0
  3  4  2  0
  4  5  1  0
  5  6  2  0
  6  7  1  0
  7  8  2  0
  7  9  1  0
  9 10  1  0
 10 11  1  0
 11 12  1  0
  2 13  1  0
 13 14  1  0
 14 15  1  0
 15 16  1  0
 16 17  1  0
 17 18  2  0
 18 19  1  0
 19 20  2  0
 20 21  1  0
 15 22  1  0
 22  1  1  0
  8  3  1  0
 21 17  1  0
 12  6  1  0
M  END
>  <pair>  (232) 
x1052_1A-x1140_0A

>  <sucos>  (232) 
0.44661496280509855

>  <ref_mols>  (232) 
x1052_1A,x1140_0A

>  <original SMILES>  (232) 
C1=C(c2ccc3c(c2)OCCO3)CCN(Cc2ccno2)C1

>  <cmpd_ids>  (232) 
ENAMINE:Z1578257804

>  <ref_url>  (232) 
https://github.com/stephwills/fragment_network_merges

>  <submitter_name>  (232) 
Steph Wills

>  <submitter_institution>  (232) 
University of Oxford

>  <submitter_email>  (232) 
stephanie.wills@balliol.ox.ac.uk

>  <generation_date>  (232) 
2023-09-06

>  <method>  (232) 
fragNetMergingIt3

>  <ref_pdb>  (232) 
x1052_1A,x1140_0A

$$$$
x1594-0A-x2021-0A-61
     RDKit          3D

 22 23  0  0  0  0  0  0  0  0999 V2000
   -5.6430   -0.9330   -0.6960 C   0  0  0  0  0  0  0  0  0  0  0  0
   -5.7620   -2.3420   -0.4580 O   0  0  0  0  0  0  0  0  0  0  0  0
   -5.9150   -3.0940   -1.5770 C   0  0  0  0  0  0  0  0  0  0  0  0
   -5.0580   -3.3200   -2.4180 O   0  0  0  0  0  0  0  0  0  0  0  0
   -7.3160   -3.6220   -1.6540 C   0  0  0  0  0  0  0  0  0  0  0  0
   -7.6080   -5.1380   -1.8420 C   0  0  1  0  0  0  0  0  0  0  0  0
   -9.1350   -5.3590   -1.8950 C   0  0  0  0  0  0  0  0  0  0  0  0
   -9.8040   -4.4810   -2.8950 N   0  0  0  0  0  0  0  0  0  0  0  0
  -10.5120   -4.9130   -4.0420 C   0  0  0  0  0  0  0  0  0  0  0  0
  -11.5560   -5.5580   -4.0030 O   0  0  0  0  0  0  0  0  0  0  0  0
   -9.8890   -4.5160   -5.3670 C   0  0  0  0  0  0  0  0  0  0  0  0
  -10.2200   -3.2730   -6.0980 C   0  0  0  0  0  0  0  0  0  0  0  0
   -9.5810   -2.9370   -7.2480 C   0  0  0  0  0  0  0  0  0  0  0  0
   -8.5670   -3.7960   -7.7590 C   0  0  0  0  0  0  0  0  0  0  0  0
   -7.7620   -3.7400   -8.7920 N   0  0  0  0  0  0  0  0  0  0  0  0
   -6.9750   -4.8700   -8.7960 N   0  0  0  0  0  0  0  0  0  0  0  0
   -7.3180   -5.5880   -7.7580 C   0  0  0  0  0  0  0  0  0  0  0  0
   -8.3120   -4.9580   -7.0650 N   0  0  0  0  0  0  0  0  0  0  0  0
   -8.9610   -5.3290   -5.9040 C   0  0  0  0  0  0  0  0  0  0  0  0
   -7.0590   -5.7500   -3.1390 C   0  0  0  0  0  0  0  0  0  0  0  0
   -7.9560   -6.8690   -3.6680 C   0  0  0  0  0  0  0  0  0  0  0  0
   -7.0410   -4.6560   -4.1690 C   0  0  0  0  0  0  0  0  0  0  0  0
  1  2  1  0
  2  3  1  0
  3  4  2  0
  3  5  1  0
  6  5  1  6
  6  7  1  0
  7  8  1  0
  8  9  1  0
  9 10  2  0
  9 11  1  0
 11 12  1  0
 12 13  2  0
 13 14  1  0
 14 15  2  0
 15 16  1  0
 16 17  2  0
 17 18  1  0
 18 19  1  0
  6 20  1  0
 20 21  1  0
 20 22  1  0
 19 11  2  0
 18 14  1  0
M  END
>  <pair>  (233) 
x1594_0A-x2021_0A

>  <sucos>  (233) 
0.44740501869678323

>  <ref_mols>  (233) 
x1594_0A,x2021_0A

>  <original SMILES>  (233) 
COC(=O)CC(CNC(=O)c1ccc2nncn2c1)C(C)C

>  <cmpd_ids>  (233) 
ENAMINE:Z4026711281

>  <ref_url>  (233) 
https://github.com/stephwills/fragment_network_merges

>  <submitter_name>  (233) 
Steph Wills

>  <submitter_institution>  (233) 
University of Oxford

>  <submitter_email>  (233) 
stephanie.wills@balliol.ox.ac.uk

>  <generation_date>  (233) 
2023-09-06

>  <method>  (233) 
fragNetMergingIt3

>  <ref_pdb>  (233) 
x1594_0A,x2021_0A

$$$$
x1594-0A-x1052-1A-68
     RDKit          3D

 23 25  0  0  0  0  0  0  0  0999 V2000
   -3.0080   -9.6340   -4.3160 C   0  0  0  0  0  0  0  0  0  0  0  0
   -4.4000   -9.9350   -4.4210 O   0  0  0  0  0  0  0  0  0  0  0  0
   -5.2250   -9.0030   -3.7090 C   0  0  0  0  0  0  0  0  0  0  0  0
   -6.6250   -8.8070   -4.2970 C   0  0  0  0  0  0  0  0  0  0  0  0
   -6.9440   -7.4160   -4.7020 N   0  0  0  0  0  0  0  0  0  0  0  0
   -6.2100   -6.3540   -3.9680 C   0  0  0  0  0  0  0  0  0  0  0  0
   -6.3610   -6.4000   -2.5850 C   0  0  0  0  0  0  0  0  0  0  0  0
   -6.9860   -5.4100   -1.8590 C   0  0  0  0  0  0  0  0  0  0  0  0
   -7.0600   -5.6560   -0.5050 N   0  0  0  0  0  0  0  0  0  0  0  0
   -6.4850   -6.8200   -0.2480 C   0  0  0  0  0  0  0  0  0  0  0  0
   -5.8240   -7.6650   -1.5650 S   0  0  0  0  0  0  0  0  0  0  0  0
   -7.7510   -7.2700   -5.8650 C   0  0  0  0  0  0  0  0  0  0  0  0
   -7.8300   -8.1760   -6.6920 O   0  0  0  0  0  0  0  0  0  0  0  0
   -8.5600   -6.0240   -6.1290 C   0  0  0  0  0  0  0  0  0  0  0  0
   -9.7300   -5.8280   -5.3080 C   0  0  0  0  0  0  0  0  0  0  0  0
  -10.5550   -4.6580   -5.4490 C   0  0  0  0  0  0  0  0  0  0  0  0
  -10.1960   -3.7790   -6.3380 C   0  0  0  0  0  0  0  0  0  0  0  0
   -9.0730   -4.0120   -7.1110 N   0  0  0  0  0  0  0  0  0  0  0  0
   -8.5990   -3.2080   -8.0290 C   0  0  0  0  0  0  0  0  0  0  0  0
   -9.3530   -1.9460   -8.1680 C   0  0  0  0  0  0  0  0  0  0  0  0
   -7.5230   -3.6930   -8.6400 N   0  0  0  0  0  0  0  0  0  0  0  0
   -7.2560   -4.8920   -8.0630 N   0  0  0  0  0  0  0  0  0  0  0  0
   -8.2340   -5.0650   -7.0960 C   0  0  0  0  0  0  0  0  0  0  0  0
  1  2  1  0
  2  3  1  0
  3  4  1  0
  4  5  1  0
  5  6  1  0
  6  7  1  0
  7  8  2  0
  8  9  1  0
  9 10  2  0
 10 11  1  0
  5 12  1  0
 12 13  2  0
 12 14  1  0
 14 15  2  0
 15 16  1  0
 16 17  2  0
 17 18  1  0
 18 19  1  0
 19 20  1  0
 19 21  2  0
 21 22  1  0
 22 23  2  0
 11  7  1  0
 23 14  1  0
 23 18  1  0
M  END
>  <pair>  (234) 
x1594_0A-x1052_1A

>  <sucos>  (234) 
0.4510209367524521

>  <ref_mols>  (234) 
x1594_0A,x1052_1A

>  <original SMILES>  (234) 
COCCN(Cc1cncs1)C(=O)c1cccn2c(C)nnc12

>  <cmpd_ids>  (234) 
ENAMINE:Z4383322063

>  <ref_url>  (234) 
https://github.com/stephwills/fragment_network_merges

>  <submitter_name>  (234) 
Steph Wills

>  <submitter_institution>  (234) 
University of Oxford

>  <submitter_email>  (234) 
stephanie.wills@balliol.ox.ac.uk

>  <generation_date>  (234) 
2023-09-06

>  <method>  (234) 
fragNetMergingIt3

>  <ref_pdb>  (234) 
x1594_0A,x1052_1A

$$$$
x1594-0A-x1052-1A-23
     RDKit          3D

 23 26  0  0  0  0  0  0  0  0999 V2000
   -9.9680   -6.2370   -0.5590 C   0  0  0  0  0  0  0  0  0  0  0  0
   -9.1510   -7.3040   -1.3070 C   0  0  2  0  0  0  0  0  0  0  0  0
   -7.6560   -6.9920   -1.3940 C   0  0  0  0  0  0  0  0  0  0  0  0
   -6.7240   -8.0010   -1.6080 C   0  0  0  0  0  0  0  0  0  0  0  0
   -5.3920   -7.6640   -1.7170 C   0  0  0  0  0  0  0  0  0  0  0  0
   -5.0240   -6.3440   -1.6140 C   0  0  0  0  0  0  0  0  0  0  0  0
   -6.0000   -5.3910   -1.3880 C   0  0  0  0  0  0  0  0  0  0  0  0
   -7.3010   -5.6840   -1.2720 N   0  0  0  0  0  0  0  0  0  0  0  0
   -9.7770   -7.6600   -2.6270 N   0  0  0  0  0  0  0  0  0  0  0  0
   -8.8550   -8.0730   -3.7160 C   0  0  0  0  0  0  0  0  0  0  0  0
   -8.5390   -6.9520   -4.7490 C   0  0  0  0  0  0  0  0  0  0  0  0
   -9.7630   -6.4560   -5.4460 N   0  0  0  0  0  0  0  0  0  0  0  0
   -9.7010   -5.2440   -6.1770 C   0  0  0  0  0  0  0  0  0  0  0  0
  -10.6140   -4.2550   -6.0320 C   0  0  0  0  0  0  0  0  0  0  0  0
  -10.5180   -3.0230   -6.7960 C   0  0  0  0  0  0  0  0  0  0  0  0
   -9.5250   -2.8180   -7.6720 C   0  0  0  0  0  0  0  0  0  0  0  0
   -8.5450   -3.8290   -7.8610 C   0  0  0  0  0  0  0  0  0  0  0  0
   -7.4890   -3.8960   -8.6400 N   0  0  0  0  0  0  0  0  0  0  0  0
   -6.8860   -5.1110   -8.4240 N   0  0  0  0  0  0  0  0  0  0  0  0
   -7.5870   -5.7530   -7.5210 C   0  0  0  0  0  0  0  0  0  0  0  0
   -8.6600   -4.9990   -7.1160 N   0  0  0  0  0  0  0  0  0  0  0  0
  -10.9980   -6.7890   -4.6740 C   0  0  0  0  0  0  0  0  0  0  0  0
  -10.7650   -6.6880   -3.1450 C   0  0  0  0  0  0  0  0  0  0  0  0
  2  1  1  6
  2  3  1  0
  3  4  2  0
  4  5  1  0
  5  6  2  0
  6  7  1  0
  7  8  2  0
  2  9  1  0
  9 10  1  0
 10 11  1  0
 11 12  1  0
 12 13  1  0
 13 14  2  0
 14 15  1  0
 15 16  2  0
 16 17  1  0
 17 18  2  0
 18 19  1  0
 19 20  2  0
 20 21  1  0
 12 22  1  0
 22 23  1  0
  8  3  1  0
 23  9  1  0
 21 13  1  0
 21 17  1  0
M  END
>  <pair>  (235) 
x1594_0A-x1052_1A

>  <sucos>  (235) 
0.451538200473742

>  <ref_mols>  (235) 
x1594_0A,x1052_1A

>  <original SMILES>  (235) 
CC(c1ccccn1)N1CCN(c2cccc3nncn23)CC1

>  <cmpd_ids>  (235) 
ENAMINE:Z2971178875

>  <ref_url>  (235) 
https://github.com/stephwills/fragment_network_merges

>  <submitter_name>  (235) 
Steph Wills

>  <submitter_institution>  (235) 
University of Oxford

>  <submitter_email>  (235) 
stephanie.wills@balliol.ox.ac.uk

>  <generation_date>  (235) 
2023-09-06

>  <method>  (235) 
fragNetMergingIt3

>  <ref_pdb>  (235) 
x1594_0A,x1052_1A

$$$$
x1020-0A-x0130-0A-12
     RDKit          3D

 23 25  0  0  0  0  0  0  0  0999 V2000
   -0.5870  -10.4680    2.4750 C   0  0  0  0  0  0  0  0  0  0  0  0
   -1.1050   -9.1220    2.2960 N   0  0  0  0  0  0  0  0  0  0  0  0
   -2.5820   -8.9310    2.3580 C   0  0  1  0  0  0  0  0  0  0  0  0
   -3.0980   -7.8910    1.3680 C   0  0  0  0  0  0  0  0  0  0  0  0
   -3.4140  -10.2090    2.3300 C   0  0  0  0  0  0  0  0  0  0  0  0
   -4.8020  -10.3300    2.2600 C   0  0  0  0  0  0  0  0  0  0  0  0
   -5.0430  -11.6830    2.2730 N   0  0  0  0  0  0  0  0  0  0  0  0
   -6.3500  -12.3660    2.2320 C   0  0  0  0  0  0  0  0  0  0  0  0
   -6.9000  -12.5750    3.6210 C   0  0  0  0  0  0  0  0  0  0  0  0
   -6.4070  -11.4130    4.4310 C   0  0  0  0  0  0  0  0  0  0  0  0
   -5.6420  -11.5280    5.3840 O   0  0  0  0  0  0  0  0  0  0  0  0
   -6.9060  -10.2160    3.9660 N   0  0  0  0  0  0  0  0  0  0  0  0
   -8.2820   -9.8030    4.2680 C   0  0  1  0  0  0  0  0  0  0  0  0
   -8.3880   -9.1290    5.6450 C   0  0  0  0  0  0  0  0  0  0  0  0
   -9.7630   -8.5020    5.9240 C   0  0  0  0  0  0  0  0  0  0  0  0
  -10.3400   -7.7330    4.7440 C   0  0  0  0  0  0  0  0  0  0  0  0
  -10.0920   -8.3550    3.4770 O   0  0  0  0  0  0  0  0  0  0  0  0
   -8.7250   -8.7910    3.1950 C   0  0  0  0  0  0  0  0  0  0  0  0
   -7.7290   -7.6310    2.8920 C   0  0  0  0  0  0  0  0  0  0  0  0
   -8.0480   -7.8050    1.3950 C   0  0  0  0  0  0  0  0  0  0  0  0
   -8.4920   -9.2450    1.7150 C   0  0  0  0  0  0  0  0  0  0  0  0
   -3.8780  -12.3640    2.3390 N   0  0  0  0  0  0  0  0  0  0  0  0
   -2.8800  -11.4770    2.3750 N   0  0  0  0  0  0  0  0  0  0  0  0
  1  2  1  0
  2  3  1  0
  3  4  1  6
  3  5  1  0
  5  6  2  0
  6  7  1  0
  7  8  1  0
  8  9  1  0
  9 10  1  0
 10 11  2  0
 10 12  1  0
 13 12  1  6
 13 14  1  0
 14 15  1  0
 15 16  1  0
 16 17  1  0
 17 18  1  0
 18 19  1  0
 19 20  1  0
 20 21  1  0
  7 22  1  0
 22 23  2  0
 23  5  1  0
 18 13  1  0
 21 18  1  0
M  END
>  <pair>  (236) 
x1020_0A-x0130_0A

>  <sucos>  (236) 
0.45211424279569074

>  <ref_mols>  (236) 
x1020_0A,x0130_0A

>  <original SMILES>  (236) 
CNC(C)c1cn(CCC(=O)NC2CCCOC23CCC3)nn1

>  <cmpd_ids>  (236) 
ENAMINE:PV-003548014453

>  <ref_url>  (236) 
https://github.com/stephwills/fragment_network_merges

>  <submitter_name>  (236) 
Steph Wills

>  <submitter_institution>  (236) 
University of Oxford

>  <submitter_email>  (236) 
stephanie.wills@balliol.ox.ac.uk

>  <generation_date>  (236) 
2023-09-06

>  <method>  (236) 
fragNetMergingIt3

>  <ref_pdb>  (236) 
x1020_0A,x0130_0A

$$$$
x0147-0A-x1052-1A-184
     RDKit          3D

 21 24  0  0  0  0  0  0  0  0999 V2000
   -7.0110   -5.3170   -8.3770 C   0  0  0  0  0  0  0  0  0  0  0  0
   -7.6700   -4.1480   -8.5470 C   0  0  0  0  0  0  0  0  0  0  0  0
   -8.7610   -3.8280   -7.7700 N   0  0  0  0  0  0  0  0  0  0  0  0
   -9.6210   -2.7640   -7.7160 C   0  0  0  0  0  0  0  0  0  0  0  0
  -10.5220   -2.9700   -6.7740 N   0  0  0  0  0  0  0  0  0  0  0  0
  -10.2480   -4.1920   -6.1910 N   0  0  0  0  0  0  0  0  0  0  0  0
   -9.1900   -4.6640   -6.8120 C   0  0  0  0  0  0  0  0  0  0  0  0
   -8.4750   -5.8790   -6.6140 C   0  0  0  0  0  0  0  0  0  0  0  0
   -8.8320   -6.7640   -5.6130 N   0  0  0  0  0  0  0  0  0  0  0  0
   -8.4760   -6.5410   -4.2120 C   0  0  0  0  0  0  0  0  0  0  0  0
   -7.0430   -6.1360   -4.0860 C   0  0  0  0  0  0  0  0  0  0  0  0
   -6.6390   -6.1830   -2.6450 C   0  0  0  0  0  0  0  0  0  0  0  0
   -7.1760   -5.4830   -1.6220 C   0  0  0  0  0  0  0  0  0  0  0  0
   -6.6290   -5.7350   -0.4540 N   0  0  0  0  0  0  0  0  0  0  0  0
   -5.6870   -6.6370   -0.7460 N   0  0  0  0  0  0  0  0  0  0  0  0
   -5.6560   -6.9360   -2.0620 C   0  0  0  0  0  0  0  0  0  0  0  0
   -4.7300   -7.8460   -2.5250 C   0  0  0  0  0  0  0  0  0  0  0  0
   -3.6180   -7.5840   -1.7560 C   0  0  0  0  0  0  0  0  0  0  0  0
   -3.8060   -7.9750   -0.4450 C   0  0  0  0  0  0  0  0  0  0  0  0
   -4.7770   -7.2430    0.2160 C   0  0  0  0  0  0  0  0  0  0  0  0
   -7.4550   -6.1470   -7.3850 N   0  0  0  0  0  0  0  0  0  0  0  0
  1  2  2  0
  2  3  1  0
  3  4  1  0
  4  5  2  0
  5  6  1  0
  6  7  2  0
  7  8  1  0
  8  9  1  0
  9 10  1  0
 10 11  1  0
 11 12  1  0
 12 13  1  0
 13 14  2  0
 14 15  1  0
 15 16  1  0
 16 17  1  0
 17 18  1  0
 18 19  1  0
 19 20  1  0
  8 21  2  0
 21  1  1  0
  7  3  1  0
 16 12  2  0
 20 15  1  0
M  END
>  <pair>  (237) 
x0147_0A-x1052_1A

>  <sucos>  (237) 
0.45348642931867383

>  <ref_mols>  (237) 
x0147_0A,x1052_1A

>  <original SMILES>  (237) 
c1cn2cnnc2c(NCCc2cnn3c2CCCC3)n1

>  <cmpd_ids>  (237) 
ENAMINE:Z2852287253

>  <ref_url>  (237) 
https://github.com/stephwills/fragment_network_merges

>  <submitter_name>  (237) 
Steph Wills

>  <submitter_institution>  (237) 
University of Oxford

>  <submitter_email>  (237) 
stephanie.wills@balliol.ox.ac.uk

>  <generation_date>  (237) 
2023-09-06

>  <method>  (237) 
fragNetMergingIt3

>  <ref_pdb>  (237) 
x0147_0A,x1052_1A

$$$$
x1052-1A-x1140-0A-33
     RDKit          3D

 23 26  0  0  0  0  0  0  0  0999 V2000
   -7.6970   -4.7090   -4.1910 C   0  0  0  0  0  0  0  0  0  0  0  0
   -8.0310   -5.7420   -3.2200 N   0  0  0  0  0  0  0  0  0  0  0  0
   -8.4550   -6.9590   -3.7370 C   0  0  0  0  0  0  0  0  0  0  0  0
   -9.2220   -7.0710   -4.6990 O   0  0  0  0  0  0  0  0  0  0  0  0
   -7.9230   -8.0400   -3.0620 N   0  0  0  0  0  0  0  0  0  0  0  0
   -6.5360   -8.4230   -3.1700 C   0  0  0  0  0  0  0  0  0  0  0  0
   -5.7330   -8.5300   -1.8520 C   0  0  0  0  0  0  0  0  0  0  0  0
   -6.2600   -9.2180   -0.7480 C   0  0  0  0  0  0  0  0  0  0  0  0
   -5.5640   -9.3340    0.4590 C   0  0  0  0  0  0  0  0  0  0  0  0
   -4.3070   -8.7650    0.6070 C   0  0  0  0  0  0  0  0  0  0  0  0
   -3.7350   -8.0710   -0.4550 C   0  0  0  0  0  0  0  0  0  0  0  0
   -4.4360   -7.9510   -1.6760 C   0  0  0  0  0  0  0  0  0  0  0  0
   -2.4940   -7.4950   -0.3510 O   0  0  0  0  0  0  0  0  0  0  0  0
   -2.1350   -7.3100    1.0240 C   0  0  0  0  0  0  0  0  0  0  0  0
   -2.3150   -8.5860    1.8070 C   0  0  0  0  0  0  0  0  0  0  0  0
   -3.7030   -8.9380    1.8310 O   0  0  0  0  0  0  0  0  0  0  0  0
   -5.7600   -8.0260   -4.3960 C   0  0  0  0  0  0  0  0  0  0  0  0
   -6.2780   -9.4200   -4.2790 C   0  0  0  0  0  0  0  0  0  0  0  0
   -7.2190   -5.8550   -2.1020 C   0  0  0  0  0  0  0  0  0  0  0  0
   -5.7990   -5.9370   -2.1280 C   0  0  0  0  0  0  0  0  0  0  0  0
   -5.4500   -6.0700   -0.8240 C   0  0  0  0  0  0  0  0  0  0  0  0
   -6.5630   -6.0630   -0.0650 O   0  0  0  0  0  0  0  0  0  0  0  0
   -7.6680   -5.9210   -0.8450 N   0  0  0  0  0  0  0  0  0  0  0  0
  1  2  1  0
  2  3  1  0
  3  4  2  0
  3  5  1  0
  5  6  1  0
  6  7  1  0
  7  8  2  0
  8  9  1  0
  9 10  2  0
 10 11  1  0
 11 12  2  0
 11 13  1  0
 13 14  1  0
 14 15  1  0
 15 16  1  0
  6 17  1  0
 17 18  1  0
  2 19  1  0
 19 20  1  0
 20 21  2  0
 21 22  1  0
 22 23  1  0
 18  6  1  0
 23 19  2  0
 12  7  1  0
 16 10  1  0
M  END
>  <pair>  (238) 
x1052_1A-x1140_0A

>  <sucos>  (238) 
0.453688594446108

>  <ref_mols>  (238) 
x1052_1A,x1140_0A

>  <original SMILES>  (238) 
CN(C(=O)NC1(c2ccc3c(c2)OCCO3)CC1)c1ccon1

>  <cmpd_ids>  (238) 
ENAMINE:Z4117755715

>  <ref_url>  (238) 
https://github.com/stephwills/fragment_network_merges

>  <submitter_name>  (238) 
Steph Wills

>  <submitter_institution>  (238) 
University of Oxford

>  <submitter_email>  (238) 
stephanie.wills@balliol.ox.ac.uk

>  <generation_date>  (238) 
2023-09-06

>  <method>  (238) 
fragNetMergingIt3

>  <ref_pdb>  (238) 
x1052_1A,x1140_0A

$$$$
x1594-0A-x2021-0A-10
     RDKit          3D

 20 21  0  0  0  0  0  0  0  0999 V2000
   -5.0330   -1.5870   -2.6460 C   0  0  0  0  0  0  0  0  0  0  0  0
   -5.9300   -2.6950   -1.5770 S   0  0  0  0  0  6  0  0  0  0  0  0
   -7.6310   -2.4650   -2.0260 C   0  0  0  0  0  0  0  0  0  0  0  0
   -5.8150   -2.1260   -0.2600 O   0  0  0  0  0  0  0  0  0  0  0  0
   -5.5610   -4.1510   -1.9210 N   0  0  0  0  0  0  0  0  0  0  0  0
   -6.5780   -5.1160   -2.0070 C   0  0  0  0  0  0  0  0  0  0  0  0
   -6.8760   -5.8440   -1.0540 O   0  0  0  0  0  0  0  0  0  0  0  0
   -7.3400   -5.2300   -3.3390 C   0  0  0  0  0  0  0  0  0  0  0  0
   -7.1670   -6.5110   -4.0040 N   0  0  0  0  0  0  0  0  0  0  0  0
   -7.8970   -6.7670   -5.1330 C   0  0  0  0  0  0  0  0  0  0  0  0
   -8.0150   -7.8960   -5.5960 O   0  0  0  0  0  0  0  0  0  0  0  0
   -8.5710   -5.5700   -5.8140 C   0  0  0  0  0  0  0  0  0  0  0  0
   -9.6650   -4.8950   -5.3220 C   0  0  0  0  0  0  0  0  0  0  0  0
  -10.2140   -3.7300   -6.0460 C   0  0  0  0  0  0  0  0  0  0  0  0
   -9.6710   -3.2950   -7.1970 C   0  0  0  0  0  0  0  0  0  0  0  0
   -8.5630   -3.9970   -7.7140 C   0  0  0  0  0  0  0  0  0  0  0  0
   -7.8520   -3.8270   -8.7860 N   0  0  0  0  0  0  0  0  0  0  0  0
   -6.9110   -4.8110   -8.8170 N   0  0  0  0  0  0  0  0  0  0  0  0
   -7.0490   -5.5550   -7.7640 C   0  0  0  0  0  0  0  0  0  0  0  0
   -8.0750   -5.0970   -7.0120 N   0  0  0  0  0  0  0  0  0  0  0  0
  1  2  1  0
  2  3  1  0
  2  4  2  0
  2  5  2  0
  5  6  1  0
  6  7  2  0
  6  8  1  0
  8  9  1  0
  9 10  1  0
 10 11  2  0
 10 12  1  0
 12 13  2  0
 13 14  1  0
 14 15  2  0
 15 16  1  0
 16 17  2  0
 17 18  1  0
 18 19  2  0
 19 20  1  0
 20 12  1  0
 20 16  1  0
M  END
>  <pair>  (239) 
x1594_0A-x2021_0A

>  <sucos>  (239) 
0.45558909215293497

>  <ref_mols>  (239) 
x1594_0A,x2021_0A

>  <original SMILES>  (239) 
CS(C)(=O)=NC(=O)CNC(=O)c1cccc2nncn12

>  <cmpd_ids>  (239) 
ENAMINE:PV-002719365625

>  <ref_url>  (239) 
https://github.com/stephwills/fragment_network_merges

>  <submitter_name>  (239) 
Steph Wills

>  <submitter_institution>  (239) 
University of Oxford

>  <submitter_email>  (239) 
stephanie.wills@balliol.ox.ac.uk

>  <generation_date>  (239) 
2023-09-06

>  <method>  (239) 
fragNetMergingIt3

>  <ref_pdb>  (239) 
x1594_0A,x2021_0A

$$$$
x1020-0A-x0130-0A-75
     RDKit          3D

 23 25  0  0  0  0  0  0  0  0999 V2000
   -8.5450  -12.1900    3.4140 C   0  0  0  0  0  0  0  0  0  0  0  0
   -7.1760  -12.7500    3.7550 C   0  0  0  0  0  0  0  0  0  0  0  0
   -6.2150  -11.6760    4.2350 C   0  0  0  0  0  0  0  0  0  0  0  0
   -5.3520  -11.8980    5.0740 O   0  0  0  0  0  0  0  0  0  0  0  0
   -6.4670  -10.4670    3.6140 N   0  0  0  0  0  0  0  0  0  0  0  0
   -6.6130  -10.1710    2.2390 C   0  0  0  0  0  0  0  0  0  0  0  0
   -7.8710   -9.8690    1.6860 C   0  0  0  0  0  0  0  0  0  0  0  0
   -8.0410   -9.5680    0.3240 C   0  0  0  0  0  0  0  0  0  0  0  0
   -9.3050   -9.2720   -0.2020 C   0  0  0  0  0  0  0  0  0  0  0  0
   -9.4670   -8.9740   -1.5520 C   0  0  0  0  0  0  0  0  0  0  0  0
   -8.2720   -8.9630   -2.4850 C   0  0  0  0  0  0  0  0  0  0  0  0
   -7.0420   -9.2660   -1.8930 C   0  0  0  0  0  0  0  0  0  0  0  0
   -6.9190   -9.5640   -0.5220 C   0  0  0  0  0  0  0  0  0  0  0  0
   -5.6690   -9.8620    0.0270 C   0  0  0  0  0  0  0  0  0  0  0  0
   -5.4850  -10.1720    1.3950 C   0  0  0  0  0  0  0  0  0  0  0  0
   -4.1060  -10.4690    1.8100 C   0  0  0  0  0  0  0  0  0  0  0  0
   -3.0920   -9.6340    1.7150 N   0  0  0  0  0  0  0  0  0  0  0  0
   -2.0410  -10.3620    2.1980 C   0  0  0  0  0  0  0  0  0  0  0  0
   -0.6610   -9.7890    2.2550 C   0  0  2  0  0  0  0  0  0  0  0  0
    0.3370  -10.5500    3.1220 C   0  0  0  0  0  0  0  0  0  0  0  0
   -0.8030   -8.4250    2.7590 N   0  0  0  0  0  0  0  0  0  0  0  0
   -2.3960  -11.5760    2.5830 N   0  0  0  0  0  0  0  0  0  0  0  0
   -3.7680  -11.5620    2.2900 O   0  0  0  0  0  0  0  0  0  0  0  0
  1  2  1  0
  2  3  1  0
  3  4  2  0
  3  5  1  0
  5  6  1  0
  6  7  2  0
  7  8  1  0
  8  9  2  0
  9 10  1  0
 10 11  2  0
 11 12  1  0
 12 13  2  0
 13 14  1  0
 14 15  2  0
 15 16  1  0
 16 17  2  0
 17 18  1  0
 18 19  1  0
 19 20  1  1
 19 21  1  0
 18 22  2  0
 22 23  1  0
 15  6  1  0
 23 16  1  0
 13  8  1  0
M  END
>  <pair>  (240) 
x1020_0A-x0130_0A

>  <sucos>  (240) 
0.45603819088132624

>  <ref_mols>  (240) 
x1020_0A,x0130_0A

>  <original SMILES>  (240) 
CCC(=O)Nc1cc2ccccc2cc1-c1nc(C(C)N)no1

>  <cmpd_ids>  (240) 
ENAMINE:Z4778195169

>  <ref_url>  (240) 
https://github.com/stephwills/fragment_network_merges

>  <submitter_name>  (240) 
Steph Wills

>  <submitter_institution>  (240) 
University of Oxford

>  <submitter_email>  (240) 
stephanie.wills@balliol.ox.ac.uk

>  <generation_date>  (240) 
2023-09-06

>  <method>  (240) 
fragNetMergingIt3

>  <ref_pdb>  (240) 
x1020_0A,x0130_0A

$$$$
x1052-1A-x1594-0A-116
     RDKit          3D

 19 22  0  0  0  0  0  0  0  0999 V2000
  -10.5000   -2.8710   -6.8920 C   0  0  0  0  0  0  0  0  0  0  0  0
  -10.5170   -4.0690   -6.0840 C   0  0  0  0  0  0  0  0  0  0  0  0
   -9.6070   -5.0660   -6.1540 C   0  0  0  0  0  0  0  0  0  0  0  0
   -9.6360   -6.1690   -5.3220 N   0  0  0  0  0  0  0  0  0  0  0  0
   -9.7680   -5.9200   -3.9200 C   0  0  2  0  0  0  0  0  0  0  0  0
   -8.7520   -4.9740   -3.4600 C   0  0  0  0  0  0  0  0  0  0  0  0
   -8.3600   -5.6370   -2.3300 C   0  0  2  0  0  0  0  0  0  0  0  0
   -7.0030   -6.0410   -1.7490 C   0  0  0  0  0  0  0  0  0  0  0  0
   -5.7330   -6.1140   -2.3230 C   0  0  0  0  0  0  0  0  0  0  0  0
   -4.9230   -6.6270   -1.1370 C   0  0  0  0  0  0  0  0  0  0  0  0
   -5.7420   -6.7840   -0.0560 O   0  0  0  0  0  0  0  0  0  0  0  0
   -7.0460   -6.4340   -0.3540 N   0  0  0  0  0  0  0  0  0  0  0  0
   -9.0410   -6.8890   -2.9790 C   0  0  0  0  0  0  0  0  0  0  0  0
   -8.6000   -4.8540   -7.1340 N   0  0  0  0  0  0  0  0  0  0  0  0
   -7.5240   -5.6060   -7.5410 C   0  0  0  0  0  0  0  0  0  0  0  0
   -6.8620   -4.9910   -8.4920 N   0  0  0  0  0  0  0  0  0  0  0  0
   -7.4990   -3.7990   -8.7380 N   0  0  0  0  0  0  0  0  0  0  0  0
   -8.5390   -3.7060   -7.9360 C   0  0  0  0  0  0  0  0  0  0  0  0
   -9.5240   -2.6970   -7.7820 C   0  0  0  0  0  0  0  0  0  0  0  0
  1  2  1  0
  2  3  2  0
  3  4  1  0
  5  4  1  6
  5  6  1  0
  7  6  1  6
  7  8  1  0
  8  9  1  0
  9 10  2  0
 10 11  1  0
 11 12  1  0
  7 13  1  0
  3 14  1  0
 14 15  1  0
 15 16  2  0
 16 17  1  0
 17 18  2  0
 18 19  1  0
 19  1  2  0
 13  5  1  0
 18 14  1  0
 12  8  2  0
M  END
>  <pair>  (241) 
x1052_1A-x1594_0A

>  <sucos>  (241) 
0.45717210744523246

>  <ref_mols>  (241) 
x1052_1A,x1594_0A

>  <original SMILES>  (241) 
c1cc(NC2CC(c3ccon3)C2)n2cnnc2c1

>  <cmpd_ids>  (241) 
ENAMINE:Z4456323080

>  <ref_url>  (241) 
https://github.com/stephwills/fragment_network_merges

>  <submitter_name>  (241) 
Steph Wills

>  <submitter_institution>  (241) 
University of Oxford

>  <submitter_email>  (241) 
stephanie.wills@balliol.ox.ac.uk

>  <generation_date>  (241) 
2023-09-06

>  <method>  (241) 
fragNetMergingIt3

>  <ref_pdb>  (241) 
x1052_1A,x1594_0A

$$$$
x1020-0A-x0130-0A-140
     RDKit          3D

 22 24  0  0  0  0  0  0  0  0999 V2000
   -0.5470   -8.3670    2.2620 N   0  0  0  0  0  0  0  0  0  0  0  0
   -1.4580   -7.5680    1.4470 C   0  0  0  0  0  0  0  0  0  0  0  0
   -2.8550   -8.0560    1.6530 C   0  0  0  0  0  0  0  0  0  0  0  0
   -3.1550   -8.9640    2.5130 N   0  0  0  0  0  0  0  0  0  0  0  0
   -4.4810   -9.0970    2.3840 C   0  0  0  0  0  0  0  0  0  0  0  0
   -5.3910  -10.0280    3.1520 C   0  0  0  0  0  0  0  0  0  0  0  0
   -6.7150   -9.9920    2.8550 C   0  0  0  0  0  0  0  0  0  0  0  0
   -7.4020  -10.8900    3.6310 N   0  0  0  0  0  0  0  0  0  0  0  0
   -6.8150  -11.9180    4.3180 C   0  0  0  0  0  0  0  0  0  0  0  0
   -5.7960  -11.8780    5.0050 O   0  0  0  0  0  0  0  0  0  0  0  0
   -7.5150  -13.0800    4.1590 C   0  0  0  0  0  0  0  0  0  0  0  0
   -8.9160  -12.9810    3.5380 C   0  0  0  0  0  0  0  0  0  0  0  0
   -9.7720  -14.2460    3.4490 C   0  0  1  0  0  0  0  0  0  0  0  0
  -10.4700  -14.3470    4.8020 C   0  0  0  0  0  0  0  0  0  0  0  0
  -11.7000  -15.1720    4.5830 C   0  0  0  0  0  0  0  0  0  0  0  0
  -12.7640  -14.4230    3.8120 C   0  0  0  0  0  0  0  0  0  0  0  0
  -11.9670  -13.7250    2.7230 C   0  0  0  0  0  0  0  0  0  0  0  0
  -10.6950  -14.3170    2.4380 O   0  0  0  0  0  0  0  0  0  0  0  0
   -7.2290   -9.1290    1.8760 C   0  0  0  0  0  0  0  0  0  0  0  0
   -6.4030   -8.2490    1.1410 C   0  0  0  0  0  0  0  0  0  0  0  0
   -5.0320   -8.2690    1.4320 C   0  0  0  0  0  0  0  0  0  0  0  0
   -3.9510   -7.5920    0.9570 N   0  0  0  0  0  0  0  0  0  0  0  0
  1  2  1  0
  2  3  1  0
  3  4  2  0
  4  5  1  0
  5  6  2  0
  6  7  1  0
  7  8  1  0
  8  9  1  0
  9 10  2  0
  9 11  1  0
 11 12  1  0
 13 12  1  1
 13 14  1  0
 14 15  1  0
 15 16  1  0
 16 17  1  0
 17 18  1  0
  7 19  2  0
 19 20  1  0
 20 21  2  0
 21 22  1  0
 22  3  1  0
 21  5  1  0
 18 13  1  0
M  END
>  <pair>  (242) 
x1020_0A-x0130_0A

>  <sucos>  (242) 
0.45802129500251804

>  <ref_mols>  (242) 
x1020_0A,x0130_0A

>  <original SMILES>  (242) 
NCc1nc2cc(NC(=O)CCC3CCCCO3)ccc2[nH]1

>  <cmpd_ids>  (242) 
ENAMINE:Z3137157752

>  <ref_url>  (242) 
https://github.com/stephwills/fragment_network_merges

>  <submitter_name>  (242) 
Steph Wills

>  <submitter_institution>  (242) 
University of Oxford

>  <submitter_email>  (242) 
stephanie.wills@balliol.ox.ac.uk

>  <generation_date>  (242) 
2023-09-06

>  <method>  (242) 
fragNetMergingIt3

>  <ref_pdb>  (242) 
x1020_0A,x0130_0A

$$$$
x1594-0A-x1052-1A-28
     RDKit          3D

 24 26  0  0  0  0  0  0  0  0999 V2000
   -7.0280  -10.7160   -5.7880 C   0  0  0  0  0  0  0  0  0  0  0  0
   -8.0760   -9.7570   -6.3410 C   0  0  0  0  0  0  0  0  0  0  0  0
   -7.4760   -8.3590   -6.5260 C   0  0  0  0  0  0  0  0  0  0  0  0
   -8.3950   -7.1920   -6.1970 C   0  0  1  0  0  0  0  0  0  0  0  0
   -8.4410   -6.9460   -4.7470 N   0  0  0  0  0  0  0  0  0  0  0  0
   -9.0630   -7.7990   -3.8490 C   0  0  0  0  0  0  0  0  0  0  0  0
  -10.1880   -8.2600   -3.9770 O   0  0  0  0  0  0  0  0  0  0  0  0
   -8.2410   -8.0690   -2.7680 N   0  0  0  0  0  0  0  0  0  0  0  0
   -8.7940   -8.3380   -1.4360 C   0  0  0  0  0  0  0  0  0  0  0  0
   -7.9100   -7.7900   -0.3110 C   0  0  0  0  0  0  0  0  0  0  0  0
   -6.9040   -6.9000   -0.8380 N   0  0  0  0  0  0  0  0  0  0  0  0
   -5.7310   -7.2680   -1.4300 C   0  0  0  0  0  0  0  0  0  0  0  0
   -5.1130   -6.1040   -1.7920 C   0  0  0  0  0  0  0  0  0  0  0  0
   -5.9880   -5.0870   -1.3720 C   0  0  0  0  0  0  0  0  0  0  0  0
   -7.0830   -5.5660   -0.7850 N   0  0  0  0  0  0  0  0  0  0  0  0
   -8.1510   -5.9250   -7.0170 C   0  0  0  0  0  0  0  0  0  0  0  0
   -7.1880   -5.5650   -7.8760 N   0  0  0  0  0  0  0  0  0  0  0  0
   -7.4740   -4.2830   -8.3320 N   0  0  0  0  0  0  0  0  0  0  0  0
   -8.5890   -3.8990   -7.7430 C   0  0  0  0  0  0  0  0  0  0  0  0
   -9.3820   -2.7170   -7.7840 C   0  0  0  0  0  0  0  0  0  0  0  0
  -10.5060   -2.6370   -7.0440 C   0  0  0  0  0  0  0  0  0  0  0  0
  -10.9350   -3.7320   -6.1970 C   0  0  0  0  0  0  0  0  0  0  0  0
  -10.1910   -4.8350   -6.1550 C   0  0  0  0  0  0  0  0  0  0  0  0
   -9.0380   -4.9090   -6.9180 N   0  0  0  0  0  0  0  0  0  0  0  0
  1  2  1  0
  2  3  1  0
  4  3  1  1
  4  5  1  0
  5  6  1  0
  6  7  2  0
  6  8  1  0
  8  9  1  0
  9 10  1  0
 10 11  1  0
 11 12  1  0
 12 13  2  0
 13 14  1  0
 14 15  2  0
  4 16  1  0
 16 17  2  0
 17 18  1  0
 18 19  2  0
 19 20  1  0
 20 21  2  0
 21 22  1  0
 22 23  2  0
 23 24  1  0
 15 11  1  0
 24 16  1  0
 24 19  1  0
M  END
>  <pair>  (243) 
x1594_0A-x1052_1A

>  <sucos>  (243) 
0.45897168141587824

>  <ref_mols>  (243) 
x1594_0A,x1052_1A

>  <original SMILES>  (243) 
CCCC(NC(=O)NCCn1cccn1)c1nnc2ccccn12

>  <cmpd_ids>  (243) 
ENAMINE:Z1209802936

>  <ref_url>  (243) 
https://github.com/stephwills/fragment_network_merges

>  <submitter_name>  (243) 
Steph Wills

>  <submitter_institution>  (243) 
University of Oxford

>  <submitter_email>  (243) 
stephanie.wills@balliol.ox.ac.uk

>  <generation_date>  (243) 
2023-09-06

>  <method>  (243) 
fragNetMergingIt3

>  <ref_pdb>  (243) 
x1594_0A,x1052_1A

$$$$
x1594-0A-x1052-1A-14
     RDKit          3D

 23 26  0  0  0  0  0  0  0  0999 V2000
   -4.5450   -7.9380   -3.0990 C   0  0  0  0  0  0  0  0  0  0  0  0
   -6.0110   -8.2510   -2.9340 C   0  0  1  0  0  0  0  0  0  0  0  0
   -6.4540   -7.1460   -2.0180 C   0  0  0  0  0  0  0  0  0  0  0  0
   -7.2750   -7.4160   -0.9320 C   0  0  0  0  0  0  0  0  0  0  0  0
   -7.6550   -6.3610   -0.1440 C   0  0  0  0  0  0  0  0  0  0  0  0
   -7.2820   -5.0830   -0.3640 N   0  0  0  0  0  0  0  0  0  0  0  0
   -6.4790   -4.8470   -1.4160 C   0  0  0  0  0  0  0  0  0  0  0  0
   -6.0430   -5.8350   -2.2610 C   0  0  0  0  0  0  0  0  0  0  0  0
   -6.7990   -8.2960   -4.1980 N   0  0  0  0  0  0  0  0  0  0  0  0
   -8.1810   -8.7460   -3.9390 C   0  0  0  0  0  0  0  0  0  0  0  0
   -9.2560   -7.8600   -4.5600 C   0  0  0  0  0  0  0  0  0  0  0  0
   -9.0060   -7.7540   -6.0530 C   0  0  0  0  0  0  0  0  0  0  0  0
   -7.6190   -7.1710   -6.3810 C   0  0  1  0  0  0  0  0  0  0  0  0
   -7.7270   -5.8440   -7.1230 C   0  0  0  0  0  0  0  0  0  0  0  0
   -6.9150   -5.3400   -8.0480 N   0  0  0  0  0  0  0  0  0  0  0  0
   -7.4050   -4.1120   -8.4470 N   0  0  0  0  0  0  0  0  0  0  0  0
   -8.5050   -3.8830   -7.7670 C   0  0  0  0  0  0  0  0  0  0  0  0
   -9.4330   -2.8010   -7.7420 C   0  0  0  0  0  0  0  0  0  0  0  0
  -10.5020   -2.8500   -6.9280 C   0  0  0  0  0  0  0  0  0  0  0  0
  -10.7330   -3.9870   -6.0590 C   0  0  0  0  0  0  0  0  0  0  0  0
   -9.8600   -5.0030   -6.0700 C   0  0  0  0  0  0  0  0  0  0  0  0
   -8.7560   -4.9480   -6.9180 N   0  0  0  0  0  0  0  0  0  0  0  0
   -6.7500   -7.0970   -5.0820 C   0  0  0  0  0  0  0  0  0  0  0  0
  2  1  1  6
  2  3  1  0
  3  4  2  0
  4  5  1  0
  5  6  2  0
  6  7  1  0
  7  8  2  0
  2  9  1  0
  9 10  1  0
 10 11  1  0
 11 12  1  0
 13 12  1  1
 13 14  1  0
 14 15  2  0
 15 16  1  0
 16 17  2  0
 17 18  1  0
 18 19  2  0
 19 20  1  0
 20 21  2  0
 21 22  1  0
 13 23  1  0
  8  3  1  0
 23  9  1  0
 22 14  1  0
 22 17  1  0
M  END
>  <pair>  (244) 
x1594_0A-x1052_1A

>  <sucos>  (244) 
0.45915472027380866

>  <ref_mols>  (244) 
x1594_0A,x1052_1A

>  <original SMILES>  (244) 
CC(c1ccncc1)N1CCCC(c2nnc3ccccn23)C1

>  <cmpd_ids>  (244) 
ENAMINE:Z1241283052

>  <ref_url>  (244) 
https://github.com/stephwills/fragment_network_merges

>  <submitter_name>  (244) 
Steph Wills

>  <submitter_institution>  (244) 
University of Oxford

>  <submitter_email>  (244) 
stephanie.wills@balliol.ox.ac.uk

>  <generation_date>  (244) 
2023-09-06

>  <method>  (244) 
fragNetMergingIt3

>  <ref_pdb>  (244) 
x1594_0A,x1052_1A

$$$$
x1020-0A-x0130-0A-148
     RDKit          3D

 19 20  0  0  0  0  0  0  0  0999 V2000
    0.7540  -10.5250    2.4980 C   0  0  0  0  0  0  0  0  0  0  0  0
   -0.3010   -9.5710    2.9880 C   0  0  0  0  0  0  0  0  0  0  0  0
   -1.4920   -9.5090    2.1560 N   0  0  0  0  0  0  0  0  0  0  0  0
   -2.2790   -8.3270    2.5440 C   0  0  0  0  0  0  0  0  0  0  0  0
   -2.8680   -7.5390    1.3750 C   0  0  0  0  0  0  0  0  0  0  0  0
   -2.2450  -10.7500    2.3210 C   0  0  0  0  0  0  0  0  0  0  0  0
   -3.5970  -10.4430    2.2080 C   0  0  0  0  0  0  0  0  0  0  0  0
   -4.0890   -9.5120    1.1410 C   0  0  0  0  0  0  0  0  0  0  0  0
   -5.7780   -9.3860    1.3240 S   0  0  0  0  0  0  0  0  0  0  0  0
   -5.7040  -10.4590    2.6560 C   0  0  0  0  0  0  0  0  0  0  0  0
   -6.7550  -10.8620    3.3770 N   0  0  0  0  0  0  0  0  0  0  0  0
   -6.6290  -11.7710    4.3880 C   0  0  0  0  0  0  0  0  0  0  0  0
   -5.7020  -11.8390    5.1940 O   0  0  0  0  0  0  0  0  0  0  0  0
   -7.7810  -12.7610    4.4500 C   0  0  1  0  0  0  0  0  0  0  0  0
   -8.8150  -12.5310    3.3560 C   0  0  0  0  0  0  0  0  0  0  0  0
   -7.4170  -14.2270    4.5460 C   0  0  0  0  0  0  0  0  0  0  0  0
   -8.3460  -15.3190    4.7380 C   0  0  0  0  0  0  0  0  0  0  0  0
   -7.5430  -15.0780    5.9220 C   0  0  0  0  0  0  0  0  0  0  0  0
   -4.5490  -10.9440    3.0290 N   0  0  0  0  0  0  0  0  0  0  0  0
  1  2  1  0
  2  3  1  0
  3  4  1  0
  4  5  1  0
  3  6  1  0
  6  7  1  0
  7  8  2  0
  8  9  1  0
  9 10  1  0
 10 11  1  0
 11 12  1  0
 12 13  2  0
 12 14  1  0
 14 15  1  6
 14 16  1  0
 16 17  1  0
 17 18  1  0
 10 19  2  0
 19  7  1  0
 18 16  1  0
M  END
>  <pair>  (245) 
x1020_0A-x0130_0A

>  <sucos>  (245) 
0.45988059885607707

>  <ref_mols>  (245) 
x1020_0A,x0130_0A

>  <original SMILES>  (245) 
CCN(CC)Cc1csc(NC(=O)C(C)C2CC2)n1

>  <cmpd_ids>  (245) 
ENAMINE:Z1330007729

>  <ref_url>  (245) 
https://github.com/stephwills/fragment_network_merges

>  <submitter_name>  (245) 
Steph Wills

>  <submitter_institution>  (245) 
University of Oxford

>  <submitter_email>  (245) 
stephanie.wills@balliol.ox.ac.uk

>  <generation_date>  (245) 
2023-09-06

>  <method>  (245) 
fragNetMergingIt3

>  <ref_pdb>  (245) 
x1020_0A,x0130_0A

$$$$
x1594-0A-x1052-1A-26
     RDKit          3D

 22 24  0  0  0  0  0  0  0  0999 V2000
   -7.0840   -6.8580   -7.4180 C   0  0  0  0  0  0  0  0  0  0  0  0
   -7.5390   -5.5260   -7.7800 C   0  0  0  0  0  0  0  0  0  0  0  0
   -7.0540   -4.7580   -8.7160 N   0  0  0  0  0  0  0  0  0  0  0  0
   -7.7770   -3.5940   -8.7180 N   0  0  0  0  0  0  0  0  0  0  0  0
   -8.6900   -3.6850   -7.7810 C   0  0  0  0  0  0  0  0  0  0  0  0
   -9.7150   -2.8150   -7.3240 C   0  0  0  0  0  0  0  0  0  0  0  0
  -10.5020   -3.2090   -6.2930 C   0  0  0  0  0  0  0  0  0  0  0  0
  -10.3160   -4.5190   -5.6390 C   0  0  0  0  0  0  0  0  0  0  0  0
  -11.0990   -5.0520   -4.4660 C   0  0  0  0  0  0  0  0  0  0  0  0
  -12.2210   -4.6330   -4.2020 O   0  0  0  0  0  0  0  0  0  0  0  0
  -10.4570   -6.0410   -3.7240 N   0  0  0  0  0  0  0  0  0  0  0  0
   -9.7300   -5.7830   -2.4710 C   0  0  0  0  0  0  0  0  0  0  0  0
   -8.8900   -6.9830   -1.8880 C   0  0  0  0  0  0  0  0  0  0  0  0
   -9.4870   -7.4630   -0.5470 C   0  0  0  0  0  0  0  0  0  0  0  0
   -8.9890   -8.1470   -2.9000 C   0  0  0  0  0  0  0  0  0  0  0  0
   -7.4810   -6.5630   -1.6650 N   0  0  0  0  0  0  0  0  0  0  0  0
   -6.3050   -7.2350   -1.9110 C   0  0  0  0  0  0  0  0  0  0  0  0
   -5.2930   -6.3910   -1.5510 C   0  0  0  0  0  0  0  0  0  0  0  0
   -5.9500   -5.2440   -1.0960 C   0  0  0  0  0  0  0  0  0  0  0  0
   -7.2660   -5.3320   -1.1510 N   0  0  0  0  0  0  0  0  0  0  0  0
   -9.3600   -5.3240   -6.1070 C   0  0  0  0  0  0  0  0  0  0  0  0
   -8.5670   -4.9010   -7.1540 N   0  0  0  0  0  0  0  0  0  0  0  0
  1  2  1  0
  2  3  2  0
  3  4  1  0
  4  5  2  0
  5  6  1  0
  6  7  2  0
  7  8  1  0
  8  9  1  0
  9 10  2  0
  9 11  1  0
 11 12  1  0
 12 13  1  0
 13 14  1  0
 13 15  1  0
 13 16  1  0
 16 17  1  0
 17 18  2  0
 18 19  1  0
 19 20  2  0
  8 21  2  0
 21 22  1  0
 22  2  1  0
 22  5  1  0
 20 16  1  0
M  END
>  <pair>  (246) 
x1594_0A-x1052_1A

>  <sucos>  (246) 
0.45991316952971795

>  <ref_mols>  (246) 
x1594_0A,x1052_1A

>  <original SMILES>  (246) 
Cc1nnc2ccc(C(=O)NCC(C)(C)n3cccn3)cn12

>  <cmpd_ids>  (246) 
ENAMINE:Z2883258055

>  <ref_url>  (246) 
https://github.com/stephwills/fragment_network_merges

>  <submitter_name>  (246) 
Steph Wills

>  <submitter_institution>  (246) 
University of Oxford

>  <submitter_email>  (246) 
stephanie.wills@balliol.ox.ac.uk

>  <generation_date>  (246) 
2023-09-06

>  <method>  (246) 
fragNetMergingIt3

>  <ref_pdb>  (246) 
x1594_0A,x1052_1A

$$$$
x1594-0A-x1052-1A-185
     RDKit          3D

 24 26  0  0  0  0  0  0  0  0999 V2000
   -7.3610   -2.5460   -2.1330 C   0  0  0  0  0  0  0  0  0  0  0  0
   -8.5000   -3.3630   -2.5480 N   0  0  0  0  0  0  0  0  0  0  0  0
   -9.7300   -2.6170   -2.9710 C   0  0  0  0  0  0  0  0  0  0  0  0
  -10.2380   -3.0000   -4.4100 C   0  0  0  0  0  0  0  0  0  0  0  0
  -10.5190   -1.9030   -5.4020 N   0  0  0  0  0  0  0  0  0  0  0  0
  -11.7800   -1.2020   -5.1930 C   0  0  0  0  0  0  0  0  0  0  0  0
  -10.0680   -2.1610   -6.7160 C   0  0  0  0  0  0  0  0  0  0  0  0
   -9.9030   -1.3790   -7.6310 O   0  0  0  0  0  0  0  0  0  0  0  0
   -9.7650   -3.5530   -6.8880 C   0  0  0  0  0  0  0  0  0  0  0  0
  -10.6900   -4.3440   -6.2390 C   0  0  0  0  0  0  0  0  0  0  0  0
  -10.5210   -5.7000   -6.1730 C   0  0  0  0  0  0  0  0  0  0  0  0
   -9.4000   -6.2250   -6.7610 C   0  0  0  0  0  0  0  0  0  0  0  0
   -8.5110   -5.4780   -7.4340 N   0  0  0  0  0  0  0  0  0  0  0  0
   -7.3830   -5.8070   -8.1090 C   0  0  0  0  0  0  0  0  0  0  0  0
   -6.8110   -4.6890   -8.6640 N   0  0  0  0  0  0  0  0  0  0  0  0
   -7.6330   -3.6470   -8.3000 N   0  0  0  0  0  0  0  0  0  0  0  0
   -8.6310   -4.1090   -7.5620 C   0  0  0  0  0  0  0  0  0  0  0  0
   -8.5800   -4.7520   -2.2890 C   0  0  0  0  0  0  0  0  0  0  0  0
   -9.6410   -5.3390   -2.4740 O   0  0  0  0  0  0  0  0  0  0  0  0
   -7.3700   -5.4420   -1.7900 C   0  0  0  0  0  0  0  0  0  0  0  0
   -6.1250   -5.4510   -2.2600 C   0  0  0  0  0  0  0  0  0  0  0  0
   -5.2970   -6.2420   -1.4580 C   0  0  0  0  0  0  0  0  0  0  0  0
   -5.9030   -6.8150   -0.4140 N   0  0  0  0  0  0  0  0  0  0  0  0
   -7.5030   -6.4000   -0.3900 S   0  0  0  0  0  0  0  0  0  0  0  0
  1  2  1  0
  2  3  1  0
  3  4  1  0
  4  5  1  0
  5  6  1  0
  5  7  1  0
  7  8  2  0
  7  9  1  0
  9 10  2  0
 10 11  1  0
 11 12  2  0
 12 13  1  0
 13 14  1  0
 14 15  2  0
 15 16  1  0
 16 17  2  0
  2 18  1  0
 18 19  2  0
 18 20  1  0
 20 21  2  0
 21 22  1  0
 22 23  2  0
 23 24  1  0
 17  9  1  0
 24 20  1  0
 17 13  1  0
M  END
>  <pair>  (247) 
x1594_0A-x1052_1A

>  <sucos>  (247) 
0.4602545412196444

>  <ref_mols>  (247) 
x1594_0A,x1052_1A

>  <original SMILES>  (247) 
CN(CCN(C)C(=O)c1cccn2cnnc12)C(=O)c1ccns1

>  <cmpd_ids>  (247) 
ENAMINE:PV-002790965079

>  <ref_url>  (247) 
https://github.com/stephwills/fragment_network_merges

>  <submitter_name>  (247) 
Steph Wills

>  <submitter_institution>  (247) 
University of Oxford

>  <submitter_email>  (247) 
stephanie.wills@balliol.ox.ac.uk

>  <generation_date>  (247) 
2023-09-06

>  <method>  (247) 
fragNetMergingIt3

>  <ref_pdb>  (247) 
x1594_0A,x1052_1A

$$$$
x1594-0A-x2021-0A-159
     RDKit          3D

 22 23  0  0  0  0  0  0  0  0999 V2000
   -5.5210   -0.4370   -2.1440 C   0  0  0  0  0  0  0  0  0  0  0  0
   -5.8770   -0.8340   -0.6980 C   0  0  0  0  0  0  0  0  0  0  0  0
   -6.0090   -2.2420   -0.4850 O   0  0  0  0  0  0  0  0  0  0  0  0
   -6.6680   -2.9650   -1.5280 C   0  0  0  0  0  0  0  0  0  0  0  0
   -6.0780   -4.3570   -1.7710 C   0  0  0  0  0  0  0  0  0  0  0  0
   -7.1270   -5.2840   -1.9870 O   0  0  0  0  0  0  0  0  0  0  0  0
   -7.4970   -5.2880   -3.3660 C   0  0  0  0  0  0  0  0  0  0  0  0
   -7.6670   -6.7100   -3.8530 C   0  0  0  0  0  0  0  0  0  0  0  0
   -6.7510   -7.0710   -4.9280 N   0  0  0  0  0  0  0  0  0  0  0  0
   -5.8920   -8.1590   -4.4860 C   0  0  0  0  0  0  0  0  0  0  0  0
   -7.2530   -7.1090   -6.2840 C   0  0  0  0  0  0  0  0  0  0  0  0
   -7.4900   -8.2080   -6.7990 O   0  0  0  0  0  0  0  0  0  0  0  0
   -7.5130   -5.8660   -7.0500 C   0  0  0  0  0  0  0  0  0  0  0  0
   -6.7590   -5.3310   -8.0130 N   0  0  0  0  0  0  0  0  0  0  0  0
   -7.3570   -4.1640   -8.4590 N   0  0  0  0  0  0  0  0  0  0  0  0
   -8.4620   -4.0000   -7.7680 C   0  0  0  0  0  0  0  0  0  0  0  0
   -9.4260   -3.0540   -7.7560 C   0  0  0  0  0  0  0  0  0  0  0  0
  -10.4940   -3.1350   -6.9350 C   0  0  0  0  0  0  0  0  0  0  0  0
  -10.6460   -4.1670   -6.0810 C   0  0  0  0  0  0  0  0  0  0  0  0
  -12.1570   -4.1940   -4.9990 Br  0  0  0  0  0  0  0  0  0  0  0  0
   -9.7110   -5.1340   -6.0350 C   0  0  0  0  0  0  0  0  0  0  0  0
   -8.6120   -5.0500   -6.8790 N   0  0  0  0  0  0  0  0  0  0  0  0
  1  2  1  0
  2  3  1  0
  3  4  1  0
  4  5  1  0
  5  6  1  0
  6  7  1  0
  7  8  1  0
  8  9  1  0
  9 10  1  0
  9 11  1  0
 11 12  2  0
 11 13  1  0
 13 14  2  0
 14 15  1  0
 15 16  2  0
 16 17  1  0
 17 18  2  0
 18 19  1  0
 19 20  1  0
 19 21  2  0
 21 22  1  0
 22 13  1  0
 22 16  1  0
M  END
>  <pair>  (248) 
x1594_0A-x2021_0A

>  <sucos>  (248) 
0.4612525118243194

>  <ref_mols>  (248) 
x1594_0A,x2021_0A

>  <original SMILES>  (248) 
CCOCCOCCN(C)C(=O)c1nnc2ccc(Br)cn12

>  <cmpd_ids>  (248) 
ENAMINE:Z3546192675

>  <ref_url>  (248) 
https://github.com/stephwills/fragment_network_merges

>  <submitter_name>  (248) 
Steph Wills

>  <submitter_institution>  (248) 
University of Oxford

>  <submitter_email>  (248) 
stephanie.wills@balliol.ox.ac.uk

>  <generation_date>  (248) 
2023-09-06

>  <method>  (248) 
fragNetMergingIt3

>  <ref_pdb>  (248) 
x1594_0A,x2021_0A

$$$$
x1020-0A-x0130-0A-163
     RDKit          3D

 17 18  0  0  0  0  0  0  0  0999 V2000
   -2.2280   -7.1040    1.6070 C   0  0  0  0  0  0  0  0  0  0  0  0
   -1.8390   -8.5740    1.6310 C   0  0  1  0  0  0  0  0  0  0  0  0
   -0.6870   -8.8160    2.4830 N   0  0  0  0  0  0  0  0  0  0  0  0
   -3.1120   -9.2300    2.1180 C   0  0  0  0  0  0  0  0  0  0  0  0
   -3.2740  -10.7270    2.3030 C   0  0  0  0  0  0  0  0  0  0  0  0
   -4.4850  -11.1730    2.7500 C   0  0  0  0  0  0  0  0  0  0  0  0
   -5.5750  -10.3560    3.0460 C   0  0  0  0  0  0  0  0  0  0  0  0
   -6.6820  -11.0200    3.4870 N   0  0  0  0  0  0  0  0  0  0  0  0
   -6.5790  -12.0820    4.3290 C   0  0  0  0  0  0  0  0  0  0  0  0
   -5.7340  -12.2140    5.2140 O   0  0  0  0  0  0  0  0  0  0  0  0
   -7.6230  -13.1210    4.0690 C   0  0  1  0  0  0  0  0  0  0  0  0
   -8.9160  -12.6220    3.4600 C   0  0  0  0  0  0  0  0  0  0  0  0
   -7.1500  -14.3520    3.3220 C   0  0  0  0  0  0  0  0  0  0  0  0
   -7.7960  -14.8900    2.1360 C   0  0  0  0  0  0  0  0  0  0  0  0
   -6.5600  -14.2480    1.7810 C   0  0  0  0  0  0  0  0  0  0  0  0
   -5.4860   -8.9840    2.8940 C   0  0  0  0  0  0  0  0  0  0  0  0
   -4.2020   -8.3980    2.4100 C   0  0  0  0  0  0  0  0  0  0  0  0
  2  1  1  1
  2  3  1  0
  2  4  1  0
  4  5  2  0
  5  6  1  0
  6  7  2  0
  7  8  1  0
  8  9  1  0
  9 10  2  0
  9 11  1  0
 11 12  1  6
 11 13  1  0
 13 14  1  0
 14 15  1  0
  7 16  1  0
 16 17  2  0
 17  4  1  0
 15 13  1  0
M  END
>  <pair>  (249) 
x1020_0A-x0130_0A

>  <sucos>  (249) 
0.46259612614424805

>  <ref_mols>  (249) 
x1020_0A,x0130_0A

>  <original SMILES>  (249) 
CC(N)c1ccc(NC(=O)C(C)C2CC2)cc1

>  <cmpd_ids>  (249) 
ENAMINE:Z2392731413

>  <ref_url>  (249) 
https://github.com/stephwills/fragment_network_merges

>  <submitter_name>  (249) 
Steph Wills

>  <submitter_institution>  (249) 
University of Oxford

>  <submitter_email>  (249) 
stephanie.wills@balliol.ox.ac.uk

>  <generation_date>  (249) 
2023-09-06

>  <method>  (249) 
fragNetMergingIt3

>  <ref_pdb>  (249) 
x1020_0A,x0130_0A

$$$$
x0147-0A-x1052-1A-67
     RDKit          3D

 22 25  0  0  0  0  0  0  0  0999 V2000
   -9.8960   -5.7210   -2.5530 O   0  0  0  0  0  0  0  0  0  0  0  0
   -9.4180   -5.6170   -3.6820 C   0  0  0  0  0  0  0  0  0  0  0  0
   -7.8890   -5.8050   -3.8970 C   0  0  0  0  0  0  0  0  0  0  0  0
   -7.0860   -5.9450   -2.6200 C   0  0  0  0  0  0  0  0  0  0  0  0
   -6.8900   -4.9580   -1.6260 C   0  0  0  0  0  0  0  0  0  0  0  0
   -6.1390   -5.3940   -0.6150 N   0  0  0  0  0  0  0  0  0  0  0  0
   -5.8510   -6.6490   -0.9600 N   0  0  0  0  0  0  0  0  0  0  0  0
   -6.3760   -7.0230   -2.1210 C   0  0  0  0  0  0  0  0  0  0  0  0
   -6.0590   -8.4030   -2.4970 C   0  0  0  0  0  0  0  0  0  0  0  0
   -5.3040   -9.0050   -1.2730 C   0  0  0  0  0  0  0  0  0  0  0  0
   -5.8800   -8.8360    0.1310 C   0  0  0  0  0  0  0  0  0  0  0  0
   -5.0430   -7.5860   -0.2030 C   0  0  0  0  0  0  0  0  0  0  0  0
  -10.1670   -5.3400   -4.8330 N   0  0  0  0  0  0  0  0  0  0  0  0
   -9.7310   -4.5760   -5.8990 C   0  0  0  0  0  0  0  0  0  0  0  0
  -10.2460   -3.3930   -6.2270 N   0  0  0  0  0  0  0  0  0  0  0  0
   -9.5570   -2.8990   -7.3160 N   0  0  0  0  0  0  0  0  0  0  0  0
   -8.6520   -3.7960   -7.6100 C   0  0  0  0  0  0  0  0  0  0  0  0
   -7.6810   -3.7710   -8.6080 C   0  0  0  0  0  0  0  0  0  0  0  0
   -6.8330   -4.7380   -8.7960 N   0  0  0  0  0  0  0  0  0  0  0  0
   -6.9450   -5.8190   -7.9600 C   0  0  0  0  0  0  0  0  0  0  0  0
   -7.8450   -5.9080   -6.9750 C   0  0  0  0  0  0  0  0  0  0  0  0
   -8.7210   -4.8690   -6.7800 N   0  0  0  0  0  0  0  0  0  0  0  0
  1  2  2  0
  2  3  1  0
  3  4  1  0
  4  5  1  0
  5  6  2  0
  6  7  1  0
  7  8  1  0
  8  9  1  0
  9 10  1  0
 10 11  1  0
 11 12  1  0
  2 13  1  0
 13 14  1  0
 14 15  2  0
 15 16  1  0
 16 17  2  0
 17 18  1  0
 18 19  2  0
 19 20  1  0
 20 21  2  0
 21 22  1  0
  8  4  2  0
 22 14  1  0
 12  7  1  0
 22 17  1  0
M  END
>  <pair>  (250) 
x0147_0A-x1052_1A

>  <sucos>  (250) 
0.4629315303967631

>  <ref_mols>  (250) 
x0147_0A,x1052_1A

>  <original SMILES>  (250) 
O=C(Cc1cnn2c1CCCC2)Nc1nnc2cnccn12

>  <cmpd_ids>  (250) 
ENAMINE:Z2874422239

>  <ref_url>  (250) 
https://github.com/stephwills/fragment_network_merges

>  <submitter_name>  (250) 
Steph Wills

>  <submitter_institution>  (250) 
University of Oxford

>  <submitter_email>  (250) 
stephanie.wills@balliol.ox.ac.uk

>  <generation_date>  (250) 
2023-09-06

>  <method>  (250) 
fragNetMergingIt3

>  <ref_pdb>  (250) 
x0147_0A,x1052_1A

$$$$
x1594-0A-x2021-0A-176
     RDKit          3D

 21 22  0  0  0  0  0  0  0  0999 V2000
   -5.0470   -0.4450   -1.6230 C   0  0  0  0  0  0  0  0  0  0  0  0
   -5.9590   -1.1210   -0.6410 C   0  0  0  0  0  0  0  0  0  0  0  0
   -5.9980   -2.3450   -0.5150 O   0  0  0  0  0  0  0  0  0  0  0  0
   -6.7300   -3.0350   -1.5420 C   0  0  0  0  0  0  0  0  0  0  0  0
   -6.1200   -4.3880   -1.9580 C   0  0  0  0  0  0  0  0  0  0  0  0
   -7.0760   -5.4320   -2.2060 O   0  0  0  0  0  0  0  0  0  0  0  0
   -7.3360   -5.6800   -3.5980 C   0  0  0  0  0  0  0  0  0  0  0  0
   -6.5870   -6.8600   -4.1470 C   0  0  0  0  0  0  0  0  0  0  0  0
   -6.0900   -7.7220   -3.4340 O   0  0  0  0  0  0  0  0  0  0  0  0
   -6.4700   -6.8840   -5.5270 N   0  0  0  0  0  0  0  0  0  0  0  0
   -7.5470   -7.0280   -6.4850 C   0  0  0  0  0  0  0  0  0  0  0  0
   -7.7160   -5.7230   -7.2260 C   0  0  0  0  0  0  0  0  0  0  0  0
   -6.8660   -5.1740   -8.2240 N   0  0  0  0  0  0  0  0  0  0  0  0
   -7.4410   -3.9680   -8.5750 N   0  0  0  0  0  0  0  0  0  0  0  0
   -8.5420   -3.8010   -7.8530 C   0  0  0  0  0  0  0  0  0  0  0  0
   -9.5630   -2.7090   -7.7770 C   0  0  0  0  0  0  0  0  0  0  0  0
  -10.6000   -2.8460   -6.9230 C   0  0  0  0  0  0  0  0  0  0  0  0
  -10.7530   -4.0250   -6.0730 C   0  0  0  0  0  0  0  0  0  0  0  0
  -11.8150   -4.0860   -5.2540 C   0  0  0  0  0  0  0  0  0  0  0  0
   -9.8280   -4.9950   -6.1410 C   0  0  0  0  0  0  0  0  0  0  0  0
   -8.7510   -4.8780   -7.0100 N   0  0  0  0  0  0  0  0  0  0  0  0
  1  2  1  0
  2  3  1  0
  3  4  1  0
  4  5  1  0
  5  6  1  0
  6  7  1  0
  7  8  1  0
  8  9  2  0
  8 10  1  0
 10 11  1  0
 11 12  1  0
 12 13  2  0
 13 14  1  0
 14 15  2  0
 15 16  1  0
 16 17  2  0
 17 18  1  0
 18 19  1  0
 18 20  2  0
 20 21  1  0
 21 12  1  0
 21 15  1  0
M  END
>  <pair>  (251) 
x1594_0A-x2021_0A

>  <sucos>  (251) 
0.4630035049943549

>  <ref_mols>  (251) 
x1594_0A,x2021_0A

>  <original SMILES>  (251) 
CCOCCOCC(=O)NCc1nnc2ccc(C)cn12

>  <cmpd_ids>  (251) 
ENAMINE:Z2912224753

>  <ref_url>  (251) 
https://github.com/stephwills/fragment_network_merges

>  <submitter_name>  (251) 
Steph Wills

>  <submitter_institution>  (251) 
University of Oxford

>  <submitter_email>  (251) 
stephanie.wills@balliol.ox.ac.uk

>  <generation_date>  (251) 
2023-09-06

>  <method>  (251) 
fragNetMergingIt3

>  <ref_pdb>  (251) 
x1594_0A,x2021_0A

$$$$
x1594-0A-x1052-1A-132
     RDKit          3D

 23 25  0  0  0  0  0  0  0  0999 V2000
   -5.7630   -8.6540   -4.0820 C   0  0  0  0  0  0  0  0  0  0  0  0
   -6.8450   -8.4920   -3.1190 N   0  0  0  0  0  0  0  0  0  0  0  0
   -8.1870   -8.9350   -3.5940 C   0  0  0  0  0  0  0  0  0  0  0  0
   -8.9050   -7.8450   -4.4360 C   0  0  0  0  0  0  0  0  0  0  0  0
  -10.2050   -7.4630   -3.9200 C   0  0  0  0  0  0  0  0  0  0  0  0
  -10.5510   -7.6480   -2.7550 O   0  0  0  0  0  0  0  0  0  0  0  0
  -11.0460   -6.8690   -4.8650 N   0  0  0  0  0  0  0  0  0  0  0  0
  -11.3300   -5.4340   -4.9340 C   0  0  0  0  0  0  0  0  0  0  0  0
  -10.4160   -4.8420   -5.9440 C   0  0  0  0  0  0  0  0  0  0  0  0
  -10.5900   -3.5200   -6.4760 C   0  0  0  0  0  0  0  0  0  0  0  0
   -9.7200   -3.0290   -7.3930 C   0  0  0  0  0  0  0  0  0  0  0  0
   -8.6510   -3.7990   -7.8270 C   0  0  0  0  0  0  0  0  0  0  0  0
   -7.6720   -3.6060   -8.6760 N   0  0  0  0  0  0  0  0  0  0  0  0
   -6.9000   -4.7400   -8.6970 N   0  0  0  0  0  0  0  0  0  0  0  0
   -7.4350   -5.6150   -7.8440 C   0  0  0  0  0  0  0  0  0  0  0  0
   -8.5350   -5.0580   -7.2840 N   0  0  0  0  0  0  0  0  0  0  0  0
   -9.3820   -5.5650   -6.3800 C   0  0  0  0  0  0  0  0  0  0  0  0
   -6.7810   -7.4030   -2.2590 C   0  0  0  0  0  0  0  0  0  0  0  0
   -6.0510   -6.2480   -2.5490 C   0  0  0  0  0  0  0  0  0  0  0  0
   -6.0660   -5.1970   -1.6550 C   0  0  0  0  0  0  0  0  0  0  0  0
   -6.7400   -5.2120   -0.5030 N   0  0  0  0  0  0  0  0  0  0  0  0
   -7.4250   -6.3300   -0.2240 C   0  0  0  0  0  0  0  0  0  0  0  0
   -7.4730   -7.4210   -1.0540 C   0  0  0  0  0  0  0  0  0  0  0  0
  1  2  1  0
  2  3  1  0
  3  4  1  0
  4  5  1  0
  5  6  2  0
  5  7  1  0
  7  8  1  0
  8  9  1  0
  9 10  1  0
 10 11  2  0
 11 12  1  0
 12 13  2  0
 13 14  1  0
 14 15  2  0
 15 16  1  0
 16 17  1  0
  2 18  1  0
 18 19  2  0
 19 20  1  0
 20 21  2  0
 21 22  1  0
 22 23  2  0
 17  9  2  0
 23 18  1  0
 16 12  1  0
M  END
>  <pair>  (252) 
x1594_0A-x1052_1A

>  <sucos>  (252) 
0.46341851868706796

>  <ref_mols>  (252) 
x1594_0A,x1052_1A

>  <original SMILES>  (252) 
CN(CCC(=O)NCc1ccc2nncn2c1)c1ccncc1

>  <cmpd_ids>  (252) 
ENAMINE:Z4224103683

>  <ref_url>  (252) 
https://github.com/stephwills/fragment_network_merges

>  <submitter_name>  (252) 
Steph Wills

>  <submitter_institution>  (252) 
University of Oxford

>  <submitter_email>  (252) 
stephanie.wills@balliol.ox.ac.uk

>  <generation_date>  (252) 
2023-09-06

>  <method>  (252) 
fragNetMergingIt3

>  <ref_pdb>  (252) 
x1594_0A,x1052_1A

$$$$
x1594-0A-x2021-0A-1
     RDKit          3D

 22 23  0  0  0  0  0  0  0  0999 V2000
   -5.1010   -1.0800   -2.2650 C   0  0  0  0  0  0  0  0  0  0  0  0
   -5.8170   -1.1630   -0.9290 C   0  0  0  0  0  0  0  0  0  0  0  0
   -5.8560   -2.5450   -0.5410 O   0  0  0  0  0  0  0  0  0  0  0  0
   -6.6950   -3.3320   -1.2870 C   0  0  0  0  0  0  0  0  0  0  0  0
   -7.9070   -3.3570   -1.1560 O   0  0  0  0  0  0  0  0  0  0  0  0
   -5.8990   -4.1660   -2.2740 C   0  0  0  0  0  0  0  0  0  0  0  0
   -6.4300   -5.5940   -2.5500 C   0  0  0  0  0  0  0  0  0  0  0  0
   -7.4080   -5.7820   -3.7660 C   0  0  0  0  0  0  0  0  0  0  0  0
   -7.6510   -4.4270   -4.4000 C   0  0  0  0  0  0  0  0  0  0  0  0
   -8.7880   -6.2800   -3.3050 C   0  0  0  0  0  0  0  0  0  0  0  0
   -6.8550   -6.6770   -4.8390 N   0  0  0  0  0  0  0  0  0  0  0  0
   -7.3770   -6.9240   -6.1430 C   0  0  0  0  0  0  0  0  0  0  0  0
   -7.6110   -8.0630   -6.5390 O   0  0  0  0  0  0  0  0  0  0  0  0
   -7.6240   -5.7290   -6.9620 C   0  0  0  0  0  0  0  0  0  0  0  0
   -6.8430   -5.2420   -7.9320 N   0  0  0  0  0  0  0  0  0  0  0  0
   -7.4300   -4.0900   -8.4250 N   0  0  0  0  0  0  0  0  0  0  0  0
   -8.5480   -3.8980   -7.7550 C   0  0  0  0  0  0  0  0  0  0  0  0
   -9.5570   -2.8890   -7.7890 C   0  0  0  0  0  0  0  0  0  0  0  0
  -10.6210   -2.9730   -6.9710 C   0  0  0  0  0  0  0  0  0  0  0  0
  -10.7720   -4.0740   -6.0410 C   0  0  0  0  0  0  0  0  0  0  0  0
   -9.8200   -5.0140   -5.9930 C   0  0  0  0  0  0  0  0  0  0  0  0
   -8.7190   -4.9210   -6.8380 N   0  0  0  0  0  0  0  0  0  0  0  0
  1  2  1  0
  2  3  1  0
  3  4  1  0
  4  5  2  0
  4  6  1  0
  6  7  1  0
  7  8  1  0
  8  9  1  0
  8 10  1  0
  8 11  1  0
 11 12  1  0
 12 13  2  0
 12 14  1  0
 14 15  2  0
 15 16  1  0
 16 17  2  0
 17 18  1  0
 18 19  2  0
 19 20  1  0
 20 21  2  0
 21 22  1  0
 22 14  1  0
 22 17  1  0
M  END
>  <pair>  (253) 
x1594_0A-x2021_0A

>  <sucos>  (253) 
0.46361991370039607

>  <ref_mols>  (253) 
x1594_0A,x2021_0A

>  <original SMILES>  (253) 
CCOC(=O)CCC(C)(C)NC(=O)c1nnc2ccccn12

>  <cmpd_ids>  (253) 
ENAMINE:Z4296121996

>  <ref_url>  (253) 
https://github.com/stephwills/fragment_network_merges

>  <submitter_name>  (253) 
Steph Wills

>  <submitter_institution>  (253) 
University of Oxford

>  <submitter_email>  (253) 
stephanie.wills@balliol.ox.ac.uk

>  <generation_date>  (253) 
2023-09-06

>  <method>  (253) 
fragNetMergingIt3

>  <ref_pdb>  (253) 
x1594_0A,x2021_0A

$$$$
x1594-0A-x2021-0A-33
     RDKit          3D

 22 23  0  0  0  0  0  0  0  0999 V2000
   -8.1490   -2.1700   -1.9280 C   0  0  0  0  0  0  0  0  0  0  0  0
   -6.4450   -2.5300   -1.5650 S   0  0  0  0  0  6  0  0  0  0  0  0
   -5.5760   -1.2370   -2.4490 C   0  0  0  0  0  0  0  0  0  0  0  0
   -6.2840   -2.2440   -0.1570 O   0  0  0  0  0  0  0  0  0  0  0  0
   -6.0840   -3.8870   -2.2120 N   0  0  0  0  0  0  0  0  0  0  0  0
   -6.7980   -5.0670   -1.9100 C   0  0  0  0  0  0  0  0  0  0  0  0
   -6.9700   -5.4500   -0.7530 O   0  0  0  0  0  0  0  0  0  0  0  0
   -7.3490   -5.8630   -3.1080 C   0  0  0  0  0  0  0  0  0  0  0  0
   -6.9850   -7.2740   -3.0730 N   0  0  0  0  0  0  0  0  0  0  0  0
   -6.5510   -7.9100   -4.2000 C   0  0  0  0  0  0  0  0  0  0  0  0
   -6.2880   -9.1130   -4.2440 O   0  0  0  0  0  0  0  0  0  0  0  0
   -6.4360   -6.9850   -5.3790 C   0  0  0  0  0  0  0  0  0  0  0  0
   -7.6390   -7.3010   -6.7010 S   0  0  0  0  0  0  0  0  0  0  0  0
   -7.7580   -5.7360   -7.4330 C   0  0  0  0  0  0  0  0  0  0  0  0
   -6.9520   -5.1680   -8.3080 N   0  0  0  0  0  0  0  0  0  0  0  0
   -7.4680   -3.9190   -8.5890 N   0  0  0  0  0  0  0  0  0  0  0  0
   -8.5690   -3.7680   -7.8760 C   0  0  0  0  0  0  0  0  0  0  0  0
   -9.5150   -2.7120   -7.7430 C   0  0  0  0  0  0  0  0  0  0  0  0
  -10.5680   -2.8600   -6.9170 C   0  0  0  0  0  0  0  0  0  0  0  0
  -10.7690   -4.0790   -6.1500 C   0  0  0  0  0  0  0  0  0  0  0  0
   -9.8790   -5.0720   -6.2700 C   0  0  0  0  0  0  0  0  0  0  0  0
   -8.7940   -4.9090   -7.1260 N   0  0  0  0  0  0  0  0  0  0  0  0
  1  2  1  0
  2  3  1  0
  2  4  2  0
  2  5  2  0
  5  6  1  0
  6  7  2  0
  6  8  1  0
  8  9  1  0
  9 10  1  0
 10 11  2  0
 10 12  1  0
 12 13  1  0
 13 14  1  0
 14 15  2  0
 15 16  1  0
 16 17  2  0
 17 18  1  0
 18 19  2  0
 19 20  1  0
 20 21  2  0
 21 22  1  0
 22 14  1  0
 22 17  1  0
M  END
>  <pair>  (254) 
x1594_0A-x2021_0A

>  <sucos>  (254) 
0.46373340625908355

>  <ref_mols>  (254) 
x1594_0A,x2021_0A

>  <original SMILES>  (254) 
CS(C)(=O)=NC(=O)CNC(=O)CSc1nnc2ccccn12

>  <cmpd_ids>  (254) 
ENAMINE:PV-002530581661

>  <ref_url>  (254) 
https://github.com/stephwills/fragment_network_merges

>  <submitter_name>  (254) 
Steph Wills

>  <submitter_institution>  (254) 
University of Oxford

>  <submitter_email>  (254) 
stephanie.wills@balliol.ox.ac.uk

>  <generation_date>  (254) 
2023-09-06

>  <method>  (254) 
fragNetMergingIt3

>  <ref_pdb>  (254) 
x1594_0A,x2021_0A

$$$$
x1052-1A-x1498-0A-66
     RDKit          3D

 25 26  0  0  0  0  0  0  0  0999 V2000
   -5.9820   -8.4050    1.0670 C   0  0  0  0  0  0  0  0  0  0  0  0
   -6.2230   -7.3090    0.1210 C   0  0  0  0  0  0  0  0  0  0  0  0
   -5.6220   -6.7850   -0.9360 C   0  0  0  0  0  0  0  0  0  0  0  0
   -6.3450   -5.7050   -1.4690 C   0  0  0  0  0  0  0  0  0  0  0  0
   -5.9750   -4.9730   -2.5910 C   0  0  0  0  0  0  0  0  0  0  0  0
   -4.9160   -5.7130   -3.2170 O   0  0  0  0  0  0  0  0  0  0  0  0
   -4.4100   -6.7880   -2.3750 C   0  0  0  0  0  0  0  0  0  0  0  0
   -4.7990   -8.1480   -2.8550 C   0  0  0  0  0  0  0  0  0  0  0  0
   -5.2400   -9.0240   -2.1150 O   0  0  0  0  0  0  0  0  0  0  0  0
   -4.6080   -8.3270   -4.2040 N   0  0  0  0  0  0  0  0  0  0  0  0
   -5.6990   -8.6070   -5.1380 C   0  0  2  0  0  0  0  0  0  0  0  0
   -5.5850   -7.5790   -6.2770 C   0  0  0  0  0  0  0  0  0  0  0  0
   -7.1240   -8.6510   -4.4870 C   0  0  1  0  0  0  0  0  0  0  0  0
   -7.3040   -7.6610   -3.3370 C   0  0  0  0  0  0  0  0  0  0  0  0
   -8.1710   -8.4150   -5.4870 N   0  0  0  0  0  0  0  0  0  0  0  0
   -7.8400   -7.9810   -6.7520 C   0  0  0  0  0  0  0  0  0  0  0  0
   -7.3430   -8.7190   -7.6000 O   0  0  0  0  0  0  0  0  0  0  0  0
   -8.1070   -6.5460   -7.0880 C   0  0  0  0  0  0  0  0  0  0  0  0
   -7.3240   -5.8550   -8.0200 C   0  0  0  0  0  0  0  0  0  0  0  0
   -7.6410   -4.5330   -8.2810 C   0  0  0  0  0  0  0  0  0  0  0  0
   -8.6600   -3.8780   -7.6880 N   0  0  0  0  0  0  0  0  0  0  0  0
   -9.3960   -4.5640   -6.7930 C   0  0  0  0  0  0  0  0  0  0  0  0
   -9.1650   -5.8860   -6.4610 C   0  0  0  0  0  0  0  0  0  0  0  0
   -7.4340   -5.5350   -0.7100 N   0  0  0  0  0  0  0  0  0  0  0  0
   -7.3490   -6.5440    0.2780 O   0  0  0  0  0  0  0  0  0  0  0  0
  1  2  1  0
  2  3  2  0
  3  4  1  0
  4  5  1  0
  5  6  1  0
  6  7  1  0
  7  8  1  0
  8  9  2  0
  8 10  1  0
 10 11  1  0
 11 12  1  6
 11 13  1  0
 13 14  1  1
 13 15  1  0
 15 16  1  0
 16 17  2  0
 16 18  1  0
 18 19  2  0
 19 20  1  0
 20 21  2  0
 21 22  1  0
 22 23  2  0
  4 24  2  0
 24 25  1  0
 25  2  1  0
 23 18  1  0
M  END
>  <pair>  (255) 
x1052_1A-x1498_0A

>  <sucos>  (255) 
0.4637395423685792

>  <ref_mols>  (255) 
x1052_1A,x1498_0A

>  <original SMILES>  (255) 
Cc1cc(COCC(=O)NC(C)C(C)NC(=O)c2ccncc2)no1

>  <cmpd_ids>  (255) 
ENAMINE:PV-001047546405

>  <ref_url>  (255) 
https://github.com/stephwills/fragment_network_merges

>  <submitter_name>  (255) 
Steph Wills

>  <submitter_institution>  (255) 
University of Oxford

>  <submitter_email>  (255) 
stephanie.wills@balliol.ox.ac.uk

>  <generation_date>  (255) 
2023-09-06

>  <method>  (255) 
fragNetMergingIt3

>  <ref_pdb>  (255) 
x1052_1A,x1498_0A

$$$$
x1594-0A-x1052-1A-12
     RDKit          3D

 21 24  0  0  0  0  0  0  0  0999 V2000
   -6.0820   -5.0870   -1.2710 C   0  0  0  0  0  0  0  0  0  0  0  0
   -5.2960   -6.1810   -1.5650 C   0  0  0  0  0  0  0  0  0  0  0  0
   -6.2370   -7.5990   -1.4510 S   0  0  0  0  0  0  0  0  0  0  0  0
   -7.6080   -6.6400   -1.0370 C   0  0  0  0  0  0  0  0  0  0  0  0
   -8.9650   -7.2550   -0.7880 C   0  0  0  0  0  0  0  0  0  0  0  0
  -10.1280   -6.2350   -0.8380 C   0  0  0  0  0  0  0  0  0  0  0  0
  -10.4900   -5.7440   -2.2080 C   0  0  0  0  0  0  0  0  0  0  0  0
   -9.7200   -5.4010   -3.2050 N   0  0  0  0  0  0  0  0  0  0  0  0
  -10.6020   -5.0260   -4.1990 C   0  0  0  0  0  0  0  0  0  0  0  0
  -10.0040   -4.5920   -5.4440 C   0  0  0  0  0  0  0  0  0  0  0  0
  -10.3230   -3.3360   -6.1800 C   0  0  0  0  0  0  0  0  0  0  0  0
   -9.6470   -2.9730   -7.3000 C   0  0  0  0  0  0  0  0  0  0  0  0
   -8.6110   -3.8190   -7.7830 C   0  0  0  0  0  0  0  0  0  0  0  0
   -7.7810   -3.7530   -8.7890 N   0  0  0  0  0  0  0  0  0  0  0  0
   -6.9950   -4.8800   -8.7680 N   0  0  0  0  0  0  0  0  0  0  0  0
   -7.3560   -5.6030   -7.7500 C   0  0  0  0  0  0  0  0  0  0  0  0
   -8.3680   -4.9820   -7.0910 N   0  0  0  0  0  0  0  0  0  0  0  0
   -9.0420   -5.3640   -5.9630 C   0  0  0  0  0  0  0  0  0  0  0  0
  -11.8920   -5.1310   -3.8400 N   0  0  0  0  0  0  0  0  0  0  0  0
  -11.8180   -5.6080   -2.5180 O   0  0  0  0  0  0  0  0  0  0  0  0
   -7.3910   -5.3510   -0.9670 N   0  0  0  0  0  0  0  0  0  0  0  0
  1  2  2  0
  2  3  1  0
  3  4  1  0
  4  5  1  0
  5  6  1  0
  6  7  1  0
  7  8  2  0
  8  9  1  0
  9 10  1  0
 10 11  1  0
 11 12  2  0
 12 13  1  0
 13 14  2  0
 14 15  1  0
 15 16  2  0
 16 17  1  0
 17 18  1  0
  9 19  2  0
 19 20  1  0
  4 21  2  0
 21  1  1  0
 20  7  1  0
 18 10  2  0
 17 13  1  0
M  END
>  <pair>  (256) 
x1594_0A-x1052_1A

>  <sucos>  (256) 
0.4665322676240989

>  <ref_mols>  (256) 
x1594_0A,x1052_1A

>  <original SMILES>  (256) 
c1csc(CCc2nc(-c3ccc4nncn4c3)no2)n1

>  <cmpd_ids>  (256) 
ENAMINE:PV-003768997967

>  <ref_url>  (256) 
https://github.com/stephwills/fragment_network_merges

>  <submitter_name>  (256) 
Steph Wills

>  <submitter_institution>  (256) 
University of Oxford

>  <submitter_email>  (256) 
stephanie.wills@balliol.ox.ac.uk

>  <generation_date>  (256) 
2023-09-06

>  <method>  (256) 
fragNetMergingIt3

>  <ref_pdb>  (256) 
x1594_0A,x1052_1A

$$$$
x1594-0A-x2021-0A-107
     RDKit          3D

 21 22  0  0  0  0  0  0  0  0999 V2000
   -6.5110   -0.2310    0.5870 C   0  0  0  0  0  0  0  0  0  0  0  0
   -5.8620   -0.9160   -0.5980 C   0  0  0  0  0  0  0  0  0  0  0  0
   -5.9650   -2.3320   -0.4630 O   0  0  0  0  0  0  0  0  0  0  0  0
   -6.5110   -2.9800   -1.6170 C   0  0  0  0  0  0  0  0  0  0  0  0
   -5.9320   -4.3850   -1.8030 C   0  0  0  0  0  0  0  0  0  0  0  0
   -6.9810   -5.3300   -1.9430 O   0  0  0  0  0  0  0  0  0  0  0  0
   -7.3720   -5.4830   -3.3060 C   0  0  0  0  0  0  0  0  0  0  0  0
   -6.8610   -6.7830   -3.9420 C   0  0  0  0  0  0  0  0  0  0  0  0
   -7.6660   -7.1770   -5.1050 N   0  0  0  0  0  0  0  0  0  0  0  0
   -7.4230   -8.5330   -5.5790 C   0  0  0  0  0  0  0  0  0  0  0  0
   -8.9940   -6.7240   -5.3340 C   0  0  0  0  0  0  0  0  0  0  0  0
   -9.9830   -7.3370   -4.9370 O   0  0  0  0  0  0  0  0  0  0  0  0
   -9.2240   -5.4500   -6.0920 C   0  0  0  0  0  0  0  0  0  0  0  0
  -10.2670   -4.6370   -5.7730 C   0  0  0  0  0  0  0  0  0  0  0  0
  -10.4610   -3.3880   -6.5200 C   0  0  0  0  0  0  0  0  0  0  0  0
   -9.6260   -3.0320   -7.5140 C   0  0  0  0  0  0  0  0  0  0  0  0
   -8.5470   -3.8910   -7.8470 C   0  0  0  0  0  0  0  0  0  0  0  0
   -7.5990   -3.8220   -8.7450 N   0  0  0  0  0  0  0  0  0  0  0  0
   -6.8310   -4.9500   -8.6200 N   0  0  0  0  0  0  0  0  0  0  0  0
   -7.3090   -5.6770   -7.6570 C   0  0  0  0  0  0  0  0  0  0  0  0
   -8.3980   -5.0630   -7.1220 N   0  0  0  0  0  0  0  0  0  0  0  0
  1  2  1  0
  2  3  1  0
  3  4  1  0
  4  5  1  0
  5  6  1  0
  6  7  1  0
  7  8  1  0
  8  9  1  0
  9 10  1  0
  9 11  1  0
 11 12  2  0
 11 13  1  0
 13 14  2  0
 14 15  1  0
 15 16  2  0
 16 17  1  0
 17 18  2  0
 18 19  1  0
 19 20  2  0
 20 21  1  0
 21 13  1  0
 21 17  1  0
M  END
>  <pair>  (257) 
x1594_0A-x2021_0A

>  <sucos>  (257) 
0.4666173134385749

>  <ref_mols>  (257) 
x1594_0A,x2021_0A

>  <original SMILES>  (257) 
CCOCCOCCN(C)C(=O)c1cccc2nncn12

>  <cmpd_ids>  (257) 
ENAMINE:Z3546192818

>  <ref_url>  (257) 
https://github.com/stephwills/fragment_network_merges

>  <submitter_name>  (257) 
Steph Wills

>  <submitter_institution>  (257) 
University of Oxford

>  <submitter_email>  (257) 
stephanie.wills@balliol.ox.ac.uk

>  <generation_date>  (257) 
2023-09-06

>  <method>  (257) 
fragNetMergingIt3

>  <ref_pdb>  (257) 
x1594_0A,x2021_0A

$$$$
x1594-0A-x2021-0A-91
     RDKit          3D

 21 22  0  0  0  0  0  0  0  0999 V2000
   -5.8930   -1.1290   -0.7670 C   0  0  0  0  0  0  0  0  0  0  0  0
   -5.9350   -2.5390   -0.5080 O   0  0  0  0  0  0  0  0  0  0  0  0
   -6.7140   -3.2800   -1.3710 C   0  0  0  0  0  0  0  0  0  0  0  0
   -7.8640   -3.0070   -1.6700 O   0  0  0  0  0  0  0  0  0  0  0  0
   -5.9300   -4.4860   -1.8810 C   0  0  0  0  0  0  0  0  0  0  0  0
   -6.7930   -5.7160   -2.2460 C   0  0  0  0  0  0  0  0  0  0  0  0
   -7.8440   -5.5390   -3.3880 C   0  0  0  0  0  0  0  0  0  0  0  0
   -7.4530   -4.3540   -4.2350 C   0  0  0  0  0  0  0  0  0  0  0  0
   -9.2330   -5.2830   -2.7980 C   0  0  0  0  0  0  0  0  0  0  0  0
   -7.9430   -6.7050   -4.3000 N   0  0  0  0  0  0  0  0  0  0  0  0
   -8.9570   -6.7870   -5.2700 C   0  0  0  0  0  0  0  0  0  0  0  0
   -9.6120   -7.7960   -5.5040 O   0  0  0  0  0  0  0  0  0  0  0  0
   -9.2090   -5.5150   -6.0480 C   0  0  0  0  0  0  0  0  0  0  0  0
  -10.2690   -4.7170   -5.7350 C   0  0  0  0  0  0  0  0  0  0  0  0
  -10.4910   -3.4740   -6.4850 C   0  0  0  0  0  0  0  0  0  0  0  0
   -9.6680   -3.0960   -7.4810 C   0  0  0  0  0  0  0  0  0  0  0  0
   -8.5710   -3.9290   -7.8140 C   0  0  0  0  0  0  0  0  0  0  0  0
   -7.6260   -3.8340   -8.7160 N   0  0  0  0  0  0  0  0  0  0  0  0
   -6.8290   -4.9420   -8.5940 N   0  0  0  0  0  0  0  0  0  0  0  0
   -7.2890   -5.6820   -7.6300 C   0  0  0  0  0  0  0  0  0  0  0  0
   -8.3920   -5.1000   -7.0870 N   0  0  0  0  0  0  0  0  0  0  0  0
  1  2  1  0
  2  3  1  0
  3  4  2  0
  3  5  1  0
  5  6  1  0
  6  7  1  0
  7  8  1  0
  7  9  1  0
  7 10  1  0
 10 11  1  0
 11 12  2  0
 11 13  1  0
 13 14  2  0
 14 15  1  0
 15 16  2  0
 16 17  1  0
 17 18  2  0
 18 19  1  0
 19 20  2  0
 20 21  1  0
 21 13  1  0
 21 17  1  0
M  END
>  <pair>  (258) 
x1594_0A-x2021_0A

>  <sucos>  (258) 
0.4680726243527365

>  <ref_mols>  (258) 
x1594_0A,x2021_0A

>  <original SMILES>  (258) 
COC(=O)CCC(C)(C)NC(=O)c1cccc2nncn12

>  <cmpd_ids>  (258) 
ENAMINE:Z3473386774

>  <ref_url>  (258) 
https://github.com/stephwills/fragment_network_merges

>  <submitter_name>  (258) 
Steph Wills

>  <submitter_institution>  (258) 
University of Oxford

>  <submitter_email>  (258) 
stephanie.wills@balliol.ox.ac.uk

>  <generation_date>  (258) 
2023-09-06

>  <method>  (258) 
fragNetMergingIt3

>  <ref_pdb>  (258) 
x1594_0A,x2021_0A

$$$$
x1594-0A-x1052-1A-39
     RDKit          3D

 21 23  0  0  0  0  0  0  0  0999 V2000
   -6.6450   -3.5430   -2.8310 C   0  0  0  0  0  0  0  0  0  0  0  0
   -7.5310   -4.3940   -3.7720 C   0  0  0  0  0  0  0  0  0  0  0  0
   -8.9540   -4.3760   -3.2020 C   0  0  0  0  0  0  0  0  0  0  0  0
   -6.9430   -5.8290   -3.8940 C   0  0  2  0  0  0  0  0  0  0  0  0
   -7.7160   -6.7360   -4.7930 N   0  0  0  0  0  0  0  0  0  0  0  0
   -7.2740   -6.8390   -6.2080 C   0  0  0  0  0  0  0  0  0  0  0  0
   -7.5870   -5.6220   -7.0400 C   0  0  0  0  0  0  0  0  0  0  0  0
   -6.8720   -5.1080   -8.0380 N   0  0  0  0  0  0  0  0  0  0  0  0
   -7.5180   -3.9820   -8.4990 N   0  0  0  0  0  0  0  0  0  0  0  0
   -8.6080   -3.8280   -7.7800 C   0  0  0  0  0  0  0  0  0  0  0  0
   -9.6500   -2.8550   -7.7740 C   0  0  0  0  0  0  0  0  0  0  0  0
  -10.6720   -2.9720   -6.9110 C   0  0  0  0  0  0  0  0  0  0  0  0
  -10.7420   -4.0760   -5.9710 C   0  0  0  0  0  0  0  0  0  0  0  0
   -9.7570   -4.9840   -5.9610 C   0  0  0  0  0  0  0  0  0  0  0  0
   -8.7020   -4.8540   -6.8550 N   0  0  0  0  0  0  0  0  0  0  0  0
   -6.5590   -6.3910   -2.5470 C   0  0  0  0  0  0  0  0  0  0  0  0
   -5.5660   -7.3680   -2.4040 C   0  0  0  0  0  0  0  0  0  0  0  0
   -5.2590   -7.8550   -1.1480 C   0  0  0  0  0  0  0  0  0  0  0  0
   -5.9620   -7.3420   -0.0780 C   0  0  0  0  0  0  0  0  0  0  0  0
   -6.9210   -6.3960   -0.1750 N   0  0  0  0  0  0  0  0  0  0  0  0
   -7.1870   -5.9500   -1.4020 C   0  0  0  0  0  0  0  0  0  0  0  0
  1  2  1  0
  2  3  1  0
  2  4  1  0
  4  5  1  1
  5  6  1  0
  6  7  1  0
  7  8  2  0
  8  9  1  0
  9 10  2  0
 10 11  1  0
 11 12  2  0
 12 13  1  0
 13 14  2  0
 14 15  1  0
  4 16  1  0
 16 17  2  0
 17 18  1  0
 18 19  2  0
 19 20  1  0
 20 21  2  0
 15  7  1  0
 21 16  1  0
 15 10  1  0
M  END
>  <pair>  (259) 
x1594_0A-x1052_1A

>  <sucos>  (259) 
0.46854285522989314

>  <ref_mols>  (259) 
x1594_0A,x1052_1A

>  <original SMILES>  (259) 
CC(C)C(NCc1nnc2ccccn12)c1cccnc1

>  <cmpd_ids>  (259) 
ENAMINE:Z1680686341

>  <ref_url>  (259) 
https://github.com/stephwills/fragment_network_merges

>  <submitter_name>  (259) 
Steph Wills

>  <submitter_institution>  (259) 
University of Oxford

>  <submitter_email>  (259) 
stephanie.wills@balliol.ox.ac.uk

>  <generation_date>  (259) 
2023-09-06

>  <method>  (259) 
fragNetMergingIt3

>  <ref_pdb>  (259) 
x1594_0A,x1052_1A

$$$$
x1052-1A-x1140-0A-23
     RDKit          3D

 22 25  0  0  0  0  0  0  0  0999 V2000
   -5.3320   -7.0500   -4.8560 O   0  0  0  0  0  0  0  0  0  0  0  0
   -6.3170   -7.2930   -4.2190 C   0  0  0  0  0  0  0  0  0  0  0  0
   -7.4830   -6.5680   -4.2410 O   0  0  0  0  0  0  0  0  0  0  0  0
   -7.4180   -5.3500   -3.4830 C   0  0  0  0  0  0  0  0  0  0  0  0
   -6.7710   -5.6680   -2.1950 C   0  0  0  0  0  0  0  0  0  0  0  0
   -5.3970   -5.8660   -1.9650 C   0  0  0  0  0  0  0  0  0  0  0  0
   -5.3410   -6.1620   -0.6430 C   0  0  0  0  0  0  0  0  0  0  0  0
   -6.5900   -6.1390   -0.1090 O   0  0  0  0  0  0  0  0  0  0  0  0
   -7.5010   -5.8180   -1.0830 N   0  0  0  0  0  0  0  0  0  0  0  0
   -6.3700   -8.4920   -3.3270 C   0  0  0  0  0  0  0  0  0  0  0  0
   -5.5710   -8.4980   -2.0000 C   0  0  0  0  0  0  0  0  0  0  0  0
   -6.1760   -9.1610   -0.9260 C   0  0  0  0  0  0  0  0  0  0  0  0
   -5.5860   -9.2660    0.3200 C   0  0  0  0  0  0  0  0  0  0  0  0
   -4.3510   -8.7050    0.5500 C   0  0  0  0  0  0  0  0  0  0  0  0
   -3.6850   -8.0220   -0.4670 C   0  0  0  0  0  0  0  0  0  0  0  0
   -4.2850   -7.9130   -1.7480 C   0  0  0  0  0  0  0  0  0  0  0  0
   -2.4530   -7.4510   -0.2590 O   0  0  0  0  0  0  0  0  0  0  0  0
   -1.9640   -7.5670    1.0990 C   0  0  0  0  0  0  0  0  0  0  0  0
   -3.0590   -7.7320    2.1290 C   0  0  0  0  0  0  0  0  0  0  0  0
   -3.8480   -8.8640    1.8020 O   0  0  0  0  0  0  0  0  0  0  0  0
   -6.5720   -9.8450   -4.0130 C   0  0  0  0  0  0  0  0  0  0  0  0
   -7.7240   -9.2110   -3.3090 C   0  0  0  0  0  0  0  0  0  0  0  0
  1  2  2  0
  2  3  1  0
  3  4  1  0
  4  5  1  0
  5  6  1  0
  6  7  2  0
  7  8  1  0
  8  9  1  0
  2 10  1  0
 10 11  1  0
 11 12  2  0
 12 13  1  0
 13 14  2  0
 14 15  1  0
 15 16  2  0
 15 17  1  0
 17 18  1  0
 18 19  1  0
 19 20  1  0
 10 21  1  0
 21 22  1  0
  9  5  2  0
 22 10  1  0
 16 11  1  0
 20 14  1  0
M  END
>  <pair>  (260) 
x1052_1A-x1140_0A

>  <sucos>  (260) 
0.4686605902927002

>  <ref_mols>  (260) 
x1052_1A,x1140_0A

>  <original SMILES>  (260) 
O=C(OCc1ccon1)C1(c2ccc3c(c2)OCCO3)CC1

>  <cmpd_ids>  (260) 
ENAMINE:Z2922906996

>  <ref_url>  (260) 
https://github.com/stephwills/fragment_network_merges

>  <submitter_name>  (260) 
Steph Wills

>  <submitter_institution>  (260) 
University of Oxford

>  <submitter_email>  (260) 
stephanie.wills@balliol.ox.ac.uk

>  <generation_date>  (260) 
2023-09-06

>  <method>  (260) 
fragNetMergingIt3

>  <ref_pdb>  (260) 
x1052_1A,x1140_0A

$$$$
x1071-0A-x1020-0A-70
     RDKit          3D

 23 24  0  0  0  0  0  0  0  0999 V2000
   -6.2900  -13.6330    3.9270 C   0  0  0  0  0  0  0  0  0  0  0  0
   -6.8190  -12.5270    3.0240 C   0  0  0  0  0  0  0  0  0  0  0  0
   -8.3110  -12.2790    3.2420 C   0  0  0  0  0  0  0  0  0  0  0  0
   -6.5840  -12.9220    1.5550 C   0  0  0  0  0  0  0  0  0  0  0  0
   -6.0540  -11.2190    3.3150 C   0  0  0  0  0  0  0  0  0  0  0  0
   -5.2060  -11.1480    4.2080 O   0  0  0  0  0  0  0  0  0  0  0  0
   -6.4040  -10.1140    2.5160 N   0  0  0  0  0  0  0  0  0  0  0  0
   -5.8130   -9.7720    1.1740 C   0  0  2  0  0  0  0  0  0  0  0  0
   -5.3040   -8.3090    1.0490 C   0  0  0  0  0  0  0  0  0  0  0  0
   -5.9920   -8.1310   -0.3300 C   0  0  2  0  0  0  0  0  0  0  0  0
   -5.1130   -8.2910   -1.5770 C   0  0  0  0  0  0  0  0  0  0  0  0
   -4.9290   -6.8640   -2.1070 C   0  0  0  0  0  0  0  0  0  0  0  0
   -6.0700   -6.0860   -1.6290 N   0  0  0  0  0  0  0  0  0  0  0  0
   -6.4810   -4.9050   -2.3220 C   0  0  0  0  0  0  0  0  0  0  0  0
   -6.5920   -4.8580   -3.5570 O   0  0  0  0  0  0  0  0  0  0  0  0
   -6.8100   -3.6570   -1.4790 C   0  0  0  0  0  0  0  0  0  0  0  0
   -6.4780   -2.3780   -2.1570 N   0  0  0  0  0  0  0  0  0  0  0  0
   -6.2340   -1.0160   -1.2130 S   0  0  0  0  0  6  0  0  0  0  0  0
   -7.8410   -0.2510   -1.1900 C   0  0  0  0  0  0  0  0  0  0  0  0
   -5.3500   -0.1540   -1.9650 O   0  0  0  0  0  0  0  0  0  0  0  0
   -5.9260   -1.4220    0.1430 O   0  0  0  0  0  0  0  0  0  0  0  0
   -6.8350   -6.8490   -0.6210 C   0  0  0  0  0  0  0  0  0  0  0  0
   -6.8380   -9.4030    0.0610 C   0  0  0  0  0  0  0  0  0  0  0  0
  1  2  1  0
  2  3  1  0
  2  4  1  0
  2  5  1  0
  5  6  2  0
  5  7  1  0
  8  7  1  1
  8  9  1  0
 10  9  1  1
 10 11  1  0
 11 12  1  0
 12 13  1  0
 13 14  1  0
 14 15  2  0
 14 16  1  0
 16 17  1  0
 17 18  1  0
 18 19  1  0
 18 20  2  0
 18 21  2  0
 13 22  1  0
 10 23  1  0
 23  8  1  0
 22 10  1  0
M  END
>  <pair>  (261) 
x1071_0A-x1020_0A

>  <sucos>  (261) 
0.4754371808322678

>  <ref_mols>  (261) 
x1071_0A,x1020_0A

>  <original SMILES>  (261) 
CC(C)(C)C(=O)NC1CC2(CCN(C(=O)CNS(C)(=O)=O)C2)C1

>  <cmpd_ids>  (261) 
ENAMINE:PV-002909164381

>  <ref_url>  (261) 
https://github.com/stephwills/fragment_network_merges

>  <submitter_name>  (261) 
Steph Wills

>  <submitter_institution>  (261) 
University of Oxford

>  <submitter_email>  (261) 
stephanie.wills@balliol.ox.ac.uk

>  <generation_date>  (261) 
2023-09-06

>  <method>  (261) 
fragNetMergingIt3

>  <ref_pdb>  (261) 
x1071_0A,x1020_0A

$$$$
x1594-0A-x2021-0A-104
     RDKit          3D

 22 23  0  0  0  0  0  0  0  0999 V2000
   -5.7380   -0.8340   -0.5440 C   0  0  0  0  0  0  0  0  0  0  0  0
   -5.9780   -2.2320   -0.4090 O   0  0  0  0  0  0  0  0  0  0  0  0
   -6.5490   -2.8070   -1.5890 C   0  0  0  0  0  0  0  0  0  0  0  0
   -6.0890   -4.2480   -1.8170 C   0  0  0  0  0  0  0  0  0  0  0  0
   -7.2160   -5.1080   -1.8950 O   0  0  0  0  0  0  0  0  0  0  0  0
   -7.2280   -5.7920   -3.1380 C   0  0  0  0  0  0  0  0  0  0  0  0
   -6.2090   -6.8870   -3.1190 C   0  0  0  0  0  0  0  0  0  0  0  0
   -6.0490   -7.8010   -4.0650 C   0  0  0  0  0  0  0  0  0  0  0  0
   -6.8820   -7.8420   -5.2820 C   0  0  0  0  0  0  0  0  0  0  0  0
   -7.7370   -8.7110   -5.4350 O   0  0  0  0  0  0  0  0  0  0  0  0
   -6.6060   -6.8530   -6.1780 N   0  0  0  0  0  0  0  0  0  0  0  0
   -7.3200   -6.7780   -7.4210 C   0  0  2  0  0  0  0  0  0  0  0  0
   -6.4790   -7.1130   -8.6480 C   0  0  0  0  0  0  0  0  0  0  0  0
   -7.7300   -5.4130   -7.7300 C   0  0  0  0  0  0  0  0  0  0  0  0
   -7.0670   -4.6380   -8.5510 N   0  0  0  0  0  0  0  0  0  0  0  0
   -7.7260   -3.4590   -8.6290 N   0  0  0  0  0  0  0  0  0  0  0  0
   -8.7760   -3.5290   -7.8560 C   0  0  0  0  0  0  0  0  0  0  0  0
   -9.7990   -2.6060   -7.5610 C   0  0  0  0  0  0  0  0  0  0  0  0
  -10.7810   -2.9530   -6.7110 C   0  0  0  0  0  0  0  0  0  0  0  0
  -10.8120   -4.2690   -6.0870 C   0  0  0  0  0  0  0  0  0  0  0  0
   -9.8380   -5.1470   -6.3680 C   0  0  0  0  0  0  0  0  0  0  0  0
   -8.8300   -4.7680   -7.2480 N   0  0  0  0  0  0  0  0  0  0  0  0
  1  2  1  0
  2  3  1  0
  3  4  1  0
  4  5  1  0
  5  6  1  0
  6  7  1  0
  7  8  2  3
  8  9  1  0
  9 10  2  0
  9 11  1  0
 11 12  1  0
 12 13  1  6
 12 14  1  0
 14 15  2  0
 15 16  1  0
 16 17  2  0
 17 18  1  0
 18 19  2  0
 19 20  1  0
 20 21  2  0
 21 22  1  0
 22 14  1  0
 22 17  1  0
M  END
>  <pair>  (262) 
x1594_0A-x2021_0A

>  <sucos>  (262) 
0.4763264670148428

>  <ref_mols>  (262) 
x1594_0A,x2021_0A

>  <original SMILES>  (262) 
COCCOCC=CC(=O)NC(C)c1nnc2ccccn12

>  <cmpd_ids>  (262) 
ENAMINE:Z3467017714

>  <ref_url>  (262) 
https://github.com/stephwills/fragment_network_merges

>  <submitter_name>  (262) 
Steph Wills

>  <submitter_institution>  (262) 
University of Oxford

>  <submitter_email>  (262) 
stephanie.wills@balliol.ox.ac.uk

>  <generation_date>  (262) 
2023-09-06

>  <method>  (262) 
fragNetMergingIt3

>  <ref_pdb>  (262) 
x1594_0A,x2021_0A

$$$$
x1052-1A-x1594-0A-156
     RDKit          3D

 22 25  0  0  0  0  0  0  0  0999 V2000
   -2.9440   -7.7190   -1.8670 O   0  0  0  0  0  0  0  0  0  0  0  0
   -3.7290   -7.3920   -0.7160 C   0  0  0  0  0  0  0  0  0  0  0  0
   -5.0150   -6.8350   -1.1610 C   0  0  0  0  0  0  0  0  0  0  0  0
   -5.5060   -6.5250   -2.3840 C   0  0  0  0  0  0  0  0  0  0  0  0
   -6.8170   -6.0460   -2.1530 C   0  0  0  0  0  0  0  0  0  0  0  0
   -7.8150   -5.6110   -3.0960 C   0  0  0  0  0  0  0  0  0  0  0  0
   -7.3240   -5.8980   -4.5110 C   0  0  0  0  0  0  0  0  0  0  0  0
   -8.2400   -6.9210   -5.1780 C   0  0  0  0  0  0  0  0  0  0  0  0
   -9.5400   -6.2680   -5.3210 N   0  0  0  0  0  0  0  0  0  0  0  0
   -9.5930   -5.1070   -6.1200 C   0  0  0  0  0  0  0  0  0  0  0  0
  -10.5840   -4.1340   -5.9790 C   0  0  0  0  0  0  0  0  0  0  0  0
  -10.5630   -2.9130   -6.8140 C   0  0  0  0  0  0  0  0  0  0  0  0
   -9.5610   -2.7310   -7.7400 C   0  0  0  0  0  0  0  0  0  0  0  0
   -8.5700   -3.7110   -7.9100 C   0  0  0  0  0  0  0  0  0  0  0  0
   -7.5370   -3.7800   -8.7260 N   0  0  0  0  0  0  0  0  0  0  0  0
   -6.8900   -4.9270   -8.5080 N   0  0  0  0  0  0  0  0  0  0  0  0
   -7.5190   -5.5720   -7.5540 C   0  0  0  0  0  0  0  0  0  0  0  0
   -8.6070   -4.8530   -7.1170 N   0  0  0  0  0  0  0  0  0  0  0  0
  -10.1700   -6.1240   -3.9800 C   0  0  0  0  0  0  0  0  0  0  0  0
   -9.1490   -6.3560   -2.8540 C   0  0  0  0  0  0  0  0  0  0  0  0
   -7.0860   -6.0510   -0.8410 N   0  0  0  0  0  0  0  0  0  0  0  0
   -5.9580   -6.5520   -0.2220 O   0  0  0  0  0  0  0  0  0  0  0  0
  1  2  1  0
  2  3  1  0
  3  4  2  0
  4  5  1  0
  5  6  1  0
  6  7  1  0
  7  8  1  0
  8  9  1  0
  9 10  1  0
 10 11  2  0
 11 12  1  0
 12 13  2  0
 13 14  1  0
 14 15  2  0
 15 16  1  0
 16 17  2  0
 17 18  1  0
  9 19  1  0
 19 20  1  0
  5 21  2  0
 21 22  1  0
 22  3  1  0
 20  6  1  0
 18 10  1  0
 18 14  1  0
M  END
>  <pair>  (263) 
x1052_1A-x1594_0A

>  <sucos>  (263) 
0.47785452121267596

>  <ref_mols>  (263) 
x1052_1A,x1594_0A

>  <original SMILES>  (263) 
OCc1cc(C2CCN(c3cccc4nncn34)CC2)no1

>  <cmpd_ids>  (263) 
ENAMINE:Z3561686360

>  <ref_url>  (263) 
https://github.com/stephwills/fragment_network_merges

>  <submitter_name>  (263) 
Steph Wills

>  <submitter_institution>  (263) 
University of Oxford

>  <submitter_email>  (263) 
stephanie.wills@balliol.ox.ac.uk

>  <generation_date>  (263) 
2023-09-06

>  <method>  (263) 
fragNetMergingIt3

>  <ref_pdb>  (263) 
x1052_1A,x1594_0A

$$$$
x1594-0A-x1052-1A-5
     RDKit          3D

 21 23  0  0  0  0  0  0  0  0999 V2000
   -9.4460   -4.2420   -2.6630 C   0  0  0  0  0  0  0  0  0  0  0  0
   -9.5520   -5.7480   -2.8990 C   0  0  1  0  0  0  0  0  0  0  0  0
   -9.8240   -6.4780   -1.5630 C   0  0  0  0  0  0  0  0  0  0  0  0
   -8.6470   -7.3200   -1.0150 C   0  0  0  0  0  0  0  0  0  0  0  0
   -7.3520   -6.6800   -1.1950 N   0  0  0  0  0  0  0  0  0  0  0  0
   -6.1800   -7.2550   -1.6040 C   0  0  0  0  0  0  0  0  0  0  0  0
   -5.2580   -6.2450   -1.6370 C   0  0  0  0  0  0  0  0  0  0  0  0
   -5.9740   -5.1050   -1.2250 C   0  0  0  0  0  0  0  0  0  0  0  0
   -7.2440   -5.3660   -0.9510 N   0  0  0  0  0  0  0  0  0  0  0  0
  -10.6480   -5.9400   -3.8430 O   0  0  0  0  0  0  0  0  0  0  0  0
  -11.1670   -4.8610   -4.5180 C   0  0  0  0  0  0  0  0  0  0  0  0
  -12.2060   -4.2840   -4.2240 O   0  0  0  0  0  0  0  0  0  0  0  0
  -10.3050   -4.4660   -5.6820 C   0  0  0  0  0  0  0  0  0  0  0  0
  -10.4310   -3.2080   -6.4400 C   0  0  0  0  0  0  0  0  0  0  0  0
   -9.5960   -2.9090   -7.4610 C   0  0  0  0  0  0  0  0  0  0  0  0
   -8.5720   -3.8300   -7.8130 C   0  0  0  0  0  0  0  0  0  0  0  0
   -7.6280   -3.8240   -8.7210 N   0  0  0  0  0  0  0  0  0  0  0  0
   -6.9220   -4.9980   -8.6030 N   0  0  0  0  0  0  0  0  0  0  0  0
   -7.4460   -5.6910   -7.6270 C   0  0  0  0  0  0  0  0  0  0  0  0
   -8.4930   -5.0040   -7.0880 N   0  0  0  0  0  0  0  0  0  0  0  0
   -9.3390   -5.3300   -6.0430 C   0  0  0  0  0  0  0  0  0  0  0  0
  2  1  1  1
  2  3  1  0
  3  4  1  0
  4  5  1  0
  5  6  1  0
  6  7  2  0
  7  8  1  0
  8  9  2  0
  2 10  1  0
 10 11  1  0
 11 12  2  0
 11 13  1  0
 13 14  1  0
 14 15  2  0
 15 16  1  0
 16 17  2  0
 17 18  1  0
 18 19  2  0
 19 20  1  0
 20 21  1  0
  9  5  1  0
 21 13  2  0
 20 16  1  0
M  END
>  <pair>  (264) 
x1594_0A-x1052_1A

>  <sucos>  (264) 
0.47806905671464756

>  <ref_mols>  (264) 
x1594_0A,x1052_1A

>  <original SMILES>  (264) 
CC(CCn1cccn1)OC(=O)c1ccc2nncn2c1

>  <cmpd_ids>  (264) 
ENAMINE:Z1624330954

>  <ref_url>  (264) 
https://github.com/stephwills/fragment_network_merges

>  <submitter_name>  (264) 
Steph Wills

>  <submitter_institution>  (264) 
University of Oxford

>  <submitter_email>  (264) 
stephanie.wills@balliol.ox.ac.uk

>  <generation_date>  (264) 
2023-09-06

>  <method>  (264) 
fragNetMergingIt3

>  <ref_pdb>  (264) 
x1594_0A,x1052_1A

$$$$
x1594-0A-x1052-1A-197
     RDKit          3D

 23 25  0  0  0  0  0  0  0  0999 V2000
   -9.0640   -5.7340   -3.4820 O   0  0  0  0  0  0  0  0  0  0  0  0
   -8.5210   -4.8650   -4.1700 C   0  0  0  0  0  0  0  0  0  0  0  0
   -7.3750   -4.2070   -3.8440 O   0  0  0  0  0  0  0  0  0  0  0  0
   -7.2820   -4.0050   -2.4270 C   0  0  1  0  0  0  0  0  0  0  0  0
   -6.6780   -5.2270   -1.8000 C   0  0  0  0  0  0  0  0  0  0  0  0
   -5.5950   -5.9040   -2.2550 C   0  0  0  0  0  0  0  0  0  0  0  0
   -5.1920   -7.0460   -1.5120 C   0  0  0  0  0  0  0  0  0  0  0  0
   -5.8910   -7.4040   -0.4130 C   0  0  0  0  0  0  0  0  0  0  0  0
   -6.9620   -6.7370    0.0320 N   0  0  0  0  0  0  0  0  0  0  0  0
   -7.3160   -5.6700   -0.6760 C   0  0  0  0  0  0  0  0  0  0  0  0
   -6.7020   -2.6400   -1.9910 C   0  0  0  0  0  0  0  0  0  0  0  0
   -5.6790   -2.1990   -2.7570 F   0  0  0  0  0  0  0  0  0  0  0  0
   -6.2640   -2.6690   -0.7210 F   0  0  0  0  0  0  0  0  0  0  0  0
   -7.6570   -1.6810   -1.9750 F   0  0  0  0  0  0  0  0  0  0  0  0
   -9.0380   -4.4100   -5.4660 C   0  0  0  0  0  0  0  0  0  0  0  0
  -10.3480   -3.7460   -5.5380 C   0  0  0  0  0  0  0  0  0  0  0  0
  -10.8500   -3.2740   -6.8190 C   0  0  0  0  0  0  0  0  0  0  0  0
  -10.0180   -3.4770   -7.9050 C   0  0  0  0  0  0  0  0  0  0  0  0
   -8.7740   -4.1210   -7.7830 N   0  0  0  0  0  0  0  0  0  0  0  0
   -7.7850   -4.4400   -8.6780 C   0  0  0  0  0  0  0  0  0  0  0  0
   -6.8060   -5.0620   -8.1440 N   0  0  0  0  0  0  0  0  0  0  0  0
   -7.1430   -5.1540   -6.8490 N   0  0  0  0  0  0  0  0  0  0  0  0
   -8.2890   -4.5920   -6.6280 C   0  0  0  0  0  0  0  0  0  0  0  0
  1  2  2  0
  2  3  1  0
  4  3  1  6
  4  5  1  0
  5  6  2  0
  6  7  1  0
  7  8  2  0
  8  9  1  0
  9 10  2  0
  4 11  1  0
 11 12  1  0
 11 13  1  0
 11 14  1  0
  2 15  1  0
 15 16  2  0
 16 17  1  0
 17 18  2  0
 18 19  1  0
 19 20  1  0
 20 21  2  0
 21 22  1  0
 22 23  2  0
 10  5  1  0
 23 15  1  0
 23 19  1  0
M  END
>  <pair>  (265) 
x1594_0A-x1052_1A

>  <sucos>  (265) 
0.47808086103513003

>  <ref_mols>  (265) 
x1594_0A,x1052_1A

>  <original SMILES>  (265) 
O=C(OC(c1cccnc1)C(F)(F)F)c1cccn2cnnc12

>  <cmpd_ids>  (265) 
ENAMINE:PV-003136527681

>  <ref_url>  (265) 
https://github.com/stephwills/fragment_network_merges

>  <submitter_name>  (265) 
Steph Wills

>  <submitter_institution>  (265) 
University of Oxford

>  <submitter_email>  (265) 
stephanie.wills@balliol.ox.ac.uk

>  <generation_date>  (265) 
2023-09-06

>  <method>  (265) 
fragNetMergingIt3

>  <ref_pdb>  (265) 
x1594_0A,x1052_1A

$$$$
x1594-0A-x1052-1A-27
     RDKit          3D

 22 24  0  0  0  0  0  0  0  0999 V2000
   -7.2610   -6.9190   -7.3020 C   0  0  0  0  0  0  0  0  0  0  0  0
   -7.5760   -5.5660   -7.7390 C   0  0  0  0  0  0  0  0  0  0  0  0
   -6.9370   -4.8300   -8.6170 N   0  0  0  0  0  0  0  0  0  0  0  0
   -7.6040   -3.6340   -8.7040 N   0  0  0  0  0  0  0  0  0  0  0  0
   -8.6260   -3.6730   -7.8780 C   0  0  0  0  0  0  0  0  0  0  0  0
   -9.6560   -2.7520   -7.5410 C   0  0  0  0  0  0  0  0  0  0  0  0
  -10.5850   -3.1010   -6.6200 C   0  0  0  0  0  0  0  0  0  0  0  0
  -10.5500   -4.4170   -5.9650 C   0  0  0  0  0  0  0  0  0  0  0  0
  -11.5200   -4.8960   -4.9270 C   0  0  0  0  0  0  0  0  0  0  0  0
  -12.7120   -5.0300   -5.1820 O   0  0  0  0  0  0  0  0  0  0  0  0
  -10.9520   -5.1640   -3.6910 N   0  0  0  0  0  0  0  0  0  0  0  0
  -10.7080   -6.5240   -3.2080 C   0  0  0  0  0  0  0  0  0  0  0  0
   -9.2170   -6.9240   -3.2430 C   0  0  2  0  0  0  0  0  0  0  0  0
   -9.0110   -8.0520   -4.2650 C   0  0  0  0  0  0  0  0  0  0  0  0
   -8.6760   -7.3270   -1.8450 C   0  0  0  0  0  0  0  0  0  0  0  0
   -7.3630   -6.7510   -1.6030 N   0  0  0  0  0  0  0  0  0  0  0  0
   -6.1410   -7.3390   -1.7880 C   0  0  0  0  0  0  0  0  0  0  0  0
   -5.2230   -6.3880   -1.4550 C   0  0  0  0  0  0  0  0  0  0  0  0
   -5.9900   -5.2720   -1.0800 C   0  0  0  0  0  0  0  0  0  0  0  0
   -7.2910   -5.4880   -1.1610 N   0  0  0  0  0  0  0  0  0  0  0  0
   -9.5790   -5.2710   -6.3030 C   0  0  0  0  0  0  0  0  0  0  0  0
   -8.6430   -4.8910   -7.2410 N   0  0  0  0  0  0  0  0  0  0  0  0
  1  2  1  0
  2  3  2  0
  3  4  1  0
  4  5  2  0
  5  6  1  0
  6  7  2  0
  7  8  1  0
  8  9  1  0
  9 10  2  0
  9 11  1  0
 11 12  1  0
 12 13  1  0
 13 14  1  6
 13 15  1  0
 15 16  1  0
 16 17  1  0
 17 18  2  0
 18 19  1  0
 19 20  2  0
  8 21  2  0
 21 22  1  0
 22  2  1  0
 22  5  1  0
 20 16  1  0
M  END
>  <pair>  (266) 
x1594_0A-x1052_1A

>  <sucos>  (266) 
0.4812327703988952

>  <ref_mols>  (266) 
x1594_0A,x1052_1A

>  <original SMILES>  (266) 
Cc1nnc2ccc(C(=O)NCC(C)Cn3cccn3)cn12

>  <cmpd_ids>  (266) 
ENAMINE:Z979395704

>  <ref_url>  (266) 
https://github.com/stephwills/fragment_network_merges

>  <submitter_name>  (266) 
Steph Wills

>  <submitter_institution>  (266) 
University of Oxford

>  <submitter_email>  (266) 
stephanie.wills@balliol.ox.ac.uk

>  <generation_date>  (266) 
2023-09-06

>  <method>  (266) 
fragNetMergingIt3

>  <ref_pdb>  (266) 
x1594_0A,x1052_1A

$$$$
x1020-0A-x0130-0A-135
     RDKit          3D

 22 24  0  0  0  0  0  0  0  0999 V2000
   -1.0300   -8.9400    2.2220 N   0  0  0  0  0  0  0  0  0  0  0  0
   -1.9820   -7.8380    2.1450 C   0  0  0  0  0  0  0  0  0  0  0  0
   -3.1860   -8.1650    1.3020 C   0  0  0  0  0  0  0  0  0  0  0  0
   -4.2230   -8.8340    1.9600 C   0  0  1  0  0  0  0  0  0  0  0  0
   -5.1910   -9.5170    1.2760 C   0  0  0  0  0  0  0  0  0  0  0  0
   -5.2800  -10.7270    1.8990 C   0  0  2  0  0  0  0  0  0  0  0  0
   -6.3550  -10.8240    2.8910 N   0  0  0  0  0  0  0  0  0  0  0  0
   -6.2550  -11.7480    4.0490 C   0  0  0  0  0  0  0  0  0  0  0  0
   -5.3930  -11.6570    4.9150 O   0  0  0  0  0  0  0  0  0  0  0  0
   -7.2550  -12.7280    4.0370 C   0  0  0  0  0  0  0  0  0  0  0  0
   -8.6860  -12.3610    3.6730 C   0  0  0  0  0  0  0  0  0  0  0  0
   -9.7810  -13.2890    4.2180 C   0  0  1  0  0  0  0  0  0  0  0  0
  -10.6080  -12.5870    5.2950 C   0  0  0  0  0  0  0  0  0  0  0  0
  -11.6510  -11.6480    4.6680 C   0  0  0  0  0  0  0  0  0  0  0  0
  -12.2500  -10.7230    5.5160 C   0  0  0  0  0  0  0  0  0  0  0  0
  -13.1970   -9.8550    4.9970 C   0  0  0  0  0  0  0  0  0  0  0  0
  -13.5390   -9.9130    3.6410 C   0  0  0  0  0  0  0  0  0  0  0  0
  -12.9270  -10.8500    2.7970 C   0  0  0  0  0  0  0  0  0  0  0  0
  -11.9700  -11.7300    3.3170 C   0  0  0  0  0  0  0  0  0  0  0  0
  -11.2820  -12.7580    2.4580 C   0  0  0  0  0  0  0  0  0  0  0  0
  -10.6110  -13.8050    3.2460 N   0  0  0  0  0  0  0  0  0  0  0  0
   -3.9120  -10.2760    2.4970 C   0  0  0  0  0  0  0  0  0  0  0  0
  1  2  1  0
  2  3  1  0
  4  3  1  6
  4  5  1  0
  5  6  1  0
  6  7  1  1
  7  8  1  0
  8  9  2  0
  8 10  1  0
 10 11  1  0
 12 11  1  6
 12 13  1  0
 13 14  1  0
 14 15  2  0
 15 16  1  0
 16 17  2  0
 17 18  1  0
 18 19  2  0
 19 20  1  0
 20 21  1  0
  6 22  1  0
 22  4  1  0
 21 12  1  0
 19 14  1  0
M  END
>  <pair>  (267) 
x1020_0A-x0130_0A

>  <sucos>  (267) 
0.4821497726646975

>  <ref_mols>  (267) 
x1020_0A,x0130_0A

>  <original SMILES>  (267) 
NCCC1CC(NC(=O)CCC2Cc3ccccc3CN2)C1

>  <cmpd_ids>  (267) 
ENAMINE:Z3551029333

>  <ref_url>  (267) 
https://github.com/stephwills/fragment_network_merges

>  <submitter_name>  (267) 
Steph Wills

>  <submitter_institution>  (267) 
University of Oxford

>  <submitter_email>  (267) 
stephanie.wills@balliol.ox.ac.uk

>  <generation_date>  (267) 
2023-09-06

>  <method>  (267) 
fragNetMergingIt3

>  <ref_pdb>  (267) 
x1020_0A,x0130_0A

$$$$
x1052-1A-x1498-0A-70
     RDKit          3D

 17 18  0  0  0  0  0  0  0  0999 V2000
   -6.8130  -10.1980   -2.7470 O   0  0  0  0  0  0  0  0  0  0  0  0
   -6.2510   -9.1270   -2.9650 C   0  0  0  0  0  0  0  0  0  0  0  0
   -6.2660   -8.4560   -4.3490 C   0  0  0  0  0  0  0  0  0  0  0  0
   -7.4580   -7.7150   -4.6440 O   0  0  0  0  0  0  0  0  0  0  0  0
   -7.9150   -7.8090   -6.0050 C   0  0  0  0  0  0  0  0  0  0  0  0
   -8.1130   -6.4350   -6.6690 C   0  0  0  0  0  0  0  0  0  0  0  0
   -7.3380   -6.0030   -7.7540 C   0  0  0  0  0  0  0  0  0  0  0  0
   -7.6330   -4.6300   -8.3130 C   0  0  0  0  0  0  0  0  0  0  0  0
   -8.5930   -3.8390   -7.8090 N   0  0  0  0  0  0  0  0  0  0  0  0
   -9.2990   -4.3230   -6.7680 C   0  0  0  0  0  0  0  0  0  0  0  0
   -9.1030   -5.5710   -6.1850 C   0  0  0  0  0  0  0  0  0  0  0  0
   -5.5420   -8.4030   -2.0080 N   0  0  0  0  0  0  0  0  0  0  0  0
   -5.8420   -7.1030   -1.7010 C   0  0  0  0  0  0  0  0  0  0  0  0
   -5.3740   -5.8880   -2.1190 C   0  0  0  0  0  0  0  0  0  0  0  0
   -6.1430   -4.9580   -1.3990 C   0  0  0  0  0  0  0  0  0  0  0  0
   -7.0260   -5.5490   -0.5900 N   0  0  0  0  0  0  0  0  0  0  0  0
   -6.8280   -6.9080   -0.7770 O   0  0  0  0  0  0  0  0  0  0  0  0
  1  2  2  0
  2  3  1  0
  3  4  1  0
  4  5  1  0
  5  6  1  0
  6  7  2  0
  7  8  1  0
  8  9  2  0
  9 10  1  0
 10 11  2  0
  2 12  1  0
 12 13  1  0
 13 14  2  0
 14 15  1  0
 15 16  2  0
 16 17  1  0
 11  6  1  0
 17 13  1  0
M  END
>  <pair>  (268) 
x1052_1A-x1498_0A

>  <sucos>  (268) 
0.48300342463833007

>  <ref_mols>  (268) 
x1052_1A,x1498_0A

>  <original SMILES>  (268) 
O=C(COCc1ccncc1)Nc1ccno1

>  <cmpd_ids>  (268) 
ENAMINE:PV-002881495298

>  <ref_url>  (268) 
https://github.com/stephwills/fragment_network_merges

>  <submitter_name>  (268) 
Steph Wills

>  <submitter_institution>  (268) 
University of Oxford

>  <submitter_email>  (268) 
stephanie.wills@balliol.ox.ac.uk

>  <generation_date>  (268) 
2023-09-06

>  <method>  (268) 
fragNetMergingIt3

>  <ref_pdb>  (268) 
x1052_1A,x1498_0A

$$$$
x1594-0A-x1052-1A-51
     RDKit          3D

 22 24  0  0  0  0  0  0  0  0999 V2000
  -11.7930   -4.2600   -5.1580 C   0  0  0  0  0  0  0  0  0  0  0  0
  -10.7260   -4.1380   -6.0170 C   0  0  0  0  0  0  0  0  0  0  0  0
  -10.6490   -2.9340   -6.8320 C   0  0  0  0  0  0  0  0  0  0  0  0
   -9.5360   -2.7090   -7.7940 C   0  0  0  0  0  0  0  0  0  0  0  0
   -8.5070   -3.8340   -7.8480 C   0  0  0  0  0  0  0  0  0  0  0  0
   -7.4120   -4.0120   -8.5560 N   0  0  0  0  0  0  0  0  0  0  0  0
   -6.8610   -5.2190   -8.1810 N   0  0  0  0  0  0  0  0  0  0  0  0
   -7.6410   -5.7510   -7.2450 C   0  0  0  0  0  0  0  0  0  0  0  0
   -7.4170   -7.0170   -6.5660 C   0  0  0  0  0  0  0  0  0  0  0  0
   -7.9680   -8.0720   -6.8300 O   0  0  0  0  0  0  0  0  0  0  0  0
   -6.5210   -6.9520   -5.5270 N   0  0  0  0  0  0  0  0  0  0  0  0
   -6.5850   -7.8960   -4.4340 C   0  0  0  0  0  0  0  0  0  0  0  0
   -5.2970   -7.9270   -3.7230 C   0  0  0  0  0  0  0  0  0  0  0  0
   -4.9490   -6.9020   -2.9230 C   0  0  0  0  0  0  0  0  0  0  0  0
   -5.8160   -6.7130   -1.8600 C   0  0  0  0  0  0  0  0  0  0  0  0
   -6.0390   -7.7790   -1.0090 C   0  0  0  0  0  0  0  0  0  0  0  0
   -6.9170   -7.6420    0.0440 C   0  0  0  0  0  0  0  0  0  0  0  0
   -7.5350   -6.4240    0.1960 C   0  0  0  0  0  0  0  0  0  0  0  0
   -7.3380   -5.3520   -0.6020 N   0  0  0  0  0  0  0  0  0  0  0  0
   -6.4760   -5.5170   -1.6230 C   0  0  0  0  0  0  0  0  0  0  0  0
   -8.6960   -4.9220   -7.0080 N   0  0  0  0  0  0  0  0  0  0  0  0
   -9.7650   -5.0720   -6.1270 C   0  0  0  0  0  0  0  0  0  0  0  0
  1  2  1  0
  2  3  1  0
  3  4  2  0
  4  5  1  0
  5  6  2  0
  6  7  1  0
  7  8  2  0
  8  9  1  0
  9 10  2  0
  9 11  1  0
 11 12  1  0
 12 13  1  0
 13 14  1  0
 14 15  1  0
 15 16  2  0
 16 17  1  0
 17 18  2  0
 18 19  1  0
 19 20  2  0
  8 21  1  0
 21 22  1  0
 22  2  2  0
 21  5  1  0
 20 15  1  0
M  END
>  <pair>  (269) 
x1594_0A-x1052_1A

>  <sucos>  (269) 
0.48429619326016476

>  <ref_mols>  (269) 
x1594_0A,x1052_1A

>  <original SMILES>  (269) 
Cc1ccc2nnc(C(=O)NCCCc3cccnc3)n2c1

>  <cmpd_ids>  (269) 
ENAMINE:Z4294579625

>  <ref_url>  (269) 
https://github.com/stephwills/fragment_network_merges

>  <submitter_name>  (269) 
Steph Wills

>  <submitter_institution>  (269) 
University of Oxford

>  <submitter_email>  (269) 
stephanie.wills@balliol.ox.ac.uk

>  <generation_date>  (269) 
2023-09-06

>  <method>  (269) 
fragNetMergingIt3

>  <ref_pdb>  (269) 
x1594_0A,x1052_1A

$$$$
x0147-0A-x1052-1A-130
     RDKit          3D

 23 26  0  0  0  0  0  0  0  0999 V2000
   -9.8020   -7.2230   -0.2090 O   0  0  0  0  0  0  0  0  0  0  0  0
   -9.0210   -7.7560   -1.3090 S   0  0  0  0  0  6  0  0  0  0  0  0
   -8.6510   -9.1600   -1.3400 O   0  0  0  0  0  0  0  0  0  0  0  0
   -7.4760   -6.8640   -1.2900 C   0  0  0  0  0  0  0  0  0  0  0  0
   -7.2960   -5.6060   -1.0030 N   0  0  0  0  0  0  0  0  0  0  0  0
   -5.9790   -5.3040   -1.1330 C   0  0  0  0  0  0  0  0  0  0  0  0
   -5.1410   -6.2770   -1.4970 C   0  0  0  0  0  0  0  0  0  0  0  0
   -6.0360   -7.7190   -1.7070 S   0  0  0  0  0  0  0  0  0  0  0  0
   -9.9050   -7.4280   -2.7660 N   0  0  0  0  0  0  0  0  0  0  0  0
  -10.2510   -6.1170   -3.0080 C   0  0  0  0  0  0  0  0  0  0  0  0
  -10.8300   -5.7230   -4.1650 C   0  0  0  0  0  0  0  0  0  0  0  0
  -10.2940   -6.1550   -5.3890 C   0  0  0  0  0  0  0  0  0  0  0  0
   -9.7750   -5.1290   -6.3170 C   0  0  0  0  0  0  0  0  0  0  0  0
  -10.5490   -3.9210   -6.4250 N   0  0  0  0  0  0  0  0  0  0  0  0
   -9.8420   -3.1640   -7.3280 N   0  0  0  0  0  0  0  0  0  0  0  0
   -8.7870   -3.8720   -7.6920 C   0  0  0  0  0  0  0  0  0  0  0  0
   -7.7230   -3.4940   -8.6360 C   0  0  0  0  0  0  0  0  0  0  0  0
   -6.7170   -4.2480   -8.9300 N   0  0  0  0  0  0  0  0  0  0  0  0
   -6.6520   -5.4210   -8.3600 C   0  0  0  0  0  0  0  0  0  0  0  0
   -7.6020   -5.9060   -7.4390 C   0  0  0  0  0  0  0  0  0  0  0  0
   -8.6780   -5.0880   -7.1170 N   0  0  0  0  0  0  0  0  0  0  0  0
   -9.1850   -7.2140   -5.1610 C   0  0  0  0  0  0  0  0  0  0  0  0
   -9.4680   -8.1580   -3.9890 C   0  0  0  0  0  0  0  0  0  0  0  0
  1  2  2  0
  2  3  2  0
  2  4  1  0
  4  5  2  0
  5  6  1  0
  6  7  2  0
  7  8  1  0
  2  9  1  0
  9 10  1  0
 10 11  1  0
 11 12  1  0
 12 13  1  0
 13 14  2  0
 14 15  1  0
 15 16  2  0
 16 17  1  0
 17 18  2  0
 18 19  1  0
 19 20  2  0
 20 21  1  0
 12 22  1  0
 22 23  1  0
  8  4  1  0
 23  9  1  0
 21 13  1  0
 21 16  1  0
M  END
>  <pair>  (270) 
x0147_0A-x1052_1A

>  <sucos>  (270) 
0.4844579674218989

>  <ref_mols>  (270) 
x0147_0A,x1052_1A

>  <original SMILES>  (270) 
O=S(=O)(c1nccs1)N1CCC(c2nnc3cnccn23)CC1

>  <cmpd_ids>  (270) 
ENAMINE:Z4457445604

>  <ref_url>  (270) 
https://github.com/stephwills/fragment_network_merges

>  <submitter_name>  (270) 
Steph Wills

>  <submitter_institution>  (270) 
University of Oxford

>  <submitter_email>  (270) 
stephanie.wills@balliol.ox.ac.uk

>  <generation_date>  (270) 
2023-09-06

>  <method>  (270) 
fragNetMergingIt3

>  <ref_pdb>  (270) 
x0147_0A,x1052_1A

$$$$
x1052-1A-x1594-0A-124
     RDKit          3D

 21 23  0  0  0  0  0  0  0  0999 V2000
   -9.2340   -7.1990   -4.3560 C   0  0  0  0  0  0  0  0  0  0  0  0
   -8.4900   -6.0720   -4.6180 N   0  0  0  0  0  0  0  0  0  0  0  0
   -7.0930   -5.9960   -4.1380 C   0  0  0  0  0  0  0  0  0  0  0  0
   -6.8960   -5.9350   -2.7530 C   0  0  0  0  0  0  0  0  0  0  0  0
   -6.4360   -7.1160   -2.1270 C   0  0  0  0  0  0  0  0  0  0  0  0
   -6.3140   -6.8740   -0.7970 O   0  0  0  0  0  0  0  0  0  0  0  0
   -6.6760   -5.5670   -0.5280 N   0  0  0  0  0  0  0  0  0  0  0  0
   -7.0290   -4.9690   -1.7190 C   0  0  0  0  0  0  0  0  0  0  0  0
   -7.4460   -3.5990   -1.7460 C   0  0  0  0  0  0  0  0  0  0  0  0
   -6.5650   -2.3960   -2.0590 C   0  0  0  0  0  0  0  0  0  0  0  0
   -8.6100   -3.4810   -2.7540 C   0  0  0  0  0  0  0  0  0  0  0  0
   -8.0740   -3.3010   -0.3720 C   0  0  0  0  0  0  0  0  0  0  0  0
   -8.9450   -5.1050   -5.5890 C   0  0  0  0  0  0  0  0  0  0  0  0
  -10.0220   -4.2770   -5.4310 C   0  0  0  0  0  0  0  0  0  0  0  0
  -10.3790   -3.3460   -6.3540 C   0  0  0  0  0  0  0  0  0  0  0  0
   -9.6780   -3.1770   -7.4940 C   0  0  0  0  0  0  0  0  0  0  0  0
   -8.6120   -3.9620   -7.7500 C   0  0  0  0  0  0  0  0  0  0  0  0
   -7.7830   -4.0250   -8.7640 N   0  0  0  0  0  0  0  0  0  0  0  0
   -6.9030   -5.0100   -8.5360 N   0  0  0  0  0  0  0  0  0  0  0  0
   -7.1900   -5.5410   -7.3780 C   0  0  0  0  0  0  0  0  0  0  0  0
   -8.2640   -4.9170   -6.8140 N   0  0  0  0  0  0  0  0  0  0  0  0
  1  2  1  0
  2  3  1  0
  3  4  1  0
  4  5  2  0
  5  6  1  0
  6  7  1  0
  7  8  2  0
  8  9  1  0
  9 10  1  0
  9 11  1  0
  9 12  1  0
  2 13  1  0
 13 14  2  0
 14 15  1  0
 15 16  2  0
 16 17  1  0
 17 18  2  0
 18 19  1  0
 19 20  2  0
 20 21  1  0
  8  4  1  0
 21 13  1  0
 21 17  1  0
M  END
>  <pair>  (271) 
x1052_1A-x1594_0A

>  <sucos>  (271) 
0.485627823624876

>  <ref_mols>  (271) 
x1052_1A,x1594_0A

>  <original SMILES>  (271) 
CN(Cc1conc1C(C)(C)C)c1cccc2nncn12

>  <cmpd_ids>  (271) 
ENAMINE:Z4576420714

>  <ref_url>  (271) 
https://github.com/stephwills/fragment_network_merges

>  <submitter_name>  (271) 
Steph Wills

>  <submitter_institution>  (271) 
University of Oxford

>  <submitter_email>  (271) 
stephanie.wills@balliol.ox.ac.uk

>  <generation_date>  (271) 
2023-09-06

>  <method>  (271) 
fragNetMergingIt3

>  <ref_pdb>  (271) 
x1052_1A,x1594_0A

$$$$
x1594-0A-x1052-1A-134
     RDKit          3D

 23 25  0  0  0  0  0  0  0  0999 V2000
   -6.7440   -5.0240   -3.8550 C   0  0  0  0  0  0  0  0  0  0  0  0
   -5.8160   -6.1530   -3.8230 N   0  0  0  0  0  0  0  0  0  0  0  0
   -6.1870   -7.2590   -4.7080 C   0  0  0  0  0  0  0  0  0  0  0  0
   -7.6440   -7.7430   -4.5420 C   0  0  0  0  0  0  0  0  0  0  0  0
   -8.6090   -6.6540   -4.4780 N   0  0  0  0  0  0  0  0  0  0  0  0
   -9.6160   -6.5290   -5.4090 C   0  0  0  0  0  0  0  0  0  0  0  0
  -10.5060   -7.3540   -5.5600 O   0  0  0  0  0  0  0  0  0  0  0  0
   -9.5450   -5.2870   -6.2310 C   0  0  0  0  0  0  0  0  0  0  0  0
  -10.5810   -4.2720   -6.0280 C   0  0  0  0  0  0  0  0  0  0  0  0
  -10.5840   -3.0800   -6.7360 C   0  0  0  0  0  0  0  0  0  0  0  0
   -9.6120   -2.8430   -7.6350 C   0  0  0  0  0  0  0  0  0  0  0  0
   -8.5520   -3.8180   -7.8900 C   0  0  0  0  0  0  0  0  0  0  0  0
   -7.5200   -3.8260   -8.7010 N   0  0  0  0  0  0  0  0  0  0  0  0
   -6.8550   -5.0100   -8.5260 N   0  0  0  0  0  0  0  0  0  0  0  0
   -7.4860   -5.7040   -7.6120 C   0  0  0  0  0  0  0  0  0  0  0  0
   -8.5720   -5.0040   -7.1690 N   0  0  0  0  0  0  0  0  0  0  0  0
   -5.1750   -6.5250   -2.6380 C   0  0  0  0  0  0  0  0  0  0  0  0
   -3.9960   -6.8410   -2.5270 O   0  0  0  0  0  0  0  0  0  0  0  0
   -5.9700   -6.5210   -1.6140 C   0  0  0  0  0  0  0  0  0  0  0  0
   -6.7700   -5.4260   -1.2540 C   0  0  0  0  0  0  0  0  0  0  0  0
   -7.5680   -5.6280   -0.1600 N   0  0  0  0  0  0  0  0  0  0  0  0
   -7.3140   -6.9150    0.2700 C   0  0  0  0  0  0  0  0  0  0  0  0
   -6.1630   -7.8480   -0.5890 S   0  0  0  0  0  0  0  0  0  0  0  0
  1  2  1  0
  2  3  1  0
  3  4  1  0
  4  5  1  0
  5  6  1  0
  6  7  2  0
  6  8  1  0
  8  9  2  0
  9 10  1  0
 10 11  2  0
 11 12  1  0
 12 13  2  0
 13 14  1  0
 14 15  2  0
 15 16  1  0
  2 17  1  0
 17 18  2  0
 17 19  1  0
 19 20  2  0
 20 21  1  0
 21 22  2  0
 22 23  1  0
 16  8  1  0
 23 19  1  0
 16 12  1  0
M  END
>  <pair>  (272) 
x1594_0A-x1052_1A

>  <sucos>  (272) 
0.49034237768156563

>  <ref_mols>  (272) 
x1594_0A,x1052_1A

>  <original SMILES>  (272) 
CN(CCNC(=O)c1cccc2nncn12)C(=O)c1cncs1

>  <cmpd_ids>  (272) 
ENAMINE:PV-002999379684

>  <ref_url>  (272) 
https://github.com/stephwills/fragment_network_merges

>  <submitter_name>  (272) 
Steph Wills

>  <submitter_institution>  (272) 
University of Oxford

>  <submitter_email>  (272) 
stephanie.wills@balliol.ox.ac.uk

>  <generation_date>  (272) 
2023-09-06

>  <method>  (272) 
fragNetMergingIt3

>  <ref_pdb>  (272) 
x1594_0A,x1052_1A

$$$$
x1052-1A-x1140-0A-34
     RDKit          3D

 22 24  0  0  0  0  0  0  0  0999 V2000
   -8.7270   -7.1330   -4.2930 O   0  0  0  0  0  0  0  0  0  0  0  0
   -7.5580   -6.7650   -4.2720 C   0  0  0  0  0  0  0  0  0  0  0  0
   -7.1510   -5.4510   -4.3420 N   0  0  0  0  0  0  0  0  0  0  0  0
   -7.2580   -4.5500   -3.2110 C   0  0  0  0  0  0  0  0  0  0  0  0
   -6.7690   -5.2690   -2.0130 C   0  0  0  0  0  0  0  0  0  0  0  0
   -5.4710   -5.7560   -1.7930 C   0  0  0  0  0  0  0  0  0  0  0  0
   -5.5500   -6.3420   -0.5670 C   0  0  0  0  0  0  0  0  0  0  0  0
   -6.8050   -6.2210   -0.0740 O   0  0  0  0  0  0  0  0  0  0  0  0
   -7.5840   -5.5370   -0.9810 N   0  0  0  0  0  0  0  0  0  0  0  0
   -6.4430   -7.8460   -4.1770 C   0  0  0  0  0  0  0  0  0  0  0  0
   -6.6650   -8.9070   -4.7430 O   0  0  0  0  0  0  0  0  0  0  0  0
   -5.3360   -7.4640   -3.4350 N   0  0  0  0  0  0  0  0  0  0  0  0
   -4.9960   -7.9040   -2.1330 C   0  0  0  0  0  0  0  0  0  0  0  0
   -5.8320   -8.7010   -1.3390 C   0  0  0  0  0  0  0  0  0  0  0  0
   -5.4290   -9.1000   -0.0580 C   0  0  0  0  0  0  0  0  0  0  0  0
   -4.1920   -8.7080    0.4420 C   0  0  0  0  0  0  0  0  0  0  0  0
   -3.3530   -7.9120   -0.3400 C   0  0  0  0  0  0  0  0  0  0  0  0
   -3.7460   -7.5110   -1.6200 C   0  0  0  0  0  0  0  0  0  0  0  0
   -2.1310   -7.4940    0.0960 O   0  0  0  0  0  0  0  0  0  0  0  0
   -2.0470   -7.5490    1.5220 C   0  0  0  0  0  0  0  0  0  0  0  0
   -2.4990   -8.8960    2.0460 C   0  0  0  0  0  0  0  0  0  0  0  0
   -3.8710   -9.1450    1.7040 O   0  0  0  0  0  0  0  0  0  0  0  0
  1  2  2  0
  2  3  1  0
  3  4  1  0
  4  5  1  0
  5  6  1  0
  6  7  2  0
  7  8  1  0
  8  9  1  0
  2 10  1  0
 10 11  2  0
 10 12  1  0
 12 13  1  0
 13 14  2  0
 14 15  1  0
 15 16  2  0
 16 17  1  0
 17 18  2  0
 17 19  1  0
 19 20  1  0
 20 21  1  0
 21 22  1  0
  9  5  2  0
 18 13  1  0
 22 16  1  0
M  END
>  <pair>  (273) 
x1052_1A-x1140_0A

>  <sucos>  (273) 
0.4909654787613552

>  <ref_mols>  (273) 
x1052_1A,x1140_0A

>  <original SMILES>  (273) 
O=C(NCc1ccon1)C(=O)Nc1ccc2c(c1)OCCO2

>  <cmpd_ids>  (273) 
ENAMINE:Z1328914866

>  <ref_url>  (273) 
https://github.com/stephwills/fragment_network_merges

>  <submitter_name>  (273) 
Steph Wills

>  <submitter_institution>  (273) 
University of Oxford

>  <submitter_email>  (273) 
stephanie.wills@balliol.ox.ac.uk

>  <generation_date>  (273) 
2023-09-06

>  <method>  (273) 
fragNetMergingIt3

>  <ref_pdb>  (273) 
x1052_1A,x1140_0A

$$$$
x1594-0A-x1052-1A-174
     RDKit          3D

 23 25  0  0  0  0  0  0  0  0999 V2000
   -6.3270   -7.8270   -4.3920 C   0  0  0  0  0  0  0  0  0  0  0  0
   -7.1720   -6.8580   -5.0880 N   0  0  0  0  0  0  0  0  0  0  0  0
   -7.1220   -5.4930   -4.5360 C   0  0  0  0  0  0  0  0  0  0  0  0
   -8.1370   -5.1630   -3.4590 C   0  0  0  0  0  0  0  0  0  0  0  0
   -7.4790   -4.6070   -2.3180 C   0  0  0  0  0  0  0  0  0  0  0  0
   -6.7120   -5.6730   -1.6140 C   0  0  0  0  0  0  0  0  0  0  0  0
   -5.4960   -6.0470   -2.0710 C   0  0  0  0  0  0  0  0  0  0  0  0
   -4.7710   -7.1020   -1.3850 C   0  0  0  0  0  0  0  0  0  0  0  0
   -5.3670   -7.6450   -0.3280 C   0  0  0  0  0  0  0  0  0  0  0  0
   -6.6090   -7.2230    0.0910 C   0  0  0  0  0  0  0  0  0  0  0  0
   -7.3060   -6.2290   -0.5360 N   0  0  0  0  0  0  0  0  0  0  0  0
   -7.4320   -6.9450   -6.4760 C   0  0  0  0  0  0  0  0  0  0  0  0
   -7.4980   -8.0490   -7.0150 O   0  0  0  0  0  0  0  0  0  0  0  0
   -7.6460   -5.6420   -7.2550 C   0  0  0  0  0  0  0  0  0  0  0  0
   -6.8930   -5.0890   -8.1990 N   0  0  0  0  0  0  0  0  0  0  0  0
   -7.4860   -3.9050   -8.5820 N   0  0  0  0  0  0  0  0  0  0  0  0
   -8.5810   -3.7600   -7.8700 C   0  0  0  0  0  0  0  0  0  0  0  0
   -9.5680   -2.7770   -7.7990 C   0  0  0  0  0  0  0  0  0  0  0  0
  -10.6350   -2.9090   -6.9450 C   0  0  0  0  0  0  0  0  0  0  0  0
  -10.7600   -4.0740   -6.0890 C   0  0  0  0  0  0  0  0  0  0  0  0
  -12.2370   -4.1990   -4.9660 Br  0  0  0  0  0  0  0  0  0  0  0  0
   -9.7980   -5.0080   -6.1480 C   0  0  0  0  0  0  0  0  0  0  0  0
   -8.7320   -4.8440   -7.0250 N   0  0  0  0  0  0  0  0  0  0  0  0
  1  2  1  0
  2  3  1  0
  3  4  1  0
  4  5  1  0
  5  6  1  0
  6  7  2  0
  7  8  1  0
  8  9  2  0
  9 10  1  0
 10 11  2  0
  2 12  1  0
 12 13  2  0
 12 14  1  0
 14 15  2  0
 15 16  1  0
 16 17  2  0
 17 18  1  0
 18 19  2  0
 19 20  1  0
 20 21  1  0
 20 22  2  0
 22 23  1  0
 11  6  1  0
 23 14  1  0
 23 17  1  0
M  END
>  <pair>  (274) 
x1594_0A-x1052_1A

>  <sucos>  (274) 
0.4931805865394808

>  <ref_mols>  (274) 
x1594_0A,x1052_1A

>  <original SMILES>  (274) 
CN(CCCc1ccccn1)C(=O)c1nnc2ccc(Br)cn12

>  <cmpd_ids>  (274) 
ENAMINE:Z3586561679

>  <ref_url>  (274) 
https://github.com/stephwills/fragment_network_merges

>  <submitter_name>  (274) 
Steph Wills

>  <submitter_institution>  (274) 
University of Oxford

>  <submitter_email>  (274) 
stephanie.wills@balliol.ox.ac.uk

>  <generation_date>  (274) 
2023-09-06

>  <method>  (274) 
fragNetMergingIt3

>  <ref_pdb>  (274) 
x1594_0A,x1052_1A

$$$$
x1020-0A-x0130-0A-47
     RDKit          3D

 20 21  0  0  0  0  0  0  0  0999 V2000
   -1.0910   -7.3420    1.4690 C   0  0  0  0  0  0  0  0  0  0  0  0
   -1.2940   -8.3600    2.4920 N   0  0  0  0  0  0  0  0  0  0  0  0
   -0.6090   -9.6290    2.2180 C   0  0  0  0  0  0  0  0  0  0  0  0
   -2.7010   -8.4860    2.8830 C   0  0  0  0  0  0  0  0  0  0  0  0
   -3.6110   -9.1960    1.8930 C   0  0  1  0  0  0  0  0  0  0  0  0
   -4.0740  -10.4200    2.3330 C   0  0  0  0  0  0  0  0  0  0  0  0
   -5.4420  -10.2930    2.0710 C   0  0  1  0  0  0  0  0  0  0  0  0
   -6.2290  -10.5010    3.1290 N   0  0  0  0  0  0  0  0  0  0  0  0
   -6.1030  -11.6000    3.9650 C   0  0  0  0  0  0  0  0  0  0  0  0
   -5.2760  -11.6660    4.8670 O   0  0  0  0  0  0  0  0  0  0  0  0
   -7.1120  -12.7220    3.6470 C   0  0  0  0  0  0  0  0  0  0  0  0
   -8.5580  -12.2210    3.5820 C   0  0  0  0  0  0  0  0  0  0  0  0
   -9.6180  -13.3500    3.4680 C   0  0  0  0  0  0  0  0  0  0  0  0
   -9.3140  -14.5070    4.4380 C   0  0  0  0  0  0  0  0  0  0  0  0
  -10.4330  -15.5340    4.6770 C   0  0  0  0  0  0  0  0  0  0  0  0
  -11.6500  -15.4070    3.7670 C   0  0  0  0  0  0  0  0  0  0  0  0
  -11.4190  -15.7420    2.2880 C   0  0  0  0  0  0  0  0  0  0  0  0
  -10.0850  -15.2670    1.7280 C   0  0  0  0  0  0  0  0  0  0  0  0
   -9.7340  -13.7950    1.9940 C   0  0  0  0  0  0  0  0  0  0  0  0
   -5.1160   -8.7990    1.8040 C   0  0  0  0  0  0  0  0  0  0  0  0
  1  2  1  0
  2  3  1  0
  2  4  1  0
  5  4  1  1
  5  6  1  0
  6  7  1  0
  7  8  1  1
  8  9  1  0
  9 10  2  0
  9 11  1  0
 11 12  1  0
 12 13  1  0
 13 14  1  0
 14 15  1  0
 15 16  1  0
 16 17  1  0
 17 18  1  0
 18 19  1  0
  7 20  1  0
 20  5  1  0
 19 13  1  0
M  END
>  <pair>  (275) 
x1020_0A-x0130_0A

>  <sucos>  (275) 
0.4958700055877239

>  <ref_mols>  (275) 
x1020_0A,x0130_0A

>  <original SMILES>  (275) 
CN(C)CC1CC(NC(=O)CCC2CCCCCC2)C1

>  <cmpd_ids>  (275) 
ENAMINE:Z4220217887

>  <ref_url>  (275) 
https://github.com/stephwills/fragment_network_merges

>  <submitter_name>  (275) 
Steph Wills

>  <submitter_institution>  (275) 
University of Oxford

>  <submitter_email>  (275) 
stephanie.wills@balliol.ox.ac.uk

>  <generation_date>  (275) 
2023-09-06

>  <method>  (275) 
fragNetMergingIt3

>  <ref_pdb>  (275) 
x1020_0A,x0130_0A

$$$$
x1052-1A-x1594-0A-158
     RDKit          3D

 22 24  0  0  0  0  0  0  0  0999 V2000
   -6.1460   -2.6610   -2.5680 C   0  0  0  0  0  0  0  0  0  0  0  0
   -6.4090   -3.2190   -1.2460 C   0  0  0  0  0  0  0  0  0  0  0  0
   -7.3980   -2.8430   -0.3760 C   0  0  0  0  0  0  0  0  0  0  0  0
   -6.5900   -4.6750   -1.4990 C   0  0  0  0  0  0  0  0  0  0  0  0
   -6.7860   -5.2470   -2.6580 C   0  0  0  0  0  0  0  0  0  0  0  0
   -6.9720   -6.6420   -2.6190 C   0  0  0  0  0  0  0  0  0  0  0  0
   -7.2840   -7.6670   -3.7140 C   0  0  0  0  0  0  0  0  0  0  0  0
   -8.5350   -7.1540   -4.3580 N   0  0  0  0  0  0  0  0  0  0  0  0
   -9.4050   -6.4090   -3.4580 C   0  0  0  0  0  0  0  0  0  0  0  0
   -8.8030   -7.0050   -5.7310 C   0  0  0  0  0  0  0  0  0  0  0  0
   -8.7830   -7.9640   -6.4960 O   0  0  0  0  0  0  0  0  0  0  0  0
   -9.1310   -5.6340   -6.3110 C   0  0  0  0  0  0  0  0  0  0  0  0
  -10.2540   -4.8620   -5.8950 C   0  0  0  0  0  0  0  0  0  0  0  0
  -10.4850   -3.5920   -6.4840 C   0  0  0  0  0  0  0  0  0  0  0  0
   -9.6140   -3.1050   -7.4680 C   0  0  0  0  0  0  0  0  0  0  0  0
   -8.5410   -3.8930   -7.8430 N   0  0  0  0  0  0  0  0  0  0  0  0
   -7.5260   -3.7420   -8.7430 N   0  0  0  0  0  0  0  0  0  0  0  0
   -6.7160   -4.8480   -8.7230 N   0  0  0  0  0  0  0  0  0  0  0  0
   -7.1980   -5.7350   -7.8000 C   0  0  0  0  0  0  0  0  0  0  0  0
   -8.2800   -5.1020   -7.3170 C   0  0  0  0  0  0  0  0  0  0  0  0
   -6.8410   -6.9150   -1.2740 O   0  0  0  0  0  0  0  0  0  0  0  0
   -6.6080   -5.6860   -0.5860 N   0  0  0  0  0  0  0  0  0  0  0  0
  1  2  1  0
  2  3  1  0
  2  4  1  0
  4  5  1  0
  5  6  2  0
  6  7  1  0
  7  8  1  0
  8  9  1  0
  8 10  1  0
 10 11  2  0
 10 12  1  0
 12 13  2  0
 13 14  1  0
 14 15  2  0
 15 16  1  0
 16 17  1  0
 17 18  2  0
 18 19  1  0
 19 20  2  0
  6 21  1  0
 21 22  1  0
 22  4  2  0
 20 12  1  0
 20 16  1  0
M  END
>  <pair>  (276) 
x1052_1A-x1594_0A

>  <sucos>  (276) 
0.4965454870318055

>  <ref_mols>  (276) 
x1052_1A,x1594_0A

>  <original SMILES>  (276) 
CC(C)c1cc(CN(C)C(=O)c2cccn3nncc23)on1

>  <cmpd_ids>  (276) 
ENAMINE:Z3583596595

>  <ref_url>  (276) 
https://github.com/stephwills/fragment_network_merges

>  <submitter_name>  (276) 
Steph Wills

>  <submitter_institution>  (276) 
University of Oxford

>  <submitter_email>  (276) 
stephanie.wills@balliol.ox.ac.uk

>  <generation_date>  (276) 
2023-09-06

>  <method>  (276) 
fragNetMergingIt3

>  <ref_pdb>  (276) 
x1052_1A,x1594_0A

$$$$
x1594-0A-x2021-0A-143
     RDKit          3D

 23 24  0  0  0  0  0  0  0  0999 V2000
   -7.2750   -4.3190   -4.5500 O   0  0  0  0  0  0  0  0  0  0  0  0
   -7.2680   -5.5930   -3.8850 S   0  0  0  0  0  6  0  0  0  0  0  0
   -8.4910   -6.1280   -3.3310 O   0  0  0  0  0  0  0  0  0  0  0  0
   -6.0730   -5.4630   -2.5630 C   0  0  0  0  0  0  0  0  0  0  0  0
   -6.4000   -4.4480   -1.4770 C   0  0  0  0  0  0  0  0  0  0  0  0
   -5.9890   -2.9890   -1.7160 C   0  0  0  0  0  0  0  0  0  0  0  0
   -6.0560   -2.2860   -0.4620 O   0  0  0  0  0  0  0  0  0  0  0  0
   -5.7600   -0.8780   -0.5430 C   0  0  0  0  0  0  0  0  0  0  0  0
   -6.7490   -0.1070   -1.4120 C   0  0  0  0  0  0  0  0  0  0  0  0
   -7.9130    0.1130   -0.7510 F   0  0  0  0  0  0  0  0  0  0  0  0
   -6.2300    1.1070   -1.7220 F   0  0  0  0  0  0  0  0  0  0  0  0
   -6.6720   -6.7690   -4.9470 N   0  0  0  0  0  0  0  0  0  0  0  0
   -7.4230   -7.0600   -6.2090 C   0  0  0  0  0  0  0  0  0  0  0  0
   -7.6930   -5.8110   -6.9730 C   0  0  0  0  0  0  0  0  0  0  0  0
   -7.0150   -5.1790   -7.9310 N   0  0  0  0  0  0  0  0  0  0  0  0
   -7.7410   -4.0440   -8.2680 N   0  0  0  0  0  0  0  0  0  0  0  0
   -8.8280   -4.0350   -7.5030 C   0  0  0  0  0  0  0  0  0  0  0  0
   -9.9630   -3.2000   -7.3080 C   0  0  0  0  0  0  0  0  0  0  0  0
  -10.1650   -1.7900   -8.1550 Cl  0  0  0  0  0  0  0  0  0  0  0  0
  -10.9230   -3.4890   -6.4310 C   0  0  0  0  0  0  0  0  0  0  0  0
  -10.8620   -4.6690   -5.6270 C   0  0  0  0  0  0  0  0  0  0  0  0
   -9.8090   -5.4650   -5.7760 C   0  0  0  0  0  0  0  0  0  0  0  0
   -8.8210   -5.1390   -6.6960 N   0  0  0  0  0  0  0  0  0  0  0  0
  1  2  2  0
  2  3  2  0
  2  4  1  0
  4  5  1  0
  5  6  1  0
  6  7  1  0
  7  8  1  0
  8  9  1  0
  9 10  1  0
  9 11  1  0
  2 12  1  0
 12 13  1  0
 13 14  1  0
 14 15  2  0
 15 16  1  0
 16 17  2  0
 17 18  1  0
 18 19  1  0
 18 20  2  0
 20 21  1  0
 21 22  2  0
 22 23  1  0
 23 14  1  0
 23 17  1  0
M  END
>  <pair>  (277) 
x1594_0A-x2021_0A

>  <sucos>  (277) 
0.5003920761460524

>  <ref_mols>  (277) 
x1594_0A,x2021_0A

>  <original SMILES>  (277) 
O=S(=O)(CCCOCC(F)F)NCc1nnc2c(Cl)cccn12

>  <cmpd_ids>  (277) 
ENAMINE:Z4275212303

>  <ref_url>  (277) 
https://github.com/stephwills/fragment_network_merges

>  <submitter_name>  (277) 
Steph Wills

>  <submitter_institution>  (277) 
University of Oxford

>  <submitter_email>  (277) 
stephanie.wills@balliol.ox.ac.uk

>  <generation_date>  (277) 
2023-09-06

>  <method>  (277) 
fragNetMergingIt3

>  <ref_pdb>  (277) 
x1594_0A,x2021_0A

$$$$
x1052-1A-x1594-0A-81
     RDKit          3D

 23 25  0  0  0  0  0  0  0  0999 V2000
   -7.7300   -3.1500   -0.2400 C   0  0  0  0  0  0  0  0  0  0  0  0
   -6.7960   -3.3320   -1.3560 C   0  0  0  0  0  0  0  0  0  0  0  0
   -6.8610   -2.7800   -2.5750 C   0  0  0  0  0  0  0  0  0  0  0  0
   -5.5150   -2.7470   -0.9720 N   0  0  0  0  0  0  0  0  0  0  0  0
   -6.6030   -4.8210   -1.5790 C   0  0  0  0  0  0  0  0  0  0  0  0
   -6.1980   -5.4030   -2.7780 C   0  0  0  0  0  0  0  0  0  0  0  0
   -6.1880   -6.8730   -2.5100 C   0  0  0  0  0  0  0  0  0  0  0  0
   -5.8710   -7.9530   -3.4210 C   0  0  0  0  0  0  0  0  0  0  0  0
   -5.9610   -9.1510   -3.1550 O   0  0  0  0  0  0  0  0  0  0  0  0
   -5.4440   -7.4740   -4.6830 N   0  0  0  0  0  0  0  0  0  0  0  0
   -5.9950   -7.6710   -5.9720 C   0  0  0  0  0  0  0  0  0  0  0  0
   -7.4040   -7.2510   -6.3430 C   0  0  0  0  0  0  0  0  0  0  0  0
   -7.5900   -5.9630   -7.0590 N   0  0  0  0  0  0  0  0  0  0  0  0
   -6.7490   -5.5030   -8.0150 N   0  0  0  0  0  0  0  0  0  0  0  0
   -7.2080   -4.3420   -8.4280 N   0  0  0  0  0  0  0  0  0  0  0  0
   -8.3480   -4.0810   -7.7210 C   0  0  0  0  0  0  0  0  0  0  0  0
   -9.2740   -2.9460   -7.7450 C   0  0  0  0  0  0  0  0  0  0  0  0
  -10.3420   -2.9540   -6.9270 C   0  0  0  0  0  0  0  0  0  0  0  0
  -10.5790   -4.0230   -6.0590 C   0  0  0  0  0  0  0  0  0  0  0  0
   -9.7170   -5.1220   -6.0010 C   0  0  0  0  0  0  0  0  0  0  0  0
   -8.6130   -5.1060   -6.8490 C   0  0  0  0  0  0  0  0  0  0  0  0
   -6.5630   -7.0310   -1.1970 O   0  0  0  0  0  0  0  0  0  0  0  0
   -6.8200   -5.7680   -0.6350 N   0  0  0  0  0  0  0  0  0  0  0  0
  1  2  1  0
  2  3  1  0
  2  4  1  0
  2  5  1  0
  5  6  1  0
  6  7  2  0
  7  8  1  0
  8  9  2  0
  8 10  1  0
 10 11  1  0
 11 12  1  0
 12 13  1  0
 13 14  1  0
 14 15  2  0
 15 16  1  0
 16 17  2  0
 17 18  1  0
 18 19  2  0
 19 20  1  0
 20 21  2  0
  7 22  1  0
 22 23  1  0
 23  5  2  0
 21 13  1  0
 21 16  1  0
M  END
>  <pair>  (278) 
x1052_1A-x1594_0A

>  <sucos>  (278) 
0.50172862631032

>  <ref_mols>  (278) 
x1052_1A,x1594_0A

>  <original SMILES>  (278) 
CC(C)(N)c1cc(C(=O)NCCn2nnc3ccccc32)on1

>  <cmpd_ids>  (278) 
ENAMINE:PV-003635574326

>  <ref_url>  (278) 
https://github.com/stephwills/fragment_network_merges

>  <submitter_name>  (278) 
Steph Wills

>  <submitter_institution>  (278) 
University of Oxford

>  <submitter_email>  (278) 
stephanie.wills@balliol.ox.ac.uk

>  <generation_date>  (278) 
2023-09-06

>  <method>  (278) 
fragNetMergingIt3

>  <ref_pdb>  (278) 
x1052_1A,x1594_0A

$$$$
x1594-0A-x1052-1A-13
     RDKit          3D

 23 26  0  0  0  0  0  0  0  0999 V2000
   -5.7430   -5.1090   -2.0050 C   0  0  0  0  0  0  0  0  0  0  0  0
   -6.6790   -4.8210   -1.0440 C   0  0  0  0  0  0  0  0  0  0  0  0
   -7.3350   -5.7550   -0.3320 N   0  0  0  0  0  0  0  0  0  0  0  0
   -7.0310   -7.0430   -0.6090 C   0  0  0  0  0  0  0  0  0  0  0  0
   -6.1030   -7.4170   -1.5700 C   0  0  0  0  0  0  0  0  0  0  0  0
   -5.7750   -8.8230   -1.9130 C   0  0  0  0  0  0  0  0  0  0  0  0
   -5.8070   -8.8910   -3.4520 C   0  0  0  0  0  0  0  0  0  0  0  0
   -7.0500   -8.3440   -4.0350 N   0  0  0  0  0  0  0  0  0  0  0  0
   -7.6910   -9.4180   -4.7860 C   0  0  0  0  0  0  0  0  0  0  0  0
   -7.0200   -9.5720   -6.1310 C   0  0  0  0  0  0  0  0  0  0  0  0
   -7.3750   -8.3460   -6.9220 C   0  0  0  0  0  0  0  0  0  0  0  0
   -6.7780   -7.0770   -6.3370 C   0  0  1  0  0  0  0  0  0  0  0  0
   -7.2740   -5.8230   -7.1010 C   0  0  0  0  0  0  0  0  0  0  0  0
   -6.6550   -5.2290   -8.1190 N   0  0  0  0  0  0  0  0  0  0  0  0
   -7.3760   -4.1290   -8.5300 N   0  0  0  0  0  0  0  0  0  0  0  0
   -8.4380   -4.0420   -7.7730 C   0  0  0  0  0  0  0  0  0  0  0  0
   -9.5160   -3.1080   -7.7300 C   0  0  0  0  0  0  0  0  0  0  0  0
  -10.5050   -3.2660   -6.8390 C   0  0  0  0  0  0  0  0  0  0  0  0
  -10.5010   -4.3780   -5.9070 C   0  0  0  0  0  0  0  0  0  0  0  0
   -9.4800   -5.2570   -5.9320 C   0  0  0  0  0  0  0  0  0  0  0  0
   -8.4450   -5.0950   -6.8550 N   0  0  0  0  0  0  0  0  0  0  0  0
   -6.9310   -7.0310   -4.7630 C   0  0  0  0  0  0  0  0  0  0  0  0
   -5.4540   -6.4260   -2.2640 C   0  0  0  0  0  0  0  0  0  0  0  0
  1  2  2  0
  2  3  1  0
  3  4  2  0
  4  5  1  0
  5  6  1  0
  6  7  1  0
  7  8  1  0
  8  9  1  0
  9 10  1  0
 10 11  1  0
 12 11  1  6
 12 13  1  0
 13 14  2  0
 14 15  1  0
 15 16  2  0
 16 17  1  0
 17 18  2  0
 18 19  1  0
 19 20  2  0
 20 21  1  0
 12 22  1  0
  5 23  2  0
 23  1  1  0
 22  8  1  0
 21 13  1  0
 21 16  1  0
M  END
>  <pair>  (279) 
x1594_0A-x1052_1A

>  <sucos>  (279) 
0.5046725463402215

>  <ref_mols>  (279) 
x1594_0A,x1052_1A

>  <original SMILES>  (279) 
c1cncc(CCN2CCCC(c3nnc4ccccn34)C2)c1

>  <cmpd_ids>  (279) 
ENAMINE:Z1241281548

>  <ref_url>  (279) 
https://github.com/stephwills/fragment_network_merges

>  <submitter_name>  (279) 
Steph Wills

>  <submitter_institution>  (279) 
University of Oxford

>  <submitter_email>  (279) 
stephanie.wills@balliol.ox.ac.uk

>  <generation_date>  (279) 
2023-09-06

>  <method>  (279) 
fragNetMergingIt3

>  <ref_pdb>  (279) 
x1594_0A,x1052_1A

$$$$
x1052-1A-x1140-0A-163
     RDKit          3D

 23 25  0  0  0  0  0  0  0  0999 V2000
   -4.5070   -6.3780   -2.0330 C   0  0  0  0  0  0  0  0  0  0  0  0
   -5.8050   -6.1050   -1.2550 C   0  0  0  0  0  0  0  0  0  0  0  0
   -6.3390   -6.8230   -0.2510 O   0  0  0  0  0  0  0  0  0  0  0  0
   -7.5190   -6.1750    0.1180 N   0  0  0  0  0  0  0  0  0  0  0  0
   -7.6790   -5.0870   -0.6550 C   0  0  0  0  0  0  0  0  0  0  0  0
   -6.6670   -4.8950   -1.5920 C   0  0  0  0  0  0  0  0  0  0  0  0
   -6.5990   -3.7790   -2.5820 C   0  0  0  0  0  0  0  0  0  0  0  0
   -6.9140   -4.3540   -3.8350 O   0  0  0  0  0  0  0  0  0  0  0  0
   -6.3460   -5.5720   -3.7670 C   0  0  0  0  0  0  0  0  0  0  0  0
   -5.2160   -5.7270   -3.3880 O   0  0  0  0  0  0  0  0  0  0  0  0
   -7.1170   -6.6610   -4.1560 C   0  0  0  0  0  0  0  0  0  0  0  0
   -6.4130   -7.9140   -4.5130 C   0  0  0  0  0  0  0  0  0  0  0  0
   -6.5850   -9.2620   -3.2990 S   0  0  0  0  0  0  0  0  0  0  0  0
   -5.5860   -8.9400   -1.8320 C   0  0  0  0  0  0  0  0  0  0  0  0
   -6.1800   -9.4830   -0.5870 C   0  0  0  0  0  0  0  0  0  0  0  0
   -5.5440   -9.3500    0.6280 C   0  0  0  0  0  0  0  0  0  0  0  0
   -4.3220   -8.6940    0.6950 C   0  0  0  0  0  0  0  0  0  0  0  0
   -3.7190   -8.1540   -0.4550 C   0  0  0  0  0  0  0  0  0  0  0  0
   -4.3410   -8.2700   -1.7230 C   0  0  0  0  0  0  0  0  0  0  0  0
   -2.5020   -7.5010   -0.3880 O   0  0  0  0  0  0  0  0  0  0  0  0
   -1.9130   -7.5420    0.9250 C   0  0  0  0  0  0  0  0  0  0  0  0
   -2.9670   -7.4710    1.9950 C   0  0  0  0  0  0  0  0  0  0  0  0
   -3.7720   -8.6260    1.9370 O   0  0  0  0  0  0  0  0  0  0  0  0
  1  2  1  0
  2  3  1  0
  3  4  1  0
  4  5  2  0
  5  6  1  0
  6  7  1  0
  7  8  1  0
  8  9  1  0
  9 10  2  0
  9 11  1  0
 11 12  1  0
 12 13  1  0
 13 14  1  0
 14 15  2  0
 15 16  1  0
 16 17  2  0
 17 18  1  0
 18 19  2  0
 18 20  1  0
 20 21  1  0
 21 22  1  0
 22 23  1  0
  6  2  2  0
 19 14  1  0
 23 17  1  0
M  END
>  <pair>  (280) 
x1052_1A-x1140_0A

>  <sucos>  (280) 
0.5067877950611931

>  <ref_mols>  (280) 
x1052_1A,x1140_0A

>  <original SMILES>  (280) 
Cc1oncc1COC(=O)CCSc1ccc2c(c1)OCCO2

>  <cmpd_ids>  (280) 
ENAMINE:Z3159212382

>  <ref_url>  (280) 
https://github.com/stephwills/fragment_network_merges

>  <submitter_name>  (280) 
Steph Wills

>  <submitter_institution>  (280) 
University of Oxford

>  <submitter_email>  (280) 
stephanie.wills@balliol.ox.ac.uk

>  <generation_date>  (280) 
2023-09-06

>  <method>  (280) 
fragNetMergingIt3

>  <ref_pdb>  (280) 
x1052_1A,x1140_0A

$$$$
x1052-1A-x1498-0A-148
     RDKit          3D

 23 24  0  0  0  0  0  0  0  0999 V2000
   -5.9930   -3.5670   -1.9240 C   0  0  0  0  0  0  0  0  0  0  0  0
   -6.2550   -4.9930   -1.4480 C   0  0  0  0  0  0  0  0  0  0  0  0
   -5.4570   -6.1370   -2.0700 C   0  0  0  0  0  0  0  0  0  0  0  0
   -5.9850   -7.2240   -1.4010 C   0  0  0  0  0  0  0  0  0  0  0  0
   -5.6920   -8.7100   -1.5150 C   0  0  1  0  0  0  0  0  0  0  0  0
   -5.9860   -9.4910   -0.2380 C   0  0  0  0  0  0  0  0  0  0  0  0
   -6.3640   -9.2680   -2.5860 N   0  0  0  0  0  0  0  0  0  0  0  0
   -5.9380   -8.8490   -3.8240 C   0  0  0  0  0  0  0  0  0  0  0  0
   -4.8560   -8.3340   -3.9850 O   0  0  0  0  0  0  0  0  0  0  0  0
   -6.8320   -9.0180   -4.9210 C   0  0  0  0  0  0  0  0  0  0  0  0
   -7.6880   -9.9020   -4.8870 O   0  0  0  0  0  0  0  0  0  0  0  0
   -6.6000   -8.1350   -5.9100 N   0  0  0  0  0  0  0  0  0  0  0  0
   -5.2790   -7.5770   -5.9050 C   0  0  0  0  0  0  0  0  0  0  0  0
   -7.3980   -7.9110   -7.0250 C   0  0  2  0  0  0  0  0  0  0  0  0
   -6.7310   -8.2450   -8.3710 C   0  0  0  0  0  0  0  0  0  0  0  0
   -7.9530   -6.4980   -7.1120 C   0  0  0  0  0  0  0  0  0  0  0  0
   -7.3130   -5.6200   -8.0720 C   0  0  0  0  0  0  0  0  0  0  0  0
   -7.7460   -4.3390   -8.2380 C   0  0  0  0  0  0  0  0  0  0  0  0
   -8.7710   -3.8180   -7.5400 N   0  0  0  0  0  0  0  0  0  0  0  0
   -9.3740   -4.6240   -6.6370 C   0  0  0  0  0  0  0  0  0  0  0  0
   -9.0140   -5.9500   -6.3850 C   0  0  0  0  0  0  0  0  0  0  0  0
   -6.9430   -6.7920   -0.5030 O   0  0  0  0  0  0  0  0  0  0  0  0
   -7.1180   -5.4080   -0.5330 N   0  0  0  0  0  0  0  0  0  0  0  0
  1  2  1  0
  2  3  1  0
  3  4  2  0
  4  5  1  0
  5  6  1  1
  5  7  1  0
  7  8  1  0
  8  9  2  0
  8 10  1  0
 10 11  2  0
 10 12  1  0
 12 13  1  0
 12 14  1  0
 14 15  1  6
 14 16  1  0
 16 17  2  0
 17 18  1  0
 18 19  2  0
 19 20  1  0
 20 21  2  0
  4 22  1  0
 22 23  1  0
 23  2  2  0
 21 16  1  0
M  END
>  <pair>  (281) 
x1052_1A-x1498_0A

>  <sucos>  (281) 
0.5077996086022722

>  <ref_mols>  (281) 
x1052_1A,x1498_0A

>  <original SMILES>  (281) 
Cc1cc(C(C)NC(=O)C(=O)N(C)C(C)c2ccncc2)on1

>  <cmpd_ids>  (281) 
ENAMINE:Z3643563186

>  <ref_url>  (281) 
https://github.com/stephwills/fragment_network_merges

>  <submitter_name>  (281) 
Steph Wills

>  <submitter_institution>  (281) 
University of Oxford

>  <submitter_email>  (281) 
stephanie.wills@balliol.ox.ac.uk

>  <generation_date>  (281) 
2023-09-06

>  <method>  (281) 
fragNetMergingIt3

>  <ref_pdb>  (281) 
x1052_1A,x1498_0A

$$$$
x1594-0A-x1052-1A-92
     RDKit          3D

 21 23  0  0  0  0  0  0  0  0999 V2000
   -5.6580   -6.3150   -4.1480 O   0  0  0  0  0  0  0  0  0  0  0  0
   -5.3920   -7.3970   -3.6590 C   0  0  0  0  0  0  0  0  0  0  0  0
   -4.6060   -7.4110   -2.3510 C   0  0  0  0  0  0  0  0  0  0  0  0
   -5.6520   -6.6790   -1.5260 C   0  0  0  0  0  0  0  0  0  0  0  0
   -6.1240   -5.3750   -1.4700 C   0  0  0  0  0  0  0  0  0  0  0  0
   -7.1440   -5.4070   -0.4810 N   0  0  0  0  0  0  0  0  0  0  0  0
   -7.2370   -6.6640   -0.0010 C   0  0  0  0  0  0  0  0  0  0  0  0
   -6.3330   -7.4740   -0.6150 O   0  0  0  0  0  0  0  0  0  0  0  0
   -5.8460   -8.5820   -4.2020 N   0  0  0  0  0  0  0  0  0  0  0  0
   -6.9960   -8.4990   -5.0850 C   0  0  0  0  0  0  0  0  0  0  0  0
   -7.0500   -7.2040   -5.7670 C   0  0  0  0  0  0  0  0  0  0  0  0
   -7.7610   -7.1200   -6.8890 C   0  0  0  0  0  0  0  0  0  0  0  0
   -7.8150   -5.8110   -7.4550 C   0  0  0  0  0  0  0  0  0  0  0  0
   -6.9730   -5.2480   -8.3140 N   0  0  0  0  0  0  0  0  0  0  0  0
   -7.4230   -3.9730   -8.5880 N   0  0  0  0  0  0  0  0  0  0  0  0
   -8.5700   -3.7920   -7.8580 C   0  0  0  0  0  0  0  0  0  0  0  0
   -9.4900   -2.7160   -7.7070 C   0  0  0  0  0  0  0  0  0  0  0  0
  -10.5530   -2.8560   -6.8890 C   0  0  0  0  0  0  0  0  0  0  0  0
  -10.7830   -4.0870   -6.1530 C   0  0  0  0  0  0  0  0  0  0  0  0
   -9.9160   -5.0960   -6.2960 C   0  0  0  0  0  0  0  0  0  0  0  0
   -8.8240   -4.9430   -7.1410 N   0  0  0  0  0  0  0  0  0  0  0  0
  1  2  2  0
  2  3  1  0
  3  4  1  0
  4  5  2  0
  5  6  1  0
  6  7  2  0
  7  8  1  0
  2  9  1  0
  9 10  1  0
 10 11  1  0
 11 12  1  0
 12 13  1  0
 13 14  2  0
 14 15  1  0
 15 16  2  0
 16 17  1  0
 17 18  2  0
 18 19  1  0
 19 20  2  0
 20 21  1  0
  8  4  1  0
 21 13  1  0
 21 16  1  0
M  END
>  <pair>  (282) 
x1594_0A-x1052_1A

>  <sucos>  (282) 
0.5091373110100063

>  <ref_mols>  (282) 
x1594_0A,x1052_1A

>  <original SMILES>  (282) 
O=C(Cc1cnco1)NCCCc1nnc2ccccn12

>  <cmpd_ids>  (282) 
ENAMINE:Z4237973036

>  <ref_url>  (282) 
https://github.com/stephwills/fragment_network_merges

>  <submitter_name>  (282) 
Steph Wills

>  <submitter_institution>  (282) 
University of Oxford

>  <submitter_email>  (282) 
stephanie.wills@balliol.ox.ac.uk

>  <generation_date>  (282) 
2023-09-06

>  <method>  (282) 
fragNetMergingIt3

>  <ref_pdb>  (282) 
x1594_0A,x1052_1A

$$$$
x1020-0A-x0130-0A-196
     RDKit          3D

 18 19  0  0  0  0  0  0  0  0999 V2000
   -8.7310  -12.2950    3.5570 C   0  0  0  0  0  0  0  0  0  0  0  0
   -7.4330  -12.9340    4.0120 C   0  0  2  0  0  0  0  0  0  0  0  0
   -6.3460  -11.8820    4.1980 C   0  0  0  0  0  0  0  0  0  0  0  0
   -5.5640  -11.8910    5.1430 O   0  0  0  0  0  0  0  0  0  0  0  0
   -6.3710  -10.9530    3.1820 N   0  0  0  0  0  0  0  0  0  0  0  0
   -5.2360  -10.3760    2.6270 C   0  0  0  0  0  0  0  0  0  0  0  0
   -4.0420  -11.0680    2.5700 C   0  0  0  0  0  0  0  0  0  0  0  0
   -3.1000  -10.2750    1.9940 N   0  0  0  0  0  0  0  0  0  0  0  0
   -3.7530   -9.1320    1.7190 N   0  0  0  0  0  0  0  0  0  0  0  0
   -3.0380   -8.0600    1.1010 C   0  0  0  0  0  0  0  0  0  0  0  0
   -1.9350   -7.6680    2.0550 C   0  0  0  0  0  0  0  0  0  0  0  0
   -0.9420   -8.7130    2.3260 N   0  0  0  0  0  0  0  0  0  0  0  0
   -5.0670   -9.1410    2.0860 C   0  0  0  0  0  0  0  0  0  0  0  0
   -6.9840  -14.0050    3.0070 C   0  0  1  0  0  0  0  0  0  0  0  0
   -6.9760  -13.5400    1.5570 C   0  0  0  0  0  0  0  0  0  0  0  0
   -5.5450  -13.6690    1.0830 C   0  0  0  0  0  0  0  0  0  0  0  0
   -4.7700  -14.3440    2.2070 C   0  0  0  0  0  0  0  0  0  0  0  0
   -5.6610  -14.4790    3.3460 O   0  0  0  0  0  0  0  0  0  0  0  0
  2  1  1  6
  2  3  1  0
  3  4  2  0
  3  5  1  0
  5  6  1  0
  6  7  1  0
  7  8  2  0
  8  9  1  0
  9 10  1  0
 10 11  1  0
 11 12  1  0
  9 13  1  0
  2 14  1  0
 14 15  1  6
 15 16  1  0
 16 17  1  0
 17 18  1  0
 13  6  2  0
 18 14  1  0
M  END
>  <pair>  (283) 
x1020_0A-x0130_0A

>  <sucos>  (283) 
0.5126275175599518

>  <ref_mols>  (283) 
x1020_0A,x0130_0A

>  <original SMILES>  (283) 
CC(C(=O)Nc1cnn(CCN)c1)C1CCCO1

>  <cmpd_ids>  (283) 
ENAMINE:Z3700595490

>  <ref_url>  (283) 
https://github.com/stephwills/fragment_network_merges

>  <submitter_name>  (283) 
Steph Wills

>  <submitter_institution>  (283) 
University of Oxford

>  <submitter_email>  (283) 
stephanie.wills@balliol.ox.ac.uk

>  <generation_date>  (283) 
2023-09-06

>  <method>  (283) 
fragNetMergingIt3

>  <ref_pdb>  (283) 
x1020_0A,x0130_0A

$$$$
x1052-1A-x1594-0A-45
     RDKit          3D

 22 24  0  0  0  0  0  0  0  0999 V2000
   -3.7890   -7.5780   -0.4400 C   0  0  0  0  0  0  0  0  0  0  0  0
   -4.9750   -6.8090   -0.8690 C   0  0  0  0  0  0  0  0  0  0  0  0
   -5.2600   -6.0530   -1.9630 C   0  0  0  0  0  0  0  0  0  0  0  0
   -6.5780   -5.5960   -1.7420 C   0  0  0  0  0  0  0  0  0  0  0  0
   -7.4140   -4.7450   -2.6020 C   0  0  0  0  0  0  0  0  0  0  0  0
   -7.5440   -5.5250   -4.2100 S   0  0  0  0  0  6  0  0  0  0  0  0
   -7.4050   -4.5400   -5.2470 O   0  0  0  0  0  0  0  0  0  0  0  0
   -6.6880   -6.6970   -4.2150 O   0  0  0  0  0  0  0  0  0  0  0  0
   -9.0760   -6.1960   -4.2840 N   0  0  0  0  0  0  0  0  0  0  0  0
   -9.7930   -6.2950   -5.4870 C   0  0  0  0  0  0  0  0  0  0  0  0
  -10.4530   -7.2700   -5.8070 O   0  0  0  0  0  0  0  0  0  0  0  0
   -9.6720   -5.1690   -6.2740 C   0  0  0  0  0  0  0  0  0  0  0  0
  -10.6060   -4.2090   -6.0970 C   0  0  0  0  0  0  0  0  0  0  0  0
  -10.5700   -2.9610   -6.8390 C   0  0  0  0  0  0  0  0  0  0  0  0
   -9.5760   -2.7710   -7.7180 C   0  0  0  0  0  0  0  0  0  0  0  0
   -8.6110   -3.7620   -7.9170 N   0  0  0  0  0  0  0  0  0  0  0  0
   -7.5710   -3.7580   -8.7410 N   0  0  0  0  0  0  0  0  0  0  0  0
   -6.9120   -4.8970   -8.6230 N   0  0  0  0  0  0  0  0  0  0  0  0
   -7.5380   -5.6550   -7.6960 C   0  0  0  0  0  0  0  0  0  0  0  0
   -8.6270   -4.9700   -7.2190 C   0  0  0  0  0  0  0  0  0  0  0  0
   -7.0630   -6.0450   -0.5820 N   0  0  0  0  0  0  0  0  0  0  0  0
   -6.0550   -6.8130   -0.0370 O   0  0  0  0  0  0  0  0  0  0  0  0
  1  2  1  0
  2  3  2  0
  3  4  1  0
  4  5  1  0
  5  6  1  0
  6  7  2  0
  6  8  2  0
  6  9  1  0
  9 10  1  0
 10 11  2  0
 10 12  1  0
 12 13  2  0
 13 14  1  0
 14 15  2  0
 15 16  1  0
 16 17  1  0
 17 18  2  0
 18 19  1  0
 19 20  2  0
  4 21  2  0
 21 22  1  0
 22  2  1  0
 20 12  1  0
 20 16  1  0
M  END
>  <pair>  (284) 
x1052_1A-x1594_0A

>  <sucos>  (284) 
0.5135436224144658

>  <ref_mols>  (284) 
x1052_1A,x1594_0A

>  <original SMILES>  (284) 
Cc1cc(CS(=O)(=O)NC(=O)c2cccn3nncc23)no1

>  <cmpd_ids>  (284) 
ENAMINE:PV-003147069496

>  <ref_url>  (284) 
https://github.com/stephwills/fragment_network_merges

>  <submitter_name>  (284) 
Steph Wills

>  <submitter_institution>  (284) 
University of Oxford

>  <submitter_email>  (284) 
stephanie.wills@balliol.ox.ac.uk

>  <generation_date>  (284) 
2023-09-06

>  <method>  (284) 
fragNetMergingIt3

>  <ref_pdb>  (284) 
x1052_1A,x1594_0A

$$$$
x1071-0A-x1020-0A-167
     RDKit          3D

 23 24  0  0  0  0  0  0  0  0999 V2000
   -7.2030  -12.3980    3.3580 C   0  0  0  0  0  0  0  0  0  0  0  0
   -6.0490  -11.4410    3.6110 C   0  0  0  0  0  0  0  0  0  0  0  0
   -5.5780  -11.3040    4.7380 O   0  0  0  0  0  0  0  0  0  0  0  0
   -5.5720  -10.7700    2.4890 N   0  0  0  0  0  0  0  0  0  0  0  0
   -6.3590  -10.0190    1.4850 C   0  0  2  0  0  0  0  0  0  0  0  0
   -7.2520  -10.9550    0.6490 C   0  0  0  0  0  0  0  0  0  0  0  0
   -7.2550  -10.6060   -0.8540 C   0  0  0  0  0  0  0  0  0  0  0  0
   -7.3870   -9.1960   -1.0260 O   0  0  0  0  0  0  0  0  0  0  0  0
   -6.2330   -8.4390   -0.5920 C   0  0  0  0  0  0  0  0  0  0  0  0
   -6.6870   -7.0700   -0.0890 C   0  0  0  0  0  0  0  0  0  0  0  0
   -7.3930   -6.2270   -1.1300 C   0  0  0  0  0  0  0  0  0  0  0  0
   -6.4700   -5.8890   -2.1970 N   0  0  0  0  0  0  0  0  0  0  0  0
   -6.4120   -4.6170   -2.8220 C   0  0  0  0  0  0  0  0  0  0  0  0
   -6.8460   -4.4230   -3.9730 O   0  0  0  0  0  0  0  0  0  0  0  0
   -5.8020   -3.4450   -2.0370 C   0  0  0  0  0  0  0  0  0  0  0  0
   -6.7320   -2.2860   -2.0060 N   0  0  0  0  0  0  0  0  0  0  0  0
   -6.2890   -0.9400   -1.1000 S   0  0  0  0  0  6  0  0  0  0  0  0
   -7.8400   -0.0710   -0.9820 C   0  0  0  0  0  0  0  0  0  0  0  0
   -5.4160   -0.1160   -1.9030 O   0  0  0  0  0  0  0  0  0  0  0  0
   -5.9140   -1.3750    0.2290 O   0  0  0  0  0  0  0  0  0  0  0  0
   -5.7650   -7.0280   -2.8100 C   0  0  0  0  0  0  0  0  0  0  0  0
   -5.3650   -8.1950   -1.8650 C   0  0  0  0  0  0  0  0  0  0  0  0
   -5.4520   -9.1850    0.5430 C   0  0  0  0  0  0  0  0  0  0  0  0
  1  2  1  0
  2  3  2  0
  2  4  1  0
  5  4  1  1
  5  6  1  0
  6  7  1  0
  7  8  1  0
  8  9  1  0
  9 10  1  0
 10 11  1  0
 11 12  1  0
 12 13  1  0
 13 14  2  0
 13 15  1  0
 15 16  1  0
 16 17  1  0
 17 18  1  0
 17 19  2  0
 17 20  2  0
 12 21  1  0
 21 22  1  0
  9 23  1  0
 23  5  1  0
 22  9  1  0
M  END
>  <pair>  (285) 
x1071_0A-x1020_0A

>  <sucos>  (285) 
0.5190079193507945

>  <ref_mols>  (285) 
x1071_0A,x1020_0A

>  <original SMILES>  (285) 
CC(=O)NC1CCOC2(CCN(C(=O)CNS(C)(=O)=O)CC2)C1

>  <cmpd_ids>  (285) 
ENAMINE:PV-002725397970

>  <ref_url>  (285) 
https://github.com/stephwills/fragment_network_merges

>  <submitter_name>  (285) 
Steph Wills

>  <submitter_institution>  (285) 
University of Oxford

>  <submitter_email>  (285) 
stephanie.wills@balliol.ox.ac.uk

>  <generation_date>  (285) 
2023-09-06

>  <method>  (285) 
fragNetMergingIt3

>  <ref_pdb>  (285) 
x1071_0A,x1020_0A

$$$$
x0147-0A-x1052-1A-102
     RDKit          3D

 24 27  0  0  0  0  0  0  0  0999 V2000
   -6.5810   -3.1040   -2.1950 C   0  0  0  0  0  0  0  0  0  0  0  0
   -7.4620   -4.3140   -1.9630 C   0  0  1  0  0  0  0  0  0  0  0  0
   -8.0880   -4.7250   -3.2290 N   0  0  0  0  0  0  0  0  0  0  0  0
   -8.1430   -6.1900   -3.4120 C   0  0  0  0  0  0  0  0  0  0  0  0
   -7.3980   -6.5890   -4.7080 C   0  0  1  0  0  0  0  0  0  0  0  0
   -6.3550   -7.4060   -4.4710 C   0  0  0  0  0  0  0  0  0  0  0  0
   -5.9690   -8.1980   -5.7320 C   0  0  0  0  0  0  0  0  0  0  0  0
   -6.3730   -7.5870   -7.0430 C   0  0  0  0  0  0  0  0  0  0  0  0
   -7.7270   -7.0330   -7.0220 N   0  0  0  0  0  0  0  0  0  0  0  0
   -7.9330   -5.7620   -7.4960 C   0  0  0  0  0  0  0  0  0  0  0  0
   -6.9390   -5.2370   -8.2770 N   0  0  0  0  0  0  0  0  0  0  0  0
   -7.1170   -3.9870   -8.7080 C   0  0  0  0  0  0  0  0  0  0  0  0
   -8.1400   -3.2210   -8.4750 C   0  0  0  0  0  0  0  0  0  0  0  0
   -9.1370   -3.6740   -7.7360 N   0  0  0  0  0  0  0  0  0  0  0  0
  -10.2870   -3.0920   -7.3550 C   0  0  0  0  0  0  0  0  0  0  0  0
  -10.9660   -3.9340   -6.6240 N   0  0  0  0  0  0  0  0  0  0  0  0
  -10.2220   -5.1010   -6.5330 N   0  0  0  0  0  0  0  0  0  0  0  0
   -9.1050   -4.9170   -7.2210 C   0  0  0  0  0  0  0  0  0  0  0  0
   -8.3270   -7.2560   -5.7130 C   0  0  0  0  0  0  0  0  0  0  0  0
   -6.6660   -5.4810   -1.4680 C   0  0  0  0  0  0  0  0  0  0  0  0
   -5.5010   -5.9860   -2.0120 C   0  0  0  0  0  0  0  0  0  0  0  0
   -4.9710   -7.3350   -1.1080 S   0  0  0  0  0  0  0  0  0  0  0  0
   -6.3220   -7.1470   -0.0770 C   0  0  0  0  0  0  0  0  0  0  0  0
   -7.1320   -6.1540   -0.3520 N   0  0  0  0  0  0  0  0  0  0  0  0
  2  1  1  6
  2  3  1  0
  3  4  1  0
  5  4  1  1
  5  6  1  0
  6  7  1  0
  7  8  1  0
  8  9  1  0
  9 10  1  0
 10 11  2  0
 11 12  1  0
 12 13  2  0
 13 14  1  0
 14 15  1  0
 15 16  2  0
 16 17  1  0
 17 18  2  0
  9 19  1  0
  2 20  1  0
 20 21  2  0
 21 22  1  0
 22 23  1  0
 23 24  2  0
 19  5  1  0
 24 20  1  0
 18 10  1  0
 18 14  1  0
M  END
>  <pair>  (286) 
x0147_0A-x1052_1A

>  <sucos>  (286) 
0.5190991459702089

>  <ref_mols>  (286) 
x0147_0A,x1052_1A

>  <original SMILES>  (286) 
CC(NCC1CCCN(c2nccn3cnnc23)C1)c1cscn1

>  <cmpd_ids>  (286) 
ENAMINE:Z1583014795

>  <ref_url>  (286) 
https://github.com/stephwills/fragment_network_merges

>  <submitter_name>  (286) 
Steph Wills

>  <submitter_institution>  (286) 
University of Oxford

>  <submitter_email>  (286) 
stephanie.wills@balliol.ox.ac.uk

>  <generation_date>  (286) 
2023-09-06

>  <method>  (286) 
fragNetMergingIt3

>  <ref_pdb>  (286) 
x0147_0A,x1052_1A

$$$$
x1052-1A-x1594-0A-157
     RDKit          3D

 23 26  0  0  0  0  0  0  0  0999 V2000
   -6.3250   -9.6400   -2.4800 O   0  0  0  0  0  0  0  0  0  0  0  0
   -5.9910   -8.4660   -3.2580 S   0  0  0  0  0  6  0  0  0  0  0  0
   -4.6800   -8.2390   -3.7800 O   0  0  0  0  0  0  0  0  0  0  0  0
   -7.0450   -8.3970   -4.6000 N   0  0  0  0  0  0  0  0  0  0  0  0
   -7.0660   -7.1020   -5.3400 C   0  0  0  0  0  0  0  0  0  0  0  0
   -7.7910   -7.1780   -6.6380 C   0  0  0  0  0  0  0  0  0  0  0  0
   -7.8970   -5.8620   -7.2480 N   0  0  0  0  0  0  0  0  0  0  0  0
   -6.9950   -5.3920   -8.1610 N   0  0  0  0  0  0  0  0  0  0  0  0
   -7.3810   -4.1870   -8.4940 N   0  0  0  0  0  0  0  0  0  0  0  0
   -8.5250   -3.9070   -7.7880 C   0  0  0  0  0  0  0  0  0  0  0  0
   -9.3340   -2.7250   -7.7860 C   0  0  0  0  0  0  0  0  0  0  0  0
  -10.4050   -2.8520   -6.9340 C   0  0  0  0  0  0  0  0  0  0  0  0
  -10.7610   -3.9200   -6.1330 C   0  0  0  0  0  0  0  0  0  0  0  0
   -9.9670   -5.0480   -6.1460 C   0  0  0  0  0  0  0  0  0  0  0  0
   -8.8640   -4.9860   -6.9880 C   0  0  0  0  0  0  0  0  0  0  0  0
   -6.3030   -7.0720   -2.2110 C   0  0  0  0  0  0  0  0  0  0  0  0
   -6.1030   -5.7270   -2.3900 C   0  0  0  0  0  0  0  0  0  0  0  0
   -6.5430   -5.0370   -1.2910 C   0  0  0  0  0  0  0  0  0  0  0  0
   -6.4930   -3.4960   -1.1660 C   0  0  0  0  0  0  0  0  0  0  0  0
   -6.9520   -2.6950   -2.3440 C   0  0  0  0  0  0  0  0  0  0  0  0
   -5.5080   -2.6810   -1.9630 C   0  0  0  0  0  0  0  0  0  0  0  0
   -7.0160   -5.8890   -0.3830 N   0  0  0  0  0  0  0  0  0  0  0  0
   -6.8640   -7.1650   -0.9480 O   0  0  0  0  0  0  0  0  0  0  0  0
  1  2  2  0
  2  3  2  0
  2  4  1  0
  4  5  1  0
  5  6  1  0
  6  7  1  0
  7  8  1  0
  8  9  2  0
  9 10  1  0
 10 11  2  0
 11 12  1  0
 12 13  2  0
 13 14  1  0
 14 15  2  0
  2 16  1  0
 16 17  2  0
 17 18  1  0
 18 19  1  0
 19 20  1  0
 20 21  1  0
 18 22  2  0
 22 23  1  0
 15  7  1  0
 23 16  1  0
 15 10  1  0
 21 19  1  0
M  END
>  <pair>  (287) 
x1052_1A-x1594_0A

>  <sucos>  (287) 
0.5233260125349258

>  <ref_mols>  (287) 
x1052_1A,x1594_0A

>  <original SMILES>  (287) 
O=S(=O)(NCCn1nnc2ccccc21)c1cc(C2CC2)no1

>  <cmpd_ids>  (287) 
ENAMINE:PV-003346890180

>  <ref_url>  (287) 
https://github.com/stephwills/fragment_network_merges

>  <submitter_name>  (287) 
Steph Wills

>  <submitter_institution>  (287) 
University of Oxford

>  <submitter_email>  (287) 
stephanie.wills@balliol.ox.ac.uk

>  <generation_date>  (287) 
2023-09-06

>  <method>  (287) 
fragNetMergingIt3

>  <ref_pdb>  (287) 
x1052_1A,x1594_0A

$$$$
x1594-0A-x1052-1A-198
     RDKit          3D

 21 23  0  0  0  0  0  0  0  0999 V2000
   -7.3420   -9.2620   -4.5380 O   0  0  0  0  0  0  0  0  0  0  0  0
   -6.8440   -8.1470   -4.6950 C   0  0  0  0  0  0  0  0  0  0  0  0
   -5.4590   -7.7700   -4.1150 C   0  0  0  0  0  0  0  0  0  0  0  0
   -5.1710   -8.4770   -2.4650 S   0  0  0  0  0  0  0  0  0  0  0  0
   -5.9640   -7.2230   -1.6600 C   0  0  0  0  0  0  0  0  0  0  0  0
   -5.7130   -5.9040   -1.9810 C   0  0  0  0  0  0  0  0  0  0  0  0
   -6.3840   -4.8950   -1.3340 C   0  0  0  0  0  0  0  0  0  0  0  0
   -7.2790   -5.1440   -0.3950 N   0  0  0  0  0  0  0  0  0  0  0  0
   -7.5150   -6.4420   -0.0800 C   0  0  0  0  0  0  0  0  0  0  0  0
   -6.8900   -7.5110   -0.6770 C   0  0  0  0  0  0  0  0  0  0  0  0
   -7.4830   -7.1430   -5.4130 N   0  0  0  0  0  0  0  0  0  0  0  0
   -7.1100   -6.8460   -6.8250 C   0  0  0  0  0  0  0  0  0  0  0  0
   -7.5720   -5.5230   -7.4210 C   0  0  0  0  0  0  0  0  0  0  0  0
   -6.8920   -4.8520   -8.4120 N   0  0  0  0  0  0  0  0  0  0  0  0
   -7.5960   -3.7190   -8.6760 N   0  0  0  0  0  0  0  0  0  0  0  0
   -8.6370   -3.7210   -7.8850 C   0  0  0  0  0  0  0  0  0  0  0  0
   -9.7650   -2.7780   -7.6870 C   0  0  0  0  0  0  0  0  0  0  0  0
  -10.7410   -3.0680   -6.7530 C   0  0  0  0  0  0  0  0  0  0  0  0
  -10.6790   -4.2030   -6.0170 C   0  0  0  0  0  0  0  0  0  0  0  0
   -9.6630   -5.0870   -6.1650 C   0  0  0  0  0  0  0  0  0  0  0  0
   -8.6490   -4.8500   -7.0890 N   0  0  0  0  0  0  0  0  0  0  0  0
  1  2  2  0
  2  3  1  0
  3  4  1  0
  4  5  1  0
  5  6  2  0
  6  7  1  0
  7  8  2  0
  8  9  1  0
  9 10  2  0
  2 11  1  0
 11 12  1  0
 12 13  1  0
 13 14  2  0
 14 15  1  0
 15 16  2  0
 16 17  1  0
 17 18  2  0
 18 19  1  0
 19 20  2  0
 20 21  1  0
 10  5  1  0
 21 13  1  0
 21 16  1  0
M  END
>  <pair>  (288) 
x1594_0A-x1052_1A

>  <sucos>  (288) 
0.5251666212458693

>  <ref_mols>  (288) 
x1594_0A,x1052_1A

>  <original SMILES>  (288) 
O=C(CSc1ccncc1)NCc1nnc2ccccn12

>  <cmpd_ids>  (288) 
ENAMINE:Z62865974

>  <ref_url>  (288) 
https://github.com/stephwills/fragment_network_merges

>  <submitter_name>  (288) 
Steph Wills

>  <submitter_institution>  (288) 
University of Oxford

>  <submitter_email>  (288) 
stephanie.wills@balliol.ox.ac.uk

>  <generation_date>  (288) 
2023-09-06

>  <method>  (288) 
fragNetMergingIt3

>  <ref_pdb>  (288) 
x1594_0A,x1052_1A

$$$$
x1594-0A-x1052-1A-40
     RDKit          3D

 22 24  0  0  0  0  0  0  0  0999 V2000
   -9.7410   -9.4130   -4.0540 O   0  0  0  0  0  0  0  0  0  0  0  0
   -8.8270   -8.6370   -3.7910 C   0  0  0  0  0  0  0  0  0  0  0  0
   -7.9950   -8.7010   -2.5160 C   0  0  0  0  0  0  0  0  0  0  0  0
   -8.7940   -8.5750   -1.2060 C   0  0  0  0  0  0  0  0  0  0  0  0
   -8.0130   -7.8590   -0.0850 C   0  0  0  0  0  0  0  0  0  0  0  0
   -6.9930   -6.9570   -0.7000 C   0  0  0  0  0  0  0  0  0  0  0  0
   -7.1340   -5.6530   -0.8240 N   0  0  0  0  0  0  0  0  0  0  0  0
   -6.0260   -5.1420   -1.4640 C   0  0  0  0  0  0  0  0  0  0  0  0
   -5.0620   -6.0650   -1.8100 C   0  0  0  0  0  0  0  0  0  0  0  0
   -5.5350   -7.6210   -1.3180 S   0  0  0  0  0  0  0  0  0  0  0  0
   -8.4410   -7.6060   -4.6290 N   0  0  0  0  0  0  0  0  0  0  0  0
   -8.5280   -7.6990   -6.0820 C   0  0  0  0  0  0  0  0  0  0  0  0
   -7.3550   -7.0340   -6.8280 C   0  0  0  0  0  0  0  0  0  0  0  0
   -7.6370   -5.6900   -7.4280 C   0  0  0  0  0  0  0  0  0  0  0  0
   -6.9240   -5.0740   -8.3510 N   0  0  0  0  0  0  0  0  0  0  0  0
   -7.5120   -3.8660   -8.6270 N   0  0  0  0  0  0  0  0  0  0  0  0
   -8.5800   -3.7570   -7.8690 C   0  0  0  0  0  0  0  0  0  0  0  0
   -9.5650   -2.7430   -7.7190 C   0  0  0  0  0  0  0  0  0  0  0  0
  -10.5730   -2.9160   -6.8460 C   0  0  0  0  0  0  0  0  0  0  0  0
  -10.6800   -4.1240   -6.0440 C   0  0  0  0  0  0  0  0  0  0  0  0
   -9.7490   -5.0810   -6.1790 C   0  0  0  0  0  0  0  0  0  0  0  0
   -8.7080   -4.8960   -7.0870 N   0  0  0  0  0  0  0  0  0  0  0  0
  1  2  2  0
  2  3  1  0
  3  4  1  0
  4  5  1  0
  5  6  1  0
  6  7  2  0
  7  8  1  0
  8  9  2  0
  9 10  1  0
  2 11  1  0
 11 12  1  0
 12 13  1  0
 13 14  1  0
 14 15  2  0
 15 16  1  0
 16 17  2  0
 17 18  1  0
 18 19  2  0
 19 20  1  0
 20 21  2  0
 21 22  1  0
 10  6  1  0
 22 14  1  0
 22 17  1  0
M  END
>  <pair>  (289) 
x1594_0A-x1052_1A

>  <sucos>  (289) 
0.5283731960442146

>  <ref_mols>  (289) 
x1594_0A,x1052_1A

>  <original SMILES>  (289) 
O=C(CCCc1nccs1)NCCc1nnc2ccccn12

>  <cmpd_ids>  (289) 
ENAMINE:Z2927725461

>  <ref_url>  (289) 
https://github.com/stephwills/fragment_network_merges

>  <submitter_name>  (289) 
Steph Wills

>  <submitter_institution>  (289) 
University of Oxford

>  <submitter_email>  (289) 
stephanie.wills@balliol.ox.ac.uk

>  <generation_date>  (289) 
2023-09-06

>  <method>  (289) 
fragNetMergingIt3

>  <ref_pdb>  (289) 
x1594_0A,x1052_1A

$$$$
x1594-0A-x1919-0A-191
     RDKit          3D

 23 25  0  0  0  0  0  0  0  0999 V2000
   -6.4710   -4.2570   -3.7000 O   0  0  0  0  0  0  0  0  0  0  0  0
   -6.6270   -5.0010   -2.7270 C   0  0  0  0  0  0  0  0  0  0  0  0
   -6.7430   -4.5160   -1.3000 C   0  0  0  0  0  0  0  0  0  0  0  0
   -7.3110   -3.0980   -1.2160 C   0  0  0  0  0  0  0  0  0  0  0  0
   -6.3950   -2.2730   -0.6050 F   0  0  0  0  0  0  0  0  0  0  0  0
   -6.7070   -6.3820   -2.7880 N   0  0  0  0  0  0  0  0  0  0  0  0
   -6.8570   -7.1240   -4.0170 C   0  0  0  0  0  0  0  0  0  0  0  0
   -8.3140   -7.5570   -4.2200 C   0  0  0  0  0  0  0  0  0  0  0  0
   -9.3420   -6.5280   -3.7350 C   0  0  0  0  0  0  0  0  0  0  0  0
  -10.6360   -6.6010   -4.4210 N   0  0  0  0  0  0  0  0  0  0  0  0
  -11.2440   -5.4730   -4.9610 C   0  0  0  0  0  0  0  0  0  0  0  0
  -12.3580   -5.0580   -4.6540 O   0  0  0  0  0  0  0  0  0  0  0  0
  -10.4030   -4.7910   -5.9850 C   0  0  0  0  0  0  0  0  0  0  0  0
  -10.5850   -3.4060   -6.5480 C   0  0  0  0  0  0  0  0  0  0  0  0
   -9.6410   -2.9540   -7.5100 C   0  0  0  0  0  0  0  0  0  0  0  0
   -8.6540   -3.8060   -7.8420 C   0  0  0  0  0  0  0  0  0  0  0  0
   -7.6410   -3.5880   -8.7350 N   0  0  0  0  0  0  0  0  0  0  0  0
   -6.9090   -4.7520   -8.7150 N   0  0  0  0  0  0  0  0  0  0  0  0
   -7.4470   -5.6000   -7.8700 C   0  0  0  0  0  0  0  0  0  0  0  0
   -8.5520   -5.0510   -7.2940 N   0  0  0  0  0  0  0  0  0  0  0  0
   -9.3750   -5.5320   -6.4140 C   0  0  0  0  0  0  0  0  0  0  0  0
   -8.6610   -9.0340   -4.0170 C   0  0  0  0  0  0  0  0  0  0  0  0
   -8.6260   -8.4840   -5.4000 C   0  0  0  0  0  0  0  0  0  0  0  0
  1  2  2  0
  2  3  1  0
  3  4  1  0
  4  5  1  0
  2  6  1  0
  6  7  1  0
  7  8  1  0
  8  9  1  0
  9 10  1  0
 10 11  1  0
 11 12  2  0
 11 13  1  0
 13 14  1  0
 14 15  2  0
 15 16  1  0
 16 17  2  0
 17 18  1  0
 18 19  2  0
 19 20  1  0
 20 21  1  0
  8 22  1  0
 22 23  1  0
 23  8  1  0
 21 13  2  0
 20 16  1  0
M  END
>  <pair>  (290) 
x1594_0A-x1919_0A

>  <sucos>  (290) 
0.5308446634227963

>  <ref_mols>  (290) 
x1594_0A,x1919_0A

>  <original SMILES>  (290) 
O=C(CCF)NCC1(CNC(=O)c2ccc3nncn3c2)CC1

>  <cmpd_ids>  (290) 
ENAMINE:PV-003811257528

>  <ref_url>  (290) 
https://github.com/stephwills/fragment_network_merges

>  <submitter_name>  (290) 
Steph Wills

>  <submitter_institution>  (290) 
University of Oxford

>  <submitter_email>  (290) 
stephanie.wills@balliol.ox.ac.uk

>  <generation_date>  (290) 
2023-09-06

>  <method>  (290) 
fragNetMergingIt3

>  <ref_pdb>  (290) 
x1594_0A,x1919_0A

$$$$
x1052-1A-x1594-0A-59
     RDKit          3D

 23 26  0  0  0  0  0  0  0  0999 V2000
   -6.6140   -4.3550   -4.0200 O   0  0  0  0  0  0  0  0  0  0  0  0
   -6.5900   -5.5470   -3.6960 C   0  0  0  0  0  0  0  0  0  0  0  0
   -6.5490   -6.6000   -4.5940 N   0  0  0  0  0  0  0  0  0  0  0  0
   -7.6070   -6.8050   -5.5810 C   0  0  0  0  0  0  0  0  0  0  0  0
   -7.1840   -6.6250   -6.8750 C   0  0  0  0  0  0  0  0  0  0  0  0
   -7.6730   -5.4010   -7.4080 N   0  0  0  0  0  0  0  0  0  0  0  0
   -6.9550   -4.8090   -8.3700 N   0  0  0  0  0  0  0  0  0  0  0  0
   -7.6030   -3.6890   -8.6820 N   0  0  0  0  0  0  0  0  0  0  0  0
   -8.7130   -3.6370   -7.8880 C   0  0  0  0  0  0  0  0  0  0  0  0
   -9.7740   -2.6260   -7.7970 C   0  0  0  0  0  0  0  0  0  0  0  0
  -10.8050   -2.8410   -6.8840 C   0  0  0  0  0  0  0  0  0  0  0  0
  -10.8080   -3.9860   -6.0920 C   0  0  0  0  0  0  0  0  0  0  0  0
   -9.8150   -4.9570   -6.1540 C   0  0  0  0  0  0  0  0  0  0  0  0
   -8.7860   -4.7340   -7.0660 C   0  0  0  0  0  0  0  0  0  0  0  0
   -6.6410   -5.8910   -2.3070 C   0  0  0  0  0  0  0  0  0  0  0  0
   -7.1910   -5.1090   -1.3300 C   0  0  0  0  0  0  0  0  0  0  0  0
   -7.1350   -5.6540   -0.1380 N   0  0  0  0  0  0  0  0  0  0  0  0
   -6.5030   -6.8600   -0.3080 O   0  0  0  0  0  0  0  0  0  0  0  0
   -6.2000   -7.0150   -1.6180 C   0  0  0  0  0  0  0  0  0  0  0  0
   -5.5630   -8.1520   -2.0920 C   0  0  0  0  0  0  0  0  0  0  0  0
   -5.7750   -9.3150   -1.4330 C   0  0  0  0  0  0  0  0  0  0  0  0
   -6.5410  -10.1030   -2.4470 C   0  0  0  0  0  0  0  0  0  0  0  0
   -6.3080   -8.9450   -3.2560 C   0  0  0  0  0  0  0  0  0  0  0  0
  1  2  2  0
  2  3  1  0
  3  4  1  0
  4  5  1  0
  5  6  1  0
  6  7  1  0
  7  8  2  0
  8  9  1  0
  9 10  2  0
 10 11  1  0
 11 12  2  0
 12 13  1  0
 13 14  2  0
  2 15  1  0
 15 16  1  0
 16 17  2  0
 17 18  1  0
 18 19  1  0
 19 20  1  0
 20 21  1  0
 21 22  1  0
 22 23  1  0
 14  6  1  0
 19 15  2  0
 23 20  1  0
 14  9  1  0
M  END
>  <pair>  (291) 
x1052_1A-x1594_0A

>  <sucos>  (291) 
0.5346998006588992

>  <ref_mols>  (291) 
x1052_1A,x1594_0A

>  <original SMILES>  (291) 
O=C(NCCn1nnc2ccccc21)c1cnoc1C1CCC1

>  <cmpd_ids>  (291) 
ENAMINE:Z3704290637

>  <ref_url>  (291) 
https://github.com/stephwills/fragment_network_merges

>  <submitter_name>  (291) 
Steph Wills

>  <submitter_institution>  (291) 
University of Oxford

>  <submitter_email>  (291) 
stephanie.wills@balliol.ox.ac.uk

>  <generation_date>  (291) 
2023-09-06

>  <method>  (291) 
fragNetMergingIt3

>  <ref_pdb>  (291) 
x1052_1A,x1594_0A

$$$$
x1052-1A-x1594-0A-180
     RDKit          3D

 22 24  0  0  0  0  0  0  0  0999 V2000
   -6.6430   -4.3120   -2.9810 C   0  0  0  0  0  0  0  0  0  0  0  0
   -6.5030   -5.3920   -1.9150 C   0  0  0  0  0  0  0  0  0  0  0  0
   -7.0580   -5.2610   -0.7020 N   0  0  0  0  0  0  0  0  0  0  0  0
   -6.7350   -6.4250   -0.0010 O   0  0  0  0  0  0  0  0  0  0  0  0
   -5.9950   -7.2450   -0.7770 C   0  0  0  0  0  0  0  0  0  0  0  0
   -5.8380   -6.6340   -1.9730 C   0  0  0  0  0  0  0  0  0  0  0  0
   -5.0890   -7.4100   -2.8660 C   0  0  0  0  0  0  0  0  0  0  0  0
   -5.5350   -7.0970   -4.1980 N   0  0  0  0  0  0  0  0  0  0  0  0
   -6.6010   -7.8070   -4.7360 C   0  0  0  0  0  0  0  0  0  0  0  0
   -6.7250   -9.2320   -4.5720 O   0  0  0  0  0  0  0  0  0  0  0  0
   -7.6590   -7.0240   -5.5170 C   0  0  2  0  0  0  0  0  0  0  0  0
   -8.9210   -7.7660   -5.5980 C   0  0  0  0  0  0  0  0  0  0  0  0
   -7.1290   -6.6650   -6.9050 C   0  0  0  0  0  0  0  0  0  0  0  0
   -7.6180   -5.4370   -7.4270 N   0  0  0  0  0  0  0  0  0  0  0  0
   -6.9500   -4.8410   -8.3950 N   0  0  0  0  0  0  0  0  0  0  0  0
   -7.5870   -3.7250   -8.6940 N   0  0  0  0  0  0  0  0  0  0  0  0
   -8.6740   -3.6640   -7.8700 C   0  0  0  0  0  0  0  0  0  0  0  0
   -9.6780   -2.7100   -7.7470 C   0  0  0  0  0  0  0  0  0  0  0  0
  -10.7030   -2.8690   -6.8200 C   0  0  0  0  0  0  0  0  0  0  0  0
  -10.7360   -3.9870   -6.0030 C   0  0  0  0  0  0  0  0  0  0  0  0
   -9.7410   -4.9480   -6.1060 C   0  0  0  0  0  0  0  0  0  0  0  0
   -8.7090   -4.7700   -7.0490 C   0  0  0  0  0  0  0  0  0  0  0  0
  1  2  1  0
  2  3  2  0
  3  4  1  0
  4  5  1  0
  5  6  2  0
  6  7  1  0
  7  8  1  0
  8  9  1  0
  9 10  2  0
  9 11  1  0
 11 12  1  6
 11 13  1  0
 13 14  1  0
 14 15  1  0
 15 16  2  0
 16 17  1  0
 17 18  2  0
 18 19  1  0
 19 20  2  0
 20 21  1  0
 21 22  2  0
  6  2  1  0
 22 14  1  0
 22 17  1  0
M  END
>  <pair>  (292) 
x1052_1A-x1594_0A

>  <sucos>  (292) 
0.5417708765185484

>  <ref_mols>  (292) 
x1052_1A,x1594_0A

>  <original SMILES>  (292) 
Cc1nocc1CNC(=O)C(C)Cn1nnc2ccccc21

>  <cmpd_ids>  (292) 
ENAMINE:Z4128344405

>  <ref_url>  (292) 
https://github.com/stephwills/fragment_network_merges

>  <submitter_name>  (292) 
Steph Wills

>  <submitter_institution>  (292) 
University of Oxford

>  <submitter_email>  (292) 
stephanie.wills@balliol.ox.ac.uk

>  <generation_date>  (292) 
2023-09-06

>  <method>  (292) 
fragNetMergingIt3

>  <ref_pdb>  (292) 
x1052_1A,x1594_0A

$$$$
x1052-1A-x1594-0A-140
     RDKit          3D

 20 22  0  0  0  0  0  0  0  0999 V2000
   -4.1810   -7.1310   -2.2830 C   0  0  0  0  0  0  0  0  0  0  0  0
   -5.3000   -6.8190   -1.4010 C   0  0  0  0  0  0  0  0  0  0  0  0
   -5.7070   -7.1160   -0.1670 C   0  0  0  0  0  0  0  0  0  0  0  0
   -6.8850   -6.4870    0.0860 O   0  0  0  0  0  0  0  0  0  0  0  0
   -7.3020   -5.7290   -1.0140 N   0  0  0  0  0  0  0  0  0  0  0  0
   -6.3630   -5.9030   -1.9700 C   0  0  0  0  0  0  0  0  0  0  0  0
   -6.4200   -5.3050   -3.2970 C   0  0  0  0  0  0  0  0  0  0  0  0
   -6.5720   -3.9660   -3.5480 O   0  0  0  0  0  0  0  0  0  0  0  0
   -6.2920   -6.2730   -4.2790 N   0  0  0  0  0  0  0  0  0  0  0  0
   -7.4150   -6.6730   -5.1280 C   0  0  0  0  0  0  0  0  0  0  0  0
   -7.1440   -6.5960   -6.6480 C   0  0  0  0  0  0  0  0  0  0  0  0
   -7.6310   -5.4040   -7.2700 N   0  0  0  0  0  0  0  0  0  0  0  0
   -6.9200   -4.8380   -8.2690 N   0  0  0  0  0  0  0  0  0  0  0  0
   -7.5690   -3.7740   -8.6310 N   0  0  0  0  0  0  0  0  0  0  0  0
   -8.6880   -3.6890   -7.8450 C   0  0  0  0  0  0  0  0  0  0  0  0
   -9.7150   -2.7350   -7.8070 C   0  0  0  0  0  0  0  0  0  0  0  0
  -10.8220   -2.9150   -6.8370 C   0  0  0  0  0  0  0  0  0  0  0  0
  -10.8300   -4.0160   -5.9840 C   0  0  0  0  0  0  0  0  0  0  0  0
   -9.8080   -4.9600   -6.0130 C   0  0  0  0  0  0  0  0  0  0  0  0
   -8.7480   -4.7420   -6.9720 C   0  0  0  0  0  0  0  0  0  0  0  0
  1  2  1  0
  2  3  2  0
  3  4  1  0
  4  5  1  0
  5  6  2  0
  6  7  1  0
  7  8  2  0
  7  9  1  0
  9 10  1  0
 10 11  1  0
 11 12  1  0
 12 13  1  0
 13 14  2  0
 14 15  1  0
 15 16  2  0
 16 17  1  0
 17 18  2  0
 18 19  1  0
 19 20  2  0
  6  2  1  0
 20 12  1  0
 20 15  1  0
M  END
>  <pair>  (293) 
x1052_1A-x1594_0A

>  <sucos>  (293) 
0.5466490702338238

>  <ref_mols>  (293) 
x1052_1A,x1594_0A

>  <original SMILES>  (293) 
Cc1conc1C(=O)NCCn1nnc2ccccc21

>  <cmpd_ids>  (293) 
ENAMINE:PV-003069621525

>  <ref_url>  (293) 
https://github.com/stephwills/fragment_network_merges

>  <submitter_name>  (293) 
Steph Wills

>  <submitter_institution>  (293) 
University of Oxford

>  <submitter_email>  (293) 
stephanie.wills@balliol.ox.ac.uk

>  <generation_date>  (293) 
2023-09-06

>  <method>  (293) 
fragNetMergingIt3

>  <ref_pdb>  (293) 
x1052_1A,x1594_0A

$$$$
x1594-0A-x1052-1A-25
     RDKit          3D

 23 25  0  0  0  0  0  0  0  0999 V2000
   -7.4550   -4.7400   -4.0990 C   0  0  0  0  0  0  0  0  0  0  0  0
   -7.6560   -4.4220   -2.6090 C   0  0  0  0  0  0  0  0  0  0  0  0
   -6.9410   -3.0810   -2.3250 C   0  0  0  0  0  0  0  0  0  0  0  0
   -9.2070   -4.2810   -2.3390 C   0  0  0  0  0  0  0  0  0  0  0  0
  -10.0970   -4.9570   -3.3100 N   0  0  0  0  0  0  0  0  0  0  0  0
  -10.8950   -4.2980   -4.2530 C   0  0  0  0  0  0  0  0  0  0  0  0
  -12.0620   -3.9620   -4.0790 O   0  0  0  0  0  0  0  0  0  0  0  0
  -10.1770   -4.0370   -5.5400 C   0  0  0  0  0  0  0  0  0  0  0  0
  -10.2900   -2.8260   -6.3630 C   0  0  0  0  0  0  0  0  0  0  0  0
   -9.5240   -2.6640   -7.4710 C   0  0  0  0  0  0  0  0  0  0  0  0
   -8.6010   -3.6830   -7.8360 C   0  0  0  0  0  0  0  0  0  0  0  0
   -7.7150   -3.8140   -8.8000 N   0  0  0  0  0  0  0  0  0  0  0  0
   -7.1040   -5.0420   -8.6540 N   0  0  0  0  0  0  0  0  0  0  0  0
   -7.6420   -5.6040   -7.6030 C   0  0  0  0  0  0  0  0  0  0  0  0
   -7.3010   -7.1360   -6.9230 S   0  0  0  0  0  0  0  0  0  0  0  0
   -8.5700   -4.8080   -7.0440 N   0  0  0  0  0  0  0  0  0  0  0  0
   -9.3450   -4.9970   -5.9250 C   0  0  0  0  0  0  0  0  0  0  0  0
   -6.9350   -5.5170   -1.7990 C   0  0  0  0  0  0  0  0  0  0  0  0
   -5.6900   -6.0040   -2.2130 C   0  0  0  0  0  0  0  0  0  0  0  0
   -5.0550   -6.9990   -1.4800 C   0  0  0  0  0  0  0  0  0  0  0  0
   -5.6680   -7.4970   -0.3500 C   0  0  0  0  0  0  0  0  0  0  0  0
   -6.8940   -6.9710   -0.0010 C   0  0  0  0  0  0  0  0  0  0  0  0
   -7.5350   -6.0010   -0.6870 N   0  0  0  0  0  0  0  0  0  0  0  0
  1  2  1  0
  2  3  1  0
  2  4  1  0
  4  5  1  0
  5  6  1  0
  6  7  2  0
  6  8  1  0
  8  9  1  0
  9 10  2  0
 10 11  1  0
 11 12  2  0
 12 13  1  0
 13 14  2  0
 14 15  1  0
 14 16  1  0
 16 17  1  0
  2 18  1  0
 18 19  2  0
 19 20  1  0
 20 21  2  0
 21 22  1  0
 22 23  2  0
 17  8  2  0
 23 18  1  0
 16 11  1  0
M  END
>  <pair>  (294) 
x1594_0A-x1052_1A

>  <sucos>  (294) 
0.549473569888178

>  <ref_mols>  (294) 
x1594_0A,x1052_1A

>  <original SMILES>  (294) 
CC(C)(CNC(=O)c1ccc2nnc(S)n2c1)c1ccccn1

>  <cmpd_ids>  (294) 
ENAMINE:Z2283029442

>  <ref_url>  (294) 
https://github.com/stephwills/fragment_network_merges

>  <submitter_name>  (294) 
Steph Wills

>  <submitter_institution>  (294) 
University of Oxford

>  <submitter_email>  (294) 
stephanie.wills@balliol.ox.ac.uk

>  <generation_date>  (294) 
2023-09-06

>  <method>  (294) 
fragNetMergingIt3

>  <ref_pdb>  (294) 
x1594_0A,x1052_1A

$$$$
x1594-0A-x1052-1A-69
     RDKit          3D

 22 24  0  0  0  0  0  0  0  0999 V2000
   -8.3680   -7.8960   -5.2460 O   0  0  0  0  0  0  0  0  0  0  0  0
   -7.5210   -7.0520   -5.5150 C   0  0  0  0  0  0  0  0  0  0  0  0
   -6.7520   -6.3250   -4.3940 C   0  0  0  0  0  0  0  0  0  0  0  0
   -7.0520   -4.9060   -4.2680 O   0  0  0  0  0  0  0  0  0  0  0  0
   -6.7690   -4.3780   -2.9470 C   0  0  0  0  0  0  0  0  0  0  0  0
   -6.4280   -5.5170   -1.9770 C   0  0  0  0  0  0  0  0  0  0  0  0
   -5.2830   -6.2800   -2.1840 C   0  0  0  0  0  0  0  0  0  0  0  0
   -4.9910   -7.3710   -1.2440 C   0  0  0  0  0  0  0  0  0  0  0  0
   -5.8720   -7.5900   -0.1980 C   0  0  0  0  0  0  0  0  0  0  0  0
   -6.9800   -6.7670   -0.0920 C   0  0  0  0  0  0  0  0  0  0  0  0
   -7.2730   -5.7510   -0.9380 N   0  0  0  0  0  0  0  0  0  0  0  0
   -7.1540   -6.6660   -6.7930 N   0  0  0  0  0  0  0  0  0  0  0  0
   -7.5650   -5.4960   -7.3660 C   0  0  0  0  0  0  0  0  0  0  0  0
   -6.8790   -4.8840   -8.3020 N   0  0  0  0  0  0  0  0  0  0  0  0
   -7.5390   -3.7380   -8.6440 N   0  0  0  0  0  0  0  0  0  0  0  0
   -8.6260   -3.6680   -7.9080 C   0  0  0  0  0  0  0  0  0  0  0  0
   -9.6650   -2.7060   -7.8210 C   0  0  0  0  0  0  0  0  0  0  0  0
  -10.7670   -2.9490   -6.8770 C   0  0  0  0  0  0  0  0  0  0  0  0
  -10.7700   -4.1460   -6.0660 C   0  0  0  0  0  0  0  0  0  0  0  0
  -12.0790   -4.4050   -4.9820 Cl  0  0  0  0  0  0  0  0  0  0  0  0
   -9.7550   -5.0170   -6.1770 C   0  0  0  0  0  0  0  0  0  0  0  0
   -8.7070   -4.7830   -7.0740 N   0  0  0  0  0  0  0  0  0  0  0  0
  1  2  2  0
  2  3  1  0
  3  4  1  0
  4  5  1  0
  5  6  1  0
  6  7  2  0
  7  8  1  0
  8  9  2  0
  9 10  1  0
 10 11  2  0
  2 12  1  0
 12 13  1  0
 13 14  2  0
 14 15  1  0
 15 16  2  0
 16 17  1  0
 17 18  2  0
 18 19  1  0
 19 20  1  0
 19 21  2  0
 21 22  1  0
 11  6  1  0
 22 13  1  0
 22 16  1  0
M  END
>  <pair>  (295) 
x1594_0A-x1052_1A

>  <sucos>  (295) 
0.5546173334064088

>  <ref_mols>  (295) 
x1594_0A,x1052_1A

>  <original SMILES>  (295) 
O=C(COCc1ccccn1)Nc1nnc2ccc(Cl)cn12

>  <cmpd_ids>  (295) 
ENAMINE:PV-002945978428

>  <ref_url>  (295) 
https://github.com/stephwills/fragment_network_merges

>  <submitter_name>  (295) 
Steph Wills

>  <submitter_institution>  (295) 
University of Oxford

>  <submitter_email>  (295) 
stephanie.wills@balliol.ox.ac.uk

>  <generation_date>  (295) 
2023-09-06

>  <method>  (295) 
fragNetMergingIt3

>  <ref_pdb>  (295) 
x1594_0A,x1052_1A

$$$$
x1140-0A-x1498-0A-10
     RDKit          3D

 26 30  0  0  0  0  0  0  0  0999 V2000
   -9.7500   -4.1890   -7.2420 C   0  0  0  0  0  0  0  0  0  0  0  0
   -9.3960   -5.2370   -6.4360 C   0  0  0  0  0  0  0  0  0  0  0  0
   -8.1910   -5.8550   -6.7030 C   0  0  0  0  0  0  0  0  0  0  0  0
   -7.7350   -6.8880   -5.9200 N   0  0  0  0  0  0  0  0  0  0  0  0
   -6.7770   -6.4640   -5.0640 N   0  0  0  0  0  0  0  0  0  0  0  0
   -6.4490   -7.5240   -4.4080 C   0  0  0  0  0  0  0  0  0  0  0  0
   -7.1740   -8.6460   -4.8080 C   0  0  0  0  0  0  0  0  0  0  0  0
   -7.1690   -9.9400   -4.4100 C   0  0  0  0  0  0  0  0  0  0  0  0
   -6.2640  -10.1330   -3.4240 N   0  0  0  0  0  0  0  0  0  0  0  0
   -5.6190   -8.8150   -3.3250 C   0  0  0  0  0  0  0  0  0  0  0  0
   -5.0560   -8.6380   -1.9730 C   0  0  0  0  0  0  0  0  0  0  0  0
   -5.6630   -9.4020   -0.9790 C   0  0  0  0  0  0  0  0  0  0  0  0
   -5.2200   -9.3460    0.3210 C   0  0  0  0  0  0  0  0  0  0  0  0
   -4.1660   -8.5200    0.5910 C   0  0  0  0  0  0  0  0  0  0  0  0
   -3.5590   -7.7560   -0.3730 C   0  0  0  0  0  0  0  0  0  0  0  0
   -3.9800   -7.7770   -1.6820 C   0  0  0  0  0  0  0  0  0  0  0  0
   -2.5390   -7.0340    0.1410 O   0  0  0  0  0  0  0  0  0  0  0  0
   -2.4010   -7.6720    1.4200 C   0  0  0  0  0  0  0  0  0  0  0  0
   -3.6010   -8.3600    1.8070 O   0  0  0  0  0  0  0  0  0  0  0  0
   -7.9990  -10.8300   -4.9910 N   0  0  0  0  0  0  0  0  0  0  0  0
   -8.8050  -10.3440   -5.9610 C   0  0  0  0  0  0  0  0  0  0  0  0
   -8.8800   -9.0750   -6.4220 N   0  0  0  0  0  0  0  0  0  0  0  0
   -8.0180   -8.2490   -5.7930 C   0  0  0  0  0  0  0  0  0  0  0  0
   -7.3810   -5.4370   -7.7530 C   0  0  0  0  0  0  0  0  0  0  0  0
   -7.8230   -4.3840   -8.4960 C   0  0  0  0  0  0  0  0  0  0  0  0
   -8.9890   -3.7550   -8.2520 N   0  0  0  0  0  0  0  0  0  0  0  0
  1  2  2  0
  2  3  1  0
  3  4  1  0
  4  5  1  0
  5  6  2  0
  6  7  1  0
  7  8  2  0
  8  9  1  0
  9 10  1  0
 10 11  1  0
 11 12  2  0
 12 13  1  0
 13 14  2  0
 14 15  1  0
 15 16  2  0
 15 17  1  0
 17 18  1  0
 18 19  1  0
  8 20  1  0
 20 21  2  0
 21 22  1  0
 22 23  2  0
  3 24  2  0
 24 25  1  0
 25 26  2  0
 26  1  1  0
 23  4  1  0
 23  7  1  0
 16 11  1  0
 19 14  1  0
M  END
>  <pair>  (296) 
x1140_0A-x1498_0A

>  <sucos>  (296) 
0.5626152655058833

>  <ref_mols>  (296) 
x1140_0A,x1498_0A

>  <original SMILES>  (296) 
c1cc(-n2ncc3c(NCc4ccc5c(c4)OCO5)ncnc32)ccn1

>  <cmpd_ids>  (296) 
ENAMINE:Z1502690308

>  <ref_url>  (296) 
https://github.com/stephwills/fragment_network_merges

>  <submitter_name>  (296) 
Steph Wills

>  <submitter_institution>  (296) 
University of Oxford

>  <submitter_email>  (296) 
stephanie.wills@balliol.ox.ac.uk

>  <generation_date>  (296) 
2023-09-06

>  <method>  (296) 
fragNetMergingIt3

>  <ref_pdb>  (296) 
x1140_0A,x1498_0A

$$$$
x1052-1A-x1594-0A-80
     RDKit          3D

 24 26  0  0  0  0  0  0  0  0999 V2000
   -7.6850   -4.6440   -4.9650 C   0  0  0  0  0  0  0  0  0  0  0  0
   -8.2050   -5.9560   -4.6970 N   0  0  0  0  0  0  0  0  0  0  0  0
   -8.7200   -6.1170   -3.3340 C   0  0  0  0  0  0  0  0  0  0  0  0
   -9.0600   -4.9010   -2.7470 C   0  0  0  0  0  0  0  0  0  0  0  0
   -8.0220   -3.8610   -2.7900 N   0  0  0  0  0  0  0  0  0  0  0  0
   -6.9600   -3.8440   -1.9030 C   0  0  0  0  0  0  0  0  0  0  0  0
   -6.4860   -2.7850   -1.4940 O   0  0  0  0  0  0  0  0  0  0  0  0
   -6.4560   -5.1830   -1.4830 C   0  0  0  0  0  0  0  0  0  0  0  0
   -5.3780   -5.9630   -1.9940 C   0  0  0  0  0  0  0  0  0  0  0  0
   -5.3780   -7.0950   -1.2260 C   0  0  0  0  0  0  0  0  0  0  0  0
   -6.3770   -7.0190   -0.3150 O   0  0  0  0  0  0  0  0  0  0  0  0
   -7.0540   -5.8290   -0.4720 N   0  0  0  0  0  0  0  0  0  0  0  0
   -8.1950   -7.0100   -5.6160 C   0  0  0  0  0  0  0  0  0  0  0  0
   -8.7880   -8.0770   -5.4040 O   0  0  0  0  0  0  0  0  0  0  0  0
   -7.4820   -6.8330   -6.8010 C   0  0  0  0  0  0  0  0  0  0  0  0
   -7.7950   -5.5680   -7.3890 N   0  0  0  0  0  0  0  0  0  0  0  0
   -6.9850   -5.0060   -8.3100 N   0  0  0  0  0  0  0  0  0  0  0  0
   -7.5170   -3.8580   -8.6270 N   0  0  0  0  0  0  0  0  0  0  0  0
   -8.6660   -3.7190   -7.8910 C   0  0  0  0  0  0  0  0  0  0  0  0
   -9.6150   -2.6760   -7.8250 C   0  0  0  0  0  0  0  0  0  0  0  0
  -10.7170   -2.7870   -6.9830 C   0  0  0  0  0  0  0  0  0  0  0  0
  -10.8790   -3.9290   -6.2060 C   0  0  0  0  0  0  0  0  0  0  0  0
   -9.9460   -4.9490   -6.2650 C   0  0  0  0  0  0  0  0  0  0  0  0
   -8.8550   -4.8190   -7.1040 C   0  0  0  0  0  0  0  0  0  0  0  0
  1  2  1  0
  2  3  1  0
  3  4  1  0
  4  5  1  0
  5  6  1  0
  6  7  2  0
  6  8  1  0
  8  9  1  0
  9 10  2  0
 10 11  1  0
 11 12  1  0
  2 13  1  0
 13 14  2  0
 13 15  1  0
 15 16  1  0
 16 17  1  0
 17 18  2  0
 18 19  1  0
 19 20  2  0
 20 21  1  0
 21 22  2  0
 22 23  1  0
 23 24  2  0
 12  8  2  0
 24 16  1  0
 24 19  1  0
M  END
>  <pair>  (297) 
x1052_1A-x1594_0A

>  <sucos>  (297) 
0.5698141177467352

>  <ref_mols>  (297) 
x1052_1A,x1594_0A

>  <original SMILES>  (297) 
CN(CCNC(=O)c1ccon1)C(=O)Cn1nnc2ccccc21

>  <cmpd_ids>  (297) 
ENAMINE:PV-002755360057

>  <ref_url>  (297) 
https://github.com/stephwills/fragment_network_merges

>  <submitter_name>  (297) 
Steph Wills

>  <submitter_institution>  (297) 
University of Oxford

>  <submitter_email>  (297) 
stephanie.wills@balliol.ox.ac.uk

>  <generation_date>  (297) 
2023-09-06

>  <method>  (297) 
fragNetMergingIt3

>  <ref_pdb>  (297) 
x1052_1A,x1594_0A

$$$$
x1594-0A-x1052-1A-135
     RDKit          3D

 27 30  0  0  0  0  0  0  0  0999 V2000
   -8.2070   -2.3020   -0.4960 C   0  0  0  0  0  0  0  0  0  0  0  0
   -7.4190   -3.4350   -0.9550 N   0  0  0  0  0  0  0  0  0  0  0  0
   -7.7610   -4.7220   -0.5820 C   0  0  0  0  0  0  0  0  0  0  0  0
   -8.8390   -4.9780   -0.0340 O   0  0  0  0  0  0  0  0  0  0  0  0
   -6.8760   -5.7770   -0.7960 C   0  0  0  0  0  0  0  0  0  0  0  0
   -5.7920   -5.8160   -1.7940 C   0  0  0  0  0  0  0  0  0  0  0  0
   -4.9720   -6.9790   -1.8680 C   0  0  0  0  0  0  0  0  0  0  0  0
   -5.1850   -8.0560   -1.0190 C   0  0  0  0  0  0  0  0  0  0  0  0
   -6.2940   -7.9090   -0.0660 C   0  0  0  0  0  0  0  0  0  0  0  0
   -7.0620   -6.8130   -0.0020 N   0  0  0  0  0  0  0  0  0  0  0  0
   -6.7990   -3.4090   -2.2710 C   0  0  1  0  0  0  0  0  0  0  0  0
   -7.8200   -3.8110   -3.3390 C   0  0  0  0  0  0  0  0  0  0  0  0
   -8.3380   -5.1960   -3.3840 N   0  0  0  0  0  0  0  0  0  0  0  0
   -8.9030   -5.7620   -4.5370 C   0  0  0  0  0  0  0  0  0  0  0  0
   -9.1710   -6.9520   -4.6590 O   0  0  0  0  0  0  0  0  0  0  0  0
   -9.1720   -4.8210   -5.6510 C   0  0  0  0  0  0  0  0  0  0  0  0
  -10.2060   -3.9550   -5.5390 C   0  0  0  0  0  0  0  0  0  0  0  0
  -10.4670   -2.9940   -6.5490 C   0  0  0  0  0  0  0  0  0  0  0  0
   -9.6720   -2.9050   -7.6740 C   0  0  0  0  0  0  0  0  0  0  0  0
   -8.5990   -3.8200   -7.8270 C   0  0  0  0  0  0  0  0  0  0  0  0
   -7.7080   -3.9860   -8.7820 N   0  0  0  0  0  0  0  0  0  0  0  0
   -6.9030   -5.0380   -8.4450 N   0  0  0  0  0  0  0  0  0  0  0  0
   -7.3300   -5.4970   -7.2520 C   0  0  0  0  0  0  0  0  0  0  0  0
   -8.3940   -4.7530   -6.8150 N   0  0  0  0  0  0  0  0  0  0  0  0
   -6.0910   -2.0610   -2.5080 C   0  0  0  0  0  0  0  0  0  0  0  0
   -6.7090   -0.7130   -2.1830 C   0  0  0  0  0  0  0  0  0  0  0  0
   -5.6020   -1.2340   -1.3310 C   0  0  0  0  0  0  0  0  0  0  0  0
  1  2  1  0
  2  3  1  0
  3  4  2  0
  3  5  1  0
  5  6  2  0
  6  7  1  0
  7  8  2  0
  8  9  1  0
  9 10  2  0
  2 11  1  0
 11 12  1  6
 12 13  1  0
 13 14  1  0
 14 15  2  0
 14 16  1  0
 16 17  2  0
 17 18  1  0
 18 19  2  0
 19 20  1  0
 20 21  2  0
 21 22  1  0
 22 23  2  0
 23 24  1  0
 11 25  1  0
 25 26  1  0
 26 27  1  0
 10  5  1  0
 24 16  1  0
 27 25  1  0
 24 20  1  0
M  END
>  <pair>  (298) 
x1594_0A-x1052_1A

>  <sucos>  (298) 
0.5739198388045832

>  <ref_mols>  (298) 
x1594_0A,x1052_1A

>  <original SMILES>  (298) 
CN(C(=O)c1ccccn1)C(CNC(=O)c1cccc2nncn12)C1CC1

>  <cmpd_ids>  (298) 
ENAMINE:PV-003911119665

>  <ref_url>  (298) 
https://github.com/stephwills/fragment_network_merges

>  <submitter_name>  (298) 
Steph Wills

>  <submitter_institution>  (298) 
University of Oxford

>  <submitter_email>  (298) 
stephanie.wills@balliol.ox.ac.uk

>  <generation_date>  (298) 
2023-09-06

>  <method>  (298) 
fragNetMergingIt3

>  <ref_pdb>  (298) 
x1594_0A,x1052_1A

$$$$
x1052-1A-x1594-0A-71
     RDKit          3D

 24 26  0  0  0  0  0  0  0  0999 V2000
   -6.1690   -3.0410   -2.4620 O   0  0  0  0  0  0  0  0  0  0  0  0
   -6.9070   -3.9610   -2.1170 C   0  0  0  0  0  0  0  0  0  0  0  0
   -8.2810   -3.9060   -2.2070 N   0  0  0  0  0  0  0  0  0  0  0  0
   -8.9920   -4.3880   -3.3790 C   0  0  0  0  0  0  0  0  0  0  0  0
   -9.7140   -5.5400   -3.1510 C   0  0  1  0  0  0  0  0  0  0  0  0
  -11.0340   -5.0420   -3.3390 C   0  0  0  0  0  0  0  0  0  0  0  0
  -11.7730   -5.0410   -2.1180 O   0  0  0  0  0  0  0  0  0  0  0  0
   -9.4070   -6.4890   -4.2350 N   0  0  0  0  0  0  0  0  0  0  0  0
  -10.0050   -6.4700   -5.4780 C   0  0  0  0  0  0  0  0  0  0  0  0
  -10.6940   -7.3910   -5.8940 O   0  0  0  0  0  0  0  0  0  0  0  0
   -9.7520   -5.2160   -6.3090 C   0  0  0  0  0  0  0  0  0  0  0  0
  -10.6450   -4.2080   -6.1670 C   0  0  0  0  0  0  0  0  0  0  0  0
  -10.5380   -3.0040   -6.8520 C   0  0  0  0  0  0  0  0  0  0  0  0
   -9.5150   -2.8130   -7.6940 C   0  0  0  0  0  0  0  0  0  0  0  0
   -8.5740   -3.8250   -7.8810 N   0  0  0  0  0  0  0  0  0  0  0  0
   -7.4840   -3.8360   -8.6810 N   0  0  0  0  0  0  0  0  0  0  0  0
   -6.8730   -5.0030   -8.5470 N   0  0  0  0  0  0  0  0  0  0  0  0
   -7.5680   -5.7510   -7.6540 C   0  0  0  0  0  0  0  0  0  0  0  0
   -8.6540   -5.0410   -7.2090 C   0  0  0  0  0  0  0  0  0  0  0  0
   -6.4040   -5.2150   -1.5640 C   0  0  0  0  0  0  0  0  0  0  0  0
   -5.2920   -5.9810   -1.9980 C   0  0  0  0  0  0  0  0  0  0  0  0
   -5.2650   -7.0510   -1.1460 C   0  0  0  0  0  0  0  0  0  0  0  0
   -6.2840   -6.9490   -0.2570 O   0  0  0  0  0  0  0  0  0  0  0  0
   -7.0040   -5.7970   -0.5140 N   0  0  0  0  0  0  0  0  0  0  0  0
  1  2  2  0
  2  3  1  0
  3  4  1  0
  5  4  1  6
  5  6  1  0
  6  7  1  0
  5  8  1  0
  8  9  1  0
  9 10  2  0
  9 11  1  0
 11 12  2  0
 12 13  1  0
 13 14  2  0
 14 15  1  0
 15 16  1  0
 16 17  2  0
 17 18  1  0
 18 19  2  0
  2 20  1  0
 20 21  1  0
 21 22  2  0
 22 23  1  0
 23 24  1  0
 19 11  1  0
 24 20  2  0
 19 15  1  0
M  END
>  <pair>  (299) 
x1052_1A-x1594_0A

>  <sucos>  (299) 
0.5959848817910038

>  <ref_mols>  (299) 
x1052_1A,x1594_0A

>  <original SMILES>  (299) 
O=C(NCC(CO)NC(=O)c1cccn2nncc12)c1ccon1

>  <cmpd_ids>  (299) 
ENAMINE:PV-003050764665

>  <ref_url>  (299) 
https://github.com/stephwills/fragment_network_merges

>  <submitter_name>  (299) 
Steph Wills

>  <submitter_institution>  (299) 
University of Oxford

>  <submitter_email>  (299) 
stephanie.wills@balliol.ox.ac.uk

>  <generation_date>  (299) 
2023-09-06

>  <method>  (299) 
fragNetMergingIt3

>  <ref_pdb>  (299) 
x1052_1A,x1594_0A

$$$$
x1071-0A-x1498-0A-190
     RDKit          3D

 23 24  0  0  0  0  0  0  0  0999 V2000
   -5.3020   -8.3450   -5.3920 C   0  0  0  0  0  0  0  0  0  0  0  0
   -6.7930   -8.4010   -5.4970 C   0  0  0  0  0  0  0  0  0  0  0  0
   -7.3450   -9.1010   -6.3550 O   0  0  0  0  0  0  0  0  0  0  0  0
   -7.4800   -7.6350   -4.5840 N   0  0  0  0  0  0  0  0  0  0  0  0
   -7.0310   -7.7800   -3.1700 C   0  0  0  0  0  0  0  0  0  0  0  0
   -6.4730   -6.5910   -2.6240 C   0  0  0  0  0  0  0  0  0  0  0  0
   -7.4090   -5.5640   -2.5150 N   0  0  0  0  0  0  0  0  0  0  0  0
   -6.7530   -4.4730   -2.8620 C   0  0  0  0  0  0  0  0  0  0  0  0
   -6.7040   -4.1920   -4.0590 O   0  0  0  0  0  0  0  0  0  0  0  0
   -6.1190   -3.5140   -1.8630 C   0  0  0  0  0  0  0  0  0  0  0  0
   -6.9010   -2.2470   -1.9030 N   0  0  0  0  0  0  0  0  0  0  0  0
   -6.3020   -0.9060   -1.0680 S   0  0  0  0  0  6  0  0  0  0  0  0
   -7.7810    0.0630   -0.8840 C   0  0  0  0  0  0  0  0  0  0  0  0
   -5.4340   -0.1940   -1.9790 O   0  0  0  0  0  0  0  0  0  0  0  0
   -5.8670   -1.3390    0.2420 O   0  0  0  0  0  0  0  0  0  0  0  0
   -8.4450   -5.7750   -3.5060 C   0  0  0  0  0  0  0  0  0  0  0  0
   -7.6860   -6.2090   -4.7740 C   0  0  2  0  0  0  0  0  0  0  0  0
   -8.0960   -5.5980   -6.0630 C   0  0  0  0  0  0  0  0  0  0  0  0
   -7.2720   -5.6570   -7.1970 C   0  0  0  0  0  0  0  0  0  0  0  0
   -7.7130   -5.0070   -8.3280 C   0  0  0  0  0  0  0  0  0  0  0  0
   -8.8790   -4.3390   -8.3820 N   0  0  0  0  0  0  0  0  0  0  0  0
   -9.6510   -4.3210   -7.2920 C   0  0  0  0  0  0  0  0  0  0  0  0
   -9.3070   -4.9300   -6.1190 C   0  0  0  0  0  0  0  0  0  0  0  0
  1  2  1  0
  2  3  2  0
  2  4  1  0
  4  5  1  0
  5  6  1  0
  6  7  1  0
  7  8  1  0
  8  9  2  0
  8 10  1  0
 10 11  1  0
 11 12  1  0
 12 13  1  0
 12 14  2  0
 12 15  2  0
  7 16  1  0
 17 16  1  1
 17 18  1  0
 18 19  2  0
 19 20  1  0
 20 21  2  0
 21 22  1  0
 22 23  2  0
 17  4  1  0
 23 18  1  0
M  END
>  <pair>  (300) 
x1071_0A-x1498_0A

>  <sucos>  (300) 
0.6092461980291454

>  <ref_mols>  (300) 
x1071_0A,x1498_0A

>  <original SMILES>  (300) 
CC(=O)N1CCN(C(=O)CNS(C)(=O)=O)CC1c1ccncc1

>  <cmpd_ids>  (300) 
ENAMINE:PV-003741079335

>  <ref_url>  (300) 
https://github.com/stephwills/fragment_network_merges

>  <submitter_name>  (300) 
Steph Wills

>  <submitter_institution>  (300) 
University of Oxford

>  <submitter_email>  (300) 
stephanie.wills@balliol.ox.ac.uk

>  <generation_date>  (300) 
2023-09-06

>  <method>  (300) 
fragNetMergingIt3

>  <ref_pdb>  (300) 
x1071_0A,x1498_0A

$$$$
