ver_1.2
     RDKit          2D

  1  0  0  0  0  0  0  0  0  0999 V2000
    0.0000    0.0000    0.0000 C   0  0  0  0  0  0  0  0  0  0  0  0
M  END
>  <ref_url>  (1) 
https://www.notion.so/asapdiscovery/d68-STRIFE-compounds-b286f5e9bb75484d9d7f4e6a8d2c24f8?pvs=40

>  <submitter_name>  (1) 
Lucy Vost

>  <submitter_email>  (1) 
lucy.vost@gtc.ox.ac.uk

>  <submitter_institution>  (1) 
University of Oxford

>  <generation_date>  (1) 
2023-07-23

>  <method>  (1) 
STRIFE

>  <ref_mols>  (1) 
reference molecules

>  <ref_pdb>  (1) 
the reference pdb this lig should be shown with

>  <original SMILES>  (1) 
molecule smiles

$$$$
strife_elaboration_x1083
     RDKit          3D

 20 21  0  0  0  0  0  0  0  0999 V2000
   -7.3421   -4.9573   -8.2969 C   0  0  0  0  0  0  0  0  0  0  0  0
   -7.6009   -6.3207   -7.9841 O   0  0  0  0  0  0  0  0  0  0  0  0
   -7.5525   -6.8462   -6.6879 C   0  0  0  0  0  0  0  0  0  0  0  0
   -7.7874   -8.2138   -6.5178 C   0  0  0  0  0  0  0  0  0  0  0  0
   -7.7483   -8.7831   -5.2481 C   0  0  0  0  0  0  0  0  0  0  0  0
   -7.4746   -7.9897   -4.1290 C   0  0  0  0  0  0  0  0  0  0  0  0
   -7.3758   -8.6375   -2.7882 C   0  0  0  0  0  0  0  0  0  0  0  0
   -6.0066   -8.4189   -2.1155 C   0  0  0  0  0  0  0  0  0  0  0  0
   -5.8920   -6.9705   -1.0634 S   0  0  0  0  0  0  0  0  0  0  0  0
   -5.5121   -5.7594   -1.8661 O   0  0  0  0  0  0  0  0  0  0  0  0
   -7.2452   -6.7296   -0.4521 O   0  0  0  0  0  0  0  0  0  0  0  0
   -4.7322   -7.1694    0.2167 N   0  0  0  0  0  0  0  0  0  0  0  0
   -5.1397   -8.2443    1.1337 C   0  0  0  0  0  0  0  0  0  0  0  0
   -4.1791   -8.2729    2.3250 C   0  0  0  0  0  0  0  0  0  0  0  0
   -2.7255   -8.4427    1.8462 C   0  0  0  0  0  0  0  0  0  0  0  0
   -1.8444   -8.3133    2.9254 C   0  0  0  0  0  0  0  0  0  0  0  0
   -2.3754   -7.3878    0.7914 C   0  0  0  0  0  0  0  0  0  0  0  0
   -3.3976   -7.4463   -0.3279 C   0  0  0  0  0  0  0  0  0  0  0  0
   -7.2355   -6.6160   -4.2901 C   0  0  0  0  0  0  0  0  0  0  0  0
   -7.2758   -6.0460   -5.5628 C   0  0  0  0  0  0  0  0  0  0  0  0
  1  2  1  0
  2  3  1  0
  3  4  2  0
  4  5  1  0
  5  6  2  0
  6  7  1  0
  7  8  1  0
  8  9  1  0
  9 10  2  0
  9 11  2  0
  9 12  1  0
 12 13  1  0
 13 14  1  0
 14 15  1  0
 15 16  1  0
 15 17  1  0
 17 18  1  0
  6 19  1  0
 19 20  2  0
 20  3  1  0
 18 12  1  0
M  END
>  <ref_url>  (2) 
0

>  <submitter_name>  (2) 
Lucy Vost

>  <submitter_email>  (2) 
lucy.vost@gtc.ox.ac.uk

>  <submitter_institution>  (2) 
University of Oxford

>  <generation_date>  (2) 
2023-07-28

>  <method>  (2) 
STRIFE

>  <ref_mols>  (2) 
x1083

>  <ref_pdb>  (2) 
d68/D68EV3CPROA_apo.pdb

>  <original SMILES>  (2) 
CS(=O)(=O)N1CCC(O)CC1

$$$$
strife_elaboration_x1083
     RDKit          3D

 20 21  0  0  0  0  0  0  0  0999 V2000
   -7.3421   -4.9573   -8.2969 C   0  0  0  0  0  0  0  0  0  0  0  0
   -7.6009   -6.3207   -7.9841 O   0  0  0  0  0  0  0  0  0  0  0  0
   -7.5525   -6.8462   -6.6879 C   0  0  0  0  0  0  0  0  0  0  0  0
   -7.7874   -8.2138   -6.5178 C   0  0  0  0  0  0  0  0  0  0  0  0
   -7.7483   -8.7831   -5.2481 C   0  0  0  0  0  0  0  0  0  0  0  0
   -7.4746   -7.9897   -4.1290 C   0  0  0  0  0  0  0  0  0  0  0  0
   -7.3758   -8.6375   -2.7882 C   0  0  0  0  0  0  0  0  0  0  0  0
   -6.0066   -8.4189   -2.1155 C   0  0  0  0  0  0  0  0  0  0  0  0
   -5.8920   -6.9705   -1.0634 S   0  0  0  0  0  0  0  0  0  0  0  0
   -5.5121   -5.7594   -1.8661 O   0  0  0  0  0  0  0  0  0  0  0  0
   -7.2452   -6.7296   -0.4521 O   0  0  0  0  0  0  0  0  0  0  0  0
   -4.7322   -7.1694    0.2167 N   0  0  0  0  0  0  0  0  0  0  0  0
   -5.1397   -8.2443    1.1337 C   0  0  0  0  0  0  0  0  0  0  0  0
   -4.1791   -8.2729    2.3250 C   0  0  0  0  0  0  0  0  0  0  0  0
   -2.7255   -8.4427    1.8462 C   0  0  0  0  0  0  0  0  0  0  0  0
   -1.8444   -8.3133    2.9254 F   0  0  0  0  0  0  0  0  0  0  0  0
   -2.3754   -7.3878    0.7914 C   0  0  0  0  0  0  0  0  0  0  0  0
   -3.3976   -7.4463   -0.3279 C   0  0  0  0  0  0  0  0  0  0  0  0
   -7.2355   -6.6160   -4.2901 C   0  0  0  0  0  0  0  0  0  0  0  0
   -7.2758   -6.0460   -5.5628 C   0  0  0  0  0  0  0  0  0  0  0  0
  1  2  1  0
  2  3  1  0
  3  4  2  0
  4  5  1  0
  5  6  2  0
  6  7  1  0
  7  8  1  0
  8  9  1  0
  9 10  2  0
  9 11  2  0
  9 12  1  0
 12 13  1  0
 13 14  1  0
 14 15  1  0
 15 16  1  0
 15 17  1  0
 17 18  1  0
  6 19  1  0
 19 20  2  0
 20  3  1  0
 18 12  1  0
M  END
>  <ref_url>  (3) 
0

>  <submitter_name>  (3) 
Lucy Vost

>  <submitter_email>  (3) 
lucy.vost@gtc.ox.ac.uk

>  <submitter_institution>  (3) 
University of Oxford

>  <generation_date>  (3) 
2023-07-28

>  <method>  (3) 
STRIFE

>  <ref_mols>  (3) 
x1083

>  <ref_pdb>  (3) 
d68/D68EV3CPROA_apo.pdb

>  <original SMILES>  (3) 
CS(=O)(=O)N1CCC(O)CC1

$$$$
strife_elaboration_x1083
     RDKit          3D

 20 21  0  0  0  0  0  0  0  0999 V2000
   -7.3421   -4.9573   -8.2969 C   0  0  0  0  0  0  0  0  0  0  0  0
   -7.6009   -6.3207   -7.9841 O   0  0  0  0  0  0  0  0  0  0  0  0
   -7.5525   -6.8462   -6.6879 C   0  0  0  0  0  0  0  0  0  0  0  0
   -7.7874   -8.2138   -6.5178 C   0  0  0  0  0  0  0  0  0  0  0  0
   -7.7483   -8.7831   -5.2481 C   0  0  0  0  0  0  0  0  0  0  0  0
   -7.4746   -7.9897   -4.1290 C   0  0  0  0  0  0  0  0  0  0  0  0
   -7.3758   -8.6375   -2.7882 C   0  0  0  0  0  0  0  0  0  0  0  0
   -6.0066   -8.4189   -2.1155 C   0  0  0  0  0  0  0  0  0  0  0  0
   -5.8920   -6.9705   -1.0634 S   0  0  0  0  0  0  0  0  0  0  0  0
   -7.2452   -6.7296   -0.4521 O   0  0  0  0  0  0  0  0  0  0  0  0
   -5.5121   -5.7594   -1.8661 O   0  0  0  0  0  0  0  0  0  0  0  0
   -4.7322   -7.1694    0.2167 N   0  0  0  0  0  0  0  0  0  0  0  0
   -3.3976   -7.4463   -0.3279 C   0  0  0  0  0  0  0  0  0  0  0  0
   -2.3754   -7.3878    0.7914 C   0  0  0  0  0  0  0  0  0  0  0  0
   -2.7255   -8.4427    1.8462 C   0  0  0  0  0  0  0  0  0  0  0  0
   -1.8444   -8.3133    2.9254 N   0  0  0  0  0  0  0  0  0  0  0  0
   -4.1791   -8.2729    2.3250 C   0  0  0  0  0  0  0  0  0  0  0  0
   -5.1397   -8.2443    1.1337 C   0  0  0  0  0  0  0  0  0  0  0  0
   -7.2355   -6.6160   -4.2901 C   0  0  0  0  0  0  0  0  0  0  0  0
   -7.2758   -6.0460   -5.5628 C   0  0  0  0  0  0  0  0  0  0  0  0
  1  2  1  0
  2  3  1  0
  3  4  2  0
  4  5  1  0
  5  6  2  0
  6  7  1  0
  7  8  1  0
  8  9  1  0
  9 10  2  0
  9 11  2  0
  9 12  1  0
 12 13  1  0
 13 14  1  0
 14 15  1  0
 15 16  1  0
 15 17  1  0
 17 18  1  0
  6 19  1  0
 19 20  2  0
 20  3  1  0
 18 12  1  0
M  END
>  <ref_url>  (4) 
0

>  <submitter_name>  (4) 
Lucy Vost

>  <submitter_email>  (4) 
lucy.vost@gtc.ox.ac.uk

>  <submitter_institution>  (4) 
University of Oxford

>  <generation_date>  (4) 
2023-07-28

>  <method>  (4) 
STRIFE

>  <ref_mols>  (4) 
x1083

>  <ref_pdb>  (4) 
d68/D68EV3CPROA_apo.pdb

>  <original SMILES>  (4) 
CS(=O)(=O)N1CCC(O)CC1

$$$$
strife_elaboration_x1083
     RDKit          3D

 20 21  0  0  0  0  0  0  0  0999 V2000
   -7.3421   -4.9573   -8.2969 C   0  0  0  0  0  0  0  0  0  0  0  0
   -7.6009   -6.3207   -7.9841 O   0  0  0  0  0  0  0  0  0  0  0  0
   -7.5525   -6.8462   -6.6879 C   0  0  0  0  0  0  0  0  0  0  0  0
   -7.7874   -8.2138   -6.5178 C   0  0  0  0  0  0  0  0  0  0  0  0
   -7.7483   -8.7831   -5.2481 C   0  0  0  0  0  0  0  0  0  0  0  0
   -7.4746   -7.9897   -4.1290 C   0  0  0  0  0  0  0  0  0  0  0  0
   -7.3758   -8.6375   -2.7882 C   0  0  0  0  0  0  0  0  0  0  0  0
   -6.0066   -8.4189   -2.1155 N   0  0  0  0  0  0  0  0  0  0  0  0
   -5.8920   -6.9705   -1.0634 S   0  0  0  0  0  0  0  0  0  0  0  0
   -7.2452   -6.7296   -0.4521 O   0  0  0  0  0  0  0  0  0  0  0  0
   -5.5121   -5.7594   -1.8661 O   0  0  0  0  0  0  0  0  0  0  0  0
   -4.7322   -7.1694    0.2167 N   0  0  0  0  0  0  0  0  0  0  0  0
   -5.1397   -8.2443    1.1337 C   0  0  0  0  0  0  0  0  0  0  0  0
   -4.1791   -8.2729    2.3250 C   0  0  0  0  0  0  0  0  0  0  0  0
   -2.7255   -8.4427    1.8462 C   0  0  0  0  0  0  0  0  0  0  0  0
   -1.8444   -8.3133    2.9254 O   0  0  0  0  0  0  0  0  0  0  0  0
   -2.3754   -7.3878    0.7914 C   0  0  0  0  0  0  0  0  0  0  0  0
   -3.3976   -7.4463   -0.3279 C   0  0  0  0  0  0  0  0  0  0  0  0
   -7.2355   -6.6160   -4.2901 C   0  0  0  0  0  0  0  0  0  0  0  0
   -7.2758   -6.0460   -5.5628 C   0  0  0  0  0  0  0  0  0  0  0  0
  1  2  1  0
  2  3  1  0
  3  4  2  0
  4  5  1  0
  5  6  2  0
  6  7  1  0
  7  8  1  0
  8  9  1  0
  9 10  2  0
  9 11  2  0
  9 12  1  0
 12 13  1  0
 13 14  1  0
 14 15  1  0
 15 16  1  0
 15 17  1  0
 17 18  1  0
  6 19  1  0
 19 20  2  0
 20  3  1  0
 18 12  1  0
M  END
>  <ref_url>  (5) 
0

>  <submitter_name>  (5) 
Lucy Vost

>  <submitter_email>  (5) 
lucy.vost@gtc.ox.ac.uk

>  <submitter_institution>  (5) 
University of Oxford

>  <generation_date>  (5) 
2023-07-28

>  <method>  (5) 
STRIFE

>  <ref_mols>  (5) 
x1083

>  <ref_pdb>  (5) 
d68/D68EV3CPROA_apo.pdb

>  <original SMILES>  (5) 
CS(=O)(=O)N1CCC(O)CC1

$$$$
strife_elaboration_x1083
     RDKit          3D

 20 21  0  0  0  0  0  0  0  0999 V2000
   -7.3421   -4.9573   -8.2969 C   0  0  0  0  0  0  0  0  0  0  0  0
   -7.6009   -6.3207   -7.9841 O   0  0  0  0  0  0  0  0  0  0  0  0
   -7.5525   -6.8462   -6.6879 C   0  0  0  0  0  0  0  0  0  0  0  0
   -7.7874   -8.2138   -6.5178 C   0  0  0  0  0  0  0  0  0  0  0  0
   -7.7483   -8.7831   -5.2481 C   0  0  0  0  0  0  0  0  0  0  0  0
   -7.4746   -7.9897   -4.1290 C   0  0  0  0  0  0  0  0  0  0  0  0
   -7.3758   -8.6375   -2.7882 C   0  0  0  0  0  0  0  0  0  0  0  0
   -6.0066   -8.4189   -2.1155 C   0  0  0  0  0  0  0  0  0  0  0  0
   -5.8920   -6.9705   -1.0634 S   0  0  0  0  0  0  0  0  0  0  0  0
   -7.2452   -6.7296   -0.4521 O   0  0  0  0  0  0  0  0  0  0  0  0
   -5.5121   -5.7594   -1.8661 O   0  0  0  0  0  0  0  0  0  0  0  0
   -4.7322   -7.1694    0.2167 N   0  0  0  0  0  0  0  0  0  0  0  0
   -5.1397   -8.2443    1.1337 C   0  0  0  0  0  0  0  0  0  0  0  0
   -4.1791   -8.2729    2.3250 C   0  0  0  0  0  0  0  0  0  0  0  0
   -2.7255   -8.4427    1.8462 C   0  0  0  0  0  0  0  0  0  0  0  0
   -1.8444   -8.3133    2.9254 O   0  0  0  0  0  0  0  0  0  0  0  0
   -2.3754   -7.3878    0.7914 C   0  0  0  0  0  0  0  0  0  0  0  0
   -3.3976   -7.4463   -0.3279 C   0  0  0  0  0  0  0  0  0  0  0  0
   -7.2355   -6.6160   -4.2901 C   0  0  0  0  0  0  0  0  0  0  0  0
   -7.2758   -6.0460   -5.5628 C   0  0  0  0  0  0  0  0  0  0  0  0
  1  2  1  0
  2  3  1  0
  3  4  2  0
  4  5  1  0
  5  6  2  0
  6  7  1  0
  7  8  1  0
  8  9  1  0
  9 10  2  0
  9 11  2  0
  9 12  1  0
 12 13  1  0
 13 14  1  0
 14 15  1  0
 15 16  2  0
 15 17  1  0
 17 18  1  0
  6 19  1  0
 19 20  2  0
 20  3  1  0
 18 12  1  0
M  END
>  <ref_url>  (6) 
0

>  <submitter_name>  (6) 
Lucy Vost

>  <submitter_email>  (6) 
lucy.vost@gtc.ox.ac.uk

>  <submitter_institution>  (6) 
University of Oxford

>  <generation_date>  (6) 
2023-07-28

>  <method>  (6) 
STRIFE

>  <ref_mols>  (6) 
x1083

>  <ref_pdb>  (6) 
d68/D68EV3CPROA_apo.pdb

>  <original SMILES>  (6) 
CS(=O)(=O)N1CCC(O)CC1

$$$$
strife_elaboration_x1083
     RDKit          3D

 20 21  0  0  0  0  0  0  0  0999 V2000
   -1.8444   -8.3133    2.9254 C   0  0  0  0  0  0  0  0  0  0  0  0
   -2.7255   -8.4427    1.8462 C   0  0  0  0  0  0  0  0  0  0  0  0
   -4.1791   -8.2729    2.3250 C   0  0  0  0  0  0  0  0  0  0  0  0
   -5.1397   -8.2443    1.1337 C   0  0  0  0  0  0  0  0  0  0  0  0
   -4.7322   -7.1694    0.2167 N   0  0  0  0  0  0  0  0  0  0  0  0
   -5.8920   -6.9705   -1.0634 S   0  0  0  0  0  0  0  0  0  0  0  0
   -7.2452   -6.7296   -0.4521 O   0  0  0  0  0  0  0  0  0  0  0  0
   -5.5121   -5.7594   -1.8661 O   0  0  0  0  0  0  0  0  0  0  0  0
   -6.0066   -8.4189   -2.1155 C   0  0  0  0  0  0  0  0  0  0  0  0
   -7.3758   -8.6375   -2.7882 C   0  0  0  0  0  0  0  0  0  0  0  0
   -7.4746   -7.9897   -4.1290 C   0  0  0  0  0  0  0  0  0  0  0  0
   -7.2355   -6.6160   -4.2901 C   0  0  0  0  0  0  0  0  0  0  0  0
   -7.2758   -6.0460   -5.5628 C   0  0  0  0  0  0  0  0  0  0  0  0
   -7.5525   -6.8462   -6.6879 C   0  0  0  0  0  0  0  0  0  0  0  0
   -7.6009   -6.3207   -7.9841 O   0  0  0  0  0  0  0  0  0  0  0  0
   -7.3421   -4.9573   -8.2969 C   0  0  0  0  0  0  0  0  0  0  0  0
   -7.7874   -8.2138   -6.5178 C   0  0  0  0  0  0  0  0  0  0  0  0
   -7.7483   -8.7831   -5.2481 C   0  0  0  0  0  0  0  0  0  0  0  0
   -3.3976   -7.4463   -0.3279 C   0  0  0  0  0  0  0  0  0  0  0  0
   -2.3754   -7.3878    0.7914 C   0  0  0  0  0  0  0  0  0  0  0  0
  1  2  2  0
  2  3  1  0
  3  4  1  0
  4  5  1  0
  5  6  1  0
  6  7  2  0
  6  8  2  0
  6  9  1  0
  9 10  1  0
 10 11  1  0
 11 12  2  0
 12 13  1  0
 13 14  2  0
 14 15  1  0
 15 16  1  0
 14 17  1  0
 17 18  2  0
  5 19  1  0
 19 20  1  0
 20  2  1  0
 18 11  1  0
M  END
>  <ref_url>  (7) 
0

>  <submitter_name>  (7) 
Lucy Vost

>  <submitter_email>  (7) 
lucy.vost@gtc.ox.ac.uk

>  <submitter_institution>  (7) 
University of Oxford

>  <generation_date>  (7) 
2023-07-28

>  <method>  (7) 
STRIFE

>  <ref_mols>  (7) 
x1083

>  <ref_pdb>  (7) 
d68/D68EV3CPROA_apo.pdb

>  <original SMILES>  (7) 
CS(=O)(=O)N1CCC(O)CC1

$$$$
strife_elaboration_x1083
     RDKit          3D

 20 21  0  0  0  0  0  0  0  0999 V2000
   -7.3421   -4.9573   -8.2969 C   0  0  0  0  0  0  0  0  0  0  0  0
   -7.6009   -6.3207   -7.9841 O   0  0  0  0  0  0  0  0  0  0  0  0
   -7.5525   -6.8462   -6.6879 C   0  0  0  0  0  0  0  0  0  0  0  0
   -7.7874   -8.2138   -6.5178 C   0  0  0  0  0  0  0  0  0  0  0  0
   -7.7483   -8.7831   -5.2481 C   0  0  0  0  0  0  0  0  0  0  0  0
   -7.4746   -7.9897   -4.1290 C   0  0  0  0  0  0  0  0  0  0  0  0
   -7.3758   -8.6375   -2.7882 C   0  0  0  0  0  0  0  0  0  0  0  0
   -6.0066   -8.4189   -2.1155 C   0  0  0  0  0  0  0  0  0  0  0  0
   -5.8920   -6.9705   -1.0634 S   0  0  0  0  0  0  0  0  0  0  0  0
   -7.2452   -6.7296   -0.4521 O   0  0  0  0  0  0  0  0  0  0  0  0
   -5.5121   -5.7594   -1.8661 O   0  0  0  0  0  0  0  0  0  0  0  0
   -4.7322   -7.1694    0.2167 C   0  0  0  0  0  0  0  0  0  0  0  0
   -5.1397   -8.2443    1.1337 C   0  0  0  0  0  0  0  0  0  0  0  0
   -4.1791   -8.2729    2.3250 C   0  0  0  0  0  0  0  0  0  0  0  0
   -2.7255   -8.4427    1.8462 C   0  0  0  0  0  0  0  0  0  0  0  0
   -1.8444   -8.3133    2.9254 C   0  0  0  0  0  0  0  0  0  0  0  0
   -2.3754   -7.3878    0.7914 C   0  0  0  0  0  0  0  0  0  0  0  0
   -3.3976   -7.4463   -0.3279 C   0  0  0  0  0  0  0  0  0  0  0  0
   -7.2355   -6.6160   -4.2901 C   0  0  0  0  0  0  0  0  0  0  0  0
   -7.2758   -6.0460   -5.5628 C   0  0  0  0  0  0  0  0  0  0  0  0
  1  2  1  0
  2  3  1  0
  3  4  2  0
  4  5  1  0
  5  6  2  0
  6  7  1  0
  7  8  1  0
  8  9  1  0
  9 10  2  0
  9 11  2  0
  9 12  1  0
 12 13  1  0
 13 14  1  0
 14 15  1  0
 15 16  1  0
 15 17  1  0
 17 18  1  0
  6 19  1  0
 19 20  2  0
 20  3  1  0
 18 12  1  0
M  END
>  <ref_url>  (8) 
0

>  <submitter_name>  (8) 
Lucy Vost

>  <submitter_email>  (8) 
lucy.vost@gtc.ox.ac.uk

>  <submitter_institution>  (8) 
University of Oxford

>  <generation_date>  (8) 
2023-07-28

>  <method>  (8) 
STRIFE

>  <ref_mols>  (8) 
x1083

>  <ref_pdb>  (8) 
d68/D68EV3CPROA_apo.pdb

>  <original SMILES>  (8) 
CS(=O)(=O)N1CCC(O)CC1

$$$$
strife_elaboration_x1083
     RDKit          3D

 20 21  0  0  0  0  0  0  0  0999 V2000
   -6.9811   -6.0743   -8.3751 C   0  0  0  0  0  0  0  0  0  0  0  0
   -7.2143   -5.7249   -6.9292 C   0  0  0  0  0  0  0  0  0  0  0  0
   -7.6532   -6.8396   -6.0026 C   0  0  0  0  0  0  0  0  0  0  0  0
   -7.5768   -6.2520   -4.6696 N   0  0  0  0  0  0  0  0  0  0  0  0
   -7.6613   -7.2898   -3.7172 C   0  0  0  0  0  0  0  0  0  0  0  0
   -6.4927   -8.1539   -3.8824 C   0  0  0  0  0  0  0  0  0  0  0  0
   -5.8397   -8.4639   -2.5362 N   0  0  0  0  0  0  0  0  0  0  0  0
   -5.8504   -7.0141   -1.5031 S   0  0  0  0  0  0  0  0  0  0  0  0
   -7.2583   -6.7430   -1.0527 O   0  0  0  0  0  0  0  0  0  0  0  0
   -5.3493   -5.8370   -2.2903 O   0  0  0  0  0  0  0  0  0  0  0  0
   -4.8302   -7.2110   -0.1139 N   0  0  0  0  0  0  0  0  0  0  0  0
   -5.3010   -8.3175    0.7299 C   0  0  0  0  0  0  0  0  0  0  0  0
   -4.4922   -8.3261    2.0270 C   0  0  0  0  0  0  0  0  0  0  0  0
   -2.9902   -8.4542    1.7201 C   0  0  0  0  0  0  0  0  0  0  0  0
   -2.2482   -8.3048    2.8990 O   0  0  0  0  0  0  0  0  0  0  0  0
   -2.5424   -7.3904    0.7079 C   0  0  0  0  0  0  0  0  0  0  0  0
   -3.4371   -7.4315   -0.5273 C   0  0  0  0  0  0  0  0  0  0  0  0
   -8.6467   -5.2508   -4.5084 C   0  0  0  0  0  0  0  0  0  0  0  0
   -8.8496   -4.4110   -5.7923 C   0  0  0  0  0  0  0  0  0  0  0  0
   -7.7648   -4.4383   -6.7044 O   0  0  0  0  0  0  0  0  0  0  0  0
  1  2  1  0
  2  3  1  0
  3  4  1  0
  4  5  1  0
  5  6  1  0
  6  7  1  0
  7  8  1  0
  8  9  2  0
  8 10  2  0
  8 11  1  0
 11 12  1  0
 12 13  1  0
 13 14  1  0
 14 15  1  0
 14 16  1  0
 16 17  1  0
  4 18  1  0
 18 19  1  0
 19 20  1  0
 20  2  1  0
 17 11  1  0
M  END
>  <ref_url>  (9) 
0

>  <submitter_name>  (9) 
Lucy Vost

>  <submitter_email>  (9) 
lucy.vost@gtc.ox.ac.uk

>  <submitter_institution>  (9) 
University of Oxford

>  <generation_date>  (9) 
2023-07-28

>  <method>  (9) 
STRIFE

>  <ref_mols>  (9) 
x1083

>  <ref_pdb>  (9) 
d68/D68EV3CPROA_apo.pdb

>  <original SMILES>  (9) 
CS(=O)(=O)N1CCC(O)CC1

$$$$
strife_elaboration_x1083
     RDKit          3D

 20 21  0  0  0  0  0  0  0  0999 V2000
   -6.9811   -6.0743   -8.3751 C   0  0  0  0  0  0  0  0  0  0  0  0
   -7.2143   -5.7249   -6.9292 C   0  0  0  0  0  0  0  0  0  0  0  0
   -7.6532   -6.8396   -6.0026 C   0  0  0  0  0  0  0  0  0  0  0  0
   -7.5768   -6.2520   -4.6696 C   0  0  0  0  0  0  0  0  0  0  0  0
   -7.6613   -7.2898   -3.7172 C   0  0  0  0  0  0  0  0  0  0  0  0
   -6.4927   -8.1539   -3.8824 C   0  0  0  0  0  0  0  0  0  0  0  0
   -5.8397   -8.4639   -2.5362 N   0  0  0  0  0  0  0  0  0  0  0  0
   -5.8504   -7.0141   -1.5031 S   0  0  0  0  0  0  0  0  0  0  0  0
   -7.2583   -6.7430   -1.0527 O   0  0  0  0  0  0  0  0  0  0  0  0
   -5.3493   -5.8370   -2.2903 O   0  0  0  0  0  0  0  0  0  0  0  0
   -4.8302   -7.2110   -0.1139 N   0  0  0  0  0  0  0  0  0  0  0  0
   -5.3010   -8.3175    0.7299 C   0  0  0  0  0  0  0  0  0  0  0  0
   -4.4922   -8.3261    2.0270 C   0  0  0  0  0  0  0  0  0  0  0  0
   -2.9902   -8.4542    1.7201 C   0  0  0  0  0  0  0  0  0  0  0  0
   -2.2482   -8.3048    2.8990 O   0  0  0  0  0  0  0  0  0  0  0  0
   -2.5424   -7.3904    0.7079 C   0  0  0  0  0  0  0  0  0  0  0  0
   -3.4371   -7.4315   -0.5273 C   0  0  0  0  0  0  0  0  0  0  0  0
   -8.6467   -5.2508   -4.5084 C   0  0  0  0  0  0  0  0  0  0  0  0
   -8.8496   -4.4110   -5.7923 C   0  0  0  0  0  0  0  0  0  0  0  0
   -7.7648   -4.4383   -6.7044 O   0  0  0  0  0  0  0  0  0  0  0  0
  1  2  1  0
  2  3  1  0
  3  4  1  0
  4  5  1  0
  5  6  1  0
  6  7  1  0
  7  8  1  0
  8  9  2  0
  8 10  2  0
  8 11  1  0
 11 12  1  0
 12 13  1  0
 13 14  1  0
 14 15  1  0
 14 16  1  0
 16 17  1  0
  4 18  1  0
 18 19  1  0
 19 20  1  0
 20  2  1  0
 17 11  1  0
M  END
>  <ref_url>  (10) 
0

>  <submitter_name>  (10) 
Lucy Vost

>  <submitter_email>  (10) 
lucy.vost@gtc.ox.ac.uk

>  <submitter_institution>  (10) 
University of Oxford

>  <generation_date>  (10) 
2023-07-28

>  <method>  (10) 
STRIFE

>  <ref_mols>  (10) 
x1083

>  <ref_pdb>  (10) 
d68/D68EV3CPROA_apo.pdb

>  <original SMILES>  (10) 
CS(=O)(=O)N1CCC(O)CC1

$$$$
strife_elaboration_x1083
     RDKit          3D

 20 21  0  0  0  0  0  0  0  0999 V2000
   -2.2482   -8.3048    2.8990 C   0  0  0  0  0  0  0  0  0  0  0  0
   -2.9902   -8.4542    1.7201 C   0  0  0  0  0  0  0  0  0  0  0  0
   -4.4922   -8.3261    2.0270 C   0  0  0  0  0  0  0  0  0  0  0  0
   -5.3010   -8.3175    0.7299 C   0  0  0  0  0  0  0  0  0  0  0  0
   -4.8302   -7.2110   -0.1139 N   0  0  0  0  0  0  0  0  0  0  0  0
   -5.8504   -7.0141   -1.5031 S   0  0  0  0  0  0  0  0  0  0  0  0
   -7.2583   -6.7430   -1.0527 O   0  0  0  0  0  0  0  0  0  0  0  0
   -5.3493   -5.8370   -2.2903 O   0  0  0  0  0  0  0  0  0  0  0  0
   -5.8397   -8.4639   -2.5362 N   0  0  0  0  0  0  0  0  0  0  0  0
   -6.4927   -8.1539   -3.8824 C   0  0  0  0  0  0  0  0  0  0  0  0
   -7.6613   -7.2898   -3.7172 C   0  0  0  0  0  0  0  0  0  0  0  0
   -7.5768   -6.2520   -4.6696 N   0  0  0  0  0  0  0  0  0  0  0  0
   -8.6467   -5.2508   -4.5084 C   0  0  0  0  0  0  0  0  0  0  0  0
   -8.8496   -4.4110   -5.7923 C   0  0  0  0  0  0  0  0  0  0  0  0
   -7.7648   -4.4383   -6.7044 O   0  0  0  0  0  0  0  0  0  0  0  0
   -7.2143   -5.7249   -6.9292 C   0  0  0  0  0  0  0  0  0  0  0  0
   -6.9811   -6.0743   -8.3751 C   0  0  0  0  0  0  0  0  0  0  0  0
   -7.6532   -6.8396   -6.0026 C   0  0  0  0  0  0  0  0  0  0  0  0
   -3.4371   -7.4315   -0.5273 C   0  0  0  0  0  0  0  0  0  0  0  0
   -2.5424   -7.3904    0.7079 C   0  0  0  0  0  0  0  0  0  0  0  0
  1  2  1  0
  2  3  1  0
  3  4  1  0
  4  5  1  0
  5  6  1  0
  6  7  2  0
  6  8  2  0
  6  9  1  0
  9 10  1  0
 10 11  1  0
 11 12  1  0
 12 13  1  0
 13 14  1  0
 14 15  1  0
 15 16  1  0
 16 17  1  0
 16 18  1  0
  5 19  1  0
 19 20  1  0
 20  2  1  0
 18 12  1  0
M  END
>  <ref_url>  (11) 
0

>  <submitter_name>  (11) 
Lucy Vost

>  <submitter_email>  (11) 
lucy.vost@gtc.ox.ac.uk

>  <submitter_institution>  (11) 
University of Oxford

>  <generation_date>  (11) 
2023-07-28

>  <method>  (11) 
STRIFE

>  <ref_mols>  (11) 
x1083

>  <ref_pdb>  (11) 
d68/D68EV3CPROA_apo.pdb

>  <original SMILES>  (11) 
CS(=O)(=O)N1CCC(O)CC1

$$$$
strife_elaboration_x1083
     RDKit          3D

 20 21  0  0  0  0  0  0  0  0999 V2000
   -6.9811   -6.0743   -8.3751 C   0  0  0  0  0  0  0  0  0  0  0  0
   -7.2143   -5.7249   -6.9292 C   0  0  0  0  0  0  0  0  0  0  0  0
   -7.6532   -6.8396   -6.0026 C   0  0  0  0  0  0  0  0  0  0  0  0
   -7.5768   -6.2520   -4.6696 N   0  0  0  0  0  0  0  0  0  0  0  0
   -7.6613   -7.2898   -3.7172 C   0  0  0  0  0  0  0  0  0  0  0  0
   -6.4927   -8.1539   -3.8824 C   0  0  0  0  0  0  0  0  0  0  0  0
   -5.8397   -8.4639   -2.5362 N   0  0  0  0  0  0  0  0  0  0  0  0
   -5.8504   -7.0141   -1.5031 S   0  0  0  0  0  0  0  0  0  0  0  0
   -7.2583   -6.7430   -1.0527 O   0  0  0  0  0  0  0  0  0  0  0  0
   -5.3493   -5.8370   -2.2903 O   0  0  0  0  0  0  0  0  0  0  0  0
   -4.8302   -7.2110   -0.1139 N   0  0  0  0  0  0  0  0  0  0  0  0
   -3.4371   -7.4315   -0.5273 C   0  0  0  0  0  0  0  0  0  0  0  0
   -2.5424   -7.3904    0.7079 C   0  0  0  0  0  0  0  0  0  0  0  0
   -2.9902   -8.4542    1.7201 C   0  0  0  0  0  0  0  0  0  0  0  0
   -2.2482   -8.3048    2.8990 N   0  0  0  0  0  0  0  0  0  0  0  0
   -4.4922   -8.3261    2.0270 C   0  0  0  0  0  0  0  0  0  0  0  0
   -5.3010   -8.3175    0.7299 C   0  0  0  0  0  0  0  0  0  0  0  0
   -8.6467   -5.2508   -4.5084 C   0  0  0  0  0  0  0  0  0  0  0  0
   -8.8496   -4.4110   -5.7923 C   0  0  0  0  0  0  0  0  0  0  0  0
   -7.7648   -4.4383   -6.7044 O   0  0  0  0  0  0  0  0  0  0  0  0
  1  2  1  0
  2  3  1  0
  3  4  1  0
  4  5  1  0
  5  6  1  0
  6  7  1  0
  7  8  1  0
  8  9  2  0
  8 10  2  0
  8 11  1  0
 11 12  1  0
 12 13  1  0
 13 14  1  0
 14 15  1  0
 14 16  1  0
 16 17  1  0
  4 18  1  0
 18 19  1  0
 19 20  1  0
 20  2  1  0
 17 11  1  0
M  END
>  <ref_url>  (12) 
0

>  <submitter_name>  (12) 
Lucy Vost

>  <submitter_email>  (12) 
lucy.vost@gtc.ox.ac.uk

>  <submitter_institution>  (12) 
University of Oxford

>  <generation_date>  (12) 
2023-07-28

>  <method>  (12) 
STRIFE

>  <ref_mols>  (12) 
x1083

>  <ref_pdb>  (12) 
d68/D68EV3CPROA_apo.pdb

>  <original SMILES>  (12) 
CS(=O)(=O)N1CCC(O)CC1

$$$$
strife_elaboration_x1083
     RDKit          3D

 20 21  0  0  0  0  0  0  0  0999 V2000
   -6.9811   -6.0743   -8.3751 C   0  0  0  0  0  0  0  0  0  0  0  0
   -7.2143   -5.7249   -6.9292 C   0  0  0  0  0  0  0  0  0  0  0  0
   -7.6532   -6.8396   -6.0026 C   0  0  0  0  0  0  0  0  0  0  0  0
   -7.5768   -6.2520   -4.6696 N   0  0  0  0  0  0  0  0  0  0  0  0
   -7.6613   -7.2898   -3.7172 C   0  0  0  0  0  0  0  0  0  0  0  0
   -6.4927   -8.1539   -3.8824 C   0  0  0  0  0  0  0  0  0  0  0  0
   -5.8397   -8.4639   -2.5362 N   0  0  0  0  0  0  0  0  0  0  0  0
   -5.8504   -7.0141   -1.5031 S   0  0  0  0  0  0  0  0  0  0  0  0
   -7.2583   -6.7430   -1.0527 O   0  0  0  0  0  0  0  0  0  0  0  0
   -5.3493   -5.8370   -2.2903 O   0  0  0  0  0  0  0  0  0  0  0  0
   -4.8302   -7.2110   -0.1139 N   0  0  0  0  0  0  0  0  0  0  0  0
   -5.3010   -8.3175    0.7299 C   0  0  0  0  0  0  0  0  0  0  0  0
   -4.4922   -8.3261    2.0270 C   0  0  0  0  0  0  0  0  0  0  0  0
   -2.9902   -8.4542    1.7201 C   0  0  0  0  0  0  0  0  0  0  0  0
   -2.2482   -8.3048    2.8990 O   0  0  0  0  0  0  0  0  0  0  0  0
   -2.5424   -7.3904    0.7079 C   0  0  0  0  0  0  0  0  0  0  0  0
   -3.4371   -7.4315   -0.5273 C   0  0  0  0  0  0  0  0  0  0  0  0
   -8.6467   -5.2508   -4.5084 C   0  0  0  0  0  0  0  0  0  0  0  0
   -8.8496   -4.4110   -5.7923 C   0  0  0  0  0  0  0  0  0  0  0  0
   -7.7648   -4.4383   -6.7044 O   0  0  0  0  0  0  0  0  0  0  0  0
  1  2  1  0
  2  3  1  0
  3  4  1  0
  4  5  1  0
  5  6  1  0
  6  7  1  0
  7  8  1  0
  8  9  2  0
  8 10  2  0
  8 11  1  0
 11 12  1  0
 12 13  1  0
 13 14  1  0
 14 15  2  0
 14 16  1  0
 16 17  1  0
  4 18  1  0
 18 19  1  0
 19 20  1  0
 20  2  1  0
 17 11  1  0
M  END
>  <ref_url>  (13) 
0

>  <submitter_name>  (13) 
Lucy Vost

>  <submitter_email>  (13) 
lucy.vost@gtc.ox.ac.uk

>  <submitter_institution>  (13) 
University of Oxford

>  <generation_date>  (13) 
2023-07-28

>  <method>  (13) 
STRIFE

>  <ref_mols>  (13) 
x1083

>  <ref_pdb>  (13) 
d68/D68EV3CPROA_apo.pdb

>  <original SMILES>  (13) 
CS(=O)(=O)N1CCC(O)CC1

$$$$
strife_elaboration_x1083
     RDKit          3D

 20 21  0  0  0  0  0  0  0  0999 V2000
   -6.9811   -6.0743   -8.3751 C   0  0  0  0  0  0  0  0  0  0  0  0
   -7.2143   -5.7249   -6.9292 C   0  0  0  0  0  0  0  0  0  0  0  0
   -7.6532   -6.8396   -6.0026 C   0  0  0  0  0  0  0  0  0  0  0  0
   -7.5768   -6.2520   -4.6696 C   0  0  0  0  0  0  0  0  0  0  0  0
   -7.6613   -7.2898   -3.7172 C   0  0  0  0  0  0  0  0  0  0  0  0
   -6.4927   -8.1539   -3.8824 C   0  0  0  0  0  0  0  0  0  0  0  0
   -5.8397   -8.4639   -2.5362 N   0  0  0  0  0  0  0  0  0  0  0  0
   -5.8504   -7.0141   -1.5031 S   0  0  0  0  0  0  0  0  0  0  0  0
   -7.2583   -6.7430   -1.0527 O   0  0  0  0  0  0  0  0  0  0  0  0
   -5.3493   -5.8370   -2.2903 O   0  0  0  0  0  0  0  0  0  0  0  0
   -4.8302   -7.2110   -0.1139 N   0  0  0  0  0  0  0  0  0  0  0  0
   -5.3010   -8.3175    0.7299 C   0  0  0  0  0  0  0  0  0  0  0  0
   -4.4922   -8.3261    2.0270 C   0  0  0  0  0  0  0  0  0  0  0  0
   -2.9902   -8.4542    1.7201 C   0  0  0  0  0  0  0  0  0  0  0  0
   -2.2482   -8.3048    2.8990 N   0  0  0  0  0  0  0  0  0  0  0  0
   -2.5424   -7.3904    0.7079 C   0  0  0  0  0  0  0  0  0  0  0  0
   -3.4371   -7.4315   -0.5273 C   0  0  0  0  0  0  0  0  0  0  0  0
   -8.6467   -5.2508   -4.5084 C   0  0  0  0  0  0  0  0  0  0  0  0
   -8.8496   -4.4110   -5.7923 C   0  0  0  0  0  0  0  0  0  0  0  0
   -7.7648   -4.4383   -6.7044 O   0  0  0  0  0  0  0  0  0  0  0  0
  1  2  1  0
  2  3  1  0
  3  4  1  0
  4  5  1  0
  5  6  1  0
  6  7  1  0
  7  8  1  0
  8  9  2  0
  8 10  2  0
  8 11  1  0
 11 12  1  0
 12 13  1  0
 13 14  1  0
 14 15  1  0
 14 16  1  0
 16 17  1  0
  4 18  1  0
 18 19  1  0
 19 20  1  0
 20  2  1  0
 17 11  1  0
M  END
>  <ref_url>  (14) 
0

>  <submitter_name>  (14) 
Lucy Vost

>  <submitter_email>  (14) 
lucy.vost@gtc.ox.ac.uk

>  <submitter_institution>  (14) 
University of Oxford

>  <generation_date>  (14) 
2023-07-28

>  <method>  (14) 
STRIFE

>  <ref_mols>  (14) 
x1083

>  <ref_pdb>  (14) 
d68/D68EV3CPROA_apo.pdb

>  <original SMILES>  (14) 
CS(=O)(=O)N1CCC(O)CC1

$$$$
strife_elaboration_x1083
     RDKit          3D

 20 21  0  0  0  0  0  0  0  0999 V2000
   -2.2482   -8.3048    2.8990 C   0  0  0  0  0  0  0  0  0  0  0  0
   -2.9902   -8.4542    1.7201 C   0  0  0  0  0  0  0  0  0  0  0  0
   -2.5424   -7.3904    0.7079 C   0  0  0  0  0  0  0  0  0  0  0  0
   -3.4371   -7.4315   -0.5273 C   0  0  0  0  0  0  0  0  0  0  0  0
   -4.8302   -7.2110   -0.1139 N   0  0  0  0  0  0  0  0  0  0  0  0
   -5.8504   -7.0141   -1.5031 S   0  0  0  0  0  0  0  0  0  0  0  0
   -7.2583   -6.7430   -1.0527 O   0  0  0  0  0  0  0  0  0  0  0  0
   -5.3493   -5.8370   -2.2903 O   0  0  0  0  0  0  0  0  0  0  0  0
   -5.8397   -8.4639   -2.5362 N   0  0  0  0  0  0  0  0  0  0  0  0
   -6.4927   -8.1539   -3.8824 C   0  0  0  0  0  0  0  0  0  0  0  0
   -7.6613   -7.2898   -3.7172 C   0  0  0  0  0  0  0  0  0  0  0  0
   -7.5768   -6.2520   -4.6696 C   0  0  0  0  0  0  0  0  0  0  0  0
   -8.6467   -5.2508   -4.5084 C   0  0  0  0  0  0  0  0  0  0  0  0
   -8.8496   -4.4110   -5.7923 C   0  0  0  0  0  0  0  0  0  0  0  0
   -7.7648   -4.4383   -6.7044 O   0  0  0  0  0  0  0  0  0  0  0  0
   -7.2143   -5.7249   -6.9292 C   0  0  0  0  0  0  0  0  0  0  0  0
   -6.9811   -6.0743   -8.3751 C   0  0  0  0  0  0  0  0  0  0  0  0
   -7.6532   -6.8396   -6.0026 C   0  0  0  0  0  0  0  0  0  0  0  0
   -5.3010   -8.3175    0.7299 C   0  0  0  0  0  0  0  0  0  0  0  0
   -4.4922   -8.3261    2.0270 C   0  0  0  0  0  0  0  0  0  0  0  0
  1  2  1  0
  2  3  1  0
  3  4  1  0
  4  5  1  0
  5  6  1  0
  6  7  2  0
  6  8  2  0
  6  9  1  0
  9 10  1  0
 10 11  1  0
 11 12  1  0
 12 13  1  0
 13 14  1  0
 14 15  1  0
 15 16  1  0
 16 17  1  0
 16 18  1  0
  5 19  1  0
 19 20  1  0
 20  2  1  0
 18 12  1  0
M  END
>  <ref_url>  (15) 
0

>  <submitter_name>  (15) 
Lucy Vost

>  <submitter_email>  (15) 
lucy.vost@gtc.ox.ac.uk

>  <submitter_institution>  (15) 
University of Oxford

>  <generation_date>  (15) 
2023-07-28

>  <method>  (15) 
STRIFE

>  <ref_mols>  (15) 
x1083

>  <ref_pdb>  (15) 
d68/D68EV3CPROA_apo.pdb

>  <original SMILES>  (15) 
CS(=O)(=O)N1CCC(O)CC1

$$$$
strife_elaboration_x1083
     RDKit          3D

 21 22  0  0  0  0  0  0  0  0999 V2000
   -7.5473   -4.1027   -8.4944 C   0  0  0  0  0  0  0  0  0  0  0  0
   -7.8298   -4.4223   -7.1358 O   0  0  0  0  0  0  0  0  0  0  0  0
   -7.8415   -5.7273   -6.6259 C   0  0  0  0  0  0  0  0  0  0  0  0
   -8.7274   -6.6580   -7.1811 C   0  0  0  0  0  0  0  0  0  0  0  0
   -8.7698   -7.9690   -6.6998 C   0  0  0  0  0  0  0  0  0  0  0  0
   -7.9215   -8.3627   -5.6644 C   0  0  0  0  0  0  0  0  0  0  0  0
   -7.0220   -7.4448   -5.1039 C   0  0  0  0  0  0  0  0  0  0  0  0
   -6.1181   -7.8534   -3.9760 C   0  0  0  0  0  0  0  0  0  0  0  0
   -6.9232   -8.3840   -2.7929 C   0  0  0  0  0  0  0  0  0  0  0  0
   -6.0440   -8.6611   -1.5560 N   0  0  0  0  0  0  0  0  0  0  0  0
   -5.9354   -7.2487   -0.4555 S   0  0  0  0  0  0  0  0  0  0  0  0
   -7.2545   -7.1019    0.2499 O   0  0  0  0  0  0  0  0  0  0  0  0
   -5.6728   -6.0013   -1.2507 O   0  0  0  0  0  0  0  0  0  0  0  0
   -4.6667   -7.4313    0.7293 N   0  0  0  0  0  0  0  0  0  0  0  0
   -4.8985   -8.6578    1.5043 C   0  0  0  0  0  0  0  0  0  0  0  0
   -3.8541   -8.8405    2.6101 C   0  0  0  0  0  0  0  0  0  0  0  0
   -2.5691   -8.0408    2.4114 C   0  0  0  0  0  0  0  0  0  0  0  0
   -1.4861   -8.5979    3.0967 O   0  0  0  0  0  0  0  0  0  0  0  0
   -2.2004   -7.5638    1.0103 C   0  0  0  0  0  0  0  0  0  0  0  0
   -3.3729   -7.5114    0.0380 C   0  0  0  0  0  0  0  0  0  0  0  0
   -6.9925   -6.1262   -5.5783 C   0  0  0  0  0  0  0  0  0  0  0  0
  1  2  1  0
  2  3  1  0
  3  4  2  0
  4  5  1  0
  5  6  2  0
  6  7  1  0
  7  8  1  0
  8  9  1  0
  9 10  1  0
 10 11  1  0
 11 12  2  0
 11 13  2  0
 11 14  1  0
 14 15  1  0
 15 16  1  0
 16 17  1  0
 17 18  1  0
 17 19  1  0
 19 20  1  0
  7 21  2  0
 21  3  1  0
 20 14  1  0
M  END
>  <ref_url>  (16) 
0

>  <submitter_name>  (16) 
Lucy Vost

>  <submitter_email>  (16) 
lucy.vost@gtc.ox.ac.uk

>  <submitter_institution>  (16) 
University of Oxford

>  <generation_date>  (16) 
2023-07-28

>  <method>  (16) 
STRIFE

>  <ref_mols>  (16) 
x1083

>  <ref_pdb>  (16) 
d68/D68EV3CPROA_apo.pdb

>  <original SMILES>  (16) 
CS(=O)(=O)N1CCC(O)CC1

$$$$
strife_elaboration_x1083
     RDKit          3D

 21 22  0  0  0  0  0  0  0  0999 V2000
   -7.5473   -4.1027   -8.4944 C   0  0  0  0  0  0  0  0  0  0  0  0
   -7.8298   -4.4223   -7.1358 O   0  0  0  0  0  0  0  0  0  0  0  0
   -7.8415   -5.7273   -6.6259 C   0  0  0  0  0  0  0  0  0  0  0  0
   -6.9925   -6.1262   -5.5783 C   0  0  0  0  0  0  0  0  0  0  0  0
   -7.0220   -7.4448   -5.1039 C   0  0  0  0  0  0  0  0  0  0  0  0
   -6.1181   -7.8534   -3.9760 C   0  0  0  0  0  0  0  0  0  0  0  0
   -6.9232   -8.3840   -2.7929 C   0  0  0  0  0  0  0  0  0  0  0  0
   -6.0440   -8.6611   -1.5560 N   0  0  0  0  0  0  0  0  0  0  0  0
   -5.9354   -7.2487   -0.4555 S   0  0  0  0  0  0  0  0  0  0  0  0
   -5.6728   -6.0013   -1.2507 O   0  0  0  0  0  0  0  0  0  0  0  0
   -7.2545   -7.1019    0.2499 O   0  0  0  0  0  0  0  0  0  0  0  0
   -4.6667   -7.4313    0.7293 N   0  0  0  0  0  0  0  0  0  0  0  0
   -3.3729   -7.5114    0.0380 C   0  0  0  0  0  0  0  0  0  0  0  0
   -2.2004   -7.5638    1.0103 C   0  0  0  0  0  0  0  0  0  0  0  0
   -2.5691   -8.0408    2.4114 C   0  0  0  0  0  0  0  0  0  0  0  0
   -1.4861   -8.5979    3.0967 O   0  0  0  0  0  0  0  0  0  0  0  0
   -3.8541   -8.8405    2.6101 C   0  0  0  0  0  0  0  0  0  0  0  0
   -4.8985   -8.6578    1.5043 C   0  0  0  0  0  0  0  0  0  0  0  0
   -7.9215   -8.3627   -5.6644 C   0  0  0  0  0  0  0  0  0  0  0  0
   -8.7698   -7.9690   -6.6998 C   0  0  0  0  0  0  0  0  0  0  0  0
   -8.7274   -6.6580   -7.1811 N   0  0  0  0  0  0  0  0  0  0  0  0
  1  2  1  0
  2  3  1  0
  3  4  2  0
  4  5  1  0
  5  6  1  0
  6  7  1  0
  7  8  1  0
  8  9  1  0
  9 10  2  0
  9 11  2  0
  9 12  1  0
 12 13  1  0
 13 14  1  0
 14 15  1  0
 15 16  1  0
 15 17  1  0
 17 18  1  0
  5 19  2  0
 19 20  1  0
 20 21  2  0
 21  3  1  0
 18 12  1  0
M  END
>  <ref_url>  (17) 
0

>  <submitter_name>  (17) 
Lucy Vost

>  <submitter_email>  (17) 
lucy.vost@gtc.ox.ac.uk

>  <submitter_institution>  (17) 
University of Oxford

>  <generation_date>  (17) 
2023-07-28

>  <method>  (17) 
STRIFE

>  <ref_mols>  (17) 
x1083

>  <ref_pdb>  (17) 
d68/D68EV3CPROA_apo.pdb

>  <original SMILES>  (17) 
CS(=O)(=O)N1CCC(O)CC1

$$$$
strife_elaboration_x1083
     RDKit          3D

 21 22  0  0  0  0  0  0  0  0999 V2000
   -7.5473   -4.1027   -8.4944 C   0  0  0  0  0  0  0  0  0  0  0  0
   -7.8298   -4.4223   -7.1358 O   0  0  0  0  0  0  0  0  0  0  0  0
   -7.8415   -5.7273   -6.6259 C   0  0  0  0  0  0  0  0  0  0  0  0
   -8.7274   -6.6580   -7.1811 C   0  0  0  0  0  0  0  0  0  0  0  0
   -8.7698   -7.9690   -6.6998 C   0  0  0  0  0  0  0  0  0  0  0  0
   -7.9215   -8.3627   -5.6644 C   0  0  0  0  0  0  0  0  0  0  0  0
   -7.0220   -7.4448   -5.1039 C   0  0  0  0  0  0  0  0  0  0  0  0
   -6.1181   -7.8534   -3.9760 C   0  0  0  0  0  0  0  0  0  0  0  0
   -6.9232   -8.3840   -2.7929 C   0  0  0  0  0  0  0  0  0  0  0  0
   -6.0440   -8.6611   -1.5560 N   0  0  0  0  0  0  0  0  0  0  0  0
   -5.9354   -7.2487   -0.4555 S   0  0  0  0  0  0  0  0  0  0  0  0
   -5.6728   -6.0013   -1.2507 O   0  0  0  0  0  0  0  0  0  0  0  0
   -7.2545   -7.1019    0.2499 O   0  0  0  0  0  0  0  0  0  0  0  0
   -4.6667   -7.4313    0.7293 N   0  0  0  0  0  0  0  0  0  0  0  0
   -3.3729   -7.5114    0.0380 C   0  0  0  0  0  0  0  0  0  0  0  0
   -2.2004   -7.5638    1.0103 C   0  0  0  0  0  0  0  0  0  0  0  0
   -2.5691   -8.0408    2.4114 C   0  0  0  0  0  0  0  0  0  0  0  0
   -1.4861   -8.5979    3.0967 C   0  0  0  0  0  0  0  0  0  0  0  0
   -3.8541   -8.8405    2.6101 C   0  0  0  0  0  0  0  0  0  0  0  0
   -4.8985   -8.6578    1.5043 C   0  0  0  0  0  0  0  0  0  0  0  0
   -6.9925   -6.1262   -5.5783 C   0  0  0  0  0  0  0  0  0  0  0  0
  1  2  1  0
  2  3  1  0
  3  4  2  0
  4  5  1  0
  5  6  2  0
  6  7  1  0
  7  8  1  0
  8  9  1  0
  9 10  1  0
 10 11  1  0
 11 12  2  0
 11 13  2  0
 11 14  1  0
 14 15  1  0
 15 16  1  0
 16 17  1  0
 17 18  1  0
 17 19  1  0
 19 20  1  0
  7 21  2  0
 21  3  1  0
 20 14  1  0
M  END
>  <ref_url>  (18) 
0

>  <submitter_name>  (18) 
Lucy Vost

>  <submitter_email>  (18) 
lucy.vost@gtc.ox.ac.uk

>  <submitter_institution>  (18) 
University of Oxford

>  <generation_date>  (18) 
2023-07-28

>  <method>  (18) 
STRIFE

>  <ref_mols>  (18) 
x1083

>  <ref_pdb>  (18) 
d68/D68EV3CPROA_apo.pdb

>  <original SMILES>  (18) 
CS(=O)(=O)N1CCC(O)CC1

$$$$
strife_elaboration_x1083
     RDKit          3D

 21 22  0  0  0  0  0  0  0  0999 V2000
   -7.5473   -4.1027   -8.4944 C   0  0  0  0  0  0  0  0  0  0  0  0
   -7.8298   -4.4223   -7.1358 O   0  0  0  0  0  0  0  0  0  0  0  0
   -7.8415   -5.7273   -6.6259 C   0  0  0  0  0  0  0  0  0  0  0  0
   -8.7274   -6.6580   -7.1811 C   0  0  0  0  0  0  0  0  0  0  0  0
   -8.7698   -7.9690   -6.6998 C   0  0  0  0  0  0  0  0  0  0  0  0
   -7.9215   -8.3627   -5.6644 C   0  0  0  0  0  0  0  0  0  0  0  0
   -7.0220   -7.4448   -5.1039 C   0  0  0  0  0  0  0  0  0  0  0  0
   -6.1181   -7.8534   -3.9760 C   0  0  0  0  0  0  0  0  0  0  0  0
   -6.9232   -8.3840   -2.7929 C   0  0  0  0  0  0  0  0  0  0  0  0
   -6.0440   -8.6611   -1.5560 N   0  0  0  0  0  0  0  0  0  0  0  0
   -5.9354   -7.2487   -0.4555 S   0  0  0  0  0  0  0  0  0  0  0  0
   -5.6728   -6.0013   -1.2507 O   0  0  0  0  0  0  0  0  0  0  0  0
   -7.2545   -7.1019    0.2499 O   0  0  0  0  0  0  0  0  0  0  0  0
   -4.6667   -7.4313    0.7293 N   0  0  0  0  0  0  0  0  0  0  0  0
   -4.8985   -8.6578    1.5043 C   0  0  0  0  0  0  0  0  0  0  0  0
   -3.8541   -8.8405    2.6101 C   0  0  0  0  0  0  0  0  0  0  0  0
   -2.5691   -8.0408    2.4114 C   0  0  0  0  0  0  0  0  0  0  0  0
   -1.4861   -8.5979    3.0967 N   0  0  0  0  0  0  0  0  0  0  0  0
   -2.2004   -7.5638    1.0103 C   0  0  0  0  0  0  0  0  0  0  0  0
   -3.3729   -7.5114    0.0380 C   0  0  0  0  0  0  0  0  0  0  0  0
   -6.9925   -6.1262   -5.5783 C   0  0  0  0  0  0  0  0  0  0  0  0
  1  2  1  0
  2  3  1  0
  3  4  2  0
  4  5  1  0
  5  6  2  0
  6  7  1  0
  7  8  1  0
  8  9  1  0
  9 10  1  0
 10 11  1  0
 11 12  2  0
 11 13  2  0
 11 14  1  0
 14 15  1  0
 15 16  1  0
 16 17  1  0
 17 18  1  0
 17 19  1  0
 19 20  1  0
  7 21  2  0
 21  3  1  0
 20 14  1  0
M  END
>  <ref_url>  (19) 
0

>  <submitter_name>  (19) 
Lucy Vost

>  <submitter_email>  (19) 
lucy.vost@gtc.ox.ac.uk

>  <submitter_institution>  (19) 
University of Oxford

>  <generation_date>  (19) 
2023-07-28

>  <method>  (19) 
STRIFE

>  <ref_mols>  (19) 
x1083

>  <ref_pdb>  (19) 
d68/D68EV3CPROA_apo.pdb

>  <original SMILES>  (19) 
CS(=O)(=O)N1CCC(O)CC1

$$$$
strife_elaboration_x1083
     RDKit          3D

 21 22  0  0  0  0  0  0  0  0999 V2000
   -7.5473   -4.1027   -8.4944 C   0  0  0  0  0  0  0  0  0  0  0  0
   -7.8298   -4.4223   -7.1358 O   0  0  0  0  0  0  0  0  0  0  0  0
   -7.8415   -5.7273   -6.6259 C   0  0  0  0  0  0  0  0  0  0  0  0
   -8.7274   -6.6580   -7.1811 C   0  0  0  0  0  0  0  0  0  0  0  0
   -8.7698   -7.9690   -6.6998 C   0  0  0  0  0  0  0  0  0  0  0  0
   -7.9215   -8.3627   -5.6644 C   0  0  0  0  0  0  0  0  0  0  0  0
   -7.0220   -7.4448   -5.1039 C   0  0  0  0  0  0  0  0  0  0  0  0
   -6.1181   -7.8534   -3.9760 C   0  0  0  0  0  0  0  0  0  0  0  0
   -6.9232   -8.3840   -2.7929 C   0  0  0  0  0  0  0  0  0  0  0  0
   -6.0440   -8.6611   -1.5560 N   0  0  0  0  0  0  0  0  0  0  0  0
   -5.9354   -7.2487   -0.4555 S   0  0  0  0  0  0  0  0  0  0  0  0
   -7.2545   -7.1019    0.2499 O   0  0  0  0  0  0  0  0  0  0  0  0
   -5.6728   -6.0013   -1.2507 O   0  0  0  0  0  0  0  0  0  0  0  0
   -4.6667   -7.4313    0.7293 N   0  0  0  0  0  0  0  0  0  0  0  0
   -4.8985   -8.6578    1.5043 C   0  0  0  0  0  0  0  0  0  0  0  0
   -3.8541   -8.8405    2.6101 C   0  0  0  0  0  0  0  0  0  0  0  0
   -2.5691   -8.0408    2.4114 C   0  0  0  0  0  0  0  0  0  0  0  0
   -1.4861   -8.5979    3.0967 O   0  0  0  0  0  0  0  0  0  0  0  0
   -2.2004   -7.5638    1.0103 C   0  0  0  0  0  0  0  0  0  0  0  0
   -3.3729   -7.5114    0.0380 C   0  0  0  0  0  0  0  0  0  0  0  0
   -6.9925   -6.1262   -5.5783 N   0  0  0  0  0  0  0  0  0  0  0  0
  1  2  1  0
  2  3  1  0
  3  4  2  0
  4  5  1  0
  5  6  2  0
  6  7  1  0
  7  8  1  0
  8  9  1  0
  9 10  1  0
 10 11  1  0
 11 12  2  0
 11 13  2  0
 11 14  1  0
 14 15  1  0
 15 16  1  0
 16 17  1  0
 17 18  1  0
 17 19  1  0
 19 20  1  0
  7 21  2  0
 21  3  1  0
 20 14  1  0
M  END
>  <ref_url>  (20) 
0

>  <submitter_name>  (20) 
Lucy Vost

>  <submitter_email>  (20) 
lucy.vost@gtc.ox.ac.uk

>  <submitter_institution>  (20) 
University of Oxford

>  <generation_date>  (20) 
2023-07-28

>  <method>  (20) 
STRIFE

>  <ref_mols>  (20) 
x1083

>  <ref_pdb>  (20) 
d68/D68EV3CPROA_apo.pdb

>  <original SMILES>  (20) 
CS(=O)(=O)N1CCC(O)CC1

$$$$
strife_elaboration_x1083
     RDKit          3D

 21 22  0  0  0  0  0  0  0  0999 V2000
   -7.5473   -4.1027   -8.4944 C   0  0  0  0  0  0  0  0  0  0  0  0
   -7.8298   -4.4223   -7.1358 O   0  0  0  0  0  0  0  0  0  0  0  0
   -7.8415   -5.7273   -6.6259 C   0  0  0  0  0  0  0  0  0  0  0  0
   -8.7274   -6.6580   -7.1811 C   0  0  0  0  0  0  0  0  0  0  0  0
   -8.7698   -7.9690   -6.6998 C   0  0  0  0  0  0  0  0  0  0  0  0
   -7.9215   -8.3627   -5.6644 C   0  0  0  0  0  0  0  0  0  0  0  0
   -7.0220   -7.4448   -5.1039 C   0  0  0  0  0  0  0  0  0  0  0  0
   -6.1181   -7.8534   -3.9760 C   0  0  0  0  0  0  0  0  0  0  0  0
   -6.9232   -8.3840   -2.7929 C   0  0  0  0  0  0  0  0  0  0  0  0
   -6.0440   -8.6611   -1.5560 N   0  0  0  0  0  0  0  0  0  0  0  0
   -5.9354   -7.2487   -0.4555 S   0  0  0  0  0  0  0  0  0  0  0  0
   -5.6728   -6.0013   -1.2507 O   0  0  0  0  0  0  0  0  0  0  0  0
   -7.2545   -7.1019    0.2499 O   0  0  0  0  0  0  0  0  0  0  0  0
   -4.6667   -7.4313    0.7293 N   0  0  0  0  0  0  0  0  0  0  0  0
   -4.8985   -8.6578    1.5043 C   0  0  0  0  0  0  0  0  0  0  0  0
   -3.8541   -8.8405    2.6101 C   0  0  0  0  0  0  0  0  0  0  0  0
   -2.5691   -8.0408    2.4114 C   0  0  0  0  0  0  0  0  0  0  0  0
   -1.4861   -8.5979    3.0967 O   0  0  0  0  0  0  0  0  0  0  0  0
   -2.2004   -7.5638    1.0103 C   0  0  0  0  0  0  0  0  0  0  0  0
   -3.3729   -7.5114    0.0380 C   0  0  0  0  0  0  0  0  0  0  0  0
   -6.9925   -6.1262   -5.5783 C   0  0  0  0  0  0  0  0  0  0  0  0
  1  2  1  0
  2  3  1  0
  3  4  2  0
  4  5  1  0
  5  6  2  0
  6  7  1  0
  7  8  1  0
  8  9  1  0
  9 10  1  0
 10 11  1  0
 11 12  2  0
 11 13  2  0
 11 14  1  0
 14 15  1  0
 15 16  1  0
 16 17  1  0
 17 18  2  0
 17 19  1  0
 19 20  1  0
  7 21  2  0
 21  3  1  0
 20 14  1  0
M  END
>  <ref_url>  (21) 
0

>  <submitter_name>  (21) 
Lucy Vost

>  <submitter_email>  (21) 
lucy.vost@gtc.ox.ac.uk

>  <submitter_institution>  (21) 
University of Oxford

>  <generation_date>  (21) 
2023-07-28

>  <method>  (21) 
STRIFE

>  <ref_mols>  (21) 
x1083

>  <ref_pdb>  (21) 
d68/D68EV3CPROA_apo.pdb

>  <original SMILES>  (21) 
CS(=O)(=O)N1CCC(O)CC1

$$$$
strife_elaboration_x1083
     RDKit          3D

 21 22  0  0  0  0  0  0  0  0999 V2000
   -7.5473   -4.1027   -8.4944 C   0  0  0  0  0  0  0  0  0  0  0  0
   -7.8298   -4.4223   -7.1358 O   0  0  0  0  0  0  0  0  0  0  0  0
   -7.8415   -5.7273   -6.6259 C   0  0  0  0  0  0  0  0  0  0  0  0
   -6.9925   -6.1262   -5.5783 C   0  0  0  0  0  0  0  0  0  0  0  0
   -7.0220   -7.4448   -5.1039 C   0  0  0  0  0  0  0  0  0  0  0  0
   -6.1181   -7.8534   -3.9760 C   0  0  0  0  0  0  0  0  0  0  0  0
   -6.9232   -8.3840   -2.7929 C   0  0  0  0  0  0  0  0  0  0  0  0
   -6.0440   -8.6611   -1.5560 N   0  0  0  0  0  0  0  0  0  0  0  0
   -5.9354   -7.2487   -0.4555 S   0  0  0  0  0  0  0  0  0  0  0  0
   -5.6728   -6.0013   -1.2507 O   0  0  0  0  0  0  0  0  0  0  0  0
   -7.2545   -7.1019    0.2499 O   0  0  0  0  0  0  0  0  0  0  0  0
   -4.6667   -7.4313    0.7293 N   0  0  0  0  0  0  0  0  0  0  0  0
   -3.3729   -7.5114    0.0380 C   0  0  0  0  0  0  0  0  0  0  0  0
   -2.2004   -7.5638    1.0103 C   0  0  0  0  0  0  0  0  0  0  0  0
   -2.5691   -8.0408    2.4114 C   0  0  0  0  0  0  0  0  0  0  0  0
   -1.4861   -8.5979    3.0967 C   0  0  0  0  0  0  0  0  0  0  0  0
   -3.8541   -8.8405    2.6101 C   0  0  0  0  0  0  0  0  0  0  0  0
   -4.8985   -8.6578    1.5043 C   0  0  0  0  0  0  0  0  0  0  0  0
   -7.9215   -8.3627   -5.6644 C   0  0  0  0  0  0  0  0  0  0  0  0
   -8.7698   -7.9690   -6.6998 C   0  0  0  0  0  0  0  0  0  0  0  0
   -8.7274   -6.6580   -7.1811 N   0  0  0  0  0  0  0  0  0  0  0  0
  1  2  1  0
  2  3  1  0
  3  4  2  0
  4  5  1  0
  5  6  1  0
  6  7  1  0
  7  8  1  0
  8  9  1  0
  9 10  2  0
  9 11  2  0
  9 12  1  0
 12 13  1  0
 13 14  1  0
 14 15  1  0
 15 16  1  0
 15 17  1  0
 17 18  1  0
  5 19  2  0
 19 20  1  0
 20 21  2  0
 21  3  1  0
 18 12  1  0
M  END
>  <ref_url>  (22) 
0

>  <submitter_name>  (22) 
Lucy Vost

>  <submitter_email>  (22) 
lucy.vost@gtc.ox.ac.uk

>  <submitter_institution>  (22) 
University of Oxford

>  <generation_date>  (22) 
2023-07-28

>  <method>  (22) 
STRIFE

>  <ref_mols>  (22) 
x1083

>  <ref_pdb>  (22) 
d68/D68EV3CPROA_apo.pdb

>  <original SMILES>  (22) 
CS(=O)(=O)N1CCC(O)CC1

$$$$
strife_elaboration_x1083
     RDKit          3D

 21 22  0  0  0  0  0  0  0  0999 V2000
   -7.5473   -4.1027   -8.4944 C   0  0  0  0  0  0  0  0  0  0  0  0
   -7.8298   -4.4223   -7.1358 O   0  0  0  0  0  0  0  0  0  0  0  0
   -7.8415   -5.7273   -6.6259 C   0  0  0  0  0  0  0  0  0  0  0  0
   -6.9925   -6.1262   -5.5783 C   0  0  0  0  0  0  0  0  0  0  0  0
   -7.0220   -7.4448   -5.1039 C   0  0  0  0  0  0  0  0  0  0  0  0
   -6.1181   -7.8534   -3.9760 C   0  0  0  0  0  0  0  0  0  0  0  0
   -6.9232   -8.3840   -2.7929 C   0  0  0  0  0  0  0  0  0  0  0  0
   -6.0440   -8.6611   -1.5560 N   0  0  0  0  0  0  0  0  0  0  0  0
   -5.9354   -7.2487   -0.4555 S   0  0  0  0  0  0  0  0  0  0  0  0
   -5.6728   -6.0013   -1.2507 O   0  0  0  0  0  0  0  0  0  0  0  0
   -7.2545   -7.1019    0.2499 O   0  0  0  0  0  0  0  0  0  0  0  0
   -4.6667   -7.4313    0.7293 N   0  0  0  0  0  0  0  0  0  0  0  0
   -3.3729   -7.5114    0.0380 C   0  0  0  0  0  0  0  0  0  0  0  0
   -2.2004   -7.5638    1.0103 C   0  0  0  0  0  0  0  0  0  0  0  0
   -2.5691   -8.0408    2.4114 C   0  0  0  0  0  0  0  0  0  0  0  0
   -1.4861   -8.5979    3.0967 N   0  0  0  0  0  0  0  0  0  0  0  0
   -3.8541   -8.8405    2.6101 C   0  0  0  0  0  0  0  0  0  0  0  0
   -4.8985   -8.6578    1.5043 C   0  0  0  0  0  0  0  0  0  0  0  0
   -7.9215   -8.3627   -5.6644 C   0  0  0  0  0  0  0  0  0  0  0  0
   -8.7698   -7.9690   -6.6998 C   0  0  0  0  0  0  0  0  0  0  0  0
   -8.7274   -6.6580   -7.1811 N   0  0  0  0  0  0  0  0  0  0  0  0
  1  2  1  0
  2  3  1  0
  3  4  2  0
  4  5  1  0
  5  6  1  0
  6  7  1  0
  7  8  1  0
  8  9  1  0
  9 10  2  0
  9 11  2  0
  9 12  1  0
 12 13  1  0
 13 14  1  0
 14 15  1  0
 15 16  1  0
 15 17  1  0
 17 18  1  0
  5 19  2  0
 19 20  1  0
 20 21  2  0
 21  3  1  0
 18 12  1  0
M  END
>  <ref_url>  (23) 
0

>  <submitter_name>  (23) 
Lucy Vost

>  <submitter_email>  (23) 
lucy.vost@gtc.ox.ac.uk

>  <submitter_institution>  (23) 
University of Oxford

>  <generation_date>  (23) 
2023-07-28

>  <method>  (23) 
STRIFE

>  <ref_mols>  (23) 
x1083

>  <ref_pdb>  (23) 
d68/D68EV3CPROA_apo.pdb

>  <original SMILES>  (23) 
CS(=O)(=O)N1CCC(O)CC1

$$$$
strife_elaboration_x1083
     RDKit          3D

 21 22  0  0  0  0  0  0  0  0999 V2000
   -7.5473   -4.1027   -8.4944 C   0  0  0  0  0  0  0  0  0  0  0  0
   -7.8298   -4.4223   -7.1358 O   0  0  0  0  0  0  0  0  0  0  0  0
   -7.8415   -5.7273   -6.6259 C   0  0  0  0  0  0  0  0  0  0  0  0
   -8.7274   -6.6580   -7.1811 C   0  0  0  0  0  0  0  0  0  0  0  0
   -8.7698   -7.9690   -6.6998 C   0  0  0  0  0  0  0  0  0  0  0  0
   -7.9215   -8.3627   -5.6644 C   0  0  0  0  0  0  0  0  0  0  0  0
   -7.0220   -7.4448   -5.1039 C   0  0  0  0  0  0  0  0  0  0  0  0
   -6.1181   -7.8534   -3.9760 C   0  0  0  0  0  0  0  0  0  0  0  0
   -6.9232   -8.3840   -2.7929 C   0  0  0  0  0  0  0  0  0  0  0  0
   -6.0440   -8.6611   -1.5560 N   0  0  0  0  0  0  0  0  0  0  0  0
   -5.9354   -7.2487   -0.4555 S   0  0  0  0  0  0  0  0  0  0  0  0
   -7.2545   -7.1019    0.2499 O   0  0  0  0  0  0  0  0  0  0  0  0
   -5.6728   -6.0013   -1.2507 O   0  0  0  0  0  0  0  0  0  0  0  0
   -4.6667   -7.4313    0.7293 N   0  0  0  0  0  0  0  0  0  0  0  0
   -4.8985   -8.6578    1.5043 C   0  0  0  0  0  0  0  0  0  0  0  0
   -3.8541   -8.8405    2.6101 C   0  0  0  0  0  0  0  0  0  0  0  0
   -2.5691   -8.0408    2.4114 C   0  0  0  0  0  0  0  0  0  0  0  0
   -1.4861   -8.5979    3.0967 C   0  0  0  0  0  0  0  0  0  0  0  0
   -2.2004   -7.5638    1.0103 C   0  0  0  0  0  0  0  0  0  0  0  0
   -3.3729   -7.5114    0.0380 C   0  0  0  0  0  0  0  0  0  0  0  0
   -6.9925   -6.1262   -5.5783 N   0  0  0  0  0  0  0  0  0  0  0  0
  1  2  1  0
  2  3  1  0
  3  4  2  0
  4  5  1  0
  5  6  2  0
  6  7  1  0
  7  8  1  0
  8  9  1  0
  9 10  1  0
 10 11  1  0
 11 12  2  0
 11 13  2  0
 11 14  1  0
 14 15  1  0
 15 16  1  0
 16 17  1  0
 17 18  1  0
 17 19  1  0
 19 20  1  0
  7 21  2  0
 21  3  1  0
 20 14  1  0
M  END
>  <ref_url>  (24) 
0

>  <submitter_name>  (24) 
Lucy Vost

>  <submitter_email>  (24) 
lucy.vost@gtc.ox.ac.uk

>  <submitter_institution>  (24) 
University of Oxford

>  <generation_date>  (24) 
2023-07-28

>  <method>  (24) 
STRIFE

>  <ref_mols>  (24) 
x1083

>  <ref_pdb>  (24) 
d68/D68EV3CPROA_apo.pdb

>  <original SMILES>  (24) 
CS(=O)(=O)N1CCC(O)CC1

$$$$
strife_elaboration_x1083
     RDKit          3D

 21 22  0  0  0  0  0  0  0  0999 V2000
   -7.5473   -4.1027   -8.4944 C   0  0  0  0  0  0  0  0  0  0  0  0
   -7.8298   -4.4223   -7.1358 O   0  0  0  0  0  0  0  0  0  0  0  0
   -7.8415   -5.7273   -6.6259 C   0  0  0  0  0  0  0  0  0  0  0  0
   -8.7274   -6.6580   -7.1811 C   0  0  0  0  0  0  0  0  0  0  0  0
   -8.7698   -7.9690   -6.6998 C   0  0  0  0  0  0  0  0  0  0  0  0
   -7.9215   -8.3627   -5.6644 C   0  0  0  0  0  0  0  0  0  0  0  0
   -7.0220   -7.4448   -5.1039 C   0  0  0  0  0  0  0  0  0  0  0  0
   -6.1181   -7.8534   -3.9760 C   0  0  0  0  0  0  0  0  0  0  0  0
   -6.9232   -8.3840   -2.7929 C   0  0  0  0  0  0  0  0  0  0  0  0
   -6.0440   -8.6611   -1.5560 N   0  0  0  0  0  0  0  0  0  0  0  0
   -5.9354   -7.2487   -0.4555 S   0  0  0  0  0  0  0  0  0  0  0  0
   -7.2545   -7.1019    0.2499 O   0  0  0  0  0  0  0  0  0  0  0  0
   -5.6728   -6.0013   -1.2507 O   0  0  0  0  0  0  0  0  0  0  0  0
   -4.6667   -7.4313    0.7293 N   0  0  0  0  0  0  0  0  0  0  0  0
   -4.8985   -8.6578    1.5043 C   0  0  0  0  0  0  0  0  0  0  0  0
   -3.8541   -8.8405    2.6101 C   0  0  0  0  0  0  0  0  0  0  0  0
   -2.5691   -8.0408    2.4114 C   0  0  0  0  0  0  0  0  0  0  0  0
   -1.4861   -8.5979    3.0967 N   0  0  0  0  0  0  0  0  0  0  0  0
   -2.2004   -7.5638    1.0103 C   0  0  0  0  0  0  0  0  0  0  0  0
   -3.3729   -7.5114    0.0380 C   0  0  0  0  0  0  0  0  0  0  0  0
   -6.9925   -6.1262   -5.5783 N   0  0  0  0  0  0  0  0  0  0  0  0
  1  2  1  0
  2  3  1  0
  3  4  2  0
  4  5  1  0
  5  6  2  0
  6  7  1  0
  7  8  1  0
  8  9  1  0
  9 10  1  0
 10 11  1  0
 11 12  2  0
 11 13  2  0
 11 14  1  0
 14 15  1  0
 15 16  1  0
 16 17  1  0
 17 18  1  0
 17 19  1  0
 19 20  1  0
  7 21  2  0
 21  3  1  0
 20 14  1  0
M  END
>  <ref_url>  (25) 
0

>  <submitter_name>  (25) 
Lucy Vost

>  <submitter_email>  (25) 
lucy.vost@gtc.ox.ac.uk

>  <submitter_institution>  (25) 
University of Oxford

>  <generation_date>  (25) 
2023-07-28

>  <method>  (25) 
STRIFE

>  <ref_mols>  (25) 
x1083

>  <ref_pdb>  (25) 
d68/D68EV3CPROA_apo.pdb

>  <original SMILES>  (25) 
CS(=O)(=O)N1CCC(O)CC1

$$$$
strife_elaboration_x1083
     RDKit          3D

 21 22  0  0  0  0  0  0  0  0999 V2000
   -7.4432   -4.9289   -8.3759 C   0  0  0  0  0  0  0  0  0  0  0  0
   -8.1748   -6.0589   -7.8975 O   0  0  0  0  0  0  0  0  0  0  0  0
   -7.8565   -6.7406   -6.7169 C   0  0  0  0  0  0  0  0  0  0  0  0
   -6.7140   -6.3836   -5.9741 C   0  0  0  0  0  0  0  0  0  0  0  0
   -6.4077   -7.0601   -4.7732 C   0  0  0  0  0  0  0  0  0  0  0  0
   -7.2589   -8.1000   -4.3305 C   0  0  0  0  0  0  0  0  0  0  0  0
   -7.0712   -8.9656   -3.1056 C   0  0  0  0  0  0  0  0  0  0  0  0
   -8.2387   -9.8093   -2.6608 C   0  0  0  0  0  0  0  0  0  0  0  0
   -5.8282   -8.5979   -2.2768 N   0  0  0  0  0  0  0  0  0  0  0  0
   -5.8774   -7.1438   -1.2616 S   0  0  0  0  0  0  0  0  0  0  0  0
   -7.2800   -7.0151   -0.7357 O   0  0  0  0  0  0  0  0  0  0  0  0
   -5.5283   -5.8964   -2.0185 O   0  0  0  0  0  0  0  0  0  0  0  0
   -4.7869   -7.3154    0.0733 N   0  0  0  0  0  0  0  0  0  0  0  0
   -5.1329   -8.4943    0.8847 C   0  0  0  0  0  0  0  0  0  0  0  0
   -4.2679   -8.4991    2.1413 C   0  0  0  0  0  0  0  0  0  0  0  0
   -2.7761   -8.4823    1.7627 C   0  0  0  0  0  0  0  0  0  0  0  0
   -1.9802   -8.3650    2.9112 O   0  0  0  0  0  0  0  0  0  0  0  0
   -2.4551   -7.3503    0.7718 C   0  0  0  0  0  0  0  0  0  0  0  0
   -3.4057   -7.4121   -0.4166 C   0  0  0  0  0  0  0  0  0  0  0  0
   -8.3645   -8.4488   -5.1124 C   0  0  0  0  0  0  0  0  0  0  0  0
   -8.6680   -7.7797   -6.2651 C   0  0  0  0  0  0  0  0  0  0  0  0
  1  2  1  0
  2  3  1  0
  3  4  2  0
  4  5  1  0
  5  6  2  0
  6  7  1  0
  7  8  1  0
  7  9  1  0
  9 10  1  0
 10 11  2  0
 10 12  2  0
 10 13  1  0
 13 14  1  0
 14 15  1  0
 15 16  1  0
 16 17  1  0
 16 18  1  0
 18 19  1  0
  6 20  1  0
 20 21  2  0
 21  3  1  0
 19 13  1  0
M  END
>  <ref_url>  (26) 
0

>  <submitter_name>  (26) 
Lucy Vost

>  <submitter_email>  (26) 
lucy.vost@gtc.ox.ac.uk

>  <submitter_institution>  (26) 
University of Oxford

>  <generation_date>  (26) 
2023-07-28

>  <method>  (26) 
STRIFE

>  <ref_mols>  (26) 
x1083

>  <ref_pdb>  (26) 
d68/D68EV3CPROA_apo.pdb

>  <original SMILES>  (26) 
CS(=O)(=O)N1CCC(O)CC1

$$$$
strife_elaboration_x1083
     RDKit          3D

 21 22  0  0  0  0  0  0  0  0999 V2000
   -7.4432   -4.9289   -8.3759 C   0  0  0  0  0  0  0  0  0  0  0  0
   -8.1748   -6.0589   -7.8975 O   0  0  0  0  0  0  0  0  0  0  0  0
   -7.8565   -6.7406   -6.7169 C   0  0  0  0  0  0  0  0  0  0  0  0
   -6.7140   -6.3836   -5.9741 C   0  0  0  0  0  0  0  0  0  0  0  0
   -6.4077   -7.0601   -4.7732 C   0  0  0  0  0  0  0  0  0  0  0  0
   -7.2589   -8.1000   -4.3305 C   0  0  0  0  0  0  0  0  0  0  0  0
   -7.0712   -8.9656   -3.1056 C   0  0  2  0  0  0  0  0  0  0  0  0
   -8.2387   -9.8093   -2.6608 C   0  0  0  0  0  0  0  0  0  0  0  0
   -5.8282   -8.5979   -2.2768 N   0  0  0  0  0  0  0  0  0  0  0  0
   -5.8774   -7.1438   -1.2616 S   0  0  0  0  0  0  0  0  0  0  0  0
   -7.2800   -7.0151   -0.7357 O   0  0  0  0  0  0  0  0  0  0  0  0
   -5.5283   -5.8964   -2.0185 O   0  0  0  0  0  0  0  0  0  0  0  0
   -4.7869   -7.3154    0.0733 N   0  0  0  0  0  0  0  0  0  0  0  0
   -5.1329   -8.4943    0.8847 C   0  0  0  0  0  0  0  0  0  0  0  0
   -4.2679   -8.4991    2.1413 C   0  0  0  0  0  0  0  0  0  0  0  0
   -2.7761   -8.4823    1.7627 C   0  0  0  0  0  0  0  0  0  0  0  0
   -1.9802   -8.3650    2.9112 O   0  0  0  0  0  0  0  0  0  0  0  0
   -2.4551   -7.3503    0.7718 C   0  0  0  0  0  0  0  0  0  0  0  0
   -3.4057   -7.4121   -0.4166 C   0  0  0  0  0  0  0  0  0  0  0  0
   -8.3645   -8.4488   -5.1124 C   0  0  0  0  0  0  0  0  0  0  0  0
   -8.6680   -7.7797   -6.2651 C   0  0  0  0  0  0  0  0  0  0  0  0
  1  2  1  0
  2  3  1  0
  3  4  2  0
  4  5  1  0
  5  6  2  0
  6  7  1  0
  7  8  1  1
  7  9  1  0
  9 10  1  0
 10 11  2  0
 10 12  2  0
 10 13  1  0
 13 14  1  0
 14 15  1  0
 15 16  1  0
 16 17  1  0
 16 18  1  0
 18 19  1  0
  6 20  1  0
 20 21  2  0
 21  3  1  0
 19 13  1  0
M  END
>  <ref_url>  (27) 
0

>  <submitter_name>  (27) 
Lucy Vost

>  <submitter_email>  (27) 
lucy.vost@gtc.ox.ac.uk

>  <submitter_institution>  (27) 
University of Oxford

>  <generation_date>  (27) 
2023-07-28

>  <method>  (27) 
STRIFE

>  <ref_mols>  (27) 
x1083

>  <ref_pdb>  (27) 
d68/D68EV3CPROA_apo.pdb

>  <original SMILES>  (27) 
CS(=O)(=O)N1CCC(O)CC1

$$$$
strife_elaboration_x1083
     RDKit          3D

 21 22  0  0  0  0  0  0  0  0999 V2000
   -7.4432   -4.9289   -8.3759 C   0  0  0  0  0  0  0  0  0  0  0  0
   -8.1748   -6.0589   -7.8975 O   0  0  0  0  0  0  0  0  0  0  0  0
   -7.8565   -6.7406   -6.7169 C   0  0  0  0  0  0  0  0  0  0  0  0
   -8.6680   -7.7797   -6.2651 C   0  0  0  0  0  0  0  0  0  0  0  0
   -8.3645   -8.4488   -5.1124 C   0  0  0  0  0  0  0  0  0  0  0  0
   -7.2589   -8.1000   -4.3305 C   0  0  0  0  0  0  0  0  0  0  0  0
   -7.0712   -8.9656   -3.1056 C   0  0  0  0  0  0  0  0  0  0  0  0
   -8.2387   -9.8093   -2.6608 C   0  0  0  0  0  0  0  0  0  0  0  0
   -5.8282   -8.5979   -2.2768 N   0  0  0  0  0  0  0  0  0  0  0  0
   -5.8774   -7.1438   -1.2616 S   0  0  0  0  0  0  0  0  0  0  0  0
   -7.2800   -7.0151   -0.7357 O   0  0  0  0  0  0  0  0  0  0  0  0
   -5.5283   -5.8964   -2.0185 O   0  0  0  0  0  0  0  0  0  0  0  0
   -4.7869   -7.3154    0.0733 N   0  0  0  0  0  0  0  0  0  0  0  0
   -3.4057   -7.4121   -0.4166 C   0  0  0  0  0  0  0  0  0  0  0  0
   -2.4551   -7.3503    0.7718 C   0  0  0  0  0  0  0  0  0  0  0  0
   -2.7761   -8.4823    1.7627 C   0  0  0  0  0  0  0  0  0  0  0  0
   -1.9802   -8.3650    2.9112 C   0  0  0  0  0  0  0  0  0  0  0  0
   -4.2679   -8.4991    2.1413 C   0  0  0  0  0  0  0  0  0  0  0  0
   -5.1329   -8.4943    0.8847 C   0  0  0  0  0  0  0  0  0  0  0  0
   -6.4077   -7.0601   -4.7732 C   0  0  0  0  0  0  0  0  0  0  0  0
   -6.7140   -6.3836   -5.9741 C   0  0  0  0  0  0  0  0  0  0  0  0
  1  2  1  0
  2  3  1  0
  3  4  2  0
  4  5  1  0
  5  6  2  0
  6  7  1  0
  7  8  1  0
  7  9  1  0
  9 10  1  0
 10 11  2  0
 10 12  2  0
 10 13  1  0
 13 14  1  0
 14 15  1  0
 15 16  1  0
 16 17  1  0
 16 18  1  0
 18 19  1  0
  6 20  1  0
 20 21  2  0
 21  3  1  0
 19 13  1  0
M  END
>  <ref_url>  (28) 
0

>  <submitter_name>  (28) 
Lucy Vost

>  <submitter_email>  (28) 
lucy.vost@gtc.ox.ac.uk

>  <submitter_institution>  (28) 
University of Oxford

>  <generation_date>  (28) 
2023-07-28

>  <method>  (28) 
STRIFE

>  <ref_mols>  (28) 
x1083

>  <ref_pdb>  (28) 
d68/D68EV3CPROA_apo.pdb

>  <original SMILES>  (28) 
CS(=O)(=O)N1CCC(O)CC1

$$$$
strife_elaboration_x1083
     RDKit          3D

 21 22  0  0  0  0  0  0  0  0999 V2000
   -7.4432   -4.9289   -8.3759 C   0  0  0  0  0  0  0  0  0  0  0  0
   -8.1748   -6.0589   -7.8975 O   0  0  0  0  0  0  0  0  0  0  0  0
   -7.8565   -6.7406   -6.7169 C   0  0  0  0  0  0  0  0  0  0  0  0
   -6.7140   -6.3836   -5.9741 C   0  0  0  0  0  0  0  0  0  0  0  0
   -6.4077   -7.0601   -4.7732 C   0  0  0  0  0  0  0  0  0  0  0  0
   -7.2589   -8.1000   -4.3305 C   0  0  0  0  0  0  0  0  0  0  0  0
   -7.0712   -8.9656   -3.1056 C   0  0  0  0  0  0  0  0  0  0  0  0
   -8.2387   -9.8093   -2.6608 C   0  0  0  0  0  0  0  0  0  0  0  0
   -5.8282   -8.5979   -2.2768 N   0  0  0  0  0  0  0  0  0  0  0  0
   -5.8774   -7.1438   -1.2616 S   0  0  0  0  0  0  0  0  0  0  0  0
   -7.2800   -7.0151   -0.7357 O   0  0  0  0  0  0  0  0  0  0  0  0
   -5.5283   -5.8964   -2.0185 O   0  0  0  0  0  0  0  0  0  0  0  0
   -4.7869   -7.3154    0.0733 N   0  0  0  0  0  0  0  0  0  0  0  0
   -5.1329   -8.4943    0.8847 C   0  0  0  0  0  0  0  0  0  0  0  0
   -4.2679   -8.4991    2.1413 C   0  0  0  0  0  0  0  0  0  0  0  0
   -2.7761   -8.4823    1.7627 C   0  0  0  0  0  0  0  0  0  0  0  0
   -1.9802   -8.3650    2.9112 N   0  0  0  0  0  0  0  0  0  0  0  0
   -2.4551   -7.3503    0.7718 C   0  0  0  0  0  0  0  0  0  0  0  0
   -3.4057   -7.4121   -0.4166 C   0  0  0  0  0  0  0  0  0  0  0  0
   -8.3645   -8.4488   -5.1124 C   0  0  0  0  0  0  0  0  0  0  0  0
   -8.6680   -7.7797   -6.2651 C   0  0  0  0  0  0  0  0  0  0  0  0
  1  2  1  0
  2  3  1  0
  3  4  2  0
  4  5  1  0
  5  6  2  0
  6  7  1  0
  7  8  1  0
  7  9  1  0
  9 10  1  0
 10 11  2  0
 10 12  2  0
 10 13  1  0
 13 14  1  0
 14 15  1  0
 15 16  1  0
 16 17  1  0
 16 18  1  0
 18 19  1  0
  6 20  1  0
 20 21  2  0
 21  3  1  0
 19 13  1  0
M  END
>  <ref_url>  (29) 
0

>  <submitter_name>  (29) 
Lucy Vost

>  <submitter_email>  (29) 
lucy.vost@gtc.ox.ac.uk

>  <submitter_institution>  (29) 
University of Oxford

>  <generation_date>  (29) 
2023-07-28

>  <method>  (29) 
STRIFE

>  <ref_mols>  (29) 
x1083

>  <ref_pdb>  (29) 
d68/D68EV3CPROA_apo.pdb

>  <original SMILES>  (29) 
CS(=O)(=O)N1CCC(O)CC1

$$$$
strife_elaboration_x1083
     RDKit          3D

 21 22  0  0  0  0  0  0  0  0999 V2000
   -7.4432   -4.9289   -8.3759 C   0  0  0  0  0  0  0  0  0  0  0  0
   -8.1748   -6.0589   -7.8975 O   0  0  0  0  0  0  0  0  0  0  0  0
   -7.8565   -6.7406   -6.7169 C   0  0  0  0  0  0  0  0  0  0  0  0
   -6.7140   -6.3836   -5.9741 C   0  0  0  0  0  0  0  0  0  0  0  0
   -6.4077   -7.0601   -4.7732 C   0  0  0  0  0  0  0  0  0  0  0  0
   -7.2589   -8.1000   -4.3305 C   0  0  0  0  0  0  0  0  0  0  0  0
   -7.0712   -8.9656   -3.1056 C   0  0  0  0  0  0  0  0  0  0  0  0
   -8.2387   -9.8093   -2.6608 C   0  0  0  0  0  0  0  0  0  0  0  0
   -5.8282   -8.5979   -2.2768 N   0  0  0  0  0  0  0  0  0  0  0  0
   -5.8774   -7.1438   -1.2616 S   0  0  0  0  0  0  0  0  0  0  0  0
   -5.5283   -5.8964   -2.0185 O   0  0  0  0  0  0  0  0  0  0  0  0
   -7.2800   -7.0151   -0.7357 O   0  0  0  0  0  0  0  0  0  0  0  0
   -4.7869   -7.3154    0.0733 N   0  0  0  0  0  0  0  0  0  0  0  0
   -5.1329   -8.4943    0.8847 C   0  0  0  0  0  0  0  0  0  0  0  0
   -4.2679   -8.4991    2.1413 C   0  0  0  0  0  0  0  0  0  0  0  0
   -2.7761   -8.4823    1.7627 C   0  0  0  0  0  0  0  0  0  0  0  0
   -1.9802   -8.3650    2.9112 O   0  0  0  0  0  0  0  0  0  0  0  0
   -2.4551   -7.3503    0.7718 C   0  0  0  0  0  0  0  0  0  0  0  0
   -3.4057   -7.4121   -0.4166 C   0  0  0  0  0  0  0  0  0  0  0  0
   -8.3645   -8.4488   -5.1124 C   0  0  0  0  0  0  0  0  0  0  0  0
   -8.6680   -7.7797   -6.2651 N   0  0  0  0  0  0  0  0  0  0  0  0
  1  2  1  0
  2  3  1  0
  3  4  2  0
  4  5  1  0
  5  6  2  0
  6  7  1  0
  7  8  1  0
  7  9  1  0
  9 10  1  0
 10 11  2  0
 10 12  2  0
 10 13  1  0
 13 14  1  0
 14 15  1  0
 15 16  1  0
 16 17  1  0
 16 18  1  0
 18 19  1  0
  6 20  1  0
 20 21  2  0
 21  3  1  0
 19 13  1  0
M  END
>  <ref_url>  (30) 
0

>  <submitter_name>  (30) 
Lucy Vost

>  <submitter_email>  (30) 
lucy.vost@gtc.ox.ac.uk

>  <submitter_institution>  (30) 
University of Oxford

>  <generation_date>  (30) 
2023-07-28

>  <method>  (30) 
STRIFE

>  <ref_mols>  (30) 
x1083

>  <ref_pdb>  (30) 
d68/D68EV3CPROA_apo.pdb

>  <original SMILES>  (30) 
CS(=O)(=O)N1CCC(O)CC1

$$$$
strife_elaboration_x1083
     RDKit          3D

 21 22  0  0  0  0  0  0  0  0999 V2000
   -7.4432   -4.9289   -8.3759 C   0  0  0  0  0  0  0  0  0  0  0  0
   -8.1748   -6.0589   -7.8975 O   0  0  0  0  0  0  0  0  0  0  0  0
   -7.8565   -6.7406   -6.7169 C   0  0  0  0  0  0  0  0  0  0  0  0
   -8.6680   -7.7797   -6.2651 C   0  0  0  0  0  0  0  0  0  0  0  0
   -8.3645   -8.4488   -5.1124 C   0  0  0  0  0  0  0  0  0  0  0  0
   -7.2589   -8.1000   -4.3305 C   0  0  0  0  0  0  0  0  0  0  0  0
   -7.0712   -8.9656   -3.1056 C   0  0  2  0  0  0  0  0  0  0  0  0
   -8.2387   -9.8093   -2.6608 C   0  0  0  0  0  0  0  0  0  0  0  0
   -5.8282   -8.5979   -2.2768 N   0  0  0  0  0  0  0  0  0  0  0  0
   -5.8774   -7.1438   -1.2616 S   0  0  0  0  0  0  0  0  0  0  0  0
   -7.2800   -7.0151   -0.7357 O   0  0  0  0  0  0  0  0  0  0  0  0
   -5.5283   -5.8964   -2.0185 O   0  0  0  0  0  0  0  0  0  0  0  0
   -4.7869   -7.3154    0.0733 N   0  0  0  0  0  0  0  0  0  0  0  0
   -3.4057   -7.4121   -0.4166 C   0  0  0  0  0  0  0  0  0  0  0  0
   -2.4551   -7.3503    0.7718 C   0  0  0  0  0  0  0  0  0  0  0  0
   -2.7761   -8.4823    1.7627 C   0  0  0  0  0  0  0  0  0  0  0  0
   -1.9802   -8.3650    2.9112 C   0  0  0  0  0  0  0  0  0  0  0  0
   -4.2679   -8.4991    2.1413 C   0  0  0  0  0  0  0  0  0  0  0  0
   -5.1329   -8.4943    0.8847 C   0  0  0  0  0  0  0  0  0  0  0  0
   -6.4077   -7.0601   -4.7732 C   0  0  0  0  0  0  0  0  0  0  0  0
   -6.7140   -6.3836   -5.9741 C   0  0  0  0  0  0  0  0  0  0  0  0
  1  2  1  0
  2  3  1  0
  3  4  2  0
  4  5  1  0
  5  6  2  0
  6  7  1  0
  7  8  1  1
  7  9  1  0
  9 10  1  0
 10 11  2  0
 10 12  2  0
 10 13  1  0
 13 14  1  0
 14 15  1  0
 15 16  1  0
 16 17  1  0
 16 18  1  0
 18 19  1  0
  6 20  1  0
 20 21  2  0
 21  3  1  0
 19 13  1  0
M  END
>  <ref_url>  (31) 
0

>  <submitter_name>  (31) 
Lucy Vost

>  <submitter_email>  (31) 
lucy.vost@gtc.ox.ac.uk

>  <submitter_institution>  (31) 
University of Oxford

>  <generation_date>  (31) 
2023-07-28

>  <method>  (31) 
STRIFE

>  <ref_mols>  (31) 
x1083

>  <ref_pdb>  (31) 
d68/D68EV3CPROA_apo.pdb

>  <original SMILES>  (31) 
CS(=O)(=O)N1CCC(O)CC1

$$$$
strife_elaboration_x1083
     RDKit          3D

 23 25  0  0  0  0  0  0  0  0999 V2000
   -6.9524   -4.2602   -9.4074 O   0  0  0  0  0  0  0  0  0  0  0  0
   -7.4925   -4.7872   -8.2382 C   0  0  0  0  0  0  0  0  0  0  0  0
   -8.8184   -4.5084   -7.9038 C   0  0  0  0  0  0  0  0  0  0  0  0
   -9.3696   -5.0295   -6.7342 C   0  0  0  0  0  0  0  0  0  0  0  0
   -8.6049   -5.8474   -5.8894 C   0  0  0  0  0  0  0  0  0  0  0  0
   -9.2437   -6.3251   -4.6162 C   0  0  0  0  0  0  0  0  0  0  0  0
   -8.4229   -7.2965   -3.7711 C   0  0  0  0  0  0  0  0  0  0  0  0
   -6.9322   -7.3365   -4.0367 C   0  0  0  0  0  0  0  0  0  0  0  0
   -6.1952   -8.3978   -3.1819 C   0  0  0  0  0  0  0  0  0  0  0  0
   -6.4654   -8.4654   -1.6723 N   0  0  0  0  0  0  0  0  0  0  0  0
   -6.0562   -6.9349   -0.8351 S   0  0  0  0  0  0  0  0  0  0  0  0
   -7.3079   -6.3372   -0.2570 O   0  0  0  0  0  0  0  0  0  0  0  0
   -5.4620   -5.9712   -1.8232 O   0  0  0  0  0  0  0  0  0  0  0  0
   -4.8887   -7.1933    0.4357 N   0  0  0  0  0  0  0  0  0  0  0  0
   -3.6180   -7.6369   -0.1568 C   0  0  0  0  0  0  0  0  0  0  0  0
   -2.5087   -7.7218    0.8880 C   0  0  0  0  0  0  0  0  0  0  0  0
   -3.0135   -7.9437    2.3122 C   0  0  0  0  0  0  0  0  0  0  0  0
   -2.0662   -8.5885    3.1126 O   0  0  0  0  0  0  0  0  0  0  0  0
   -4.4374   -8.4605    2.5273 C   0  0  0  0  0  0  0  0  0  0  0  0
   -5.3930   -8.2231    1.3526 C   0  0  0  0  0  0  0  0  0  0  0  0
   -6.4599   -7.1428   -5.4664 N   0  0  0  0  0  0  0  0  0  0  0  0
   -7.2650   -6.1336   -6.2266 C   0  0  0  0  0  0  0  0  0  0  0  0
   -6.7197   -5.5993   -7.4028 N   0  0  0  0  0  0  0  0  0  0  0  0
  1  2  2  0
  2  3  1  0
  3  4  2  0
  4  5  1  0
  5  6  2  0
  6  7  1  0
  7  8  2  0
  8  9  1  0
  9 10  1  0
 10 11  1  0
 11 12  2  0
 11 13  2  0
 11 14  1  0
 14 15  1  0
 15 16  1  0
 16 17  1  0
 17 18  1  0
 17 19  1  0
 19 20  1  0
  8 21  1  0
 21 22  2  0
 22 23  1  0
 23  2  1  0
 22  5  1  0
 20 14  1  0
M  END
>  <ref_url>  (32) 
0

>  <submitter_name>  (32) 
Lucy Vost

>  <submitter_email>  (32) 
lucy.vost@gtc.ox.ac.uk

>  <submitter_institution>  (32) 
University of Oxford

>  <generation_date>  (32) 
2023-07-28

>  <method>  (32) 
STRIFE

>  <ref_mols>  (32) 
x1083

>  <ref_pdb>  (32) 
d68/D68EV3CPROA_apo.pdb

>  <original SMILES>  (32) 
CS(=O)(=O)N1CCC(O)CC1

$$$$
strife_elaboration_x1083
     RDKit          3D

 23 25  0  0  0  0  0  0  0  0999 V2000
   -7.3079   -6.3372   -0.2570 O   0  0  0  0  0  0  0  0  0  0  0  0
   -6.0562   -6.9349   -0.8351 S   0  0  0  0  0  0  0  0  0  0  0  0
   -5.4620   -5.9712   -1.8232 O   0  0  0  0  0  0  0  0  0  0  0  0
   -6.4654   -8.4654   -1.6723 C   0  0  0  0  0  0  0  0  0  0  0  0
   -6.1952   -8.3978   -3.1819 C   0  0  0  0  0  0  0  0  0  0  0  0
   -6.9322   -7.3365   -4.0367 N   0  0  0  0  0  0  0  0  0  0  0  0
   -8.4229   -7.2965   -3.7711 C   0  0  0  0  0  0  0  0  0  0  0  0
   -9.2437   -6.3251   -4.6162 C   0  0  0  0  0  0  0  0  0  0  0  0
   -8.6049   -5.8474   -5.8894 C   0  0  0  0  0  0  0  0  0  0  0  0
   -9.3696   -5.0295   -6.7342 C   0  0  0  0  0  0  0  0  0  0  0  0
   -8.8184   -4.5084   -7.9038 C   0  0  0  0  0  0  0  0  0  0  0  0
   -7.4925   -4.7872   -8.2382 C   0  0  0  0  0  0  0  0  0  0  0  0
   -6.9524   -4.2602   -9.4074 O   0  0  0  0  0  0  0  0  0  0  0  0
   -6.7197   -5.5993   -7.4028 C   0  0  0  0  0  0  0  0  0  0  0  0
   -7.2650   -6.1336   -6.2266 C   0  0  0  0  0  0  0  0  0  0  0  0
   -6.4599   -7.1428   -5.4664 C   0  0  0  0  0  0  0  0  0  0  0  0
   -4.8887   -7.1933    0.4357 C   0  0  0  0  0  0  0  0  0  0  0  0
   -5.3930   -8.2231    1.3526 C   0  0  0  0  0  0  0  0  0  0  0  0
   -4.4374   -8.4605    2.5273 C   0  0  0  0  0  0  0  0  0  0  0  0
   -3.0135   -7.9437    2.3122 C   0  0  0  0  0  0  0  0  0  0  0  0
   -2.0662   -8.5885    3.1126 Br  0  0  0  0  0  0  0  0  0  0  0  0
   -2.5087   -7.7218    0.8880 C   0  0  0  0  0  0  0  0  0  0  0  0
   -3.6180   -7.6369   -0.1568 C   0  0  0  0  0  0  0  0  0  0  0  0
  1  2  2  0
  2  3  2  0
  2  4  1  0
  4  5  1  0
  5  6  1  0
  6  7  1  0
  7  8  1  0
  8  9  1  0
  9 10  2  0
 10 11  1  0
 11 12  2  0
 12 13  1  0
 12 14  1  0
 14 15  2  0
 15 16  1  0
  2 17  1  0
 17 18  2  0
 18 19  1  0
 19 20  2  0
 20 21  1  0
 20 22  1  0
 22 23  2  0
 16  6  1  0
 15  9  1  0
 23 17  1  0
M  END
>  <ref_url>  (33) 
0

>  <submitter_name>  (33) 
Lucy Vost

>  <submitter_email>  (33) 
lucy.vost@gtc.ox.ac.uk

>  <submitter_institution>  (33) 
University of Oxford

>  <generation_date>  (33) 
2023-07-28

>  <method>  (33) 
STRIFE

>  <ref_mols>  (33) 
x1083

>  <ref_pdb>  (33) 
d68/D68EV3CPROA_apo.pdb

>  <original SMILES>  (33) 
CS(=O)(=O)N1CCC(O)CC1

$$$$
strife_elaboration_x1083
     RDKit          3D

 23 25  0  0  0  0  0  0  0  0999 V2000
   -7.3079   -6.3372   -0.2570 O   0  0  0  0  0  0  0  0  0  0  0  0
   -6.0562   -6.9349   -0.8351 S   0  0  0  0  0  0  0  0  0  0  0  0
   -5.4620   -5.9712   -1.8232 O   0  0  0  0  0  0  0  0  0  0  0  0
   -6.4654   -8.4654   -1.6723 C   0  0  0  0  0  0  0  0  0  0  0  0
   -6.1952   -8.3978   -3.1819 C   0  0  0  0  0  0  0  0  0  0  0  0
   -6.9322   -7.3365   -4.0367 N   0  0  0  0  0  0  0  0  0  0  0  0
   -8.4229   -7.2965   -3.7711 C   0  0  0  0  0  0  0  0  0  0  0  0
   -9.2437   -6.3251   -4.6162 C   0  0  0  0  0  0  0  0  0  0  0  0
   -8.6049   -5.8474   -5.8894 C   0  0  0  0  0  0  0  0  0  0  0  0
   -9.3696   -5.0295   -6.7342 C   0  0  0  0  0  0  0  0  0  0  0  0
   -8.8184   -4.5084   -7.9038 C   0  0  0  0  0  0  0  0  0  0  0  0
   -7.4925   -4.7872   -8.2382 C   0  0  0  0  0  0  0  0  0  0  0  0
   -6.9524   -4.2602   -9.4074 O   0  0  0  0  0  0  0  0  0  0  0  0
   -6.7197   -5.5993   -7.4028 C   0  0  0  0  0  0  0  0  0  0  0  0
   -7.2650   -6.1336   -6.2266 C   0  0  0  0  0  0  0  0  0  0  0  0
   -6.4599   -7.1428   -5.4664 C   0  0  0  0  0  0  0  0  0  0  0  0
   -4.8887   -7.1933    0.4357 C   0  0  0  0  0  0  0  0  0  0  0  0
   -5.3930   -8.2231    1.3526 C   0  0  0  0  0  0  0  0  0  0  0  0
   -4.4374   -8.4605    2.5273 C   0  0  0  0  0  0  0  0  0  0  0  0
   -3.0135   -7.9437    2.3122 C   0  0  0  0  0  0  0  0  0  0  0  0
   -2.0662   -8.5885    3.1126 Cl  0  0  0  0  0  0  0  0  0  0  0  0
   -2.5087   -7.7218    0.8880 C   0  0  0  0  0  0  0  0  0  0  0  0
   -3.6180   -7.6369   -0.1568 C   0  0  0  0  0  0  0  0  0  0  0  0
  1  2  2  0
  2  3  2  0
  2  4  1  0
  4  5  1  0
  5  6  1  0
  6  7  1  0
  7  8  1  0
  8  9  1  0
  9 10  2  0
 10 11  1  0
 11 12  2  0
 12 13  1  0
 12 14  1  0
 14 15  2  0
 15 16  1  0
  2 17  1  0
 17 18  2  0
 18 19  1  0
 19 20  2  0
 20 21  1  0
 20 22  1  0
 22 23  2  0
 16  6  1  0
 15  9  1  0
 23 17  1  0
M  END
>  <ref_url>  (34) 
0

>  <submitter_name>  (34) 
Lucy Vost

>  <submitter_email>  (34) 
lucy.vost@gtc.ox.ac.uk

>  <submitter_institution>  (34) 
University of Oxford

>  <generation_date>  (34) 
2023-07-28

>  <method>  (34) 
STRIFE

>  <ref_mols>  (34) 
x1083

>  <ref_pdb>  (34) 
d68/D68EV3CPROA_apo.pdb

>  <original SMILES>  (34) 
CS(=O)(=O)N1CCC(O)CC1

$$$$
strife_elaboration_x1083
     RDKit          3D

 23 25  0  0  0  0  0  0  0  0999 V2000
   -7.3079   -6.3372   -0.2570 O   0  0  0  0  0  0  0  0  0  0  0  0
   -6.0562   -6.9349   -0.8351 S   0  0  0  0  0  0  0  0  0  0  0  0
   -5.4620   -5.9712   -1.8232 O   0  0  0  0  0  0  0  0  0  0  0  0
   -6.4654   -8.4654   -1.6723 C   0  0  0  0  0  0  0  0  0  0  0  0
   -6.1952   -8.3978   -3.1819 C   0  0  0  0  0  0  0  0  0  0  0  0
   -6.9322   -7.3365   -4.0367 N   0  0  0  0  0  0  0  0  0  0  0  0
   -8.4229   -7.2965   -3.7711 C   0  0  0  0  0  0  0  0  0  0  0  0
   -9.2437   -6.3251   -4.6162 C   0  0  0  0  0  0  0  0  0  0  0  0
   -8.6049   -5.8474   -5.8894 C   0  0  0  0  0  0  0  0  0  0  0  0
   -9.3696   -5.0295   -6.7342 C   0  0  0  0  0  0  0  0  0  0  0  0
   -8.8184   -4.5084   -7.9038 C   0  0  0  0  0  0  0  0  0  0  0  0
   -7.4925   -4.7872   -8.2382 C   0  0  0  0  0  0  0  0  0  0  0  0
   -6.9524   -4.2602   -9.4074 O   0  0  0  0  0  0  0  0  0  0  0  0
   -6.7197   -5.5993   -7.4028 C   0  0  0  0  0  0  0  0  0  0  0  0
   -7.2650   -6.1336   -6.2266 C   0  0  0  0  0  0  0  0  0  0  0  0
   -6.4599   -7.1428   -5.4664 C   0  0  0  0  0  0  0  0  0  0  0  0
   -4.8887   -7.1933    0.4357 C   0  0  0  0  0  0  0  0  0  0  0  0
   -5.3930   -8.2231    1.3526 C   0  0  0  0  0  0  0  0  0  0  0  0
   -4.4374   -8.4605    2.5273 C   0  0  0  0  0  0  0  0  0  0  0  0
   -3.0135   -7.9437    2.3122 C   0  0  0  0  0  0  0  0  0  0  0  0
   -2.0662   -8.5885    3.1126 F   0  0  0  0  0  0  0  0  0  0  0  0
   -2.5087   -7.7218    0.8880 C   0  0  0  0  0  0  0  0  0  0  0  0
   -3.6180   -7.6369   -0.1568 C   0  0  0  0  0  0  0  0  0  0  0  0
  1  2  2  0
  2  3  2  0
  2  4  1  0
  4  5  1  0
  5  6  1  0
  6  7  1  0
  7  8  1  0
  8  9  1  0
  9 10  2  0
 10 11  1  0
 11 12  2  0
 12 13  1  0
 12 14  1  0
 14 15  2  0
 15 16  1  0
  2 17  1  0
 17 18  2  0
 18 19  1  0
 19 20  2  0
 20 21  1  0
 20 22  1  0
 22 23  2  0
 16  6  1  0
 15  9  1  0
 23 17  1  0
M  END
>  <ref_url>  (35) 
0

>  <submitter_name>  (35) 
Lucy Vost

>  <submitter_email>  (35) 
lucy.vost@gtc.ox.ac.uk

>  <submitter_institution>  (35) 
University of Oxford

>  <generation_date>  (35) 
2023-07-28

>  <method>  (35) 
STRIFE

>  <ref_mols>  (35) 
x1083

>  <ref_pdb>  (35) 
d68/D68EV3CPROA_apo.pdb

>  <original SMILES>  (35) 
CS(=O)(=O)N1CCC(O)CC1

$$$$
strife_elaboration_x1083
     RDKit          3D

 23 25  0  0  0  0  0  0  0  0999 V2000
   -2.0662   -8.5885    3.1126 C   0  0  0  0  0  0  0  0  0  0  0  0
   -3.0135   -7.9437    2.3122 C   0  0  0  0  0  0  0  0  0  0  0  0
   -4.4374   -8.4605    2.5273 C   0  0  0  0  0  0  0  0  0  0  0  0
   -5.3930   -8.2231    1.3526 C   0  0  0  0  0  0  0  0  0  0  0  0
   -4.8887   -7.1933    0.4357 N   0  0  0  0  0  0  0  0  0  0  0  0
   -6.0562   -6.9349   -0.8351 S   0  0  0  0  0  0  0  0  0  0  0  0
   -7.3079   -6.3372   -0.2570 O   0  0  0  0  0  0  0  0  0  0  0  0
   -5.4620   -5.9712   -1.8232 O   0  0  0  0  0  0  0  0  0  0  0  0
   -6.4654   -8.4654   -1.6723 N   0  0  0  0  0  0  0  0  0  0  0  0
   -6.1952   -8.3978   -3.1819 C   0  0  0  0  0  0  0  0  0  0  0  0
   -6.9322   -7.3365   -4.0367 C   0  0  0  0  0  0  0  0  0  0  0  0
   -8.4229   -7.2965   -3.7711 C   0  0  0  0  0  0  0  0  0  0  0  0
   -9.2437   -6.3251   -4.6162 C   0  0  0  0  0  0  0  0  0  0  0  0
   -8.6049   -5.8474   -5.8894 C   0  0  0  0  0  0  0  0  0  0  0  0
   -9.3696   -5.0295   -6.7342 C   0  0  0  0  0  0  0  0  0  0  0  0
   -8.8184   -4.5084   -7.9038 C   0  0  0  0  0  0  0  0  0  0  0  0
   -7.4925   -4.7872   -8.2382 C   0  0  0  0  0  0  0  0  0  0  0  0
   -6.9524   -4.2602   -9.4074 O   0  0  0  0  0  0  0  0  0  0  0  0
   -6.7197   -5.5993   -7.4028 N   0  0  0  0  0  0  0  0  0  0  0  0
   -7.2650   -6.1336   -6.2266 C   0  0  0  0  0  0  0  0  0  0  0  0
   -6.4599   -7.1428   -5.4664 N   0  0  0  0  0  0  0  0  0  0  0  0
   -3.6180   -7.6369   -0.1568 C   0  0  0  0  0  0  0  0  0  0  0  0
   -2.5087   -7.7218    0.8880 C   0  0  0  0  0  0  0  0  0  0  0  0
  1  2  1  0
  2  3  1  0
  3  4  1  0
  4  5  1  0
  5  6  1  0
  6  7  2  0
  6  8  2  0
  6  9  1  0
  9 10  1  0
 10 11  1  0
 11 12  2  0
 12 13  1  0
 13 14  2  0
 14 15  1  0
 15 16  2  0
 16 17  1  0
 17 18  2  0
 17 19  1  0
 19 20  1  0
 20 21  2  0
  5 22  1  0
 22 23  1  0
 23  2  1  0
 21 11  1  0
 20 14  1  0
M  END
>  <ref_url>  (36) 
0

>  <submitter_name>  (36) 
Lucy Vost

>  <submitter_email>  (36) 
lucy.vost@gtc.ox.ac.uk

>  <submitter_institution>  (36) 
University of Oxford

>  <generation_date>  (36) 
2023-07-28

>  <method>  (36) 
STRIFE

>  <ref_mols>  (36) 
x1083

>  <ref_pdb>  (36) 
d68/D68EV3CPROA_apo.pdb

>  <original SMILES>  (36) 
CS(=O)(=O)N1CCC(O)CC1

$$$$
strife_elaboration_x1083
     RDKit          3D

 21 22  0  0  0  0  0  0  0  0999 V2000
   -6.7107   -4.9569   -8.8153 C   0  0  0  0  0  0  0  0  0  0  0  0
   -7.7231   -4.9245   -8.0663 O   0  0  0  0  0  0  0  0  0  0  0  0
   -7.9241   -5.9384   -7.0188 C   0  0  0  0  0  0  0  0  0  0  0  0
   -9.1060   -6.6940   -6.9980 C   0  0  0  0  0  0  0  0  0  0  0  0
   -9.3115   -7.6561   -6.0055 C   0  0  0  0  0  0  0  0  0  0  0  0
   -8.3371   -7.8749   -5.0313 C   0  0  0  0  0  0  0  0  0  0  0  0
   -7.1443   -7.1381   -5.0561 C   0  0  0  0  0  0  0  0  0  0  0  0
   -6.0908   -7.3758   -4.0279 C   0  0  0  0  0  0  0  0  0  0  0  0
   -6.5460   -8.4315   -3.0209 C   0  0  0  0  0  0  0  0  0  0  0  0
   -5.6022   -8.4732   -1.8182 N   0  0  0  0  0  0  0  0  0  0  0  0
   -5.7959   -7.0748   -0.7382 S   0  0  0  0  0  0  0  0  0  0  0  0
   -7.1872   -7.0848   -0.1679 O   0  0  0  0  0  0  0  0  0  0  0  0
   -5.5596   -5.7647   -1.4384 O   0  0  0  0  0  0  0  0  0  0  0  0
   -4.6128   -7.3871    0.4813 N   0  0  0  0  0  0  0  0  0  0  0  0
   -5.0424   -8.2992    1.5303 C   0  0  0  0  0  0  0  0  0  0  0  0
   -4.0551   -8.3810    2.6709 C   0  0  0  0  0  0  0  0  0  0  0  0
   -2.6447   -8.5759    2.1557 C   0  0  0  0  0  0  0  0  0  0  0  0
   -1.7101   -8.7193    3.1798 O   0  0  0  0  0  0  0  0  0  0  0  0
   -2.2040   -7.5976    1.0834 C   0  0  0  0  0  0  0  0  0  0  0  0
   -3.2416   -7.3998   -0.0123 C   0  0  0  0  0  0  0  0  0  0  0  0
   -6.9468   -6.1616   -6.0390 C   0  0  0  0  0  0  0  0  0  0  0  0
  1  2  1  0
  2  3  1  0
  3  4  2  0
  4  5  1  0
  5  6  2  0
  6  7  1  0
  7  8  1  0
  8  9  1  0
  9 10  1  0
 10 11  1  0
 11 12  2  0
 11 13  2  0
 11 14  1  0
 14 15  1  0
 15 16  1  0
 16 17  1  0
 17 18  1  0
 17 19  1  0
 19 20  1  0
  7 21  2  0
 21  3  1  0
 20 14  1  0
M  END
>  <ref_url>  (37) 
0

>  <submitter_name>  (37) 
Lucy Vost

>  <submitter_email>  (37) 
lucy.vost@gtc.ox.ac.uk

>  <submitter_institution>  (37) 
University of Oxford

>  <generation_date>  (37) 
2023-07-28

>  <method>  (37) 
STRIFE

>  <ref_mols>  (37) 
x1083

>  <ref_pdb>  (37) 
d68/D68EV3CPROA_apo.pdb

>  <original SMILES>  (37) 
CS(=O)(=O)N1CCC(O)CC1

$$$$
strife_elaboration_x1083
     RDKit          3D

 21 22  0  0  0  0  0  0  0  0999 V2000
   -6.7107   -4.9569   -8.8153 C   0  0  0  0  0  0  0  0  0  0  0  0
   -7.7231   -4.9245   -8.0663 O   0  0  0  0  0  0  0  0  0  0  0  0
   -7.9241   -5.9384   -7.0188 C   0  0  0  0  0  0  0  0  0  0  0  0
   -6.9468   -6.1616   -6.0390 C   0  0  0  0  0  0  0  0  0  0  0  0
   -7.1443   -7.1381   -5.0561 C   0  0  0  0  0  0  0  0  0  0  0  0
   -6.0908   -7.3758   -4.0279 C   0  0  0  0  0  0  0  0  0  0  0  0
   -6.5460   -8.4315   -3.0209 C   0  0  0  0  0  0  0  0  0  0  0  0
   -5.6022   -8.4732   -1.8182 N   0  0  0  0  0  0  0  0  0  0  0  0
   -5.7959   -7.0748   -0.7382 S   0  0  0  0  0  0  0  0  0  0  0  0
   -7.1872   -7.0848   -0.1679 O   0  0  0  0  0  0  0  0  0  0  0  0
   -5.5596   -5.7647   -1.4384 O   0  0  0  0  0  0  0  0  0  0  0  0
   -4.6128   -7.3871    0.4813 N   0  0  0  0  0  0  0  0  0  0  0  0
   -3.2416   -7.3998   -0.0123 C   0  0  0  0  0  0  0  0  0  0  0  0
   -2.2040   -7.5976    1.0834 C   0  0  0  0  0  0  0  0  0  0  0  0
   -2.6447   -8.5759    2.1557 C   0  0  0  0  0  0  0  0  0  0  0  0
   -1.7101   -8.7193    3.1798 O   0  0  0  0  0  0  0  0  0  0  0  0
   -4.0551   -8.3810    2.6709 C   0  0  0  0  0  0  0  0  0  0  0  0
   -5.0424   -8.2992    1.5303 C   0  0  0  0  0  0  0  0  0  0  0  0
   -8.3371   -7.8749   -5.0313 C   0  0  0  0  0  0  0  0  0  0  0  0
   -9.3115   -7.6561   -6.0055 C   0  0  0  0  0  0  0  0  0  0  0  0
   -9.1060   -6.6940   -6.9980 N   0  0  0  0  0  0  0  0  0  0  0  0
  1  2  1  0
  2  3  1  0
  3  4  2  0
  4  5  1  0
  5  6  1  0
  6  7  1  0
  7  8  1  0
  8  9  1  0
  9 10  2  0
  9 11  2  0
  9 12  1  0
 12 13  1  0
 13 14  1  0
 14 15  1  0
 15 16  1  0
 15 17  1  0
 17 18  1  0
  5 19  2  0
 19 20  1  0
 20 21  2  0
 21  3  1  0
 18 12  1  0
M  END
>  <ref_url>  (38) 
0

>  <submitter_name>  (38) 
Lucy Vost

>  <submitter_email>  (38) 
lucy.vost@gtc.ox.ac.uk

>  <submitter_institution>  (38) 
University of Oxford

>  <generation_date>  (38) 
2023-07-28

>  <method>  (38) 
STRIFE

>  <ref_mols>  (38) 
x1083

>  <ref_pdb>  (38) 
d68/D68EV3CPROA_apo.pdb

>  <original SMILES>  (38) 
CS(=O)(=O)N1CCC(O)CC1

$$$$
strife_elaboration_x1083
     RDKit          3D

 21 22  0  0  0  0  0  0  0  0999 V2000
   -6.7107   -4.9569   -8.8153 C   0  0  0  0  0  0  0  0  0  0  0  0
   -7.7231   -4.9245   -8.0663 O   0  0  0  0  0  0  0  0  0  0  0  0
   -7.9241   -5.9384   -7.0188 C   0  0  0  0  0  0  0  0  0  0  0  0
   -9.1060   -6.6940   -6.9980 C   0  0  0  0  0  0  0  0  0  0  0  0
   -9.3115   -7.6561   -6.0055 C   0  0  0  0  0  0  0  0  0  0  0  0
   -8.3371   -7.8749   -5.0313 C   0  0  0  0  0  0  0  0  0  0  0  0
   -7.1443   -7.1381   -5.0561 C   0  0  0  0  0  0  0  0  0  0  0  0
   -6.0908   -7.3758   -4.0279 C   0  0  0  0  0  0  0  0  0  0  0  0
   -6.5460   -8.4315   -3.0209 C   0  0  0  0  0  0  0  0  0  0  0  0
   -5.6022   -8.4732   -1.8182 N   0  0  0  0  0  0  0  0  0  0  0  0
   -5.7959   -7.0748   -0.7382 S   0  0  0  0  0  0  0  0  0  0  0  0
   -7.1872   -7.0848   -0.1679 O   0  0  0  0  0  0  0  0  0  0  0  0
   -5.5596   -5.7647   -1.4384 O   0  0  0  0  0  0  0  0  0  0  0  0
   -4.6128   -7.3871    0.4813 N   0  0  0  0  0  0  0  0  0  0  0  0
   -3.2416   -7.3998   -0.0123 C   0  0  0  0  0  0  0  0  0  0  0  0
   -2.2040   -7.5976    1.0834 C   0  0  0  0  0  0  0  0  0  0  0  0
   -2.6447   -8.5759    2.1557 C   0  0  0  0  0  0  0  0  0  0  0  0
   -1.7101   -8.7193    3.1798 C   0  0  0  0  0  0  0  0  0  0  0  0
   -4.0551   -8.3810    2.6709 C   0  0  0  0  0  0  0  0  0  0  0  0
   -5.0424   -8.2992    1.5303 C   0  0  0  0  0  0  0  0  0  0  0  0
   -6.9468   -6.1616   -6.0390 C   0  0  0  0  0  0  0  0  0  0  0  0
  1  2  1  0
  2  3  1  0
  3  4  2  0
  4  5  1  0
  5  6  2  0
  6  7  1  0
  7  8  1  0
  8  9  1  0
  9 10  1  0
 10 11  1  0
 11 12  2  0
 11 13  2  0
 11 14  1  0
 14 15  1  0
 15 16  1  0
 16 17  1  0
 17 18  1  0
 17 19  1  0
 19 20  1  0
  7 21  2  0
 21  3  1  0
 20 14  1  0
M  END
>  <ref_url>  (39) 
0

>  <submitter_name>  (39) 
Lucy Vost

>  <submitter_email>  (39) 
lucy.vost@gtc.ox.ac.uk

>  <submitter_institution>  (39) 
University of Oxford

>  <generation_date>  (39) 
2023-07-28

>  <method>  (39) 
STRIFE

>  <ref_mols>  (39) 
x1083

>  <ref_pdb>  (39) 
d68/D68EV3CPROA_apo.pdb

>  <original SMILES>  (39) 
CS(=O)(=O)N1CCC(O)CC1

$$$$
strife_elaboration_x1083
     RDKit          3D

 21 22  0  0  0  0  0  0  0  0999 V2000
   -6.7107   -4.9569   -8.8153 C   0  0  0  0  0  0  0  0  0  0  0  0
   -7.7231   -4.9245   -8.0663 O   0  0  0  0  0  0  0  0  0  0  0  0
   -7.9241   -5.9384   -7.0188 C   0  0  0  0  0  0  0  0  0  0  0  0
   -9.1060   -6.6940   -6.9980 C   0  0  0  0  0  0  0  0  0  0  0  0
   -9.3115   -7.6561   -6.0055 C   0  0  0  0  0  0  0  0  0  0  0  0
   -8.3371   -7.8749   -5.0313 C   0  0  0  0  0  0  0  0  0  0  0  0
   -7.1443   -7.1381   -5.0561 C   0  0  0  0  0  0  0  0  0  0  0  0
   -6.0908   -7.3758   -4.0279 C   0  0  0  0  0  0  0  0  0  0  0  0
   -6.5460   -8.4315   -3.0209 C   0  0  0  0  0  0  0  0  0  0  0  0
   -5.6022   -8.4732   -1.8182 N   0  0  0  0  0  0  0  0  0  0  0  0
   -5.7959   -7.0748   -0.7382 S   0  0  0  0  0  0  0  0  0  0  0  0
   -7.1872   -7.0848   -0.1679 O   0  0  0  0  0  0  0  0  0  0  0  0
   -5.5596   -5.7647   -1.4384 O   0  0  0  0  0  0  0  0  0  0  0  0
   -4.6128   -7.3871    0.4813 N   0  0  0  0  0  0  0  0  0  0  0  0
   -3.2416   -7.3998   -0.0123 C   0  0  0  0  0  0  0  0  0  0  0  0
   -2.2040   -7.5976    1.0834 C   0  0  0  0  0  0  0  0  0  0  0  0
   -2.6447   -8.5759    2.1557 C   0  0  0  0  0  0  0  0  0  0  0  0
   -1.7101   -8.7193    3.1798 N   0  0  0  0  0  0  0  0  0  0  0  0
   -4.0551   -8.3810    2.6709 C   0  0  0  0  0  0  0  0  0  0  0  0
   -5.0424   -8.2992    1.5303 C   0  0  0  0  0  0  0  0  0  0  0  0
   -6.9468   -6.1616   -6.0390 C   0  0  0  0  0  0  0  0  0  0  0  0
  1  2  1  0
  2  3  1  0
  3  4  2  0
  4  5  1  0
  5  6  2  0
  6  7  1  0
  7  8  1  0
  8  9  1  0
  9 10  1  0
 10 11  1  0
 11 12  2  0
 11 13  2  0
 11 14  1  0
 14 15  1  0
 15 16  1  0
 16 17  1  0
 17 18  1  0
 17 19  1  0
 19 20  1  0
  7 21  2  0
 21  3  1  0
 20 14  1  0
M  END
>  <ref_url>  (40) 
0

>  <submitter_name>  (40) 
Lucy Vost

>  <submitter_email>  (40) 
lucy.vost@gtc.ox.ac.uk

>  <submitter_institution>  (40) 
University of Oxford

>  <generation_date>  (40) 
2023-07-28

>  <method>  (40) 
STRIFE

>  <ref_mols>  (40) 
x1083

>  <ref_pdb>  (40) 
d68/D68EV3CPROA_apo.pdb

>  <original SMILES>  (40) 
CS(=O)(=O)N1CCC(O)CC1

$$$$
strife_elaboration_x1083
     RDKit          3D

 21 22  0  0  0  0  0  0  0  0999 V2000
   -6.7107   -4.9569   -8.8153 C   0  0  0  0  0  0  0  0  0  0  0  0
   -7.7231   -4.9245   -8.0663 O   0  0  0  0  0  0  0  0  0  0  0  0
   -7.9241   -5.9384   -7.0188 C   0  0  0  0  0  0  0  0  0  0  0  0
   -9.1060   -6.6940   -6.9980 C   0  0  0  0  0  0  0  0  0  0  0  0
   -9.3115   -7.6561   -6.0055 C   0  0  0  0  0  0  0  0  0  0  0  0
   -8.3371   -7.8749   -5.0313 C   0  0  0  0  0  0  0  0  0  0  0  0
   -7.1443   -7.1381   -5.0561 C   0  0  0  0  0  0  0  0  0  0  0  0
   -6.0908   -7.3758   -4.0279 C   0  0  0  0  0  0  0  0  0  0  0  0
   -6.5460   -8.4315   -3.0209 C   0  0  0  0  0  0  0  0  0  0  0  0
   -5.6022   -8.4732   -1.8182 N   0  0  0  0  0  0  0  0  0  0  0  0
   -5.7959   -7.0748   -0.7382 S   0  0  0  0  0  0  0  0  0  0  0  0
   -5.5596   -5.7647   -1.4384 O   0  0  0  0  0  0  0  0  0  0  0  0
   -7.1872   -7.0848   -0.1679 O   0  0  0  0  0  0  0  0  0  0  0  0
   -4.6128   -7.3871    0.4813 N   0  0  0  0  0  0  0  0  0  0  0  0
   -3.2416   -7.3998   -0.0123 C   0  0  0  0  0  0  0  0  0  0  0  0
   -2.2040   -7.5976    1.0834 C   0  0  0  0  0  0  0  0  0  0  0  0
   -2.6447   -8.5759    2.1557 C   0  0  0  0  0  0  0  0  0  0  0  0
   -1.7101   -8.7193    3.1798 O   0  0  0  0  0  0  0  0  0  0  0  0
   -4.0551   -8.3810    2.6709 C   0  0  0  0  0  0  0  0  0  0  0  0
   -5.0424   -8.2992    1.5303 C   0  0  0  0  0  0  0  0  0  0  0  0
   -6.9468   -6.1616   -6.0390 N   0  0  0  0  0  0  0  0  0  0  0  0
  1  2  1  0
  2  3  1  0
  3  4  2  0
  4  5  1  0
  5  6  2  0
  6  7  1  0
  7  8  1  0
  8  9  1  0
  9 10  1  0
 10 11  1  0
 11 12  2  0
 11 13  2  0
 11 14  1  0
 14 15  1  0
 15 16  1  0
 16 17  1  0
 17 18  1  0
 17 19  1  0
 19 20  1  0
  7 21  2  0
 21  3  1  0
 20 14  1  0
M  END
>  <ref_url>  (41) 
0

>  <submitter_name>  (41) 
Lucy Vost

>  <submitter_email>  (41) 
lucy.vost@gtc.ox.ac.uk

>  <submitter_institution>  (41) 
University of Oxford

>  <generation_date>  (41) 
2023-07-28

>  <method>  (41) 
STRIFE

>  <ref_mols>  (41) 
x1083

>  <ref_pdb>  (41) 
d68/D68EV3CPROA_apo.pdb

>  <original SMILES>  (41) 
CS(=O)(=O)N1CCC(O)CC1

$$$$
strife_elaboration_x1083
     RDKit          3D

 21 22  0  0  0  0  0  0  0  0999 V2000
   -6.7107   -4.9569   -8.8153 C   0  0  0  0  0  0  0  0  0  0  0  0
   -7.7231   -4.9245   -8.0663 O   0  0  0  0  0  0  0  0  0  0  0  0
   -7.9241   -5.9384   -7.0188 C   0  0  0  0  0  0  0  0  0  0  0  0
   -9.1060   -6.6940   -6.9980 C   0  0  0  0  0  0  0  0  0  0  0  0
   -9.3115   -7.6561   -6.0055 C   0  0  0  0  0  0  0  0  0  0  0  0
   -8.3371   -7.8749   -5.0313 C   0  0  0  0  0  0  0  0  0  0  0  0
   -7.1443   -7.1381   -5.0561 C   0  0  0  0  0  0  0  0  0  0  0  0
   -6.0908   -7.3758   -4.0279 C   0  0  0  0  0  0  0  0  0  0  0  0
   -6.5460   -8.4315   -3.0209 C   0  0  0  0  0  0  0  0  0  0  0  0
   -5.6022   -8.4732   -1.8182 N   0  0  0  0  0  0  0  0  0  0  0  0
   -5.7959   -7.0748   -0.7382 S   0  0  0  0  0  0  0  0  0  0  0  0
   -7.1872   -7.0848   -0.1679 O   0  0  0  0  0  0  0  0  0  0  0  0
   -5.5596   -5.7647   -1.4384 O   0  0  0  0  0  0  0  0  0  0  0  0
   -4.6128   -7.3871    0.4813 N   0  0  0  0  0  0  0  0  0  0  0  0
   -3.2416   -7.3998   -0.0123 C   0  0  0  0  0  0  0  0  0  0  0  0
   -2.2040   -7.5976    1.0834 C   0  0  0  0  0  0  0  0  0  0  0  0
   -2.6447   -8.5759    2.1557 C   0  0  0  0  0  0  0  0  0  0  0  0
   -1.7101   -8.7193    3.1798 O   0  0  0  0  0  0  0  0  0  0  0  0
   -4.0551   -8.3810    2.6709 C   0  0  0  0  0  0  0  0  0  0  0  0
   -5.0424   -8.2992    1.5303 C   0  0  0  0  0  0  0  0  0  0  0  0
   -6.9468   -6.1616   -6.0390 C   0  0  0  0  0  0  0  0  0  0  0  0
  1  2  1  0
  2  3  1  0
  3  4  2  0
  4  5  1  0
  5  6  2  0
  6  7  1  0
  7  8  1  0
  8  9  1  0
  9 10  1  0
 10 11  1  0
 11 12  2  0
 11 13  2  0
 11 14  1  0
 14 15  1  0
 15 16  1  0
 16 17  1  0
 17 18  2  0
 17 19  1  0
 19 20  1  0
  7 21  2  0
 21  3  1  0
 20 14  1  0
M  END
>  <ref_url>  (42) 
0

>  <submitter_name>  (42) 
Lucy Vost

>  <submitter_email>  (42) 
lucy.vost@gtc.ox.ac.uk

>  <submitter_institution>  (42) 
University of Oxford

>  <generation_date>  (42) 
2023-07-28

>  <method>  (42) 
STRIFE

>  <ref_mols>  (42) 
x1083

>  <ref_pdb>  (42) 
d68/D68EV3CPROA_apo.pdb

>  <original SMILES>  (42) 
CS(=O)(=O)N1CCC(O)CC1

$$$$
strife_elaboration_x1083
     RDKit          3D

 20 21  0  0  0  0  0  0  0  0999 V2000
   -7.3421   -4.9573   -8.2969 C   0  0  0  0  0  0  0  0  0  0  0  0
   -7.6009   -6.3207   -7.9841 O   0  0  0  0  0  0  0  0  0  0  0  0
   -7.5525   -6.8462   -6.6879 C   0  0  0  0  0  0  0  0  0  0  0  0
   -7.7874   -8.2138   -6.5178 C   0  0  0  0  0  0  0  0  0  0  0  0
   -7.7483   -8.7831   -5.2481 C   0  0  0  0  0  0  0  0  0  0  0  0
   -7.4746   -7.9897   -4.1290 C   0  0  0  0  0  0  0  0  0  0  0  0
   -7.3758   -8.6375   -2.7882 C   0  0  0  0  0  0  0  0  0  0  0  0
   -6.0066   -8.4189   -2.1155 C   0  0  0  0  0  0  0  0  0  0  0  0
   -5.8920   -6.9705   -1.0634 S   0  0  0  0  0  0  0  0  0  0  0  0
   -5.5121   -5.7594   -1.8661 O   0  0  0  0  0  0  0  0  0  0  0  0
   -7.2452   -6.7296   -0.4521 O   0  0  0  0  0  0  0  0  0  0  0  0
   -4.7322   -7.1694    0.2167 N   0  0  0  0  0  0  0  0  0  0  0  0
   -5.1397   -8.2443    1.1337 C   0  0  0  0  0  0  0  0  0  0  0  0
   -4.1791   -8.2729    2.3250 C   0  0  0  0  0  0  0  0  0  0  0  0
   -2.7255   -8.4427    1.8462 C   0  0  0  0  0  0  0  0  0  0  0  0
   -1.8444   -8.3133    2.9254 O   0  0  0  0  0  0  0  0  0  0  0  0
   -2.3754   -7.3878    0.7914 C   0  0  0  0  0  0  0  0  0  0  0  0
   -3.3976   -7.4463   -0.3279 C   0  0  0  0  0  0  0  0  0  0  0  0
   -7.2355   -6.6160   -4.2901 C   0  0  0  0  0  0  0  0  0  0  0  0
   -7.2758   -6.0460   -5.5628 C   0  0  0  0  0  0  0  0  0  0  0  0
  1  2  1  0
  2  3  1  0
  3  4  2  0
  4  5  1  0
  5  6  2  0
  6  7  1  0
  7  8  1  0
  8  9  1  0
  9 10  2  0
  9 11  2  0
  9 12  1  0
 12 13  1  0
 13 14  1  0
 14 15  1  0
 15 16  1  0
 15 17  1  0
 17 18  1  0
  6 19  1  0
 19 20  2  0
 20  3  1  0
 18 12  1  0
M  END
>  <ref_url>  (43) 
00

>  <submitter_name>  (43) 
Lucy Vost

>  <submitter_email>  (43) 
lucy.vost@gtc.ox.ac.uk

>  <submitter_institution>  (43) 
University of Oxford

>  <generation_date>  (43) 
2023-07-28

>  <method>  (43) 
STRIFE

>  <ref_mols>  (43) 
x1083

>  <ref_pdb>  (43) 
d68/D68EV3CPROA_apo.pdb

>  <original SMILES>  (43) 
CS(=O)(=O)N1CCC(O)CC1

$$$$

