ver_1.2
     RDKit          3D

 14 15  0  0  0  0  0  0  0  0999 V2000
    3.3314    0.4557   -0.1479 C   0  0  0  0  0  0  0  0  0  0  0  0
    2.1887   -0.4274   -0.0955 N   0  0  0  0  0  0  0  0  0  0  0  0
    2.1569   -1.7605   -0.0910 C   0  0  0  0  0  0  0  0  0  0  0  0
    0.9000   -2.2187   -0.0345 N   0  0  0  0  0  0  0  0  0  0  0  0
    0.0909   -1.1343   -0.0014 C   0  0  0  0  0  0  0  0  0  0  0  0
    0.9054   -0.0178   -0.0399 C   0  0  0  0  0  0  0  0  0  0  0  0
    0.3133    1.2071   -0.0166 C   0  0  0  0  0  0  0  0  0  0  0  0
    1.0334    2.2232   -0.0507 O   0  0  0  0  0  0  0  0  0  0  0  0
   -1.0324    1.3663    0.0423 N   0  0  0  0  0  0  0  0  0  0  0  0
   -1.8143    0.2722    0.0793 C   0  0  0  0  0  0  0  0  0  0  0  0
   -3.0647    0.4027    0.1342 O   0  0  0  0  0  0  0  0  0  0  0  0
   -1.2389   -0.9443    0.0568 N   0  0  0  0  0  0  0  0  0  0  0  0
   -2.1129   -2.0996    0.0980 C   0  0  0  0  0  0  0  0  0  0  0  0
   -1.6569    2.6754    0.0668 C   0  0  0  0  0  0  0  0  0  0  0  0
  1  2  1  0
  2  3  1  0
  3  4  2  0
  4  5  1  0
  5  6  2  0
  6  7  1  0
  7  8  2  0
  7  9  1  0
  9 10  1  0
 10 11  2  0
 10 12  1  0
 12 13  1  0
  9 14  1  0
  6  2  1  0
 12  5  1  0
M  END
>  <ref_url>  (1) 
https://github.com/matteoferla/Fragment-hit-follow-up-chemistry

>  <submitter_name>  (1) 
Matteo Ferla

>  <submitter_email>  (1) 
matteo.ferla@stats.ox.ac.uk

>  <submitter_institution>  (1) 
Oxford

>  <generation_date>  (1) 
2023-08-23

>  <method>  (1) 
crystal-crackers

>  <ref_mol>  (1) 
x0884_1B,x0884_1B

>  <ref_pdb>  (1) 
x0884_1B

>  <original SMILES>  (1) 
Cn1c(=O)c2c(ncn2C)n(C)c1=O

>  <ref_mols>  (1) 
x0884_1B,x0182_0B

$$$$
Z1318054286
     RDKit          3D

 16 17  0  0  0  0  0  0  0  0999 V2000
  -12.7900   -7.1720   -9.1730 N   0  0  0  0  0  0  0  0  0  0  0  0
  -13.5890   -7.7500   -8.5580 C   0  0  0  0  0  0  0  0  0  0  0  0
  -14.6200   -8.3370   -7.7500 C   0  0  1  0  0  0  0  0  0  0  0  0
  -15.9230   -8.2750   -8.2700 C   0  0  0  0  0  0  0  0  0  0  0  0
  -16.7700   -9.3830   -7.9060 O   0  0  0  0  0  0  0  0  0  0  0  0
  -16.6640   -9.7670   -6.5380 C   0  0  0  0  0  0  0  0  0  0  0  0
  -15.2200  -10.0880   -6.1750 C   0  0  0  0  0  0  0  0  0  0  0  0
  -14.2850   -9.7110   -7.2530 N   0  0  0  0  0  0  0  0  0  0  0  0
  -12.8980   -9.7780   -6.7760 C   0  0  0  0  0  0  0  0  0  0  0  0
  -11.9500  -10.2540   -7.8460 C   0  0  0  0  0  0  0  0  0  0  0  0
  -11.9850  -11.6940   -8.3030 C   0  0  0  0  0  0  0  0  0  0  0  0
  -11.1180  -12.1230   -9.2810 C   0  0  0  0  0  0  0  0  0  0  0  0
  -10.1270  -11.1440   -9.8960 C   0  0  0  0  0  0  0  0  0  0  0  0
  -10.1520   -9.7930   -9.4080 C   0  0  0  0  0  0  0  0  0  0  0  0
   -9.0430   -8.6290  -10.0660 Cl  0  0  0  0  0  0  0  0  0  0  0  0
  -11.0420   -9.3730   -8.4130 C   0  0  0  0  0  0  0  0  0  0  0  0
  1  2  3  0
  3  2  1  6
  3  4  1  0
  4  5  1  0
  5  6  1  0
  6  7  1  0
  7  8  1  0
  8  9  1  0
  9 10  1  0
 10 11  2  0
 11 12  1  0
 12 13  2  0
 13 14  1  0
 14 15  1  0
 14 16  2  0
  8  3  1  0
 16 10  1  0
A    1
 N1 
A    2
 C1 
A    3
 C2 
A    4
 C3 
A    5
 O1 
A    6
 C4 
A    7
 C5 
A    8
 N2 
A    9
 C6 
A   10
 C7 
A   11
 C8 
A   12
 C9 
A   13
 C10
A   14
 C11
A   15
CL1 
A   16
 C12
M  END
>  <ref_mol>  (2) 
x0884_1B,x0884_1B

>  <ref_pdb>  (2) 
x0884_1B

>  <original SMILES>  (2) 
N#C[C@H]1COCCN1Cc1cccc(Cl)c1

>  <ref_mols>  (2) 
x0884_1B,x0182_0B

$$$$
Z2102283482
     RDKit          3D

 23 25  0  0  0  0  0  0  0  0999 V2000
  -13.1400   -6.5650   -8.9750 N   0  0  0  0  0  0  0  0  0  0  0  0
  -13.8420   -7.3010   -8.4100 C   0  0  0  0  0  0  0  0  0  0  0  0
  -14.6380   -8.2880   -7.7260 C   0  0  0  0  0  0  0  0  0  0  0  0
  -16.0420   -8.1810   -7.7250 C   0  0  0  0  0  0  0  0  0  0  0  0
  -16.8020   -9.1570   -7.0550 C   0  0  0  0  0  0  0  0  0  0  0  0
  -18.6740   -9.1660   -6.9680 Br  0  0  0  0  0  0  0  0  0  0  0  0
  -16.1960  -10.2060   -6.4010 C   0  0  0  0  0  0  0  0  0  0  0  0
  -14.8280  -10.3140   -6.3990 C   0  0  0  0  0  0  0  0  0  0  0  0
  -14.0290   -9.3730   -7.0500 C   0  0  0  0  0  0  0  0  0  0  0  0
  -12.5460   -9.6080   -6.9750 C   0  0  0  0  0  0  0  0  0  0  0  0
  -12.1120  -10.3080   -8.1790 N   0  0  0  0  0  0  0  0  0  0  0  0
  -12.3650  -11.7550   -8.3650 C   0  0  0  0  0  0  0  0  0  0  0  0
  -11.9870  -12.1660   -9.7770 C   0  0  2  0  0  0  0  0  0  0  0  0
  -12.4440  -13.5620  -10.0940 C   0  0  0  0  0  0  0  0  0  0  0  0
  -11.4740  -14.4990  -10.0280 N   0  0  0  0  0  0  0  0  0  0  0  0
  -13.5940  -13.8710  -10.3920 O   0  0  0  0  0  0  0  0  0  0  0  0
  -10.4830  -11.9990   -9.8210 C   0  0  0  0  0  0  0  0  0  0  0  0
  -10.1770  -10.5390   -9.6300 C   0  0  0  0  0  0  0  0  0  0  0  0
   -9.0900   -9.9620  -10.2610 C   0  0  0  0  0  0  0  0  0  0  0  0
   -8.7750   -8.6140  -10.0880 C   0  0  0  0  0  0  0  0  0  0  0  0
   -9.5680   -7.8430   -9.2660 C   0  0  0  0  0  0  0  0  0  0  0  0
  -10.6660   -8.4220   -8.6360 C   0  0  0  0  0  0  0  0  0  0  0  0
  -10.9860   -9.7670   -8.8160 C   0  0  0  0  0  0  0  0  0  0  0  0
  1  2  3  0
  2  3  1  0
  3  4  2  0
  4  5  1  0
  5  6  1  0
  5  7  2  0
  7  8  1  0
  8  9  2  0
  9 10  1  0
 10 11  1  0
 11 12  1  0
 12 13  1  0
 13 14  1  1
 14 15  1  0
 14 16  2  0
 13 17  1  0
 17 18  1  0
 18 19  2  0
 19 20  1  0
 20 21  2  0
 21 22  1  0
 22 23  2  0
  9  3  1  0
 23 11  1  0
 23 18  1  0
A    1
 N1 
A    2
 C1 
A    3
 C2 
A    4
 C3 
A    5
 C4 
A    6
BR1 
A    7
 C5 
A    8
 C6 
A    9
 C7 
A   10
 C8 
A   11
 N2 
A   12
 C9 
A   13
 C10
A   14
 C11
A   15
 N3 
A   16
 O1 
A   17
 C12
A   18
 C13
A   19
 C14
A   20
 C15
A   21
 C16
A   22
 C17
A   23
 C18
M  END
>  <ref_mol>  (3) 
x0884_1B,x0884_1B

>  <ref_pdb>  (3) 
x0884_1B

>  <original SMILES>  (3) 
N#Cc1cc(Br)ccc1CN1C[C@H](C(N)=O)Cc2ccccc21

>  <ref_mols>  (3) 
x0884_1B,x0182_0B

$$$$
Z198195906
     RDKit          3D

 18 19  0  0  0  0  0  0  0  0999 V2000
  -10.1982   -5.4475   -9.8784 N   0  0  0  0  0  0  0  0  0  0  0  0
  -10.9025   -6.3644   -9.8522 C   0  0  0  0  0  0  0  0  0  0  0  0
  -12.0484   -6.2808  -10.2869 O   0  0  0  0  0  0  0  0  0  0  0  0
  -10.3030   -7.4650   -9.3130 N   0  0  0  0  0  0  0  0  0  0  0  0
  -10.7490   -8.1100   -8.0760 C   0  0  0  0  0  0  0  0  0  0  0  0
  -10.9334   -9.5004   -8.2277 C   0  0  0  0  0  0  0  0  0  0  0  0
  -10.0350  -10.1879   -9.0185 C   0  0  0  0  0  0  0  0  0  0  0  0
  -10.1305  -11.5559   -9.2239 C   0  0  0  0  0  0  0  0  0  0  0  0
  -11.1280  -12.2735   -8.6535 C   0  0  0  0  0  0  0  0  0  0  0  0
  -12.0731  -11.6573   -7.8426 C   0  0  0  0  0  0  0  0  0  0  0  0
  -11.9880  -10.2523   -7.6133 C   0  0  0  0  0  0  0  0  0  0  0  0
  -12.9329   -9.6590   -6.7924 C   0  0  0  0  0  0  0  0  0  0  0  0
  -14.2199   -9.6472   -7.1453 N   0  0  0  0  0  0  0  0  0  0  0  0
  -15.1947   -9.7456   -6.0411 C   0  0  0  0  0  0  0  0  0  0  0  0
  -16.6223   -9.7339   -6.5434 C   0  0  0  0  0  0  0  0  0  0  0  0
  -16.6906   -9.4672   -7.9422 O   0  0  0  0  0  0  0  0  0  0  0  0
  -15.9383   -8.3036   -8.3053 C   0  0  0  0  0  0  0  0  0  0  0  0
  -14.4855   -8.4394   -7.9477 C   0  0  0  0  0  0  0  0  0  0  0  0
  1  2  1  0
  2  3  2  0
  2  4  1  0
  4  5  1  0
  5  6  1  0
  6  7  2  0
  7  8  1  0
  8  9  2  0
  9 10  1  0
 10 11  2  0
  6 11  1  0
 11 12  1  0
 12 13  1  0
 13 14  1  0
 14 15  1  0
 15 16  1  0
 16 17  1  0
 17 18  1  0
 13 18  1  0
M  END
>  <ref_mol>  (4) 
x0884_1B,x0884_1B

>  <ref_pdb>  (4) 
x0884_1B

>  <original SMILES>  (4) 
NC(=O)NCc1ccccc1CN1CCOCC1

>  <ref_mols>  (4) 
x0884_1B,x0182_0B

$$$$
Z1318055457
     RDKit          3D

 19 21  0  0  0  0  0  0  0  0999 V2000
  -12.8750   -6.7380   -8.8370 N   0  0  0  0  0  0  0  0  0  0  0  0
  -13.6160   -7.5990   -8.5800 C   0  0  0  0  0  0  0  0  0  0  0  0
  -14.6310   -8.5930   -8.3550 C   0  0  2  0  0  0  0  0  0  0  0  0
  -15.8710   -8.0780   -7.9990 C   0  0  0  0  0  0  0  0  0  0  0  0
  -16.8580   -9.0920   -7.7870 O   0  0  0  0  0  0  0  0  0  0  0  0
  -16.6150   -9.8090   -6.5830 C   0  0  0  0  0  0  0  0  0  0  0  0
  -15.1330   -9.7720   -6.2150 C   0  0  0  0  0  0  0  0  0  0  0  0
  -14.2450   -9.6940   -7.3970 N   0  0  0  0  0  0  0  0  0  0  0  0
  -12.8370   -9.6720   -7.0090 C   0  0  0  0  0  0  0  0  0  0  0  0
  -11.8920  -10.2530   -8.0360 C   0  0  0  0  0  0  0  0  0  0  0  0
  -11.9490  -11.7290   -8.3700 C   0  0  0  0  0  0  0  0  0  0  0  0
  -11.0760  -12.2580   -9.2930 C   0  0  0  0  0  0  0  0  0  0  0  0
  -10.0590  -11.3580   -9.9750 C   0  0  0  0  0  0  0  0  0  0  0  0
  -10.0510   -9.9610   -9.6270 C   0  0  0  0  0  0  0  0  0  0  0  0
   -9.1370   -9.0390  -10.2100 C   0  0  0  0  0  0  0  0  0  0  0  0
   -9.0950   -7.6940   -9.9060 C   0  0  0  0  0  0  0  0  0  0  0  0
   -9.9770   -7.1990   -8.9840 C   0  0  0  0  0  0  0  0  0  0  0  0
  -10.8870   -8.0630   -8.3840 C   0  0  0  0  0  0  0  0  0  0  0  0
  -10.9520   -9.4260   -8.6770 C   0  0  0  0  0  0  0  0  0  0  0  0
  1  2  3  0
  3  2  1  1
  3  4  1  0
  4  5  1  0
  5  6  1  0
  6  7  1  0
  7  8  1  0
  8  9  1  0
  9 10  1  0
 10 11  2  0
 11 12  1  0
 12 13  2  0
 13 14  1  0
 14 15  2  0
 15 16  1  0
 16 17  2  0
 17 18  1  0
 18 19  2  0
  8  3  1  0
 19 10  1  0
 19 14  1  0
A    1
 N1 
A    2
 C1 
A    3
 C2 
A    4
 C3 
A    5
 O1 
A    6
 C4 
A    7
 C5 
A    8
 N2 
A    9
 C6 
A   10
 C7 
A   11
 C8 
A   12
 C9 
A   13
 C10
A   14
 C11
A   15
 C12
A   16
 C13
A   17
 C14
A   18
 C15
A   19
 C16
M  END
>  <ref_mol>  (5) 
x0884_1B,x0884_1B

>  <ref_pdb>  (5) 
x0884_1B

>  <original SMILES>  (5) 
N#C[C@@H]1COCCN1Cc1cccc2ccccc12

>  <ref_mols>  (5) 
x0884_1B,x0182_0B

$$$$
