ver_1.2
     RDKit          2D

  1  0  0  0  0  0  0  0  0  0999 V2000
    0.0000    0.0000    0.0000 C   0  0  0  0  0  0  0  0  0  0  0  0
M  END
>  <submitter_name>  (1) 
Fergus Imrie

>  <submitter_email>  (1) 
imrie@stats.ox.ac.uk

>  <submitter_institution>  (1) 
University of Oxford

>  <generation_date>  (1) 
2021-02-26

>  <method>  (1) 
DeLinker

>  <ref_url>  (1) 
https://github.com/oxpig/DeLinker

>  <original SMILES>  (1) 
The SMILES of the compound

>  <ref_pdb>  (1) 
A pdb included in fragalysis or uploaded. E.g. x0830_0

>  <ref_mols>  (1) 
The inspirational fragments usded to propose the compound

$$$$
selected_mols1
     RDKit          3D

 30 33  0  0  0  0  0  0  0  0999 V2000
   13.1955   10.9445   -0.8431 C   0  0  0  0  0  0  0  0  0  0  0  0
   12.0659   10.4410   -1.4104 N   0  0  0  0  0  0  0  0  0  0  0  0
   11.0081   11.2295   -1.7492 C   0  0  0  0  0  0  0  0  0  0  0  0
    9.8471   10.6249   -2.3394 N   0  0  0  0  0  0  0  0  0  0  0  0
    9.1223   11.2302   -3.4158 C   0  0  0  0  0  0  0  0  0  0  0  0
    9.3473   10.8372   -4.5927 O   0  0  0  0  0  0  0  0  0  0  0  0
    8.0016   12.2056   -3.1369 C   0  0  0  0  0  0  0  0  0  0  0  0
    7.3208   12.7544   -4.3986 C   0  0  0  0  0  0  0  0  0  0  0  0
    8.1840   13.6387   -5.2692 C   0  0  0  0  0  0  0  0  0  0  0  0
    9.5517   13.8948   -5.2161 C   0  0  0  0  0  0  0  0  0  0  0  0
    9.9750   14.5754   -6.3024 N   0  0  0  0  0  0  0  0  0  0  0  0
    8.8783   14.7720   -7.0493 C   0  0  0  0  0  0  0  0  0  0  0  0
    8.8031   15.4049   -8.2887 C   0  0  0  0  0  0  0  0  0  0  0  0
    7.5480   15.4636   -8.9208 C   0  0  0  0  0  0  0  0  0  0  0  0
    6.4115   14.8896   -8.3094 C   0  0  0  0  0  0  0  0  0  0  0  0
    6.5202   14.2512   -7.0605 C   0  0  0  0  0  0  0  0  0  0  0  0
    7.7750   14.2168   -6.4524 C   0  0  0  0  0  0  0  0  0  0  0  0
   11.0696   12.6037   -1.4791 C   0  0  0  0  0  0  0  0  0  0  0  0
   12.2078   13.1397   -0.8852 C   0  0  0  0  0  0  0  0  0  0  0  0
   13.2934   12.3194   -0.5697 C   0  0  0  0  0  0  0  0  0  0  0  0
   14.4250   12.8924    0.1046 N   0  0  0  0  0  0  0  0  0  0  0  0
   15.7849   12.4660   -0.0535 C   0  0  0  0  0  0  0  0  0  0  0  0
   16.0849   11.5768   -0.8952 O   0  0  0  0  0  0  0  0  0  0  0  0
   16.7983   13.0685    0.7644 N   0  0  0  0  0  0  0  0  0  0  0  0
   18.2148   12.9270    0.5669 C   0  0  0  0  0  0  0  0  0  0  0  0
   19.0690   13.0207    1.6772 C   0  0  0  0  0  0  0  0  0  0  0  0
   20.4534   12.9348    1.5151 C   0  0  0  0  0  0  0  0  0  0  0  0
   20.9994   12.7619    0.2407 C   0  0  0  0  0  0  0  0  0  0  0  0
   20.1605   12.6873   -0.8742 C   0  0  0  0  0  0  0  0  0  0  0  0
   18.7737   12.7778   -0.7166 C   0  0  0  0  0  0  0  0  0  0  0  0
  1  2  2  0
  2  3  1  0
  3  4  1  0
  4  5  1  0
  5  6  2  0
  5  7  1  0
  7  8  1  0
  8  9  1  0
  9 10  2  0
 10 11  1  0
 11 12  1  0
 12 13  2  0
 13 14  1  0
 14 15  2  0
 15 16  1  0
 16 17  2  0
  3 18  2  0
 18 19  1  0
 19 20  2  0
 20 21  1  0
 21 22  1  0
 22 23  2  0
 22 24  1  0
 24 25  1  0
 25 26  2  0
 26 27  1  0
 27 28  2  0
 28 29  1  0
 29 30  2  0
 20  1  1  0
 30 25  1  0
 17  9  1  0
 17 12  1  0
M  END
>  <_Model>  (2) 
31

>  <_StartingPoint>  (2) 
*c1ccc(NC(=O)Nc2ccccc2)cn1.[6*]c1c[nH]c2ccccc12

>  <ref_pdb>  (2) 
x0103

>  <original SMILES>  (2) 
O=C(CCc1c[nH]c2ccccc12)Nc1ccc(NC(=O)Nc2ccccc2)cn1

>  <ref_mols>  (2) 
x0103_0A,x0032_0A

$$$$
selected_mols2
     RDKit          3D

 30 33  0  0  0  0  0  0  0  0999 V2000
   13.1091   10.9711   -0.8979 C   0  0  0  0  0  0  0  0  0  0  0  0
   11.9464   10.3666   -1.2682 N   0  0  0  0  0  0  0  0  0  0  0  0
   10.8027   11.0681   -1.4979 C   0  0  0  0  0  0  0  0  0  0  0  0
    9.6255   10.3711   -1.8106 O   0  0  0  0  0  0  0  0  0  0  0  0
    8.5933   10.8555   -2.6285 C   0  0  0  0  0  0  0  0  0  0  0  0
    7.4045   10.5371   -2.3618 O   0  0  0  0  0  0  0  0  0  0  0  0
    8.8857   11.6031   -3.8996 C   0  0  0  0  0  0  0  0  0  0  0  0
    8.1394   12.9465   -3.9770 C   0  0  0  0  0  0  0  0  0  0  0  0
    8.7058   13.7849   -5.0880 C   0  0  0  0  0  0  0  0  0  0  0  0
   10.0222   14.2050   -5.1812 C   0  0  0  0  0  0  0  0  0  0  0  0
   10.2769   14.7893   -6.3649 N   0  0  0  0  0  0  0  0  0  0  0  0
    9.1023   14.7911   -7.0163 C   0  0  0  0  0  0  0  0  0  0  0  0
    8.8422   15.3220   -8.2781 C   0  0  0  0  0  0  0  0  0  0  0  0
    7.5282   15.2306   -8.7711 C   0  0  0  0  0  0  0  0  0  0  0  0
    6.5165   14.6151   -8.0014 C   0  0  0  0  0  0  0  0  0  0  0  0
    6.8081   14.0784   -6.7342 C   0  0  0  0  0  0  0  0  0  0  0  0
    8.1175   14.1866   -6.2697 C   0  0  0  0  0  0  0  0  0  0  0  0
   10.8120   12.4614   -1.3441 C   0  0  0  0  0  0  0  0  0  0  0  0
   11.9861   13.1016   -0.9466 C   0  0  0  0  0  0  0  0  0  0  0  0
   13.1554   12.3655   -0.7205 C   0  0  0  0  0  0  0  0  0  0  0  0
   14.3185   13.0392   -0.2041 N   0  0  0  0  0  0  0  0  0  0  0  0
   15.6705   12.5682   -0.3041 C   0  0  0  0  0  0  0  0  0  0  0  0
   15.9892   11.7214   -1.1822 O   0  0  0  0  0  0  0  0  0  0  0  0
   16.6556   13.0790    0.6076 N   0  0  0  0  0  0  0  0  0  0  0  0
   18.0779   12.9324    0.4517 C   0  0  0  0  0  0  0  0  0  0  0  0
   18.8899   12.8759    1.5963 C   0  0  0  0  0  0  0  0  0  0  0  0
   20.2802   12.7890    1.4767 C   0  0  0  0  0  0  0  0  0  0  0  0
   20.8742   12.7750    0.2128 C   0  0  0  0  0  0  0  0  0  0  0  0
   20.0781   12.8494   -0.9331 C   0  0  0  0  0  0  0  0  0  0  0  0
   18.6853   12.9309   -0.8181 C   0  0  0  0  0  0  0  0  0  0  0  0
  1  2  2  0
  2  3  1  0
  3  4  1  0
  4  5  1  0
  5  6  2  0
  5  7  1  0
  7  8  1  0
  8  9  1  0
  9 10  2  0
 10 11  1  0
 11 12  1  0
 12 13  2  0
 13 14  1  0
 14 15  2  0
 15 16  1  0
 16 17  2  0
  3 18  2  0
 18 19  1  0
 19 20  2  0
 20 21  1  0
 21 22  1  0
 22 23  2  0
 22 24  1  0
 24 25  1  0
 25 26  2  0
 26 27  1  0
 27 28  2  0
 28 29  1  0
 29 30  2  0
 20  1  1  0
 30 25  1  0
 17  9  1  0
 17 12  1  0
M  END
>  <_Model>  (3) 
36

>  <_StartingPoint>  (3) 
*c1ccc(NC(=O)Nc2ccccc2)cn1.[6*]c1c[nH]c2ccccc12

>  <ref_pdb>  (3) 
x0103

>  <original SMILES>  (3) 
O=C(Nc1ccccc1)Nc1ccc(OC(=O)CCc2c[nH]c3ccccc23)nc1

>  <ref_mols>  (3) 
x0103_0A,x0032_0A

$$$$
selected_mols3
     RDKit          3D

 31 34  0  0  0  0  0  0  0  0999 V2000
   13.1640   11.1759   -1.5816 C   0  0  0  0  0  0  0  0  0  0  0  0
   11.9984   10.5024   -1.7889 N   0  0  0  0  0  0  0  0  0  0  0  0
   10.8062   10.9396   -1.2952 C   0  0  0  0  0  0  0  0  0  0  0  0
    9.5755   10.0836   -1.4609 C   0  0  0  0  0  0  0  0  0  0  0  0
    8.2073   10.9550   -2.2275 S   0  0  0  0  0  6  0  0  0  0  0  0
    7.6301   11.9425   -1.2517 O   0  0  0  0  0  0  0  0  0  0  0  0
    7.1429    9.9583   -2.5904 O   0  0  0  0  0  0  0  0  0  0  0  0
    8.7559   11.7798   -3.7163 C   0  0  0  0  0  0  0  0  0  0  0  0
    8.0159   13.1039   -3.9497 C   0  0  0  0  0  0  0  0  0  0  0  0
    8.6410   13.8454   -5.0952 C   0  0  0  0  0  0  0  0  0  0  0  0
    9.9722   14.2190   -5.1789 C   0  0  0  0  0  0  0  0  0  0  0  0
   10.2622   14.7642   -6.3730 N   0  0  0  0  0  0  0  0  0  0  0  0
    9.0970   14.7897   -7.0405 C   0  0  0  0  0  0  0  0  0  0  0  0
    8.8700   15.3057   -8.3151 C   0  0  0  0  0  0  0  0  0  0  0  0
    7.5589   15.2539   -8.8211 C   0  0  0  0  0  0  0  0  0  0  0  0
    6.5167   14.6919   -8.0512 C   0  0  0  0  0  0  0  0  0  0  0  0
    6.7742   14.1687   -6.7713 C   0  0  0  0  0  0  0  0  0  0  0  0
    8.0820   14.2381   -6.2936 C   0  0  0  0  0  0  0  0  0  0  0  0
   10.7682   12.1333   -0.5637 C   0  0  0  0  0  0  0  0  0  0  0  0
   11.9480   12.8366   -0.3314 C   0  0  0  0  0  0  0  0  0  0  0  0
   13.1724   12.3537   -0.8121 C   0  0  0  0  0  0  0  0  0  0  0  0
   14.3718   13.1020   -0.5281 N   0  0  0  0  0  0  0  0  0  0  0  0
   15.6951   12.5674   -0.3551 C   0  0  0  0  0  0  0  0  0  0  0  0
   15.9826   11.4051   -0.7475 O   0  0  0  0  0  0  0  0  0  0  0  0
   16.6799   13.3620    0.3246 N   0  0  0  0  0  0  0  0  0  0  0  0
   18.0877   13.0757    0.3414 C   0  0  0  0  0  0  0  0  0  0  0  0
   18.8387   13.3855    1.4867 C   0  0  0  0  0  0  0  0  0  0  0  0
   20.2202   13.1714    1.5070 C   0  0  0  0  0  0  0  0  0  0  0  0
   20.8661   12.6644    0.3771 C   0  0  0  0  0  0  0  0  0  0  0  0
   20.1311   12.3725   -0.7745 C   0  0  0  0  0  0  0  0  0  0  0  0
   18.7462   12.5734   -0.7952 C   0  0  0  0  0  0  0  0  0  0  0  0
  1  2  2  0
  2  3  1  0
  3  4  1  0
  4  5  1  0
  5  6  2  0
  5  7  2  0
  5  8  1  0
  8  9  1  0
  9 10  1  0
 10 11  2  0
 11 12  1  0
 12 13  1  0
 13 14  2  0
 14 15  1  0
 15 16  2  0
 16 17  1  0
 17 18  2  0
  3 19  2  0
 19 20  1  0
 20 21  2  0
 21 22  1  0
 22 23  1  0
 23 24  2  0
 23 25  1  0
 25 26  1  0
 26 27  2  0
 27 28  1  0
 28 29  2  0
 29 30  1  0
 30 31  2  0
 21  1  1  0
 31 26  1  0
 18 10  1  0
 18 13  1  0
M  END
>  <_Model>  (4) 
25

>  <_StartingPoint>  (4) 
*c1ccc(NC(=O)Nc2ccccc2)cn1.[6*]c1c[nH]c2ccccc12

>  <ref_pdb>  (4) 
x0103

>  <original SMILES>  (4) 
O=C(Nc1ccccc1)Nc1ccc(CS(=O)(=O)CCc2c[nH]c3ccccc23)nc1

>  <ref_mols>  (4) 
x0103_0A,x0032_0A

$$$$
selected_mols4
     RDKit          3D

 30 33  0  0  0  0  0  0  0  0999 V2000
   13.1531   11.2336   -1.5262 C   0  0  0  0  0  0  0  0  0  0  0  0
   11.9769   10.6744   -1.9239 N   0  0  0  0  0  0  0  0  0  0  0  0
   10.7686   11.1470   -1.5112 C   0  0  0  0  0  0  0  0  0  0  0  0
    9.5043   10.4629   -1.9678 C   0  0  0  0  0  0  0  0  0  0  0  0
    8.4814   11.3801   -2.2802 O   0  0  0  0  0  0  0  0  0  0  0  0
    8.9227   12.0882   -3.3324 O   0  0  0  0  0  0  0  0  0  0  0  0
    8.0621   12.8615   -4.1108 C   0  0  0  0  0  0  0  0  0  0  0  0
    6.8165   12.8112   -3.9300 O   0  0  0  0  0  0  0  0  0  0  0  0
    8.6401   13.7133   -5.1580 C   0  0  0  0  0  0  0  0  0  0  0  0
    9.9772   14.0598   -5.2422 C   0  0  0  0  0  0  0  0  0  0  0  0
   10.2558   14.7007   -6.3905 N   0  0  0  0  0  0  0  0  0  0  0  0
    9.0824   14.7889   -7.0376 C   0  0  0  0  0  0  0  0  0  0  0  0
    8.8594   15.3498   -8.2927 C   0  0  0  0  0  0  0  0  0  0  0  0
    7.5526   15.3028   -8.8115 C   0  0  0  0  0  0  0  0  0  0  0  0
    6.5116   14.6929   -8.0771 C   0  0  0  0  0  0  0  0  0  0  0  0
    6.7652   14.1251   -6.8150 C   0  0  0  0  0  0  0  0  0  0  0  0
    8.0670   14.2002   -6.3174 C   0  0  0  0  0  0  0  0  0  0  0  0
   10.7211   12.2340   -0.6339 C   0  0  0  0  0  0  0  0  0  0  0  0
   11.9097   12.8323   -0.2194 C   0  0  0  0  0  0  0  0  0  0  0  0
   13.1508   12.3425   -0.6556 C   0  0  0  0  0  0  0  0  0  0  0  0
   14.3487   13.0305   -0.2310 N   0  0  0  0  0  0  0  0  0  0  0  0
   15.7010   12.5360   -0.2286 C   0  0  0  0  0  0  0  0  0  0  0  0
   16.0033   11.4577   -0.8052 O   0  0  0  0  0  0  0  0  0  0  0  0
   16.7050   13.2724    0.4892 N   0  0  0  0  0  0  0  0  0  0  0  0
   18.1195   13.0329    0.3972 C   0  0  0  0  0  0  0  0  0  0  0  0
   18.9280   13.2578    1.5233 C   0  0  0  0  0  0  0  0  0  0  0  0
   20.3126   13.0785    1.4493 C   0  0  0  0  0  0  0  0  0  0  0  0
   20.9043   12.6909    0.2450 C   0  0  0  0  0  0  0  0  0  0  0  0
   20.1122   12.4867   -0.8874 C   0  0  0  0  0  0  0  0  0  0  0  0
   18.7249   12.6569   -0.8159 C   0  0  0  0  0  0  0  0  0  0  0  0
  1  2  2  0
  2  3  1  0
  3  4  1  0
  4  5  1  0
  5  6  1  0
  6  7  1  0
  7  8  2  0
  7  9  1  0
  9 10  2  0
 10 11  1  0
 11 12  1  0
 12 13  2  0
 13 14  1  0
 14 15  2  0
 15 16  1  0
 16 17  2  0
  3 18  2  0
 18 19  1  0
 19 20  2  0
 20 21  1  0
 21 22  1  0
 22 23  2  0
 22 24  1  0
 24 25  1  0
 25 26  2  0
 26 27  1  0
 27 28  2  0
 28 29  1  0
 29 30  2  0
 20  1  1  0
 30 25  1  0
 17  9  1  0
 17 12  1  0
M  END
>  <_Model>  (5) 
16

>  <_StartingPoint>  (5) 
*c1ccc(NC(=O)Nc2ccccc2)cn1.[6*]c1c[nH]c2ccccc12

>  <ref_pdb>  (5) 
x0103

>  <original SMILES>  (5) 
O=C(Nc1ccccc1)Nc1ccc(COOC(=O)c2c[nH]c3ccccc23)nc1

>  <ref_mols>  (5) 
x0103_0A,x0032_0A

$$$$
selected_mols5
     RDKit          3D

 30 33  0  0  0  0  0  0  0  0999 V2000
   13.1741   11.0895   -1.2240 C   0  0  0  0  0  0  0  0  0  0  0  0
   12.0546   10.7372   -1.9134 N   0  0  0  0  0  0  0  0  0  0  0  0
   10.9263   11.5003   -1.9037 C   0  0  0  0  0  0  0  0  0  0  0  0
    9.7852   11.1302   -2.7652 C   0  0  0  0  0  0  0  0  0  0  0  0
    9.9613   10.3132   -3.7090 O   0  0  0  0  0  0  0  0  0  0  0  0
    8.4855   11.6953   -2.5448 N   0  0  0  0  0  0  0  0  0  0  0  0
    7.5657   12.0155   -3.6349 C   0  0  0  0  0  0  0  0  0  0  0  0
    7.5144   13.5367   -3.8633 C   0  0  0  0  0  0  0  0  0  0  0  0
    8.3408   13.9611   -5.0455 C   0  0  0  0  0  0  0  0  0  0  0  0
    9.7189   14.1109   -5.0979 C   0  0  0  0  0  0  0  0  0  0  0  0
   10.1271   14.4976   -6.3250 N   0  0  0  0  0  0  0  0  0  0  0  0
    9.0075   14.6053   -7.0571 C   0  0  0  0  0  0  0  0  0  0  0  0
    8.9080   14.9921   -8.3926 C   0  0  0  0  0  0  0  0  0  0  0  0
    7.6254   15.0480   -8.9663 C   0  0  0  0  0  0  0  0  0  0  0  0
    6.4852   14.7177   -8.2016 C   0  0  0  0  0  0  0  0  0  0  0  0
    6.6152   14.3252   -6.8577 C   0  0  0  0  0  0  0  0  0  0  0  0
    7.8994   14.2833   -6.3124 C   0  0  0  0  0  0  0  0  0  0  0  0
   10.9107   12.6916   -1.1631 C   0  0  0  0  0  0  0  0  0  0  0  0
   12.0473   13.0758   -0.4561 C   0  0  0  0  0  0  0  0  0  0  0  0
   13.2053   12.2913   -0.4960 C   0  0  0  0  0  0  0  0  0  0  0  0
   14.3577   12.7104    0.2550 N   0  0  0  0  0  0  0  0  0  0  0  0
   15.7251   12.4324   -0.0816 C   0  0  0  0  0  0  0  0  0  0  0  0
   16.0166   11.8742   -1.1734 O   0  0  0  0  0  0  0  0  0  0  0  0
   16.7559   12.8009    0.8481 N   0  0  0  0  0  0  0  0  0  0  0  0
   18.1674   12.8032    0.5717 C   0  0  0  0  0  0  0  0  0  0  0  0
   19.0686   12.6173    1.6330 C   0  0  0  0  0  0  0  0  0  0  0  0
   20.4470   12.6624    1.4101 C   0  0  0  0  0  0  0  0  0  0  0  0
   20.9400   12.8987    0.1247 C   0  0  0  0  0  0  0  0  0  0  0  0
   20.0539   13.1040   -0.9360 C   0  0  0  0  0  0  0  0  0  0  0  0
   18.6730   13.0673   -0.7156 C   0  0  0  0  0  0  0  0  0  0  0  0
  1  2  2  0
  2  3  1  0
  3  4  1  0
  4  5  2  0
  4  6  1  0
  6  7  1  0
  7  8  1  0
  8  9  1  0
  9 10  2  0
 10 11  1  0
 11 12  1  0
 12 13  2  0
 13 14  1  0
 14 15  2  0
 15 16  1  0
 16 17  2  0
  3 18  2  0
 18 19  1  0
 19 20  2  0
 20 21  1  0
 21 22  1  0
 22 23  2  0
 22 24  1  0
 24 25  1  0
 25 26  2  0
 26 27  1  0
 27 28  2  0
 28 29  1  0
 29 30  2  0
 20  1  1  0
 30 25  1  0
 17  9  1  0
 17 12  1  0
M  END
>  <_Model>  (6) 
23

>  <_StartingPoint>  (6) 
*c1ccc(NC(=O)Nc2ccccc2)cn1.[6*]c1c[nH]c2ccccc12

>  <ref_pdb>  (6) 
x0103

>  <original SMILES>  (6) 
O=C(Nc1ccccc1)Nc1ccc(C(=O)NCCc2c[nH]c3ccccc23)nc1

>  <ref_mols>  (6) 
x0103_0A,x0032_0A

$$$$
selected_mols6
     RDKit          3D

 30 33  0  0  0  0  0  0  0  0999 V2000
   13.1229   11.0232   -1.0522 C   0  0  0  0  0  0  0  0  0  0  0  0
   11.9451   10.4712   -1.4543 N   0  0  0  0  0  0  0  0  0  0  0  0
   10.7581   11.1310   -1.3528 C   0  0  0  0  0  0  0  0  0  0  0  0
    9.4853   10.4132   -1.7279 C   0  0  0  0  0  0  0  0  0  0  0  0
    8.4623   11.3355   -2.3289 C   0  0  0  0  0  0  0  0  0  0  0  0
    7.3980   11.5818   -1.6989 O   0  0  0  0  0  0  0  0  0  0  0  0
    8.7159   11.9639   -3.5898 N   0  0  0  0  0  0  0  0  0  0  0  0
    7.9056   13.0865   -4.0661 C   0  0  0  0  0  0  0  0  0  0  0  0
    8.5931   13.7881   -5.2012 C   0  0  0  0  0  0  0  0  0  0  0  0
    9.9274   14.1624   -5.2449 C   0  0  0  0  0  0  0  0  0  0  0  0
   10.2419   14.7392   -6.4206 N   0  0  0  0  0  0  0  0  0  0  0  0
    9.0926   14.7771   -7.1149 C   0  0  0  0  0  0  0  0  0  0  0  0
    8.8947   15.3112   -8.3874 C   0  0  0  0  0  0  0  0  0  0  0  0
    7.5973   15.2589   -8.9281 C   0  0  0  0  0  0  0  0  0  0  0  0
    6.5384   14.6807   -8.1938 C   0  0  0  0  0  0  0  0  0  0  0  0
    6.7660   14.1460   -6.9128 C   0  0  0  0  0  0  0  0  0  0  0  0
    8.0622   14.2123   -6.4010 C   0  0  0  0  0  0  0  0  0  0  0  0
   10.7371   12.4138   -0.7852 C   0  0  0  0  0  0  0  0  0  0  0  0
   11.9310   13.0040   -0.3751 C   0  0  0  0  0  0  0  0  0  0  0  0
   13.1462   12.3183   -0.5031 C   0  0  0  0  0  0  0  0  0  0  0  0
   14.3424   12.9197    0.0304 N   0  0  0  0  0  0  0  0  0  0  0  0
   15.6942   12.5098   -0.2234 C   0  0  0  0  0  0  0  0  0  0  0  0
   15.9823   11.8453   -1.2550 O   0  0  0  0  0  0  0  0  0  0  0  0
   16.7158   12.8787    0.7166 N   0  0  0  0  0  0  0  0  0  0  0  0
   18.1318   12.8476    0.4651 C   0  0  0  0  0  0  0  0  0  0  0  0
   19.0133   12.7051    1.5495 C   0  0  0  0  0  0  0  0  0  0  0  0
   20.3963   12.7321    1.3492 C   0  0  0  0  0  0  0  0  0  0  0  0
   20.9129   12.9095    0.0641 C   0  0  0  0  0  0  0  0  0  0  0  0
   20.0464   13.0673   -1.0211 C   0  0  0  0  0  0  0  0  0  0  0  0
   18.6614   13.0451   -0.8244 C   0  0  0  0  0  0  0  0  0  0  0  0
  1  2  2  0
  2  3  1  0
  3  4  1  0
  4  5  1  0
  5  6  2  0
  5  7  1  0
  7  8  1  0
  8  9  1  0
  9 10  2  0
 10 11  1  0
 11 12  1  0
 12 13  2  0
 13 14  1  0
 14 15  2  0
 15 16  1  0
 16 17  2  0
  3 18  2  0
 18 19  1  0
 19 20  2  0
 20 21  1  0
 21 22  1  0
 22 23  2  0
 22 24  1  0
 24 25  1  0
 25 26  2  0
 26 27  1  0
 27 28  2  0
 28 29  1  0
 29 30  2  0
 20  1  1  0
 30 25  1  0
 17  9  1  0
 17 12  1  0
M  END
>  <_Model>  (7) 
1

>  <_StartingPoint>  (7) 
*c1ccc(NC(=O)Nc2ccccc2)cn1.[6*]c1c[nH]c2ccccc12

>  <ref_pdb>  (7) 
x0103

>  <original SMILES>  (7) 
O=C(Cc1ccc(NC(=O)Nc2ccccc2)cn1)NCc1c[nH]c2ccccc12

>  <ref_mols>  (7) 
x0103_0A,x0032_0A

$$$$
selected_mols7
     RDKit          3D

 31 34  0  0  0  0  0  0  0  0999 V2000
   13.0969   11.1578   -1.2446 C   0  0  0  0  0  0  0  0  0  0  0  0
   11.9127   10.7936   -1.8133 N   0  0  0  0  0  0  0  0  0  0  0  0
   10.7719   11.5163   -1.6183 C   0  0  0  0  0  0  0  0  0  0  0  0
    9.5495   11.1588   -2.2713 N   0  0  0  0  0  0  0  0  0  0  0  0
    9.4857   10.9396   -3.6848 C   0  0  0  0  0  0  0  0  0  0  0  0
   10.5192   10.6130   -4.3292 O   0  0  0  0  0  0  0  0  0  0  0  0
    8.1923   11.1489   -4.4131 C   0  0  0  0  0  0  0  0  0  0  0  0
    7.7861   12.5988   -4.4024 C   0  0  0  0  0  0  0  0  0  0  0  0
    6.8075   12.9698   -3.7013 O   0  0  0  0  0  0  0  0  0  0  0  0
    8.4726   13.5782   -5.2580 C   0  0  0  0  0  0  0  0  0  0  0  0
    9.8303   13.8553   -5.2801 C   0  0  0  0  0  0  0  0  0  0  0  0
   10.1782   14.5555   -6.3776 N   0  0  0  0  0  0  0  0  0  0  0  0
    9.0365   14.7314   -7.0617 C   0  0  0  0  0  0  0  0  0  0  0  0
    8.8898   15.3328   -8.3092 C   0  0  0  0  0  0  0  0  0  0  0  0
    7.6067   15.3447   -8.8865 C   0  0  0  0  0  0  0  0  0  0  0  0
    6.5158   14.7433   -8.2200 C   0  0  0  0  0  0  0  0  0  0  0  0
    6.6971   14.1258   -6.9689 C   0  0  0  0  0  0  0  0  0  0  0  0
    7.9747   14.1523   -6.4092 C   0  0  0  0  0  0  0  0  0  0  0  0
   10.7956   12.6410   -0.7926 C   0  0  0  0  0  0  0  0  0  0  0  0
   11.9951   13.0414   -0.2174 C   0  0  0  0  0  0  0  0  0  0  0  0
   13.1710   12.3172   -0.4477 C   0  0  0  0  0  0  0  0  0  0  0  0
   14.3763   12.7463    0.2109 N   0  0  0  0  0  0  0  0  0  0  0  0
   15.7279   12.4163   -0.1386 C   0  0  0  0  0  0  0  0  0  0  0  0
   15.9936   11.8475   -1.2308 O   0  0  0  0  0  0  0  0  0  0  0  0
   16.7718   12.7513    0.7893 N   0  0  0  0  0  0  0  0  0  0  0  0
   18.1828   12.7771    0.5141 C   0  0  0  0  0  0  0  0  0  0  0  0
   19.0813   12.6648    1.5886 C   0  0  0  0  0  0  0  0  0  0  0  0
   20.4581   12.7559    1.3767 C   0  0  0  0  0  0  0  0  0  0  0  0
   20.9537   12.9588    0.0868 C   0  0  0  0  0  0  0  0  0  0  0  0
   20.0708   13.0863   -0.9892 C   0  0  0  0  0  0  0  0  0  0  0  0
   18.6896   13.0066   -0.7793 C   0  0  0  0  0  0  0  0  0  0  0  0
  1  2  2  0
  2  3  1  0
  3  4  1  0
  4  5  1  0
  5  6  2  0
  5  7  1  0
  7  8  1  0
  8  9  2  0
  8 10  1  0
 10 11  2  0
 11 12  1  0
 12 13  1  0
 13 14  2  0
 14 15  1  0
 15 16  2  0
 16 17  1  0
 17 18  2  0
  3 19  2  0
 19 20  1  0
 20 21  2  0
 21 22  1  0
 22 23  1  0
 23 24  2  0
 23 25  1  0
 25 26  1  0
 26 27  2  0
 27 28  1  0
 28 29  2  0
 29 30  1  0
 30 31  2  0
 21  1  1  0
 31 26  1  0
 18 10  1  0
 18 13  1  0
M  END
>  <_Model>  (8) 
3

>  <_StartingPoint>  (8) 
*c1ccc(NC(=O)Nc2ccccc2)cn1.[6*]c1c[nH]c2ccccc12

>  <ref_pdb>  (8) 
x0103

>  <original SMILES>  (8) 
O=C(CC(=O)c1c[nH]c2ccccc12)Nc1ccc(NC(=O)Nc2ccccc2)cn1

>  <ref_mols>  (8) 
x0103_0A,x0032_0A

$$$$
selected_mols8
     RDKit          3D

 30 33  0  0  0  0  0  0  0  0999 V2000
   13.2234   11.2569   -1.5273 C   0  0  0  0  0  0  0  0  0  0  0  0
   12.0469   10.7091   -1.9401 N   0  0  0  0  0  0  0  0  0  0  0  0
   10.8423   11.1492   -1.4835 C   0  0  0  0  0  0  0  0  0  0  0  0
    9.5757   10.5243   -1.9912 C   0  0  0  0  0  0  0  0  0  0  0  0
    9.0782   11.2406   -3.1658 N   0  0  0  0  0  0  0  0  0  0  0  0
    8.2566   12.4150   -3.0701 C   0  0  0  0  0  0  0  0  0  0  0  0
    8.1562   13.0388   -1.9803 O   0  0  0  0  0  0  0  0  0  0  0  0
    7.4925   12.9021   -4.2652 C   0  0  0  0  0  0  0  0  0  0  0  0
    8.3343   13.6867   -5.2343 C   0  0  0  0  0  0  0  0  0  0  0  0
    9.7092   13.8951   -5.2374 C   0  0  0  0  0  0  0  0  0  0  0  0
   10.1126   14.5288   -6.3585 N   0  0  0  0  0  0  0  0  0  0  0  0
    8.9958   14.7357   -7.0737 C   0  0  0  0  0  0  0  0  0  0  0  0
    8.8953   15.3387   -8.3265 C   0  0  0  0  0  0  0  0  0  0  0  0
    7.6202   15.4240   -8.9144 C   0  0  0  0  0  0  0  0  0  0  0  0
    6.4884   14.9051   -8.2474 C   0  0  0  0  0  0  0  0  0  0  0  0
    6.6210   14.2971   -6.9857 C   0  0  0  0  0  0  0  0  0  0  0  0
    7.8963   14.2353   -6.4222 C   0  0  0  0  0  0  0  0  0  0  0  0
   10.7985   12.2022   -0.5656 C   0  0  0  0  0  0  0  0  0  0  0  0
   11.9855   12.7929   -0.1429 C   0  0  0  0  0  0  0  0  0  0  0  0
   13.2221   12.3302   -0.6132 C   0  0  0  0  0  0  0  0  0  0  0  0
   14.4170   13.0198   -0.1899 N   0  0  0  0  0  0  0  0  0  0  0  0
   15.7602   12.5072   -0.1597 C   0  0  0  0  0  0  0  0  0  0  0  0
   16.0505   11.4084   -0.7028 O   0  0  0  0  0  0  0  0  0  0  0  0
   16.7652   13.2458    0.5533 N   0  0  0  0  0  0  0  0  0  0  0  0
   18.1799   13.0191    0.4460 C   0  0  0  0  0  0  0  0  0  0  0  0
   19.0013   13.2725    1.5565 C   0  0  0  0  0  0  0  0  0  0  0  0
   20.3869   13.1115    1.4647 C   0  0  0  0  0  0  0  0  0  0  0  0
   20.9659   12.7143    0.2575 C   0  0  0  0  0  0  0  0  0  0  0  0
   20.1598   12.4805   -0.8595 C   0  0  0  0  0  0  0  0  0  0  0  0
   18.7719   12.6315   -0.7697 C   0  0  0  0  0  0  0  0  0  0  0  0
  1  2  2  0
  2  3  1  0
  3  4  1  0
  4  5  1  0
  5  6  1  0
  6  7  2  0
  6  8  1  0
  8  9  1  0
  9 10  2  0
 10 11  1  0
 11 12  1  0
 12 13  2  0
 13 14  1  0
 14 15  2  0
 15 16  1  0
 16 17  2  0
  3 18  2  0
 18 19  1  0
 19 20  2  0
 20 21  1  0
 21 22  1  0
 22 23  2  0
 22 24  1  0
 24 25  1  0
 25 26  2  0
 26 27  1  0
 27 28  2  0
 28 29  1  0
 29 30  2  0
 20  1  1  0
 30 25  1  0
 17  9  1  0
 17 12  1  0
M  END
>  <_Model>  (9) 
30

>  <_StartingPoint>  (9) 
*c1ccc(NC(=O)Nc2ccccc2)cn1.[6*]c1c[nH]c2ccccc12

>  <ref_pdb>  (9) 
x0103

>  <original SMILES>  (9) 
O=C(Cc1c[nH]c2ccccc12)NCc1ccc(NC(=O)Nc2ccccc2)cn1

>  <ref_mols>  (9) 
x0103_0A,x0032_0A

$$$$
selected_mols9
     RDKit          3D

 31 34  0  0  0  0  0  0  0  0999 V2000
   13.1988   10.9288   -0.9093 C   0  0  0  0  0  0  0  0  0  0  0  0
   12.1616   10.4315   -1.6327 N   0  0  0  0  0  0  0  0  0  0  0  0
   11.0900   11.1922   -1.9904 C   0  0  0  0  0  0  0  0  0  0  0  0
   10.0794   10.6065   -2.8991 C   0  0  0  0  0  0  0  0  0  0  0  0
   10.1812    9.3938   -3.2271 O   0  0  0  0  0  0  0  0  0  0  0  0
    9.0450   11.3956   -3.4954 N   0  0  0  0  0  0  0  0  0  0  0  0
    7.8468   11.7354   -2.7330 C   0  0  0  0  0  0  0  0  0  0  0  0
    6.9559   12.7259   -3.4980 C   0  0  0  0  0  0  0  0  0  0  0  0
    7.6130   14.1011   -3.7033 C   0  0  0  0  0  0  0  0  0  0  0  0
    8.3977   14.1804   -4.9842 C   0  0  0  0  0  0  0  0  0  0  0  0
    9.7779   14.1990   -5.1186 C   0  0  0  0  0  0  0  0  0  0  0  0
   10.1487   14.4225   -6.3959 N   0  0  0  0  0  0  0  0  0  0  0  0
    9.0034   14.5637   -7.0793 C   0  0  0  0  0  0  0  0  0  0  0  0
    8.8638   14.8621   -8.4327 C   0  0  0  0  0  0  0  0  0  0  0  0
    7.5607   15.0057   -8.9425 C   0  0  0  0  0  0  0  0  0  0  0  0
    6.4392   14.8546   -8.0965 C   0  0  0  0  0  0  0  0  0  0  0  0
    6.6101   14.5616   -6.7313 C   0  0  0  0  0  0  0  0  0  0  0  0
    7.9133   14.4177   -6.2556 C   0  0  0  0  0  0  0  0  0  0  0  0
   11.0278   12.5278   -1.5596 C   0  0  0  0  0  0  0  0  0  0  0  0
   12.0872   13.0635   -0.8247 C   0  0  0  0  0  0  0  0  0  0  0  0
   13.2070   12.2782   -0.5263 C   0  0  0  0  0  0  0  0  0  0  0  0
   14.3166   12.8567    0.1810 N   0  0  0  0  0  0  0  0  0  0  0  0
   15.6905   12.5121   -0.0556 C   0  0  0  0  0  0  0  0  0  0  0  0
   16.0033   11.7740   -1.0291 O   0  0  0  0  0  0  0  0  0  0  0  0
   16.7053   13.0159    0.8263 N   0  0  0  0  0  0  0  0  0  0  0  0
   18.1173   12.9265    0.5691 C   0  0  0  0  0  0  0  0  0  0  0  0
   19.0046   12.7740    1.6465 C   0  0  0  0  0  0  0  0  0  0  0  0
   20.3836   12.7073    1.4242 C   0  0  0  0  0  0  0  0  0  0  0  0
   20.8890   12.8079    0.1257 C   0  0  0  0  0  0  0  0  0  0  0  0
   20.0166   12.9838   -0.9514 C   0  0  0  0  0  0  0  0  0  0  0  0
   18.6367   13.0501   -0.7334 C   0  0  0  0  0  0  0  0  0  0  0  0
  1  2  2  0
  2  3  1  0
  3  4  1  0
  4  5  2  0
  4  6  1  0
  6  7  1  0
  7  8  1  0
  8  9  1  0
  9 10  1  0
 10 11  2  0
 11 12  1  0
 12 13  1  0
 13 14  2  0
 14 15  1  0
 15 16  2  0
 16 17  1  0
 17 18  2  0
  3 19  2  0
 19 20  1  0
 20 21  2  0
 21 22  1  0
 22 23  1  0
 23 24  2  0
 23 25  1  0
 25 26  1  0
 26 27  2  0
 27 28  1  0
 28 29  2  0
 29 30  1  0
 30 31  2  0
 21  1  1  0
 31 26  1  0
 18 10  1  0
 18 13  1  0
M  END
>  <_Model>  (10) 
47

>  <_StartingPoint>  (10) 
*c1ccc(NC(=O)Nc2ccccc2)cn1.[6*]c1c[nH]c2ccccc12

>  <ref_pdb>  (10) 
x0103

>  <original SMILES>  (10) 
O=C(Nc1ccccc1)Nc1ccc(C(=O)NCCCc2c[nH]c3ccccc23)nc1

>  <ref_mols>  (10) 
x0103_0A,x0032_0A

$$$$
selected_mols10
     RDKit          3D

 30 33  0  0  0  0  0  0  0  0999 V2000
   13.1551   11.0425   -1.1214 C   0  0  0  0  0  0  0  0  0  0  0  0
   12.0088   10.5392   -1.6534 N   0  0  0  0  0  0  0  0  0  0  0  0
   10.8314   11.2218   -1.6205 C   0  0  0  0  0  0  0  0  0  0  0  0
    9.5950   10.5962   -2.2084 C   0  0  0  0  0  0  0  0  0  0  0  0
    9.0888   11.3662   -3.4307 C   0  0  0  0  0  0  0  0  0  0  0  0
    8.3281   12.4996   -3.0132 O   0  0  0  0  0  0  0  0  0  0  0  0
    7.7911   13.4381   -3.9011 C   0  0  0  0  0  0  0  0  0  0  0  0
    6.6669   13.9423   -3.6436 O   0  0  0  0  0  0  0  0  0  0  0  0
    8.5270   13.8870   -5.0962 C   0  0  0  0  0  0  0  0  0  0  0  0
    9.8961   14.0840   -5.1976 C   0  0  0  0  0  0  0  0  0  0  0  0
   10.2408   14.5399   -6.4183 N   0  0  0  0  0  0  0  0  0  0  0  0
    9.0856   14.6628   -7.0914 C   0  0  0  0  0  0  0  0  0  0  0  0
    8.9174   15.1144   -8.3998 C   0  0  0  0  0  0  0  0  0  0  0  0
    7.6095   15.1677   -8.9147 C   0  0  0  0  0  0  0  0  0  0  0  0
    6.5107   14.7721   -8.1204 C   0  0  0  0  0  0  0  0  0  0  0  0
    6.7084   14.3209   -6.8027 C   0  0  0  0  0  0  0  0  0  0  0  0
    8.0162   14.2826   -6.3161 C   0  0  0  0  0  0  0  0  0  0  0  0
   10.7843   12.4817   -1.0106 C   0  0  0  0  0  0  0  0  0  0  0  0
   11.9489   13.0234   -0.4662 C   0  0  0  0  0  0  0  0  0  0  0  0
   13.1578   12.3149   -0.5223 C   0  0  0  0  0  0  0  0  0  0  0  0
   14.3260   12.8705    0.1126 N   0  0  0  0  0  0  0  0  0  0  0  0
   15.6910   12.5161   -0.1624 C   0  0  0  0  0  0  0  0  0  0  0  0
   15.9900   11.8644   -1.1993 O   0  0  0  0  0  0  0  0  0  0  0  0
   16.7133   12.9197    0.7627 N   0  0  0  0  0  0  0  0  0  0  0  0
   18.1279   12.8723    0.5052 C   0  0  0  0  0  0  0  0  0  0  0  0
   19.0135   12.7088    1.5833 C   0  0  0  0  0  0  0  0  0  0  0  0
   20.3953   12.7036    1.3723 C   0  0  0  0  0  0  0  0  0  0  0  0
   20.9065   12.8699    0.0830 C   0  0  0  0  0  0  0  0  0  0  0  0
   20.0365   13.0534   -0.9946 C   0  0  0  0  0  0  0  0  0  0  0  0
   18.6529   13.0639   -0.7871 C   0  0  0  0  0  0  0  0  0  0  0  0
  1  2  2  0
  2  3  1  0
  3  4  1  0
  4  5  1  0
  5  6  1  0
  6  7  1  0
  7  8  2  0
  7  9  1  0
  9 10  2  0
 10 11  1  0
 11 12  1  0
 12 13  2  0
 13 14  1  0
 14 15  2  0
 15 16  1  0
 16 17  2  0
  3 18  2  0
 18 19  1  0
 19 20  2  0
 20 21  1  0
 21 22  1  0
 22 23  2  0
 22 24  1  0
 24 25  1  0
 25 26  2  0
 26 27  1  0
 27 28  2  0
 28 29  1  0
 29 30  2  0
 20  1  1  0
 30 25  1  0
 17  9  1  0
 17 12  1  0
M  END
>  <_Model>  (11) 
29

>  <_StartingPoint>  (11) 
*c1ccc(NC(=O)Nc2ccccc2)cn1.[6*]c1c[nH]c2ccccc12

>  <ref_pdb>  (11) 
x0103

>  <original SMILES>  (11) 
O=C(Nc1ccccc1)Nc1ccc(CCOC(=O)c2c[nH]c3ccccc23)nc1

>  <ref_mols>  (11) 
x0103_0A,x0032_0A

$$$$
selected_mols11
     RDKit          3D

 29 32  0  0  0  0  0  0  0  0999 V2000
   13.0805   11.1571   -1.2377 C   0  0  0  0  0  0  0  0  0  0  0  0
   11.8870   10.7578   -1.7616 N   0  0  0  0  0  0  0  0  0  0  0  0
   10.7346   11.4598   -1.5677 C   0  0  0  0  0  0  0  0  0  0  0  0
    9.5438   10.9872   -2.1489 O   0  0  0  0  0  0  0  0  0  0  0  0
    8.2556   11.5988   -2.0055 C   0  0  0  0  0  0  0  0  0  0  0  0
    8.1349   12.8652   -2.8687 C   0  0  0  0  0  0  0  0  0  0  0  0
    7.9841   12.5266   -4.3600 C   0  0  0  0  0  0  0  0  0  0  0  0
    8.5673   13.5964   -5.2410 C   0  0  0  0  0  0  0  0  0  0  0  0
    9.9062   13.9582   -5.2775 C   0  0  0  0  0  0  0  0  0  0  0  0
   10.2078   14.6610   -6.3845 N   0  0  0  0  0  0  0  0  0  0  0  0
    9.0533   14.7646   -7.0613 C   0  0  0  0  0  0  0  0  0  0  0  0
    8.8611   15.3633   -8.3041 C   0  0  0  0  0  0  0  0  0  0  0  0
    7.5736   15.3093   -8.8678 C   0  0  0  0  0  0  0  0  0  0  0  0
    6.5229   14.6521   -8.1905 C   0  0  0  0  0  0  0  0  0  0  0  0
    6.7490   14.0424   -6.9429 C   0  0  0  0  0  0  0  0  0  0  0  0
    8.0313   14.1250   -6.3998 C   0  0  0  0  0  0  0  0  0  0  0  0
   10.7711   12.6257   -0.7860 C   0  0  0  0  0  0  0  0  0  0  0  0
   11.9810   13.0606   -0.2574 C   0  0  0  0  0  0  0  0  0  0  0  0
   13.1582   12.3388   -0.4780 C   0  0  0  0  0  0  0  0  0  0  0  0
   14.3655   12.7860    0.1671 N   0  0  0  0  0  0  0  0  0  0  0  0
   15.7148   12.4272   -0.1630 C   0  0  0  0  0  0  0  0  0  0  0  0
   15.9825   11.8467   -1.2488 O   0  0  0  0  0  0  0  0  0  0  0  0
   16.7551   12.7480    0.7741 N   0  0  0  0  0  0  0  0  0  0  0  0
   18.1672   12.7728    0.5031 C   0  0  0  0  0  0  0  0  0  0  0  0
   19.0637   12.6505    1.5784 C   0  0  0  0  0  0  0  0  0  0  0  0
   20.4414   12.7405    1.3696 C   0  0  0  0  0  0  0  0  0  0  0  0
   20.9398   12.9532    0.0825 C   0  0  0  0  0  0  0  0  0  0  0  0
   20.0589   13.0901   -0.9941 C   0  0  0  0  0  0  0  0  0  0  0  0
   18.6772   13.0108   -0.7874 C   0  0  0  0  0  0  0  0  0  0  0  0
  1  2  2  0
  2  3  1  0
  3  4  1  0
  4  5  1  0
  5  6  1  0
  6  7  1  0
  7  8  1  0
  8  9  2  0
  9 10  1  0
 10 11  1  0
 11 12  2  0
 12 13  1  0
 13 14  2  0
 14 15  1  0
 15 16  2  0
  3 17  2  0
 17 18  1  0
 18 19  2  0
 19 20  1  0
 20 21  1  0
 21 22  2  0
 21 23  1  0
 23 24  1  0
 24 25  2  0
 25 26  1  0
 26 27  2  0
 27 28  1  0
 28 29  2  0
 19  1  1  0
 29 24  1  0
 16  8  1  0
 16 11  1  0
M  END
>  <_Model>  (12) 
41

>  <_StartingPoint>  (12) 
*c1ccc(NC(=O)Nc2ccccc2)cn1.[6*]c1c[nH]c2ccccc12

>  <ref_pdb>  (12) 
x0103

>  <original SMILES>  (12) 
O=C(Nc1ccccc1)Nc1ccc(OCCCc2c[nH]c3ccccc23)nc1

>  <ref_mols>  (12) 
x0103_0A,x0032_0A

$$$$
