ver_1.2
     RDKit          2D

  1  0  0  0  0  0  0  0  0  0999 V2000
    0.0000    0.0000    0.0000 C   0  0  0  0  0  0  0  0  0  0  0  0
M  END
>  <submitter_name>  (1) 
RSG-WT

>  <submitter_email>  (1) 
warren.thompson@diamond.ac.uk

>  <submitter_institution>  (1) 
Diamond Light Source

>  <method>  (1) 
Fragmenstein

>  <ref_url>  (1) 
https://github.com/matteoferla/Fragmenstein

>  <original SMILES>  (1) 
The SMILES of the compound

>  <ref_pdb>  (1) 
A pdb included in fragalysis or uploaded. E.g. x0830_0

>  <ref_mols>  (1) 
The inspirational fragments usded to propose the compound

>  <generation_date>  (1) 
2022-09-06

>  <ddG_score>  (1) 
Score ddG_score

>  <fragmensteinOld_score>  (1) 
Score fragmensteinOld_score

>  <LE_score>  (1) 
Score LE_score

>  <comRMSD_score>  (1) 
Score comRMSD_score

>  <fragmensteinNew_score>  (1) 
Score fragmensteinNew_score

>  <aLogP_score>  (1) 
Score aLogP_score

>  <hbondD_score>  (1) 
Score hbondD_score

>  <hbondA_score>  (1) 
Score hbondA_score

>  <polarSurfaceArea_score>  (1) 
Score polarSurfaceArea_score

>  <rotableBonds_score>  (1) 
Score rotableBonds_score

>  <QED_score>  (1) 
Score QED_score

>  <energyPoseVsEnsemble_score>  (1) 
Score energyPoseVsEnsemble_score

>  <sucos_score>  (1) 
Score sucos_score

>  <interactions_conservation_score>  (1) 
Score interactions_conservation_score

>  <interactions_novelty_score>  (1) 
Score interactions_novelty_score

>  <SAscore_score>  (1) 
Score SAscore_score

>  <SCScore_score>  (1) 
Score SCScore_score

>  <CAR_friendly>  (1) 
Set to one if the synthesis is less than $100 and CAR friendly

$$$$
0_SOS3-x1154_00_Frag_0-SOS3-x1621_00_Frag
     RDKit          3D

 23 25  0  0  0  0  0  0  0  0999 V2000
   50.0170   25.0740    3.0660 F   0  0  0  0  0  0  0  0  0  0  0  0
   50.3400   26.0660    3.8780 C   0  0  0  0  0  0  0  0  0  0  0  0
   50.3010   27.3550    3.3830 C   0  0  0  0  0  0  0  0  0  0  0  0
   50.7060   25.7830    5.1950 C   0  0  0  0  0  0  0  0  0  0  0  0
   50.6630   24.4090    5.5710 N   0  0  0  0  0  0  0  0  0  0  0  0
   51.0670   26.7880    6.0210 N   0  0  0  0  0  0  0  0  0  0  0  0
   50.6530   28.3690    4.2130 C   0  0  0  0  0  0  0  0  0  0  0  0
   51.4740   23.8760    6.6590 C   0  0  0  0  0  0  0  0  0  0  0  0
   51.0310   28.0360    5.4800 C   0  0  0  0  0  0  0  0  0  0  0  0
   50.6360   23.1150    7.7040 C   0  0  0  0  0  0  0  0  0  0  0  0
   51.4180   29.0710    6.2230 O   0  0  0  0  0  0  0  0  0  0  0  0
   51.2640   23.1410    9.1070 C   0  0  0  0  0  0  0  0  0  0  0  0
   49.1940   23.6400    7.8060 C   0  0  0  0  0  0  0  0  0  0  0  0
   52.7040   29.4230    5.8630 C   0  0  0  0  0  0  0  0  0  0  0  0
   50.2750   22.6470   10.1470 C   0  0  0  0  0  0  0  0  0  0  0  0
   48.3970   22.7830    8.7740 C   0  0  0  0  0  0  0  0  0  0  0  0
   53.1330   30.0720    4.6820 C   0  0  0  0  0  0  0  0  0  0  0  0
   53.6160   29.0810    6.7960 C   0  0  0  0  0  0  0  0  0  0  0  0
   49.2230   21.9160    9.5450 O   0  0  0  0  0  0  0  0  0  0  0  0
   54.4950   30.3660    4.5190 C   0  0  0  0  0  0  0  0  0  0  0  0
   54.9220   29.3690    6.6350 C   0  0  0  0  0  0  0  0  0  0  0  0
   55.3820   30.0120    5.5080 C   0  0  0  0  0  0  0  0  0  0  0  0
   56.6790   30.2940    5.3690 F   0  0  0  0  0  0  0  0  0  0  0  0
  1  2  1  0
  2  3  2  0
  2  4  1  0
  4  5  1  0
  4  6  2  0
  3  7  1  0
  5  8  1  0
  6  9  1  0
  7  9  2  0
 10  8  1  0
  9 11  1  0
 10 12  1  0
 10 13  1  0
 11 14  1  0
 12 15  1  0
 13 16  1  0
 14 17  2  0
 14 18  1  0
 15 19  1  0
 16 19  1  0
 17 20  1  0
 18 21  2  0
 20 22  2  0
 21 22  1  0
 22 23  1  0
M  END
>  <ref_pdb>  (2) 
H-SOS3-x1154_00_Frag_0-SOS3-x1621_00_Frag_2.pdb

>  <ref_mols>  (2) 
x1154_2A,x1621_2A

>  <ddG_score>  (2) 
-7.666659846529744

>  <fragmensteinOld_score>  (2) 
-2.380433966945626

>  <LE_score>  (2) 
-0.333333036805641

>  <comRMSD_score>  (2) 
1.1528980023603232

>  <fragmensteinNew_score>  (2) 
0.41080917158096036

>  <aLogP_score>  (2) 
3.9906000000000033

>  <hbondD_score>  (2) 
1

>  <hbondA_score>  (2) 
4

>  <polarSurfaceArea_score>  (2) 
43.38000000000001

>  <rotableBonds_score>  (2) 
5

>  <QED_score>  (2) 
0.9044358598081701

>  <energyPoseVsEnsemble_score>  (2) 
1.9032665719826747

>  <sucos_score>  (2) 
0.7741286879464164

>  <interactions_conservation_score>  (2) 
0.5477225575051662

>  <interactions_novelty_score>  (2) 
0.14285714285714285

>  <SAscore_score>  (2) 
2.300235295361894

>  <SCScore_score>  (2) 
3.6434708777805027

>  <original SMILES>  (2) 
Fc1ccc(Oc2ccc(F)c(NCC3CCOCC3)n2)cc1

>  <CAR_friendly>  (2) 
0

$$$$
1_SOS3-x1154_00_Frag_2-SOS3-x1621_00_Frag
     RDKit          3D

 16 17  0  0  0  0  0  0  0  0999 V2000
   50.8400   24.4940    5.6650 N   0  0  0  0  0  0  0  0  0  0  0  0
   50.7420   25.8550    5.1440 C   0  0  0  0  0  0  0  0  0  0  0  0
   50.3490   26.0730    3.8300 C   0  0  0  0  0  0  0  0  0  0  0  0
   51.0450   26.8730    5.9630 N   0  0  0  0  0  0  0  0  0  0  0  0
   50.0770   25.0420    3.0420 F   0  0  0  0  0  0  0  0  0  0  0  0
   50.9390   28.1060    5.4130 C   0  0  0  0  0  0  0  0  0  0  0  0
   50.2370   27.3550    3.3210 C   0  0  0  0  0  0  0  0  0  0  0  0
   50.5400   28.4010    4.1410 C   0  0  0  0  0  0  0  0  0  0  0  0
   51.2540   29.2390    6.0660 O   0  0  0  0  0  0  0  0  0  0  0  0
   52.5840   29.4930    5.8420 C   0  0  0  0  0  0  0  0  0  0  0  0
   53.0410   30.1770    4.6980 C   0  0  0  0  0  0  0  0  0  0  0  0
   53.4450   29.0460    6.7840 C   0  0  0  0  0  0  0  0  0  0  0  0
   54.5300   30.4460    4.5220 C   0  0  0  0  0  0  0  0  0  0  0  0
   54.9060   29.2670    6.6920 C   0  0  0  0  0  0  0  0  0  0  0  0
   55.4120   30.0130    5.4820 C   0  0  0  0  0  0  0  0  0  0  0  0
   56.7180   30.2600    5.3300 F   0  0  0  0  0  0  0  0  0  0  0  0
  1  2  1  0
  2  3  2  0
  2  4  1  0
  3  5  1  0
  4  6  2  0
  3  7  1  0
  6  8  1  0
  7  8  2  0
  6  9  1  0
  9 10  1  0
 10 11  2  0
 10 12  1  0
 11 13  1  0
 12 14  2  0
 13 15  2  0
 14 15  1  0
 15 16  1  0
M  END
>  <ref_pdb>  (3) 
H-SOS3-x1154_00_Frag_2-SOS3-x1621_00_Frag_2.pdb

>  <ref_mols>  (3) 
x1154_2A,x1621_2A

>  <ddG_score>  (3) 
-4.92312714143464

>  <fragmensteinOld_score>  (3) 
-0.8541937144490059

>  <LE_score>  (3) 
-0.307695446339665

>  <comRMSD_score>  (3) 
1.4304317138379221

>  <fragmensteinNew_score>  (3) 
1.7369808358199232

>  <aLogP_score>  (3) 
2.734300000000001

>  <hbondD_score>  (3) 
1

>  <hbondA_score>  (3) 
3

>  <polarSurfaceArea_score>  (3) 
48.14

>  <rotableBonds_score>  (3) 
2

>  <QED_score>  (3) 
0.8493324151101509

>  <energyPoseVsEnsemble_score>  (3) 
2.7667716871207526

>  <sucos_score>  (3) 
0.7519669189321132

>  <interactions_conservation_score>  (3) 
0.4

>  <interactions_novelty_score>  (3) 
0.16666666666666666

>  <SAscore_score>  (3) 
2.017631552271409

>  <SCScore_score>  (3) 
2.40926967534813

>  <original SMILES>  (3) 
Nc1nc(Oc2ccc(F)cc2)ccc1F

>  <CAR_friendly>  (3) 
0

$$$$
2_SOS3-x1154_00_Frag_3-SOS3-x1621_00_Frag
     RDKit          3D

 15 16  0  0  0  0  0  0  0  0999 V2000
   50.0860   25.0270    3.0700 F   0  0  0  0  0  0  0  0  0  0  0  0
   50.3540   26.0640    3.8410 C   0  0  0  0  0  0  0  0  0  0  0  0
   50.7580   25.8760    5.1440 C   0  0  0  0  0  0  0  0  0  0  0  0
   50.2270   27.3400    3.3270 C   0  0  0  0  0  0  0  0  0  0  0  0
   51.0600   26.9030    5.9590 N   0  0  0  0  0  0  0  0  0  0  0  0
   50.5300   28.3920    4.1430 C   0  0  0  0  0  0  0  0  0  0  0  0
   50.9440   28.1310    5.4140 C   0  0  0  0  0  0  0  0  0  0  0  0
   51.2460   29.2850    6.0310 O   0  0  0  0  0  0  0  0  0  0  0  0
   52.5800   29.5130    5.8300 C   0  0  0  0  0  0  0  0  0  0  0  0
   53.0590   30.1950    4.6970 C   0  0  0  0  0  0  0  0  0  0  0  0
   53.4330   29.0490    6.7760 C   0  0  0  0  0  0  0  0  0  0  0  0
   54.5470   30.4520    4.5270 C   0  0  0  0  0  0  0  0  0  0  0  0
   54.8970   29.2560    6.6950 C   0  0  0  0  0  0  0  0  0  0  0  0
   55.4160   30.0050    5.4880 C   0  0  0  0  0  0  0  0  0  0  0  0
   56.7250   30.2430    5.3410 F   0  0  0  0  0  0  0  0  0  0  0  0
  1  2  1  0
  2  3  2  0
  2  4  1  0
  3  5  1  0
  4  6  2  0
  5  7  2  0
  6  7  1  0
  7  8  1  0
  8  9  1  0
  9 10  2  0
  9 11  1  0
 10 12  1  0
 11 13  2  0
 12 14  2  0
 13 14  1  0
 14 15  1  0
M  END
>  <ref_pdb>  (4) 
H-SOS3-x1154_00_Frag_3-SOS3-x1621_00_Frag_2.pdb

>  <ref_mols>  (4) 
x1154_2A,x1621_2A

>  <ddG_score>  (4) 
-5.116405394986633

>  <fragmensteinOld_score>  (4) 
-0.7416535150696448

>  <LE_score>  (4) 
-0.34109369299910886

>  <comRMSD_score>  (4) 
1.4816275639276817

>  <fragmensteinNew_score>  (4) 
2.032535679010528

>  <aLogP_score>  (4) 
3.152100000000001

>  <hbondD_score>  (4) 
0

>  <hbondA_score>  (4) 
2

>  <polarSurfaceArea_score>  (4) 
22.12

>  <rotableBonds_score>  (4) 
2

>  <QED_score>  (4) 
0.7541425942724962

>  <energyPoseVsEnsemble_score>  (4) 
2.885597591865568

>  <sucos_score>  (4) 
0.7425666522521988

>  <interactions_conservation_score>  (4) 
0.6324555320336759

>  <interactions_novelty_score>  (4) 
0.0

>  <SAscore_score>  (4) 
1.738972832578515

>  <SCScore_score>  (4) 
2.0537922817845566

>  <original SMILES>  (4) 
Fc1ccc(Oc2ccc(F)cn2)cc1

>  <CAR_friendly>  (4) 
1

$$$$
3_SOS3-x1154_00_Frag_4-SOS3-x1621_00_Frag
     RDKit          3D

 21 22  0  0  0  0  0  0  0  0999 V2000
   50.7340   23.9510    5.4770 N   0  0  0  0  0  0  0  0  0  0  0  0
   51.4510   23.6950    6.7150 C   0  0  0  0  0  0  0  0  0  0  0  0
   50.6380   22.8740    7.7130 C   0  0  0  0  0  0  0  0  0  0  0  0
   51.4830   24.6740    4.4830 C   0  0  0  0  0  0  0  0  0  0  0  0
   50.8150   25.9570    4.0680 C   0  0  0  0  0  0  0  0  0  0  0  0
   49.2860   23.1860    7.6490 C   0  0  0  0  0  0  0  0  0  0  0  0
   51.0460   23.0590    9.0270 C   0  0  0  0  0  0  0  0  0  0  0  0
   51.6620   27.0700    3.4970 C   0  0  0  0  0  0  0  0  0  0  0  0
   48.4180   22.3990    8.6000 C   0  0  0  0  0  0  0  0  0  0  0  0
   50.4560   22.2560    9.9970 C   0  0  0  0  0  0  0  0  0  0  0  0
   51.8990   28.0880    4.5960 C   0  0  2  0  0  0  0  0  0  0  0  0
   49.1760   21.7160    9.6160 O   0  0  0  0  0  0  0  0  0  0  0  0
   50.7850   28.9720    4.8240 N   0  0  0  0  0  0  0  0  0  0  0  0
   53.1640   28.8430    4.8070 C   0  0  0  0  0  0  0  0  0  0  0  0
   50.3110   28.5800    6.1150 C   0  0  0  0  0  0  0  0  0  0  0  0
   53.6650   29.8070    3.9500 C   0  0  0  0  0  0  0  0  0  0  0  0
   53.7970   28.4990    5.9690 C   0  0  0  0  0  0  0  0  0  0  0  0
   54.8410   30.4550    4.2650 C   0  0  0  0  0  0  0  0  0  0  0  0
   54.9400   29.0940    6.3480 C   0  0  0  0  0  0  0  0  0  0  0  0
   55.5180   30.0640    5.5590 C   0  0  0  0  0  0  0  0  0  0  0  0
   56.6520   30.6620    5.9090 F   0  0  0  0  0  0  0  0  0  0  0  0
  1  2  1  0
  3  2  1  0
  1  4  1  0
  4  5  1  0
  3  6  1  0
  3  7  1  0
  5  8  1  0
  6  9  1  0
  7 10  1  0
 11  8  1  6
  9 12  1  0
 10 12  1  0
 11 13  1  0
 11 14  1  0
 13 15  1  0
 14 16  2  0
 14 17  1  0
 16 18  1  0
 17 19  2  0
 18 20  2  0
 19 20  1  0
 20 21  1  0
M  END
>  <ref_pdb>  (5) 
H-SOS3-x1154_00_Frag_4-SOS3-x1621_00_Frag_0.pdb

>  <ref_mols>  (5) 
x1154_2A,x1621_2A

>  <ddG_score>  (5) 
-7.612805076475228

>  <fragmensteinOld_score>  (5) 
-1.8521509183858091

>  <LE_score>  (5) 
-0.36251452745120133

>  <comRMSD_score>  (5) 
1.1704100969092361

>  <fragmensteinNew_score>  (5) 
0.8087173457393857

>  <aLogP_score>  (5) 
2.882600000000001

>  <hbondD_score>  (5) 
2

>  <hbondA_score>  (5) 
3

>  <polarSurfaceArea_score>  (5) 
33.29

>  <rotableBonds_score>  (5) 
8

>  <QED_score>  (5) 
0.7233729760749994

>  <energyPoseVsEnsemble_score>  (5) 
2.438088753536854

>  <sucos_score>  (5) 
0.8586543846353484

>  <interactions_conservation_score>  (5) 
0.6324555320336759

>  <interactions_novelty_score>  (5) 
0.0

>  <SAscore_score>  (5) 
2.682619326912688

>  <SCScore_score>  (5) 
3.7762418983199555

>  <original SMILES>  (5) 
CN[C@@H](CCCNCC1CCOCC1)c1ccc(F)cc1

>  <CAR_friendly>  (5) 
1

$$$$
4_SOS3-x1154_00_Frag_6-SOS3-x1621_00_Frag
     RDKit          3D

 17 18  0  0  0  0  0  0  0  0999 V2000
   51.4310   24.0730    6.6950 C   0  0  0  0  0  0  0  0  0  0  0  0
   50.7560   24.4960    5.5930 N   0  0  0  0  0  0  0  0  0  0  0  0
   50.7370   25.7980    5.1970 C   0  0  0  0  0  0  0  0  0  0  0  0
   51.0740   26.8010    6.0320 N   0  0  0  0  0  0  0  0  0  0  0  0
   50.3490   26.0530    3.8800 C   0  0  0  0  0  0  0  0  0  0  0  0
   50.0500   25.0360    3.0880 F   0  0  0  0  0  0  0  0  0  0  0  0
   51.0080   28.0480    5.5180 C   0  0  0  0  0  0  0  0  0  0  0  0
   50.2590   27.3370    3.3500 C   0  0  0  0  0  0  0  0  0  0  0  0
   50.5820   28.3920    4.1480 C   0  0  0  0  0  0  0  0  0  0  0  0
   51.3730   29.0920    6.2570 O   0  0  0  0  0  0  0  0  0  0  0  0
   52.6690   29.4200    5.9060 C   0  0  0  0  0  0  0  0  0  0  0  0
   53.1610   30.1540    4.6550 C   0  0  0  0  0  0  0  0  0  0  0  0
   53.5680   29.0130    6.8290 C   0  0  0  0  0  0  0  0  0  0  0  0
   54.5280   30.4130    4.4990 C   0  0  0  0  0  0  0  0  0  0  0  0
   54.8800   29.2610    6.6830 C   0  0  0  0  0  0  0  0  0  0  0  0
   55.4140   30.0010    5.4660 C   0  0  0  0  0  0  0  0  0  0  0  0
   56.7180   30.2540    5.3250 F   0  0  0  0  0  0  0  0  0  0  0  0
  1  2  1  0
  2  3  1  0
  3  4  2  0
  3  5  1  0
  5  6  1  0
  4  7  1  0
  5  8  2  0
  7  9  2  0
  8  9  1  0
  7 10  1  0
 10 11  1  0
 11 12  2  0
 11 13  1  0
 12 14  1  0
 13 15  2  0
 14 16  2  0
 15 16  1  0
 16 17  1  0
M  END
>  <ref_pdb>  (6) 
H-SOS3-x1154_00_Frag_6-SOS3-x1621_00_Frag_2.pdb

>  <ref_mols>  (6) 
x1154_2A,x1621_2A

>  <ddG_score>  (6) 
-5.47172232618843

>  <fragmensteinOld_score>  (6) 
-1.1172825013418988

>  <LE_score>  (6) 
-0.3218660191875547

>  <comRMSD_score>  (6) 
1.3770619638957873

>  <fragmensteinNew_score>  (6) 
1.413718289420657

>  <aLogP_score>  (6) 
3.1938000000000013

>  <hbondD_score>  (6) 
1

>  <hbondA_score>  (6) 
3

>  <polarSurfaceArea_score>  (6) 
34.150000000000006

>  <rotableBonds_score>  (6) 
3

>  <QED_score>  (6) 
0.8881275436374843

>  <energyPoseVsEnsemble_score>  (6) 
2.9599303513691284

>  <sucos_score>  (6) 
0.7667392283196391

>  <interactions_conservation_score>  (6) 
0.6708203932499369

>  <interactions_novelty_score>  (6) 
0.0

>  <SAscore_score>  (6) 
2.0586117741482486

>  <SCScore_score>  (6) 
3.016867647207059

>  <original SMILES>  (6) 
CNc1nc(Oc2ccc(F)cc2)ccc1F

>  <CAR_friendly>  (6) 
0

$$$$
5_SOS3-x1154_02_Frag_1-SOS3-x1621_00_Frag
     RDKit          3D

 20 21  0  0  0  0  0  0  0  0999 V2000
   53.6430   31.1810    1.8620 C   0  0  0  0  0  0  0  0  0  0  0  0
   52.3900   32.0170    2.0680 C   0  0  1  0  0  0  0  0  0  0  0  0
   51.9920   32.8200    0.8400 C   0  0  0  0  0  0  0  0  0  0  0  0
   51.1390   31.1850    2.3310 C   0  0  2  0  0  0  0  0  0  0  0  0
   50.0470   32.1750    2.7660 C   0  0  0  0  0  0  0  0  0  0  0  0
   50.8630   33.7580    1.2500 C   0  0  0  0  0  0  0  0  0  0  0  0
   51.4100   29.9930    3.0720 O   0  0  0  0  0  0  0  0  0  0  0  0
   49.7170   32.9930    1.6390 O   0  0  0  0  0  0  0  0  0  0  0  0
   51.2590   29.9520    4.4730 C   0  0  0  0  0  0  0  0  0  0  0  0
   50.9290   28.5830    4.8470 N   0  0  0  0  0  0  0  0  0  0  0  0
   52.1140   27.7360    4.7860 C   0  0  1  0  0  0  0  0  0  0  0  0
   50.2660   28.5040    6.1150 C   0  0  0  0  0  0  0  0  0  0  0  0
   52.0630   26.8640    3.5290 C   0  0  0  0  0  0  0  0  0  0  0  0
   53.3860   28.5380    5.0450 C   0  0  0  0  0  0  0  0  0  0  0  0
   53.7790   29.6500    4.2950 C   0  0  0  0  0  0  0  0  0  0  0  0
   54.2020   28.1660    6.0930 C   0  0  0  0  0  0  0  0  0  0  0  0
   54.9470   30.3450    4.6140 C   0  0  0  0  0  0  0  0  0  0  0  0
   55.3390   28.8460    6.4250 C   0  0  0  0  0  0  0  0  0  0  0  0
   55.7170   29.9350    5.6830 C   0  0  0  0  0  0  0  0  0  0  0  0
   56.8360   30.5860    6.0090 F   0  0  0  0  0  0  0  0  0  0  0  0
  2  1  1  6
  2  3  1  0
  2  4  1  0
  4  5  1  0
  3  6  1  0
  4  7  1  1
  5  8  1  0
  6  8  1  0
  7  9  1  0
  9 10  1  0
 10 11  1  0
 10 12  1  0
 11 13  1  6
 11 14  1  0
 14 15  2  0
 14 16  1  0
 15 17  1  0
 16 18  2  0
 17 19  2  0
 18 19  1  0
 19 20  1  0
M  END
>  <ref_pdb>  (7) 
H-SOS3-x1154_02_Frag_1-SOS3-x1621_00_Frag_0.pdb

>  <ref_mols>  (7) 
x1154_1A,x1621_2A

>  <ddG_score>  (7) 
-4.0322467062517395

>  <fragmensteinOld_score>  (7) 
-1.9697907762447235

>  <LE_score>  (7) 
-0.201612335312587

>  <comRMSD_score>  (7) 
0.2366585650056244

>  <fragmensteinNew_score>  (7) 
-0.7867818606503933

>  <aLogP_score>  (7) 
3.217600000000002

>  <hbondD_score>  (7) 
0

>  <hbondA_score>  (7) 
3

>  <polarSurfaceArea_score>  (7) 
21.700000000000003

>  <rotableBonds_score>  (7) 
5

>  <QED_score>  (7) 
0.7735484616459678

>  <energyPoseVsEnsemble_score>  (7) 
1.8316275530714892

>  <sucos_score>  (7) 
0.949091281576553

>  <interactions_conservation_score>  (7) 
0.447213595499958

>  <interactions_novelty_score>  (7) 
0.0

>  <SAscore_score>  (7) 
3.6223472119554287

>  <SCScore_score>  (7) 
3.868477088779243

>  <original SMILES>  (7) 
C[C@H]1CCOC[C@@H]1OCN(C)[C@@H](C)c1ccc(F)cc1

>  <CAR_friendly>  (7) 
0

$$$$
6_SOS3-x1154_02_Frag_1-SOS3-x1621_00_Frag
     RDKit          3D

 15 16  0  0  0  0  0  0  0  0999 V2000
   53.4510   30.9990    1.9310 C   0  0  0  0  0  0  0  0  0  0  0  0
   52.3860   32.0570    2.1610 C   0  0  0  0  0  0  0  0  0  0  0  0
   51.9210   32.6670    0.8390 C   0  0  0  0  0  0  0  0  0  0  0  0
   53.0910   29.8400    2.6860 O   0  0  0  0  0  0  0  0  0  0  0  0
   51.1940   31.4870    2.9760 C   0  0  0  0  0  0  0  0  0  0  0  0
   53.7300   29.6150    3.8660 C   0  0  0  0  0  0  0  0  0  0  0  0
   49.9590   32.4090    2.8500 C   0  0  0  0  0  0  0  0  0  0  0  0
   50.7820   33.6110    1.1390 C   0  0  0  0  0  0  0  0  0  0  0  0
   53.2440   28.5470    4.6100 C   0  0  0  0  0  0  0  0  0  0  0  0
   54.8020   30.3270    4.3880 C   0  0  0  0  0  0  0  0  0  0  0  0
   49.6890   32.7940    1.5100 O   0  0  0  0  0  0  0  0  0  0  0  0
   55.3310   29.9500    5.6120 C   0  0  0  0  0  0  0  0  0  0  0  0
   53.7610   28.1670    5.8130 C   0  0  0  0  0  0  0  0  0  0  0  0
   56.3630   30.6450    6.0920 F   0  0  0  0  0  0  0  0  0  0  0  0
   54.8140   28.8750    6.3320 C   0  0  0  0  0  0  0  0  0  0  0  0
  2  1  1  0
  2  3  1  0
  1  4  1  0
  2  5  1  0
  4  6  1  0
  5  7  1  0
  3  8  1  0
  6  9  2  0
  6 10  1  0
  7 11  1  0
  8 11  1  0
 10 12  2  0
  9 13  1  0
 12 14  1  0
 12 15  1  0
 13 15  2  0
M  END
>  <ref_pdb>  (8) 
H-SOS3-x1154_02_Frag_1-SOS3-x1621_00_Frag_2.pdb

>  <ref_mols>  (8) 
x1154_1A,x1621_2A

>  <ddG_score>  (8) 
-3.278476128909383

>  <fragmensteinOld_score>  (8) 
-1.4671890067923536

>  <LE_score>  (8) 
-0.21856507526062555

>  <comRMSD_score>  (8) 
0.3885062189895228

>  <fragmensteinNew_score>  (8) 
-0.03117839312730608

>  <aLogP_score>  (8) 
2.631100000000001

>  <hbondD_score>  (8) 
0

>  <hbondA_score>  (8) 
2

>  <polarSurfaceArea_score>  (8) 
18.46

>  <rotableBonds_score>  (8) 
3

>  <QED_score>  (8) 
0.7631418351462833

>  <energyPoseVsEnsemble_score>  (8) 
1.3806987030739764

>  <sucos_score>  (8) 
0.882418046289121

>  <interactions_conservation_score>  (8) 
0.6324555320336759

>  <interactions_novelty_score>  (8) 
0.0

>  <SAscore_score>  (8) 
1.9093310209018188

>  <SCScore_score>  (8) 
2.388139620227185

>  <original SMILES>  (8) 
Fc1cccc(OCC2CCOCC2)c1

>  <CAR_friendly>  (8) 
1

$$$$
7_SOS3-x1154_02_Frag_4-SOS3-x1621_00_Frag
     RDKit          3D

 19 20  0  0  0  0  0  0  0  0999 V2000
   54.6880   31.2330    3.1430 N   0  0  0  0  0  0  0  0  0  0  0  0
   53.7930   31.2250    1.9590 C   0  0  0  0  0  0  0  0  0  0  0  0
   52.5490   32.1170    2.1490 C   0  0  0  0  0  0  0  0  0  0  0  0
   54.4610   30.2690    4.1280 C   0  0  0  0  0  0  0  0  0  0  0  0
   55.2640   30.0490    5.2650 C   0  0  0  0  0  0  0  0  0  0  0  0
   53.3590   29.4750    3.9660 C   0  0  0  0  0  0  0  0  0  0  0  0
   51.3690   31.4800    2.9570 C   0  0  0  0  0  0  0  0  0  0  0  0
   52.0020   32.6140    0.8070 C   0  0  0  0  0  0  0  0  0  0  0  0
   56.3700   30.7290    5.5480 F   0  0  0  0  0  0  0  0  0  0  0  0
   53.0340   28.4860    4.8690 C   0  0  0  0  0  0  0  0  0  0  0  0
   54.9100   29.0720    6.1640 C   0  0  0  0  0  0  0  0  0  0  0  0
   50.0700   32.3330    2.8390 C   0  0  0  0  0  0  0  0  0  0  0  0
   50.8310   33.5270    1.0960 C   0  0  0  0  0  0  0  0  0  0  0  0
   51.8250   27.6360    4.6670 C   0  0  2  0  0  0  0  0  0  0  0  0
   53.8300   28.3100    5.9530 C   0  0  0  0  0  0  0  0  0  0  0  0
   49.7580   32.6970    1.5030 O   0  0  0  0  0  0  0  0  0  0  0  0
   51.7630   26.7600    3.4210 C   0  0  0  0  0  0  0  0  0  0  0  0
   50.6620   28.4820    4.8180 N   0  0  0  0  0  0  0  0  0  0  0  0
   50.1830   28.3620    6.1530 C   0  0  0  0  0  0  0  0  0  0  0  0
  1  2  1  0
  3  2  1  0
  1  4  1  0
  4  5  2  0
  4  6  1  0
  3  7  1  0
  3  8  1  0
  5  9  1  0
  6 10  2  0
  5 11  1  0
  7 12  1  0
  8 13  1  0
 10 14  1  0
 10 15  1  0
 11 15  2  0
 12 16  1  0
 13 16  1  0
 14 17  1  6
 14 18  1  0
 18 19  1  0
M  END
>  <ref_pdb>  (9) 
H-SOS3-x1154_02_Frag_4-SOS3-x1621_00_Frag_0.pdb

>  <ref_mols>  (9) 
x1154_1A,x1621_2A

>  <ddG_score>  (9) 
-3.4847055688756727

>  <fragmensteinOld_score>  (9) 
-1.4062598975236966

>  <LE_score>  (9) 
-0.18340555625661437

>  <comRMSD_score>  (9) 
1.1906812162514377

>  <fragmensteinNew_score>  (9) 
0.5283685556183757

>  <aLogP_score>  (9) 
2.944600000000001

>  <hbondD_score>  (9) 
2

>  <hbondA_score>  (9) 
3

>  <polarSurfaceArea_score>  (9) 
33.29

>  <rotableBonds_score>  (9) 
5

>  <QED_score>  (9) 
0.8593938333308196

>  <energyPoseVsEnsemble_score>  (9) 
1.3141027957516391

>  <sucos_score>  (9) 
0.795423958143909

>  <interactions_conservation_score>  (9) 
0.447213595499958

>  <interactions_novelty_score>  (9) 
0.0

>  <SAscore_score>  (9) 
2.7222597067515686

>  <SCScore_score>  (9) 
3.5294739850090813

>  <original SMILES>  (9) 
CN[C@@H](C)c1ccc(F)c(NCC2CCOCC2)c1

>  <CAR_friendly>  (9) 
0

$$$$
8_SOS3-x1154_02_Frag_4-SOS3-x1621_00_Frag
     RDKit          3D

 15 16  0  0  0  0  0  0  0  0999 V2000
   54.6170   31.3070    3.2600 N   0  0  0  0  0  0  0  0  0  0  0  0
   53.7740   31.2860    2.0490 C   0  0  0  0  0  0  0  0  0  0  0  0
   52.5220   32.1670    2.2170 C   0  0  0  0  0  0  0  0  0  0  0  0
   54.3820   30.2250    4.1960 C   0  0  0  0  0  0  0  0  0  0  0  0
   53.3280   29.3890    3.9160 C   0  0  0  0  0  0  0  0  0  0  0  0
   55.1390   29.9570    5.3620 C   0  0  0  0  0  0  0  0  0  0  0  0
   51.3440   31.4960    2.9900 C   0  0  0  0  0  0  0  0  0  0  0  0
   51.9940   32.6570    0.8670 C   0  0  0  0  0  0  0  0  0  0  0  0
   56.1850   30.6960    5.7250 F   0  0  0  0  0  0  0  0  0  0  0  0
   53.0290   28.3340    4.7200 C   0  0  0  0  0  0  0  0  0  0  0  0
   54.8010   28.8840    6.1730 C   0  0  0  0  0  0  0  0  0  0  0  0
   50.0610   32.3630    2.8820 C   0  0  0  0  0  0  0  0  0  0  0  0
   50.8220   33.5720    1.1410 C   0  0  0  0  0  0  0  0  0  0  0  0
   53.7530   28.0710    5.8310 C   0  0  0  0  0  0  0  0  0  0  0  0
   49.7520   32.7340    1.5460 O   0  0  0  0  0  0  0  0  0  0  0  0
  1  2  1  0
  3  2  1  0
  1  4  1  0
  4  5  2  0
  4  6  1  0
  3  7  1  0
  3  8  1  0
  6  9  1  0
  5 10  1  0
  6 11  2  0
  7 12  1  0
  8 13  1  0
 10 14  2  0
 11 14  1  0
 12 15  1  0
 13 15  1  0
M  END
>  <ref_pdb>  (10) 
H-SOS3-x1154_02_Frag_4-SOS3-x1621_00_Frag_2.pdb

>  <ref_mols>  (10) 
x1154_1A,x1621_2A

>  <ddG_score>  (10) 
-3.2274021530315977

>  <fragmensteinOld_score>  (10) 
-0.8107212621682149

>  <LE_score>  (10) 
-0.21516014353543986

>  <comRMSD_score>  (10) 
1.3347591684381046

>  <fragmensteinNew_score>  (10) 
1.3256710478245133

>  <aLogP_score>  (10) 
2.664200000000001

>  <hbondD_score>  (10) 
1

>  <hbondA_score>  (10) 
2

>  <polarSurfaceArea_score>  (10) 
21.259999999999998

>  <rotableBonds_score>  (10) 
3

>  <QED_score>  (10) 
0.8259545547146016

>  <energyPoseVsEnsemble_score>  (10) 
1.3910281530864614

>  <sucos_score>  (10) 
0.7563004322567981

>  <interactions_conservation_score>  (10) 
0.6324555320336759

>  <interactions_novelty_score>  (10) 
0.0

>  <SAscore_score>  (10) 
1.9245208810416798

>  <SCScore_score>  (10) 
2.568586661893988

>  <original SMILES>  (10) 
Fc1ccccc1NCC1CCOCC1

>  <CAR_friendly>  (10) 
1

$$$$
9_SOS3-x1202_00_Frag_0-SOS3-x1193_01_Frag
     RDKit          3D

 23 24  0  0  0  0  0  0  0  0999 V2000
   53.2570   30.5750    2.2130 C   0  0  0  0  0  0  0  0  0  0  0  0
   53.2640   31.9260    1.8220 N   0  0  0  0  0  0  0  0  0  0  0  0
   54.2700   32.9010    2.2250 C   0  0  0  0  0  0  0  0  0  0  0  0
   52.7040   29.6910    1.5580 O   0  0  0  0  0  0  0  0  0  0  0  0
   53.9610   30.1840    3.4600 C   0  0  0  0  0  0  0  0  0  0  0  0
   52.1210   32.4510    1.0990 C   0  0  0  0  0  0  0  0  0  0  0  0
   53.3730   29.3460    4.4430 C   0  0  0  0  0  0  0  0  0  0  0  0
   55.2590   30.6760    3.6550 C   0  0  0  0  0  0  0  0  0  0  0  0
   52.0810   28.8180    4.2940 N   0  0  0  0  0  0  0  0  0  0  0  0
   54.0620   29.0440    5.5590 N   0  0  0  0  0  0  0  0  0  0  0  0
   55.9470   30.3450    4.8120 C   0  0  0  0  0  0  0  0  0  0  0  0
   51.6560   27.4190    4.6180 C   0  0  2  0  0  0  0  0  0  0  0  0
   55.3050   29.5380    5.7230 C   0  0  0  0  0  0  0  0  0  0  0  0
   52.6730   26.2490    4.5250 C   0  0  0  0  0  0  0  0  0  0  0  0
   50.3850   27.0830    3.8800 C   0  0  0  0  0  0  0  0  0  0  0  0
   52.1070   24.9090    4.7560 O   0  0  0  0  0  0  0  0  0  0  0  0
   51.1420   24.7940    5.8900 N   0  0  0  0  0  0  0  0  0  0  0  0
   51.2280   23.4060    6.4430 C   0  0  0  0  0  0  0  0  0  0  0  0
   50.0360   23.0530    7.3140 C   0  0  0  0  0  0  0  0  0  0  0  0
   49.2090   23.8900    8.0100 C   0  0  0  0  0  0  0  0  0  0  0  0
   49.5360   21.4330    7.5570 S   0  0  0  0  0  0  0  0  0  0  0  0
   48.1610   23.2420    8.7050 C   0  0  0  0  0  0  0  0  0  0  0  0
   48.2130   21.8890    8.5370 C   0  0  0  0  0  0  0  0  0  0  0  0
  1  2  1  0
  2  3  1  0
  1  4  2  0
  1  5  1  0
  2  6  1  0
  5  7  2  0
  5  8  1  0
  7  9  1  0
  7 10  1  0
  8 11  2  0
  9 12  1  0
 10 13  2  0
 11 13  1  0
 12 14  1  0
 12 15  1  6
 14 16  1  0
 16 17  1  0
 17 18  1  0
 18 19  1  0
 19 20  2  0
 19 21  1  0
 20 22  1  0
 21 23  1  0
 22 23  2  0
M  END
>  <ref_pdb>  (11) 
H-SOS3-x1202_00_Frag_0-SOS3-x1193_01_Frag_1.pdb

>  <ref_mols>  (11) 
x1193_1A,x1202_0A

>  <ddG_score>  (11) 
-9.212009034654738

>  <fragmensteinOld_score>  (11) 
-3.613312637828842

>  <LE_score>  (11) 
-0.4005221319415103

>  <comRMSD_score>  (11) 
0.22908916910210597

>  <fragmensteinNew_score>  (11) 
-1.5039975900713436

>  <aLogP_score>  (11) 
2.3667000000000007

>  <hbondD_score>  (11) 
2

>  <hbondA_score>  (11) 
5

>  <polarSurfaceArea_score>  (11) 
66.49000000000001

>  <rotableBonds_score>  (11) 
8

>  <QED_score>  (11) 
0.5729916006643023

>  <energyPoseVsEnsemble_score>  (11) 
1.5725093493861402

>  <sucos_score>  (11) 
0.8555240071466084

>  <interactions_conservation_score>  (11) 
0.0

>  <interactions_novelty_score>  (11) 
0.2

>  <SAscore_score>  (11) 
3.2083891160825404

>  <SCScore_score>  (11) 
3.783176024704943

>  <original SMILES>  (11) 
C[C@@H](CONCc1cccs1)Nc1ncccc1C(=O)N(C)C

>  <CAR_friendly>  (11) 
0

$$$$
10_SOS3-x1202_00_Frag_0-SOS3-x1193_01_Frag
     RDKit          3D

 25 26  0  0  0  0  0  0  0  0999 V2000
   53.3530   30.6640    2.1350 C   0  0  0  0  0  0  0  0  0  0  0  0
   53.3410   31.9960    1.7080 N   0  0  0  0  0  0  0  0  0  0  0  0
   54.2970   32.9880    2.1750 C   0  0  0  0  0  0  0  0  0  0  0  0
   52.7930   29.7540    1.5180 O   0  0  0  0  0  0  0  0  0  0  0  0
   54.0770   30.3210    3.3830 C   0  0  0  0  0  0  0  0  0  0  0  0
   52.1410   32.5020    1.0710 C   0  0  0  0  0  0  0  0  0  0  0  0
   53.4620   29.5840    4.3920 C   0  0  0  0  0  0  0  0  0  0  0  0
   55.4010   30.7420    3.5550 C   0  0  0  0  0  0  0  0  0  0  0  0
   52.1650   29.1330    4.2640 N   0  0  0  0  0  0  0  0  0  0  0  0
   54.1160   29.2790    5.5280 N   0  0  0  0  0  0  0  0  0  0  0  0
   56.0690   30.4170    4.7340 C   0  0  0  0  0  0  0  0  0  0  0  0
   51.9170   27.7580    4.6760 C   0  0  2  0  0  0  0  0  0  0  0  0
   55.3830   29.6940    5.6790 C   0  0  0  0  0  0  0  0  0  0  0  0
   52.9780   26.6860    4.3550 C   0  0  0  0  0  0  0  0  0  0  0  0
   50.5370   27.2890    4.4280 C   0  0  0  0  0  0  0  0  0  0  0  0
   50.3610   26.3970    5.5110 O   0  0  0  0  0  0  0  0  0  0  0  0
   50.4750   25.0920    5.2680 C   0  0  0  0  0  0  0  0  0  0  0  0
   50.0740   24.5680    4.2540 O   0  0  0  0  0  0  0  0  0  0  0  0
   51.0930   24.5100    6.3370 N   0  0  0  0  0  0  0  0  0  0  0  0
   51.1290   23.1010    6.6300 C   0  0  0  0  0  0  0  0  0  0  0  0
   50.0180   22.7370    7.3800 C   0  0  0  0  0  0  0  0  0  0  0  0
   49.1910   23.7270    7.9390 C   0  0  0  0  0  0  0  0  0  0  0  0
   49.4840   21.1620    7.7340 S   0  0  0  0  0  0  0  0  0  0  0  0
   48.1360   23.1770    8.6200 C   0  0  0  0  0  0  0  0  0  0  0  0
   48.1510   21.8000    8.5930 C   0  0  0  0  0  0  0  0  0  0  0  0
  1  2  1  0
  2  3  1  0
  1  4  2  0
  1  5  1  0
  2  6  1  0
  5  7  2  0
  5  8  1  0
  7  9  1  0
  7 10  1  0
  8 11  2  0
  9 12  1  0
 10 13  2  0
 11 13  1  0
 12 14  1  6
 12 15  1  0
 15 16  1  0
 16 17  1  0
 17 18  2  0
 17 19  1  0
 19 20  1  0
 20 21  1  0
 21 22  2  0
 21 23  1  0
 22 24  1  0
 23 25  1  0
 24 25  2  0
M  END
>  <ref_pdb>  (12) 
H-SOS3-x1202_00_Frag_0-SOS3-x1193_01_Frag_6.pdb

>  <ref_mols>  (12) 
x1193_0A,x1202_0A

>  <ddG_score>  (12) 
-8.505922654158317

>  <fragmensteinOld_score>  (12) 
-3.6006893374182165

>  <LE_score>  (12) 
-0.3402369061663327

>  <comRMSD_score>  (12) 
0.30049519341344677

>  <fragmensteinNew_score>  (12) 
-1.33922844100521

>  <aLogP_score>  (12) 
2.5717000000000008

>  <hbondD_score>  (12) 
2

>  <hbondA_score>  (12) 
5

>  <polarSurfaceArea_score>  (12) 
83.56

>  <rotableBonds_score>  (12) 
7

>  <QED_score>  (12) 
0.790864941308485

>  <energyPoseVsEnsemble_score>  (12) 
1.8254959301949152

>  <sucos_score>  (12) 
0.8801583894568477

>  <interactions_conservation_score>  (12) 
0.3872983346207417

>  <interactions_novelty_score>  (12) 
0.0

>  <SAscore_score>  (12) 
2.9001648565465494

>  <SCScore_score>  (12) 
3.786593834089162

>  <original SMILES>  (12) 
C[C@H](COC(=O)NCc1cccs1)Nc1ncccc1C(=O)N(C)C

>  <CAR_friendly>  (12) 
1

$$$$
11_SOS3-x1202_00_Frag_2-SOS3-x1193_01_Frag
     RDKit          3D

 28 30  0  0  0  0  0  0  0  0999 V2000
   53.3330   30.7170    2.2000 C   0  0  0  0  0  0  0  0  0  0  0  0
   52.5470   29.7830    1.5660 N   0  0  0  0  0  0  0  0  0  0  0  0
   52.4150   28.4760    2.1580 C   0  0  0  0  0  0  0  0  0  0  0  0
   53.4030   31.9820    1.6430 N   0  0  0  0  0  0  0  0  0  0  0  0
   54.0720   30.3690    3.4460 C   0  0  0  0  0  0  0  0  0  0  0  0
   54.3080   32.9480    2.2400 C   0  0  0  0  0  0  0  0  0  0  0  0
   52.2000   32.5700    1.0520 C   0  0  0  0  0  0  0  0  0  0  0  0
   53.4360   29.6910    4.4770 C   0  0  0  0  0  0  0  0  0  0  0  0
   55.4100   30.7110    3.5900 C   0  0  0  0  0  0  0  0  0  0  0  0
   54.0560   29.3440    5.6320 N   0  0  0  0  0  0  0  0  0  0  0  0
   56.0660   30.3630    4.7690 C   0  0  0  0  0  0  0  0  0  0  0  0
   50.9800   28.1160    1.9340 C   0  0  0  0  0  0  0  0  0  0  0  0
   55.3520   29.6890    5.7440 C   0  0  0  0  0  0  0  0  0  0  0  0
   50.4220   27.0770    2.8650 C   0  0  0  0  0  0  0  0  0  0  0  0
   50.4030   27.5040    4.2360 N   0  0  0  0  0  0  0  0  0  0  0  0
   50.3350   28.8380    4.5040 N   0  0  0  0  0  0  0  0  0  0  0  0
   50.4420   26.6870    5.3270 C   0  0  0  0  0  0  0  0  0  0  0  0
   50.5030   25.2430    5.2730 C   0  0  0  0  0  0  0  0  0  0  0  0
   50.3310   28.9040    5.8240 C   0  0  0  0  0  0  0  0  0  0  0  0
   50.3970   27.5430    6.4120 C   0  0  0  0  0  0  0  0  0  0  0  0
   49.9580   24.6410    4.3720 O   0  0  0  0  0  0  0  0  0  0  0  0
   51.2070   24.6100    6.2690 N   0  0  0  0  0  0  0  0  0  0  0  0
   51.1650   23.1840    6.5290 C   0  0  0  0  0  0  0  0  0  0  0  0
   49.9560   22.8810    7.3470 C   0  0  0  0  0  0  0  0  0  0  0  0
   49.0960   23.7760    7.9040 C   0  0  0  0  0  0  0  0  0  0  0  0
   49.4830   21.2780    7.6990 S   0  0  0  0  0  0  0  0  0  0  0  0
   48.1180   21.8100    8.5690 C   0  0  0  0  0  0  0  0  0  0  0  0
   48.0380   23.1750    8.6080 C   0  0  0  0  0  0  0  0  0  0  0  0
  1  2  2  0
  2  3  1  0
  1  4  1  0
  1  5  1  0
  4  6  1  0
  4  7  1  0
  5  8  2  0
  5  9  1  0
  8 10  1  0
  9 11  2  0
  3 12  1  0
 10 13  2  0
 11 13  1  0
 12 14  1  0
 14 15  1  0
 15 16  1  0
 15 17  1  0
 17 18  1  0
 16 19  2  0
 17 20  2  0
 19 20  1  0
 18 21  2  0
 18 22  1  0
 22 23  1  0
 23 24  1  0
 24 25  2  0
 24 26  1  0
 26 27  1  0
 25 28  1  0
 27 28  2  0
M  END
>  <ref_pdb>  (13) 
H-SOS3-x1202_00_Frag_2-SOS3-x1193_01_Frag_0.pdb

>  <ref_mols>  (13) 
x1193_1A,x1202_0A

>  <ddG_score>  (13) 
-8.607268480717071

>  <fragmensteinOld_score>  (13) 
-3.6767232486754375

>  <LE_score>  (13) 
-0.3074024457398954

>  <comRMSD_score>  (13) 
0.24473044746797687

>  <fragmensteinNew_score>  (13) 
-1.2623639137542209

>  <aLogP_score>  (13) 
2.668100000000001

>  <hbondD_score>  (13) 
1

>  <hbondA_score>  (13) 
4

>  <polarSurfaceArea_score>  (13) 
75.41

>  <rotableBonds_score>  (13) 
8

>  <QED_score>  (13) 
0.3608344687139914

>  <energyPoseVsEnsemble_score>  (13) 
1.4088932811656385

>  <sucos_score>  (13) 
0.8928439420515323

>  <interactions_conservation_score>  (13) 
0.8660254037844387

>  <interactions_novelty_score>  (13) 
0.14285714285714285

>  <SAscore_score>  (13) 
2.860942587397707

>  <SCScore_score>  (13) 
4.353630621215862

>  <original SMILES>  (13) 
CN(C)/C(=N/CCCn1nccc1C(=O)NCc1cccs1)c1cccnc1

>  <CAR_friendly>  (13) 
0

$$$$
12_SOS3-x1202_00_Frag_2-SOS3-x1193_01_Frag
     RDKit          3D

 21 22  0  0  0  0  0  0  0  0999 V2000
   53.3100   30.7080    2.2180 C   0  0  0  0  0  0  0  0  0  0  0  0
   52.4870   29.7820    1.6140 N   0  0  0  0  0  0  0  0  0  0  0  0
   52.3190   28.4750    2.2040 C   0  0  0  0  0  0  0  0  0  0  0  0
   53.4000   31.9610    1.6390 N   0  0  0  0  0  0  0  0  0  0  0  0
   54.0620   30.3650    3.4520 C   0  0  0  0  0  0  0  0  0  0  0  0
   54.3350   32.9220    2.2040 C   0  0  0  0  0  0  0  0  0  0  0  0
   52.2050   32.5580    1.0430 C   0  0  0  0  0  0  0  0  0  0  0  0
   53.4370   29.6850    4.4880 C   0  0  0  0  0  0  0  0  0  0  0  0
   55.4010   30.7100    3.5880 C   0  0  0  0  0  0  0  0  0  0  0  0
   54.0620   29.3390    5.6380 N   0  0  0  0  0  0  0  0  0  0  0  0
   56.0650   30.3640    4.7620 C   0  0  0  0  0  0  0  0  0  0  0  0
   50.9920   28.1110    1.9570 C   0  0  0  0  0  0  0  0  0  0  0  0
   55.3600   29.6880    5.7420 C   0  0  0  0  0  0  0  0  0  0  0  0
   50.3980   27.1290    2.9280 C   0  0  0  0  0  0  0  0  0  0  0  0
   50.3880   27.6150    4.2050 N   0  0  0  0  0  0  0  0  0  0  0  0
   50.4580   26.7600    5.3410 C   0  0  0  0  0  0  0  0  0  0  0  0
   50.3050   28.9410    4.4740 N   0  0  0  0  0  0  0  0  0  0  0  0
   50.5430   25.3280    5.3220 C   0  0  0  0  0  0  0  0  0  0  0  0
   50.3200   28.9900    5.8040 C   0  0  0  0  0  0  0  0  0  0  0  0
   50.4130   27.6300    6.4070 C   0  0  0  0  0  0  0  0  0  0  0  0
   49.9350   24.6390    4.5270 O   0  0  0  0  0  0  0  0  0  0  0  0
  1  2  2  0
  2  3  1  0
  1  4  1  0
  1  5  1  0
  4  6  1  0
  4  7  1  0
  5  8  2  0
  5  9  1  0
  8 10  1  0
  9 11  2  0
  3 12  1  0
 10 13  2  0
 11 13  1  0
 12 14  1  0
 14 15  1  0
 15 16  1  0
 15 17  1  0
 16 18  1  0
 17 19  2  0
 16 20  2  0
 19 20  1  0
 18 21  2  0
M  END
>  <ref_pdb>  (14) 
H-SOS3-x1202_00_Frag_2-SOS3-x1193_01_Frag_2.pdb

>  <ref_mols>  (14) 
x1193_1A,x1202_0A

>  <ddG_score>  (14) 
-3.7450085916887916

>  <fragmensteinOld_score>  (14) 
-2.041171307419354

>  <LE_score>  (14) 
-0.17833374246137104

>  <comRMSD_score>  (14) 
0.20783041091840448

>  <fragmensteinNew_score>  (14) 
-0.9322612412524474

>  <aLogP_score>  (14) 
1.4890999999999999

>  <hbondD_score>  (14) 
0

>  <hbondA_score>  (14) 
4

>  <polarSurfaceArea_score>  (14) 
63.38

>  <rotableBonds_score>  (14) 
6

>  <QED_score>  (14) 
0.3489978256680773

>  <energyPoseVsEnsemble_score>  (14) 
1.7350433894663142

>  <sucos_score>  (14) 
0.8985623742058512

>  <interactions_conservation_score>  (14) 
0.5773502691896257

>  <interactions_novelty_score>  (14) 
0.0

>  <SAscore_score>  (14) 
3.0766474665860155

>  <SCScore_score>  (14) 
3.1696293692886406

>  <original SMILES>  (14) 
CN(C)/C(=N/CCCn1nccc1C=O)c1cccnc1

>  <CAR_friendly>  (14) 
0

$$$$
13_SOS3-x1202_00_Frag_2-SOS3-x1193_01_Frag
     RDKit          3D

 22 23  0  0  0  0  0  0  0  0999 V2000
   53.3150   30.7440    2.2110 C   0  0  0  0  0  0  0  0  0  0  0  0
   52.4980   29.8120    1.6100 N   0  0  0  0  0  0  0  0  0  0  0  0
   52.3340   28.4980    2.1920 C   0  0  0  0  0  0  0  0  0  0  0  0
   53.3910   32.0040    1.6310 N   0  0  0  0  0  0  0  0  0  0  0  0
   54.0640   30.3950    3.4460 C   0  0  0  0  0  0  0  0  0  0  0  0
   54.3180   32.9860    2.1860 C   0  0  0  0  0  0  0  0  0  0  0  0
   52.1900   32.5840    1.0380 C   0  0  0  0  0  0  0  0  0  0  0  0
   53.4290   29.7150    4.4760 C   0  0  0  0  0  0  0  0  0  0  0  0
   55.4030   30.7340    3.5900 C   0  0  0  0  0  0  0  0  0  0  0  0
   54.0470   29.3620    5.6270 N   0  0  0  0  0  0  0  0  0  0  0  0
   56.0580   30.3790    4.7680 C   0  0  0  0  0  0  0  0  0  0  0  0
   51.0210   28.1240    1.8850 C   0  0  0  0  0  0  0  0  0  0  0  0
   55.3420   29.7050    5.7400 C   0  0  0  0  0  0  0  0  0  0  0  0
   50.4540   27.1120    2.8440 C   0  0  0  0  0  0  0  0  0  0  0  0
   50.4220   27.5410    4.2160 N   0  0  0  0  0  0  0  0  0  0  0  0
   50.4240   26.7320    5.3110 C   0  0  0  0  0  0  0  0  0  0  0  0
   50.3810   28.8770    4.4810 N   0  0  0  0  0  0  0  0  0  0  0  0
   50.4470   25.2910    5.2350 C   0  0  0  0  0  0  0  0  0  0  0  0
   50.3600   28.9430    5.8070 C   0  0  0  0  0  0  0  0  0  0  0  0
   50.3870   27.5820    6.3950 C   0  0  0  0  0  0  0  0  0  0  0  0
   50.9480   24.6100    6.2980 N   0  0  0  0  0  0  0  0  0  0  0  0
   50.0500   24.6630    4.2750 O   0  0  0  0  0  0  0  0  0  0  0  0
  1  2  2  0
  2  3  1  0
  1  4  1  0
  1  5  1  0
  4  6  1  0
  4  7  1  0
  5  8  2  0
  5  9  1  0
  8 10  1  0
  9 11  2  0
  3 12  1  0
 10 13  2  0
 11 13  1  0
 12 14  1  0
 14 15  1  0
 15 16  1  0
 15 17  1  0
 16 18  1  0
 17 19  2  0
 16 20  2  0
 19 20  1  0
 18 21  1  0
 18 22  2  0
M  END
>  <ref_pdb>  (15) 
H-SOS3-x1202_00_Frag_2-SOS3-x1193_01_Frag_4.pdb

>  <ref_mols>  (15) 
x1193_1A,x1202_0A

>  <ddG_score>  (15) 
-7.959048797774811

>  <fragmensteinOld_score>  (15) 
-2.978411656429395

>  <LE_score>  (15) 
-0.3617749453534005

>  <comRMSD_score>  (15) 
0.21339810312556695

>  <fragmensteinNew_score>  (15) 
-1.1841258212993049

>  <aLogP_score>  (15) 
0.7754999999999999

>  <hbondD_score>  (15) 
1

>  <hbondA_score>  (15) 
4

>  <polarSurfaceArea_score>  (15) 
89.4

>  <rotableBonds_score>  (15) 
6

>  <QED_score>  (15) 
0.48470364327475635

>  <energyPoseVsEnsemble_score>  (15) 
1.5739221008829067

>  <sucos_score>  (15) 
0.8914755875161918

>  <interactions_conservation_score>  (15) 
0.5

>  <interactions_novelty_score>  (15) 
0.0

>  <SAscore_score>  (15) 
2.922128319965914

>  <SCScore_score>  (15) 
3.6861663357464587

>  <original SMILES>  (15) 
CN(C)/C(=N/CCCn1nccc1C(N)=O)c1cccnc1

>  <CAR_friendly>  (15) 
0

$$$$
14_SOS3-x1202_00_Frag_2-SOS3-x1193_01_Frag
     RDKit          3D

 23 24  0  0  0  0  0  0  0  0999 V2000
   53.3040   30.7020    2.2370 C   0  0  0  0  0  0  0  0  0  0  0  0
   52.4630   29.7780    1.6610 N   0  0  0  0  0  0  0  0  0  0  0  0
   52.2870   28.4790    2.2730 C   0  0  0  0  0  0  0  0  0  0  0  0
   53.4030   31.9520    1.6380 N   0  0  0  0  0  0  0  0  0  0  0  0
   54.0650   30.3640    3.4670 C   0  0  0  0  0  0  0  0  0  0  0  0
   54.3360   32.9170    2.1960 C   0  0  0  0  0  0  0  0  0  0  0  0
   52.2040   32.5460    1.0400 C   0  0  0  0  0  0  0  0  0  0  0  0
   53.4420   29.6880    4.5050 C   0  0  0  0  0  0  0  0  0  0  0  0
   55.4040   30.7090    3.5950 C   0  0  0  0  0  0  0  0  0  0  0  0
   54.0730   29.3440    5.6520 N   0  0  0  0  0  0  0  0  0  0  0  0
   56.0720   30.3620    4.7690 C   0  0  0  0  0  0  0  0  0  0  0  0
   51.0100   28.1900    1.9470 C   0  0  0  0  0  0  0  0  0  0  0  0
   55.3720   29.6920    5.7510 C   0  0  0  0  0  0  0  0  0  0  0  0
   50.4500   27.1230    2.8530 C   0  0  0  0  0  0  0  0  0  0  0  0
   50.4330   27.5170    4.2380 N   0  0  0  0  0  0  0  0  0  0  0  0
   50.4630   26.7430    5.2930 C   0  0  0  0  0  0  0  0  0  0  0  0
   50.3720   28.8450    4.4900 N   0  0  0  0  0  0  0  0  0  0  0  0
   50.5140   25.2980    5.2130 C   0  0  0  0  0  0  0  0  0  0  0  0
   50.3680   28.8860    5.8160 C   0  0  0  0  0  0  0  0  0  0  0  0
   50.4220   27.6250    6.3650 C   0  0  0  0  0  0  0  0  0  0  0  0
   51.2050   24.6470    6.1890 N   0  0  0  0  0  0  0  0  0  0  0  0
   49.9690   24.6870    4.3180 O   0  0  0  0  0  0  0  0  0  0  0  0
   50.9870   23.2580    6.4810 C   0  0  0  0  0  0  0  0  0  0  0  0
  1  2  2  0
  2  3  1  0
  1  4  1  0
  1  5  1  0
  4  6  1  0
  4  7  1  0
  5  8  2  0
  5  9  1  0
  8 10  1  0
  9 11  2  0
  3 12  1  0
 10 13  2  0
 11 13  1  0
 12 14  1  0
 14 15  1  0
 15 16  1  0
 15 17  1  0
 16 18  1  0
 17 19  2  0
 16 20  2  0
 19 20  1  0
 18 21  1  0
 18 22  2  0
 21 23  1  0
M  END
>  <ref_pdb>  (16) 
H-SOS3-x1202_00_Frag_2-SOS3-x1193_01_Frag_8.pdb

>  <ref_mols>  (16) 
x1193_1A,x1202_0A

>  <ddG_score>  (16) 
-7.287925312003955

>  <fragmensteinOld_score>  (16) 
-2.9559612342826163

>  <LE_score>  (16) 
-0.3168663179132154

>  <comRMSD_score>  (16) 
0.20162382811817478

>  <fragmensteinNew_score>  (16) 
-1.2183479368971524

>  <aLogP_score>  (16) 
1.0362

>  <hbondD_score>  (16) 
1

>  <hbondA_score>  (16) 
4

>  <polarSurfaceArea_score>  (16) 
75.41

>  <rotableBonds_score>  (16) 
6

>  <QED_score>  (16) 
0.49090222926324595

>  <energyPoseVsEnsemble_score>  (16) 
1.7067769534674684

>  <sucos_score>  (16) 
0.9020277522416642

>  <interactions_conservation_score>  (16) 
0.5

>  <interactions_novelty_score>  (16) 
0.0

>  <SAscore_score>  (16) 
2.8881030865833015

>  <SCScore_score>  (16) 
3.86526175246586

>  <original SMILES>  (16) 
CNC(=O)c1ccnn1CCC/N=C(\c1cccnc1)N(C)C

>  <CAR_friendly>  (16) 
0

$$$$
15_SOS3-x1202_00_Frag_4-SOS3-x1193_01_Frag
     RDKit          3D

 18 19  0  0  0  0  0  0  0  0999 V2000
   52.0510   28.7890    4.3250 N   0  0  0  0  0  0  0  0  0  0  0  0
   51.6690   27.3990    4.7480 C   0  0  2  0  0  0  0  0  0  0  0  0
   52.6920   26.2450    4.5360 C   0  0  0  0  0  0  0  0  0  0  0  0
   53.3510   29.3060    4.4560 C   0  0  0  0  0  0  0  0  0  0  0  0
   50.4350   27.0700    3.9290 C   0  0  0  0  0  0  0  0  0  0  0  0
   53.9750   30.0610    3.4630 C   0  0  0  0  0  0  0  0  0  0  0  0
   53.9890   29.0470    5.6120 N   0  0  0  0  0  0  0  0  0  0  0  0
   55.2450   29.5430    5.7630 C   0  0  0  0  0  0  0  0  0  0  0  0
   55.2600   30.5660    3.6170 C   0  0  0  0  0  0  0  0  0  0  0  0
   52.1340   24.8980    4.8180 O   0  0  0  0  0  0  0  0  0  0  0  0
   55.9190   30.2950    4.8120 C   0  0  0  0  0  0  0  0  0  0  0  0
   51.1560   24.8130    5.9390 N   0  0  0  0  0  0  0  0  0  0  0  0
   51.1850   23.5410    6.5010 C   0  0  0  0  0  0  0  0  0  0  0  0
   50.0060   23.1100    7.3560 C   0  0  0  0  0  0  0  0  0  0  0  0
   49.1650   23.9220    8.0840 C   0  0  0  0  0  0  0  0  0  0  0  0
   49.5610   21.4610    7.5220 S   0  0  0  0  0  0  0  0  0  0  0  0
   48.1180   23.2570    8.7640 C   0  0  0  0  0  0  0  0  0  0  0  0
   48.2160   21.8050    8.5150 C   0  0  0  0  0  0  0  0  0  0  0  0
  1  2  1  0
  2  3  1  0
  1  4  1  0
  2  5  1  6
  4  6  2  0
  4  7  1  0
  7  8  2  0
  6  9  1  0
  3 10  1  0
  8 11  1  0
  9 11  2  0
 10 12  1  0
 12 13  1  0
 13 14  1  0
 14 15  2  0
 14 16  1  0
 15 17  1  0
 16 18  1  0
 17 18  2  0
M  END
>  <ref_pdb>  (17) 
H-SOS3-x1202_00_Frag_4-SOS3-x1193_01_Frag_1.pdb

>  <ref_mols>  (17) 
x1193_1A,x1202_0A

>  <ddG_score>  (17) 
-7.383995763450831

>  <fragmensteinOld_score>  (17) 
-2.714432178334104

>  <LE_score>  (17) 
-0.4102219868583795

>  <comRMSD_score>  (17) 
0.2623669743560623

>  <fragmensteinNew_score>  (17) 
-1.0738037204777267

>  <aLogP_score>  (17) 
2.664900000000001

>  <hbondD_score>  (17) 
2

>  <hbondA_score>  (17) 
4

>  <polarSurfaceArea_score>  (17) 
46.18000000000001

>  <rotableBonds_score>  (17) 
7

>  <QED_score>  (17) 
0.5953290765399926

>  <energyPoseVsEnsemble_score>  (17) 
1.8893582054355011

>  <sucos_score>  (17) 
0.8286499839017297

>  <interactions_conservation_score>  (17) 
0.8660254037844387

>  <interactions_novelty_score>  (17) 
0.2857142857142857

>  <SAscore_score>  (17) 
3.1088514432102574

>  <SCScore_score>  (17) 
3.095844713475741

>  <original SMILES>  (17) 
C[C@@H](CONCc1cccs1)Nc1ccccn1

>  <CAR_friendly>  (17) 
0

$$$$
16_SOS3-x1202_00_Frag_4-SOS3-x1193_01_Frag
     RDKit          3D

 20 21  0  0  0  0  0  0  0  0999 V2000
   52.1630   29.1450    4.1790 N   0  0  0  0  0  0  0  0  0  0  0  0
   51.9700   27.8120    4.7630 C   0  0  2  0  0  0  0  0  0  0  0  0
   53.0020   26.7330    4.3740 C   0  0  0  0  0  0  0  0  0  0  0  0
   53.4630   29.5860    4.3210 C   0  0  0  0  0  0  0  0  0  0  0  0
   50.6110   27.3010    4.4250 C   0  0  0  0  0  0  0  0  0  0  0  0
   54.1410   30.2880    3.3460 C   0  0  0  0  0  0  0  0  0  0  0  0
   54.0480   29.2790    5.4920 N   0  0  0  0  0  0  0  0  0  0  0  0
   55.3270   29.6810    5.6770 C   0  0  0  0  0  0  0  0  0  0  0  0
   55.4470   30.6990    3.5300 C   0  0  0  0  0  0  0  0  0  0  0  0
   50.4140   26.3840    5.4950 O   0  0  0  0  0  0  0  0  0  0  0  0
   56.0640   30.3830    4.7400 C   0  0  0  0  0  0  0  0  0  0  0  0
   50.4980   25.0800    5.2580 C   0  0  0  0  0  0  0  0  0  0  0  0
   50.0870   24.5600    4.2370 O   0  0  0  0  0  0  0  0  0  0  0  0
   51.0890   24.4850    6.3380 N   0  0  0  0  0  0  0  0  0  0  0  0
   51.1100   23.0770    6.6600 C   0  0  0  0  0  0  0  0  0  0  0  0
   49.9810   22.7390    7.4030 C   0  0  0  0  0  0  0  0  0  0  0  0
   49.1870   23.7700    7.9370 C   0  0  0  0  0  0  0  0  0  0  0  0
   49.3980   21.1620    7.7670 S   0  0  0  0  0  0  0  0  0  0  0  0
   48.0610   23.1270    8.6370 C   0  0  0  0  0  0  0  0  0  0  0  0
   48.0350   21.7630    8.6250 C   0  0  0  0  0  0  0  0  0  0  0  0
  1  2  1  0
  2  3  1  6
  1  4  1  0
  2  5  1  0
  4  6  2  0
  4  7  1  0
  7  8  2  0
  6  9  1  0
  5 10  1  0
  8 11  1  0
  9 11  2  0
 10 12  1  0
 12 13  2  0
 12 14  1  0
 14 15  1  0
 15 16  1  0
 16 17  2  0
 16 18  1  0
 17 19  1  0
 18 20  1  0
 19 20  2  0
M  END
>  <ref_pdb>  (18) 
H-SOS3-x1202_00_Frag_4-SOS3-x1193_01_Frag_6.pdb

>  <ref_mols>  (18) 
x1193_0A,x1202_0A

>  <ddG_score>  (18) 
-7.308840330895049

>  <fragmensteinOld_score>  (18) 
-2.8291232479947515

>  <LE_score>  (18) 
-0.36544201654475245

>  <comRMSD_score>  (18) 
0.33264481818425823

>  <fragmensteinNew_score>  (18) 
-1.1197407008041211

>  <aLogP_score>  (18) 
2.8699000000000012

>  <hbondD_score>  (18) 
2

>  <hbondA_score>  (18) 
4

>  <polarSurfaceArea_score>  (18) 
63.25000000000001

>  <rotableBonds_score>  (18) 
6

>  <QED_score>  (18) 
0.858754014361473

>  <energyPoseVsEnsemble_score>  (18) 
2.086693798706715

>  <sucos_score>  (18) 
0.8528767231662872

>  <interactions_conservation_score>  (18) 
1.0

>  <interactions_novelty_score>  (18) 
0.125

>  <SAscore_score>  (18) 
2.717943799997798

>  <SCScore_score>  (18) 
3.184698468766189

>  <original SMILES>  (18) 
C[C@H](COC(=O)NCc1cccs1)Nc1ccccn1

>  <CAR_friendly>  (18) 
1

$$$$
17_SOS3-x1202_00_Frag_0-SOS3-x1193_00_Frag
     RDKit          3D

 24 25  0  0  0  0  0  0  0  0999 V2000
   53.2690   30.6240    2.1610 C   0  0  0  0  0  0  0  0  0  0  0  0
   53.2960   31.9580    1.7410 N   0  0  0  0  0  0  0  0  0  0  0  0
   54.2650   32.9430    2.2020 C   0  0  0  0  0  0  0  0  0  0  0  0
   52.7070   29.7320    1.5250 O   0  0  0  0  0  0  0  0  0  0  0  0
   53.9630   30.2620    3.4200 C   0  0  0  0  0  0  0  0  0  0  0  0
   52.1210   32.4840    1.0700 C   0  0  0  0  0  0  0  0  0  0  0  0
   53.3360   29.5080    4.4370 C   0  0  0  0  0  0  0  0  0  0  0  0
   55.2860   30.6910    3.5970 C   0  0  0  0  0  0  0  0  0  0  0  0
   52.0130   29.0430    4.3010 N   0  0  0  0  0  0  0  0  0  0  0  0
   54.0030   29.2130    5.5790 N   0  0  0  0  0  0  0  0  0  0  0  0
   55.9560   30.3750    4.7710 C   0  0  0  0  0  0  0  0  0  0  0  0
   51.7020   27.6320    4.6460 C   0  0  2  0  0  0  0  0  0  0  0  0
   55.2760   29.6450    5.7210 C   0  0  0  0  0  0  0  0  0  0  0  0
   52.7740   26.5950    4.2540 C   0  0  0  0  0  0  0  0  0  0  0  0
   50.4620   27.2570    3.8420 C   0  0  0  0  0  0  0  0  0  0  0  0
   53.5310   26.1550    5.3880 O   0  0  0  0  0  0  0  0  0  0  0  0
   54.8660   26.4010    5.3130 C   0  0  0  0  0  0  0  0  0  0  0  0
   55.3540   27.3350    5.8880 O   0  0  0  0  0  0  0  0  0  0  0  0
   55.6140   25.3910    4.5520 C   0  0  0  0  0  0  0  0  0  0  0  0
   55.0880   24.4050    3.7250 N   0  0  0  0  0  0  0  0  0  0  0  0
   56.9780   25.1620    4.5200 C   0  0  0  0  0  0  0  0  0  0  0  0
   53.7020   24.1330    3.4050 C   0  0  0  0  0  0  0  0  0  0  0  0
   56.0250   23.6000    3.1780 N   0  0  0  0  0  0  0  0  0  0  0  0
   57.1710   24.0640    3.6720 C   0  0  0  0  0  0  0  0  0  0  0  0
  1  2  1  0
  2  3  1  0
  1  4  2  0
  1  5  1  0
  2  6  1  0
  5  7  2  0
  5  8  1  0
  7  9  1  0
  7 10  1  0
  8 11  2  0
  9 12  1  0
 10 13  2  0
 11 13  1  0
 12 14  1  0
 12 15  1  6
 14 16  1  0
 16 17  1  0
 17 18  2  0
 17 19  1  0
 19 20  1  0
 19 21  2  0
 20 22  1  0
 20 23  1  0
 21 24  1  0
 23 24  2  0
M  END
>  <ref_pdb>  (19) 
H-SOS3-x1202_00_Frag_0-SOS3-x1193_00_Frag_2.pdb

>  <ref_mols>  (19) 
x1193_0A,x1202_0A

>  <ddG_score>  (19) 
-5.963304262226625

>  <fragmensteinOld_score>  (19) 
-2.8146949200047233

>  <LE_score>  (19) 
-0.24847101092610938

>  <comRMSD_score>  (19) 
0.4779659324406013

>  <fragmensteinNew_score>  (19) 
-0.8753507089247173

>  <aLogP_score>  (19) 
1.1742999999999997

>  <hbondD_score>  (19) 
1

>  <hbondA_score>  (19) 
6

>  <polarSurfaceArea_score>  (19) 
89.35000000000001

>  <rotableBonds_score>  (19) 
6

>  <QED_score>  (19) 
0.7995014816615226

>  <energyPoseVsEnsemble_score>  (19) 
2.037614715334289

>  <sucos_score>  (19) 
0.7383441292250448

>  <interactions_conservation_score>  (19) 
0.0

>  <interactions_novelty_score>  (19) 
0.0

>  <SAscore_score>  (19) 
3.0296358749093777

>  <SCScore_score>  (19) 
3.5727445188858744

>  <original SMILES>  (19) 
C[C@@H](COC(=O)c1ccnn1C)Nc1ncccc1C(=O)N(C)C

>  <CAR_friendly>  (19) 
0

$$$$
18_SOS3-x1202_00_Frag_4-SOS3-x1193_00_Frag
     RDKit          3D

 19 20  0  0  0  0  0  0  0  0999 V2000
   52.0460   29.0490    4.3170 N   0  0  0  0  0  0  0  0  0  0  0  0
   51.7440   27.6360    4.6400 C   0  0  2  0  0  0  0  0  0  0  0  0
   52.7950   26.6110    4.1620 C   0  0  0  0  0  0  0  0  0  0  0  0
   53.3630   29.5040    4.4170 C   0  0  0  0  0  0  0  0  0  0  0  0
   50.4610   27.2690    3.9060 C   0  0  0  0  0  0  0  0  0  0  0  0
   54.0230   30.1820    3.3970 C   0  0  0  0  0  0  0  0  0  0  0  0
   53.9860   29.2470    5.5820 N   0  0  0  0  0  0  0  0  0  0  0  0
   55.2690   29.6670    5.7200 C   0  0  0  0  0  0  0  0  0  0  0  0
   55.3380   30.6090    3.5450 C   0  0  0  0  0  0  0  0  0  0  0  0
   53.5860   26.0310    5.1950 O   0  0  0  0  0  0  0  0  0  0  0  0
   55.9850   30.3420    4.7450 C   0  0  0  0  0  0  0  0  0  0  0  0
   54.9080   26.3370    5.2030 C   0  0  0  0  0  0  0  0  0  0  0  0
   55.3460   27.2950    5.7950 O   0  0  0  0  0  0  0  0  0  0  0  0
   55.6820   25.3340    4.4900 C   0  0  0  0  0  0  0  0  0  0  0  0
   55.1570   24.3330    3.6920 N   0  0  0  0  0  0  0  0  0  0  0  0
   57.0470   25.1130    4.4690 C   0  0  0  0  0  0  0  0  0  0  0  0
   53.7620   24.0770    3.3930 C   0  0  0  0  0  0  0  0  0  0  0  0
   56.0930   23.5190    3.1660 N   0  0  0  0  0  0  0  0  0  0  0  0
   57.2380   23.9960    3.6470 C   0  0  0  0  0  0  0  0  0  0  0  0
  1  2  1  0
  2  3  1  0
  1  4  1  0
  2  5  1  6
  4  6  2  0
  4  7  1  0
  7  8  2  0
  6  9  1  0
  3 10  1  0
  8 11  1  0
  9 11  2  0
 10 12  1  0
 12 13  2  0
 12 14  1  0
 14 15  1  0
 14 16  2  0
 15 17  1  0
 15 18  1  0
 16 19  1  0
 18 19  2  0
M  END
>  <ref_pdb>  (20) 
H-SOS3-x1202_00_Frag_4-SOS3-x1193_00_Frag_2.pdb

>  <ref_mols>  (20) 
x1193_0A,x1202_0A

>  <ddG_score>  (20) 
-3.5378608998165917

>  <fragmensteinOld_score>  (20) 
-1.7625282327776677

>  <LE_score>  (20) 
-0.18620320525350484

>  <comRMSD_score>  (20) 
0.5450439471856506

>  <fragmensteinNew_score>  (20) 
-0.417759860968101

>  <aLogP_score>  (20) 
1.4725

>  <hbondD_score>  (20) 
1

>  <hbondA_score>  (20) 
5

>  <polarSurfaceArea_score>  (20) 
69.04

>  <rotableBonds_score>  (20) 
5

>  <QED_score>  (20) 
0.8244247974717898

>  <energyPoseVsEnsemble_score>  (20) 
2.0949368765513157

>  <sucos_score>  (20) 
0.7152802580614963

>  <interactions_conservation_score>  (20) 
0.5773502691896257

>  <interactions_novelty_score>  (20) 
0.25

>  <SAscore_score>  (20) 
2.881469963161825

>  <SCScore_score>  (20) 
2.849055201533724

>  <original SMILES>  (20) 
C[C@@H](COC(=O)c1ccnn1C)Nc1ccccn1

>  <CAR_friendly>  (20) 
0

$$$$
19_SOS3-x1629_01_Frag_0-SOS3-x1602_02_Frag
     RDKit          3D

 26 28  0  0  0  0  0  0  0  0999 V2000
   44.3890   11.1010   17.6350 O   0  0  0  0  0  0  0  0  0  0  0  0
   43.2910   11.8670   18.0500 C   0  0  0  0  0  0  0  0  0  0  0  0
   44.4370   10.7130   16.3270 C   0  0  0  0  0  0  0  0  0  0  0  0
   44.8330    9.4540   15.8740 C   0  0  0  0  0  0  0  0  0  0  0  0
   44.0720   11.6710   15.4040 C   0  0  0  0  0  0  0  0  0  0  0  0
   44.8580    9.1490   14.5020 C   0  0  0  0  0  0  0  0  0  0  0  0
   44.1160   11.3410   14.0570 C   0  0  0  0  0  0  0  0  0  0  0  0
   44.4920   10.0950   13.5580 C   0  0  0  0  0  0  0  0  0  0  0  0
   43.7780   12.2530   13.1580 O   0  0  0  0  0  0  0  0  0  0  0  0
   44.4810    9.8790   12.1550 N   0  0  0  0  0  0  0  0  0  0  0  0
   44.7050   12.9510   12.4260 C   0  0  0  0  0  0  0  0  0  0  0  0
   43.4180   10.3910   11.2580 C   0  0  0  0  0  0  0  0  0  0  0  0
   44.0120   13.9610   11.9020 C   0  0  0  0  0  0  0  0  0  0  0  0
   46.0990   12.8040   12.1500 C   0  0  0  0  0  0  0  0  0  0  0  0
   42.2910    9.4290   10.8960 C   0  0  0  0  0  0  0  0  0  0  0  0
   44.5950   14.8660   11.0980 C   0  0  0  0  0  0  0  0  0  0  0  0
   46.6980   13.7660   11.3010 C   0  0  0  0  0  0  0  0  0  0  0  0
   41.0910    9.9210   10.3770 C   0  0  0  0  0  0  0  0  0  0  0  0
   42.3900    8.0420   11.0530 C   0  0  0  0  0  0  0  0  0  0  0  0
   45.9320   14.8090   10.7740 C   0  0  0  0  0  0  0  0  0  0  0  0
   43.5350    7.4980   11.5620 O   0  0  0  0  0  0  0  0  0  0  0  0
   40.0280    9.0860   10.0320 C   0  0  0  0  0  0  0  0  0  0  0  0
   41.3350    7.1960   10.6970 C   0  0  0  0  0  0  0  0  0  0  0  0
   46.4650   15.8810    9.8700 C   0  0  0  0  0  0  0  0  0  0  0  0
   40.1500    7.7280   10.1860 C   0  0  0  0  0  0  0  0  0  0  0  0
   47.8180   15.6710    9.5210 O   0  0  0  0  0  0  0  0  0  0  0  0
  1  2  1  0
  1  3  1  0
  3  4  2  0
  3  5  1  0
  4  6  1  0
  5  7  2  0
  6  8  2  0
  7  8  1  0
  7  9  1  0
  8 10  1  0
  9 11  1  0
 10 12  1  0
 11 13  2  0
 11 14  1  0
 12 15  1  0
 13 16  1  0
 14 17  2  0
 15 18  2  0
 15 19  1  0
 16 20  2  0
 17 20  1  0
 19 21  1  0
 18 22  1  0
 19 23  2  0
 20 24  1  0
 22 25  2  0
 23 25  1  0
 24 26  1  0
M  END
>  <ref_pdb>  (21) 
H-SOS3-x1629_01_Frag_0-SOS3-x1602_02_Frag_1.pdb

>  <ref_mols>  (21) 
x1602_0A,x1629_0A

>  <ddG_score>  (21) 
-13.554645063374183

>  <fragmensteinOld_score>  (21) 
-3.98894562994024

>  <LE_score>  (21) 
-0.5213325024374685

>  <comRMSD_score>  (21) 
1.0219833827345963

>  <fragmensteinNew_score>  (21) 
-0.09275035235289136

>  <aLogP_score>  (21) 
4.297500000000004

>  <hbondD_score>  (21) 
3

>  <hbondA_score>  (21) 
5

>  <polarSurfaceArea_score>  (21) 
70.95

>  <rotableBonds_score>  (21) 
7

>  <QED_score>  (21) 
0.5920076878944315

>  <energyPoseVsEnsemble_score>  (21) 
1.9502690404187366

>  <sucos_score>  (21) 
0.8737080874911418

>  <interactions_conservation_score>  (21) 
0.816496580927726

>  <interactions_novelty_score>  (21) 
0.4

>  <SAscore_score>  (21) 
1.978063951002122

>  <SCScore_score>  (21) 
2.8873565063532505

>  <original SMILES>  (21) 
COc1ccc(NCc2ccccc2O)c(Oc2ccc(CO)cc2)c1

>  <CAR_friendly>  (21) 
0

$$$$
20_SOS3-x1629_01_Frag_1-SOS3-x1602_02_Frag
     RDKit          3D

 27 30  0  0  0  0  0  0  0  0999 V2000
   43.3700   10.1660   11.1010 C   0  0  0  0  0  0  0  0  0  0  0  0
   42.1960    9.2630   10.8250 C   0  0  0  0  0  0  0  0  0  0  0  0
   41.0140    9.8370   10.3730 C   0  0  0  0  0  0  0  0  0  0  0  0
   44.5480    9.3650   11.3000 O   0  0  0  0  0  0  0  0  0  0  0  0
   42.2580    7.8750   11.0050 C   0  0  0  0  0  0  0  0  0  0  0  0
   45.6330   10.0710   11.9140 C   0  0  0  0  0  0  0  0  0  0  0  0
   43.4220    7.3240   11.4620 O   0  0  0  0  0  0  0  0  0  0  0  0
   41.1370    7.1020   10.7130 C   0  0  0  0  0  0  0  0  0  0  0  0
   39.8820    9.0550   10.0940 C   0  0  0  0  0  0  0  0  0  0  0  0
   45.2460   10.4320   13.2890 C   0  0  0  0  0  0  0  0  0  0  0  0
   39.9550    7.6970   10.2580 C   0  0  0  0  0  0  0  0  0  0  0  0
   45.0970   11.7530   13.6070 N   0  0  0  0  0  0  0  0  0  0  0  0
   44.9950    9.6260   14.3000 N   0  0  0  0  0  0  0  0  0  0  0  0
   45.3350   12.8120   12.6970 C   0  0  0  0  0  0  0  0  0  0  0  0
   44.6840   11.7970   14.9190 C   0  0  0  0  0  0  0  0  0  0  0  0
   44.6380   10.4570   15.3200 C   0  0  0  0  0  0  0  0  0  0  0  0
   44.3760   13.7740   12.4410 C   0  0  0  0  0  0  0  0  0  0  0  0
   46.5740   12.8650   12.0440 C   0  0  0  0  0  0  0  0  0  0  0  0
   44.2610   10.1380   16.6210 C   0  0  0  0  0  0  0  0  0  0  0  0
   44.3520   12.8110   15.7950 C   0  0  0  0  0  0  0  0  0  0  0  0
   44.6440   14.8020   11.5350 C   0  0  0  0  0  0  0  0  0  0  0  0
   46.8370   13.8860   11.1360 C   0  0  0  0  0  0  0  0  0  0  0  0
   43.9200   11.1620   17.5130 C   0  0  0  0  0  0  0  0  0  0  0  0
   43.9670   12.4820   17.0880 C   0  0  0  0  0  0  0  0  0  0  0  0
   45.8770   14.8640   10.8770 C   0  0  0  0  0  0  0  0  0  0  0  0
   46.2000   15.9560    9.9010 C   0  0  0  0  0  0  0  0  0  0  0  0
   47.5270   15.8250    9.4150 O   0  0  0  0  0  0  0  0  0  0  0  0
  1  2  1  0
  2  3  2  0
  1  4  1  0
  2  5  1  0
  4  6  1  0
  5  7  1  0
  5  8  2  0
  3  9  1  0
  6 10  1  0
  8 11  1  0
  9 11  2  0
 10 12  1  0
 10 13  2  0
 12 14  1  0
 12 15  1  0
 13 16  1  0
 15 16  2  0
 14 17  2  0
 14 18  1  0
 16 19  1  0
 15 20  1  0
 17 21  1  0
 18 22  2  0
 19 23  2  0
 20 24  2  0
 23 24  1  0
 21 25  2  0
 22 25  1  0
 25 26  1  0
 26 27  1  0
M  END
>  <ref_pdb>  (22) 
H-SOS3-x1629_01_Frag_1-SOS3-x1602_02_Frag_0.pdb

>  <ref_mols>  (22) 
x1602_0A,x1629_0A

>  <ddG_score>  (22) 
-14.01449175049826

>  <fragmensteinOld_score>  (22) 
-4.6130946696812

>  <LE_score>  (22) 
-0.5190552500184541

>  <comRMSD_score>  (22) 
0.2898036804184528

>  <fragmensteinNew_score>  (22) 
-1.3625248122584717

>  <aLogP_score>  (22) 
3.940200000000003

>  <hbondD_score>  (22) 
2

>  <hbondA_score>  (22) 
4

>  <polarSurfaceArea_score>  (22) 
67.51

>  <rotableBonds_score>  (22) 
6

>  <QED_score>  (22) 
0.5464837586177606

>  <energyPoseVsEnsemble_score>  (22) 
1.3037459195603325

>  <sucos_score>  (22) 
0.9145780484124142

>  <interactions_conservation_score>  (22) 
0.828078671210825

>  <interactions_novelty_score>  (22) 
0.23076923076923078

>  <SAscore_score>  (22) 
2.1979039559957627

>  <SCScore_score>  (22) 
3.646718839850177

>  <original SMILES>  (22) 
OCc1ccc(-n2c(COCc3ccccc3O)nc3ccccc32)cc1

>  <CAR_friendly>  (22) 
0

$$$$
21_SOS3-x1629_01_Frag_1-SOS3-x1602_02_Frag
     RDKit          3D

 18 19  0  0  0  0  0  0  0  0999 V2000
   43.4090   10.4460   11.2370 C   0  0  0  0  0  0  0  0  0  0  0  0
   42.3100    9.4210   10.9410 C   0  0  0  0  0  0  0  0  0  0  0  0
   41.1300    9.9080   10.3750 C   0  0  0  0  0  0  0  0  0  0  0  0
   44.1300   10.2540   12.4780 O   0  0  0  0  0  0  0  0  0  0  0  0
   42.3990    8.0370   11.1850 C   0  0  0  0  0  0  0  0  0  0  0  0
   44.5550   11.4510   13.1890 C   0  0  0  0  0  0  0  0  0  0  0  0
   43.5420    7.5410   11.7360 O   0  0  0  0  0  0  0  0  0  0  0  0
   41.3130    7.2110   10.8500 C   0  0  0  0  0  0  0  0  0  0  0  0
   40.0420    9.0840   10.0580 C   0  0  0  0  0  0  0  0  0  0  0  0
   45.1330   12.5650   12.3540 C   0  0  0  0  0  0  0  0  0  0  0  0
   40.1410    7.7390   10.2910 C   0  0  0  0  0  0  0  0  0  0  0  0
   44.2690   13.6110   12.0920 C   0  0  0  0  0  0  0  0  0  0  0  0
   46.4520   12.6010   11.8480 C   0  0  0  0  0  0  0  0  0  0  0  0
   44.6620   14.6850   11.3310 C   0  0  0  0  0  0  0  0  0  0  0  0
   46.8370   13.7070   11.0680 C   0  0  0  0  0  0  0  0  0  0  0  0
   45.9470   14.7440   10.8060 C   0  0  0  0  0  0  0  0  0  0  0  0
   46.3700   15.9120    9.9630 C   0  0  0  0  0  0  0  0  0  0  0  0
   47.7110   15.7790    9.5220 O   0  0  0  0  0  0  0  0  0  0  0  0
  1  2  1  0
  2  3  2  0
  1  4  1  0
  2  5  1  0
  4  6  1  0
  5  7  1  0
  5  8  2  0
  3  9  1  0
  6 10  1  0
  8 11  1  0
  9 11  2  0
 10 12  2  0
 10 13  1  0
 12 14  1  0
 13 15  2  0
 14 16  2  0
 15 16  1  0
 16 17  1  0
 17 18  1  0
M  END
>  <ref_pdb>  (23) 
H-SOS3-x1629_01_Frag_1-SOS3-x1602_02_Frag_1.pdb

>  <ref_mols>  (23) 
x1602_0A,x1629_0A

>  <ddG_score>  (23) 
-7.29504144810399

>  <fragmensteinOld_score>  (23) 
-1.4194740993737076

>  <LE_score>  (23) 
-0.4052800804502217

>  <comRMSD_score>  (23) 
1.2395341902470902

>  <fragmensteinNew_score>  (23) 
1.3493663279194195

>  <aLogP_score>  (23) 
2.6013000000000015

>  <hbondD_score>  (23) 
2

>  <hbondA_score>  (23) 
3

>  <polarSurfaceArea_score>  (23) 
49.69

>  <rotableBonds_score>  (23) 
5

>  <QED_score>  (23) 
0.8495904043017809

>  <energyPoseVsEnsemble_score>  (23) 
1.78565294617798

>  <sucos_score>  (23) 
0.9054042608517991

>  <interactions_conservation_score>  (23) 
0.0

>  <interactions_novelty_score>  (23) 
0.16666666666666666

>  <SAscore_score>  (23) 
1.805484360903158

>  <SCScore_score>  (23) 
1.9765760096252158

>  <original SMILES>  (23) 
OCc1ccc(COCc2ccccc2O)cc1

>  <CAR_friendly>  (23) 
0

$$$$
22_SOS3-x1629_01_Frag_2-SOS3-x1602_02_Frag
     RDKit          3D

 18 19  0  0  0  0  0  0  0  0999 V2000
   44.7310    9.7460   12.1700 N   0  0  0  0  0  0  0  0  0  0  0  0
   44.6550   10.0800   13.5940 C   0  0  0  0  0  0  0  0  0  0  0  0
   44.1880   11.3140   14.0190 C   0  0  0  0  0  0  0  0  0  0  0  0
   45.0460    9.1710   14.5670 C   0  0  0  0  0  0  0  0  0  0  0  0
   44.9610    9.5020   15.9130 C   0  0  0  0  0  0  0  0  0  0  0  0
   44.0820   11.6790   15.3650 C   0  0  0  0  0  0  0  0  0  0  0  0
   43.8110   12.1940   13.1060 O   0  0  0  0  0  0  0  0  0  0  0  0
   44.4770   10.7530   16.3150 C   0  0  0  0  0  0  0  0  0  0  0  0
   44.6270   13.0160   12.3700 C   0  0  0  0  0  0  0  0  0  0  0  0
   44.3710   11.1500   17.6150 O   0  0  0  0  0  0  0  0  0  0  0  0
   43.9670   14.0800   11.8940 C   0  0  0  0  0  0  0  0  0  0  0  0
   46.0190   12.8370   12.0780 C   0  0  0  0  0  0  0  0  0  0  0  0
   43.2860   11.9320   18.0140 C   0  0  0  0  0  0  0  0  0  0  0  0
   44.5590   15.0100   11.1270 C   0  0  0  0  0  0  0  0  0  0  0  0
   46.6290   13.8280   11.2610 C   0  0  0  0  0  0  0  0  0  0  0  0
   45.8830   14.9140   10.7890 C   0  0  0  0  0  0  0  0  0  0  0  0
   46.4400   15.9970    9.9190 C   0  0  0  0  0  0  0  0  0  0  0  0
   47.7810   15.7430    9.5530 O   0  0  0  0  0  0  0  0  0  0  0  0
  1  2  1  0
  2  3  2  0
  2  4  1  0
  4  5  2  0
  3  6  1  0
  3  7  1  0
  5  8  1  0
  6  8  2  0
  7  9  1  0
  8 10  1  0
  9 11  2  0
  9 12  1  0
 10 13  1  0
 11 14  1  0
 12 15  2  0
 14 16  2  0
 15 16  1  0
 16 17  1  0
 17 18  1  0
M  END
>  <ref_pdb>  (24) 
H-SOS3-x1629_01_Frag_2-SOS3-x1602_02_Frag_1.pdb

>  <ref_mols>  (24) 
x1602_0A,x1629_0A

>  <ddG_score>  (24) 
-10.673753394715735

>  <fragmensteinOld_score>  (24) 
-2.3867419285830236

>  <LE_score>  (24) 
-0.5929862997064297

>  <comRMSD_score>  (24) 
1.2480087503601236

>  <fragmensteinNew_score>  (24) 
0.7147155186823457

>  <aLogP_score>  (24) 
2.5620000000000007

>  <hbondD_score>  (24) 
2

>  <hbondA_score>  (24) 
4

>  <polarSurfaceArea_score>  (24) 
64.71000000000001

>  <rotableBonds_score>  (24) 
4

>  <QED_score>  (24) 
0.8124024823248818

>  <energyPoseVsEnsemble_score>  (24) 
1.7276064561536009

>  <sucos_score>  (24) 
0.8523608266731486

>  <interactions_conservation_score>  (24) 
0.816496580927726

>  <interactions_novelty_score>  (24) 
0.5714285714285714

>  <SAscore_score>  (24) 
1.7460869192045845

>  <SCScore_score>  (24) 
2.2764143401543357

>  <original SMILES>  (24) 
COc1ccc(N)c(Oc2ccc(CO)cc2)c1

>  <CAR_friendly>  (24) 
0

$$$$
23_SOS3-x1629_01_Frag_3-SOS3-x1602_02_Frag
     RDKit          3D

 17 18  0  0  0  0  0  0  0  0999 V2000
   44.2480   10.9740   17.5900 O   0  0  0  0  0  0  0  0  0  0  0  0
   43.2770   11.9410   17.8650 C   0  0  0  0  0  0  0  0  0  0  0  0
   44.3930   10.7370   16.2710 C   0  0  0  0  0  0  0  0  0  0  0  0
   44.9610    9.5020   15.9510 C   0  0  0  0  0  0  0  0  0  0  0  0
   44.0190   11.6260   15.2800 C   0  0  0  0  0  0  0  0  0  0  0  0
   45.1580    9.1330   14.6230 C   0  0  0  0  0  0  0  0  0  0  0  0
   44.2370   11.2170   13.9750 C   0  0  0  0  0  0  0  0  0  0  0  0
   44.7860   10.0080   13.6290 C   0  0  0  0  0  0  0  0  0  0  0  0
   43.8790   12.0390   13.0120 O   0  0  0  0  0  0  0  0  0  0  0  0
   44.6900   12.8790   12.3150 C   0  0  0  0  0  0  0  0  0  0  0  0
   44.0160   13.9350   11.8470 C   0  0  0  0  0  0  0  0  0  0  0  0
   46.0890   12.7340   12.0450 C   0  0  0  0  0  0  0  0  0  0  0  0
   44.6060   14.8710   11.1040 C   0  0  0  0  0  0  0  0  0  0  0  0
   46.6940   13.7440   11.2530 C   0  0  0  0  0  0  0  0  0  0  0  0
   45.9350   14.8120   10.7830 C   0  0  0  0  0  0  0  0  0  0  0  0
   46.4790   15.9190    9.9340 C   0  0  0  0  0  0  0  0  0  0  0  0
   47.8220   15.6950    9.5590 O   0  0  0  0  0  0  0  0  0  0  0  0
  1  2  1  0
  1  3  1  0
  3  4  2  0
  3  5  1  0
  4  6  1  0
  5  7  2  0
  6  8  2  0
  7  8  1  0
  7  9  1  0
  9 10  1  0
 10 11  2  0
 10 12  1  0
 11 13  1  0
 12 14  2  0
 13 15  2  0
 14 15  1  0
 15 16  1  0
 16 17  1  0
M  END
>  <ref_pdb>  (25) 
H-SOS3-x1629_01_Frag_3-SOS3-x1602_02_Frag_1.pdb

>  <ref_mols>  (25) 
x1602_0A,x1629_0A

>  <ddG_score>  (25) 
-10.707165238916929

>  <fragmensteinOld_score>  (25) 
-2.2545844693350086

>  <LE_score>  (25) 
-0.6298332493480546

>  <comRMSD_score>  (25) 
1.2868485784483772

>  <fragmensteinNew_score>  (25) 
0.9253242883653366

>  <aLogP_score>  (25) 
2.9798000000000013

>  <hbondD_score>  (25) 
1

>  <hbondA_score>  (25) 
3

>  <polarSurfaceArea_score>  (25) 
38.69

>  <rotableBonds_score>  (25) 
4

>  <QED_score>  (25) 
0.8771092194977018

>  <energyPoseVsEnsemble_score>  (25) 
1.8954914560035092

>  <sucos_score>  (25) 
0.8397628108382906

>  <interactions_conservation_score>  (25) 
0.816496580927726

>  <interactions_novelty_score>  (25) 
0.625

>  <SAscore_score>  (25) 
1.5214066132377297

>  <SCScore_score>  (25) 
1.8171602088597159

>  <original SMILES>  (25) 
COc1cccc(Oc2ccc(CO)cc2)c1

>  <CAR_friendly>  (25) 
1

$$$$
24_SOS3-x1629_01_Frag_4-SOS3-x1602_02_Frag
     RDKit          3D

 19 20  0  0  0  0  0  0  0  0999 V2000
   44.2050    9.5740   12.2580 N   0  0  0  0  0  0  0  0  0  0  0  0
   43.3020   10.2250   11.2910 C   0  0  0  0  0  0  0  0  0  0  0  0
   42.1370    9.3100   10.9920 C   0  0  0  0  0  0  0  0  0  0  0  0
   45.2560   10.4260   12.8200 C   0  0  0  0  0  0  0  0  0  0  0  0
   44.7320   11.8030   13.1670 C   0  0  0  0  0  0  0  0  0  0  0  0
   42.1910    7.9280   11.2470 C   0  0  0  0  0  0  0  0  0  0  0  0
   40.9780    9.8580   10.4510 C   0  0  0  0  0  0  0  0  0  0  0  0
   45.3020   12.8700   12.3480 C   0  0  0  0  0  0  0  0  0  0  0  0
   43.3380    7.4030   11.7750 O   0  0  0  0  0  0  0  0  0  0  0  0
   41.0790    7.1370   10.9520 C   0  0  0  0  0  0  0  0  0  0  0  0
   39.8600    9.0560   10.1640 C   0  0  0  0  0  0  0  0  0  0  0  0
   44.3900   13.8160   11.9830 C   0  0  0  0  0  0  0  0  0  0  0  0
   46.6460   12.9310   11.9480 C   0  0  0  0  0  0  0  0  0  0  0  0
   39.9190    7.7020   10.4140 C   0  0  0  0  0  0  0  0  0  0  0  0
   44.7640   14.8470   11.1900 C   0  0  0  0  0  0  0  0  0  0  0  0
   47.0160   14.0010   11.1340 C   0  0  0  0  0  0  0  0  0  0  0  0
   46.0780   14.9520   10.7500 C   0  0  0  0  0  0  0  0  0  0  0  0
   46.4710   16.0810    9.8620 C   0  0  0  0  0  0  0  0  0  0  0  0
   47.8190   15.9570    9.4520 O   0  0  0  0  0  0  0  0  0  0  0  0
  1  2  1  0
  2  3  1  0
  1  4  1  0
  4  5  1  0
  3  6  2  0
  3  7  1  0
  5  8  1  0
  6  9  1  0
  6 10  1  0
  7 11  2  0
  8 12  2  0
  8 13  1  0
 10 14  2  0
 11 14  1  0
 12 15  1  0
 13 16  2  0
 15 17  2  0
 16 17  1  0
 17 18  1  0
 18 19  1  0
M  END
>  <ref_pdb>  (26) 
H-SOS3-x1629_01_Frag_4-SOS3-x1602_02_Frag_1.pdb

>  <ref_mols>  (26) 
x1602_0A,x1629_0A

>  <ddG_score>  (26) 
-9.480449487325979

>  <fragmensteinOld_score>  (26) 
-1.9951985820083458

>  <LE_score>  (26) 
-0.49897102564873574

>  <comRMSD_score>  (26) 
1.2008913154568501

>  <fragmensteinNew_score>  (26) 
0.9922737007112705

>  <aLogP_score>  (26) 
2.2168000000000005

>  <hbondD_score>  (26) 
3

>  <hbondA_score>  (26) 
3

>  <polarSurfaceArea_score>  (26) 
52.489999999999995

>  <rotableBonds_score>  (26) 
6

>  <QED_score>  (26) 
0.6954772770473928

>  <energyPoseVsEnsemble_score>  (26) 
1.7269788267951256

>  <sucos_score>  (26) 
0.9149462118564986

>  <interactions_conservation_score>  (26) 
0.5163977794943222

>  <interactions_novelty_score>  (26) 
0.14285714285714285

>  <SAscore_score>  (26) 
1.7687994330350065

>  <SCScore_score>  (26) 
2.9775187891137707

>  <original SMILES>  (26) 
OCc1ccc(CCNCc2ccccc2O)cc1

>  <CAR_friendly>  (26) 
0

$$$$
25_SOS3-x1629_01_Frag_6-SOS3-x1602_02_Frag
     RDKit          3D

 19 20  0  0  0  0  0  0  0  0999 V2000
   43.4550   10.4780   11.3030 C   0  0  0  0  0  0  0  0  0  0  0  0
   44.5720   10.0000   12.1300 N   0  0  0  0  0  0  0  0  0  0  0  0
   44.5360   10.1630   13.5380 C   0  0  0  0  0  0  0  0  0  0  0  0
   44.9020    9.1990   14.4620 C   0  0  0  0  0  0  0  0  0  0  0  0
   44.1050   11.3710   14.0240 C   0  0  0  0  0  0  0  0  0  0  0  0
   44.8130    9.4830   15.8370 C   0  0  0  0  0  0  0  0  0  0  0  0
   44.0000   11.6770   15.3640 C   0  0  0  0  0  0  0  0  0  0  0  0
   43.7690   12.2770   13.1230 O   0  0  0  0  0  0  0  0  0  0  0  0
   44.3580   10.7240   16.3070 C   0  0  0  0  0  0  0  0  0  0  0  0
   44.7030   12.9650   12.4030 C   0  0  0  0  0  0  0  0  0  0  0  0
   44.3170   10.8830   17.6540 O   0  0  0  0  0  0  0  0  0  0  0  0
   44.0100   13.9780   11.8860 C   0  0  0  0  0  0  0  0  0  0  0  0
   46.0960   12.8130   12.1280 C   0  0  0  0  0  0  0  0  0  0  0  0
   43.3690   11.8120   18.1280 C   0  0  0  0  0  0  0  0  0  0  0  0
   44.5940   14.8830   11.0880 C   0  0  0  0  0  0  0  0  0  0  0  0
   46.7000   13.7720   11.2870 C   0  0  0  0  0  0  0  0  0  0  0  0
   45.9250   14.8160   10.7690 C   0  0  0  0  0  0  0  0  0  0  0  0
   46.4570   15.8850    9.8710 C   0  0  0  0  0  0  0  0  0  0  0  0
   47.8020   15.6580    9.5070 O   0  0  0  0  0  0  0  0  0  0  0  0
  1  2  1  0
  2  3  1  0
  3  4  2  0
  3  5  1  0
  4  6  1  0
  5  7  2  0
  5  8  1  0
  6  9  2  0
  7  9  1  0
  8 10  1  0
  9 11  1  0
 10 12  2  0
 10 13  1  0
 11 14  1  0
 12 15  1  0
 13 16  2  0
 15 17  2  0
 16 17  1  0
 17 18  1  0
 18 19  1  0
M  END
>  <ref_pdb>  (27) 
H-SOS3-x1629_01_Frag_6-SOS3-x1602_02_Frag_1.pdb

>  <ref_mols>  (27) 
x1602_0A,x1629_0A

>  <ddG_score>  (27) 
-11.76414245380568

>  <fragmensteinOld_score>  (27) 
-2.752308583399395

>  <LE_score>  (27) 
-0.6191653923055621

>  <comRMSD_score>  (27) 
1.2005199073617412

>  <fragmensteinNew_score>  (27) 
0.46022987233202295

>  <aLogP_score>  (27) 
3.021500000000002

>  <hbondD_score>  (27) 
2

>  <hbondA_score>  (27) 
4

>  <polarSurfaceArea_score>  (27) 
50.72

>  <rotableBonds_score>  (27) 
5

>  <QED_score>  (27) 
0.8662454559323546

>  <energyPoseVsEnsemble_score>  (27) 
2.36419430691697

>  <sucos_score>  (27) 
0.8552503554288108

>  <interactions_conservation_score>  (27) 
0.5773502691896257

>  <interactions_novelty_score>  (27) 
0.5

>  <SAscore_score>  (27) 
1.8486925332681068

>  <SCScore_score>  (27) 
2.766469459956822

>  <original SMILES>  (27) 
CNc1ccc(OC)cc1Oc1ccc(CO)cc1

>  <CAR_friendly>  (27) 
0

$$$$
26_SOS3-x1154_00_Frag_2-SOS3-x1257_02_Frag
     RDKit          3D

 24 25  0  0  0  0  0  0  0  0999 V2000
   51.0310   24.5930    5.2560 N   0  0  0  0  0  0  0  0  0  0  0  0
   50.8450   25.9770    5.1090 C   0  0  0  0  0  0  0  0  0  0  0  0
   50.5110   26.4380    3.8420 C   0  0  0  0  0  0  0  0  0  0  0  0
   51.0310   24.0770    6.6050 C   0  0  0  0  0  0  0  0  0  0  0  0
   50.9840   26.8250    6.1450 N   0  0  0  0  0  0  0  0  0  0  0  0
   49.7350   23.4150    6.9670 C   0  0  0  0  0  0  0  0  0  0  0  0
   50.3850   25.5720    2.8340 F   0  0  0  0  0  0  0  0  0  0  0  0
   50.7860   28.1460    5.9170 C   0  0  0  0  0  0  0  0  0  0  0  0
   50.3080   27.7920    3.6190 C   0  0  0  0  0  0  0  0  0  0  0  0
   49.6690   22.6880    8.2840 C   0  0  0  0  0  0  0  0  0  0  0  0
   50.4490   28.6710    4.6820 C   0  0  0  0  0  0  0  0  0  0  0  0
   50.4940   21.4020    8.3490 C   0  0  2  0  0  0  0  0  0  0  0  0
   49.8460   20.3780    7.5140 N   0  0  0  0  0  0  0  0  0  0  0  0
   50.5650   21.0260    9.8070 C   0  0  0  0  0  0  0  0  0  0  0  0
   50.6790   19.1210    6.8170 S   0  0  0  0  0  0  0  0  0  0  0  0
   49.9040   19.9020   10.2960 C   0  0  0  0  0  0  0  0  0  0  0  0
   51.3040   21.8110   10.7140 C   0  0  0  0  0  0  0  0  0  0  0  0
   48.9290   18.8480    9.3300 Cl  0  0  0  0  0  0  0  0  0  0  0  0
   51.0960   19.5350    5.4910 O   0  0  0  0  0  0  0  0  0  0  0  0
   49.9840   17.8740    7.0600 O   0  0  0  0  0  0  0  0  0  0  0  0
   52.1260   19.1160    7.8080 C   0  0  0  0  0  0  0  0  0  0  0  0
   51.3830   21.4550   12.0590 C   0  0  0  0  0  0  0  0  0  0  0  0
   50.0060   19.5770   11.6220 C   0  0  0  0  0  0  0  0  0  0  0  0
   50.7370   20.3310   12.5080 C   0  0  0  0  0  0  0  0  0  0  0  0
  1  2  1  0
  2  3  2  0
  1  4  1  0
  2  5  1  0
  4  6  1  0
  3  7  1  0
  5  8  2  0
  3  9  1  0
  6 10  1  0
  8 11  1  0
  9 11  2  0
 12 10  1  1
 12 13  1  0
 12 14  1  0
 13 15  1  0
 14 16  2  0
 14 17  1  0
 16 18  1  0
 15 19  2  0
 15 20  2  0
 15 21  1  0
 17 22  2  0
 16 23  1  0
 22 24  1  0
 23 24  2  0
M  END
>  <ref_pdb>  (28) 
H-SOS3-x1154_00_Frag_2-SOS3-x1257_02_Frag_0.pdb

>  <ref_mols>  (28) 
x1154_2A,x1257_2A

>  <ddG_score>  (28) 
-8.57152999783024

>  <fragmensteinOld_score>  (28) 
-3.221246183378579

>  <LE_score>  (28) 
-0.35714708324292666

>  <comRMSD_score>  (28) 
0.29305981618746907

>  <fragmensteinNew_score>  (28) 
-1.1152899428542076

>  <aLogP_score>  (28) 
3.356700000000002

>  <hbondD_score>  (28) 
2

>  <hbondA_score>  (28) 
4

>  <polarSurfaceArea_score>  (28) 
71.09

>  <rotableBonds_score>  (28) 
8

>  <QED_score>  (28) 
0.6978779152878113

>  <energyPoseVsEnsemble_score>  (28) 
2.504222628739739

>  <sucos_score>  (28) 
0.9228505041145075

>  <interactions_conservation_score>  (28) 
0.6761234037828132

>  <interactions_novelty_score>  (28) 
0.18181818181818182

>  <SAscore_score>  (28) 
2.8537983318554154

>  <SCScore_score>  (28) 
3.9940784663824265

>  <original SMILES>  (28) 
CS(=O)(=O)N[C@@H](CCCNc1ncccc1F)c1ccccc1Cl

>  <CAR_friendly>  (28) 
0

$$$$
27_SOS3-x1154_00_Frag_2-SOS3-x1257_02_Frag
     RDKit          3D

 19 20  0  0  0  0  0  0  0  0999 V2000
   51.0330   24.5700    5.3130 N   0  0  0  0  0  0  0  0  0  0  0  0
   50.8460   25.9510    5.1470 C   0  0  0  0  0  0  0  0  0  0  0  0
   50.5120   26.4010    3.8770 C   0  0  0  0  0  0  0  0  0  0  0  0
   51.0850   24.1090    6.6740 C   0  0  0  0  0  0  0  0  0  0  0  0
   50.9830   26.8080    6.1750 N   0  0  0  0  0  0  0  0  0  0  0  0
   49.8190   23.3490    6.9560 C   0  0  0  0  0  0  0  0  0  0  0  0
   50.3850   25.5290    2.8730 F   0  0  0  0  0  0  0  0  0  0  0  0
   50.7860   28.1260    5.9360 C   0  0  0  0  0  0  0  0  0  0  0  0
   50.3090   27.7500    3.6430 C   0  0  0  0  0  0  0  0  0  0  0  0
   49.6830   22.7390    8.3290 C   0  0  0  0  0  0  0  0  0  0  0  0
   50.4490   28.6420    4.6990 C   0  0  0  0  0  0  0  0  0  0  0  0
   50.3980   21.3940    8.4990 C   0  0  0  0  0  0  0  0  0  0  0  0
   50.4300   20.8940    9.9170 C   0  0  0  0  0  0  0  0  0  0  0  0
   51.0720   21.6870   10.8640 C   0  0  0  0  0  0  0  0  0  0  0  0
   49.8570   19.6880   10.3290 C   0  0  0  0  0  0  0  0  0  0  0  0
   49.0140   18.6480    9.2410 Cl  0  0  0  0  0  0  0  0  0  0  0  0
   51.1670   21.2920   12.2020 C   0  0  0  0  0  0  0  0  0  0  0  0
   49.9490   19.2800   11.6550 C   0  0  0  0  0  0  0  0  0  0  0  0
   50.6000   20.0720   12.5820 C   0  0  0  0  0  0  0  0  0  0  0  0
  1  2  1  0
  2  3  2  0
  1  4  1  0
  2  5  1  0
  4  6  1  0
  3  7  1  0
  5  8  2  0
  3  9  1  0
  6 10  1  0
  8 11  1  0
  9 11  2  0
 10 12  1  0
 12 13  1  0
 13 14  2  0
 13 15  1  0
 15 16  1  0
 14 17  1  0
 15 18  2  0
 17 19  2  0
 18 19  1  0
M  END
>  <ref_pdb>  (29) 
H-SOS3-x1154_00_Frag_2-SOS3-x1257_02_Frag_2.pdb

>  <ref_mols>  (29) 
x1154_2A,x1257_2A

>  <ddG_score>  (29) 
-9.09016131703855

>  <fragmensteinOld_score>  (29) 
-2.809964433965555

>  <LE_score>  (29) 
-0.47842954300202895

>  <comRMSD_score>  (29) 
0.30806782944215494

>  <fragmensteinNew_score>  (29) 
-0.7728317886714131

>  <aLogP_score>  (29) 
4.308900000000003

>  <hbondD_score>  (29) 
1

>  <hbondA_score>  (29) 
2

>  <polarSurfaceArea_score>  (29) 
24.92

>  <rotableBonds_score>  (29) 
6

>  <QED_score>  (29) 
0.7966651321838324

>  <energyPoseVsEnsemble_score>  (29) 
1.4094234765499385

>  <sucos_score>  (29) 
0.9351934413619896

>  <interactions_conservation_score>  (29) 
0.828078671210825

>  <interactions_novelty_score>  (29) 
0.09090909090909091

>  <SAscore_score>  (29) 
1.9563443281399024

>  <SCScore_score>  (29) 
3.1673291167726694

>  <original SMILES>  (29) 
Fc1cccnc1NCCCCc1ccccc1Cl

>  <CAR_friendly>  (29) 
0

$$$$
28_SOS3-x1154_00_Frag_2-SOS3-x1257_02_Frag
     RDKit          3D

 20 21  0  0  0  0  0  0  0  0999 V2000
   51.0130   24.5220    5.3320 N   0  0  0  0  0  0  0  0  0  0  0  0
   50.8500   25.9030    5.1870 C   0  0  0  0  0  0  0  0  0  0  0  0
   50.5100   26.3750    3.9250 C   0  0  0  0  0  0  0  0  0  0  0  0
   51.0350   24.0470    6.6890 C   0  0  0  0  0  0  0  0  0  0  0  0
   51.0160   26.7340    6.2330 N   0  0  0  0  0  0  0  0  0  0  0  0
   49.8020   23.2410    6.9340 C   0  0  0  0  0  0  0  0  0  0  0  0
   50.3580   25.5170    2.9130 F   0  0  0  0  0  0  0  0  0  0  0  0
   50.8360   28.0610    6.0050 C   0  0  0  0  0  0  0  0  0  0  0  0
   50.3270   27.7280    3.7070 C   0  0  0  0  0  0  0  0  0  0  0  0
   49.6480   22.6650    8.3180 C   0  0  0  0  0  0  0  0  0  0  0  0
   50.4930   28.6000    4.7730 C   0  0  0  0  0  0  0  0  0  0  0  0
   50.3950   21.3500    8.5480 C   0  0  2  0  0  0  0  0  0  0  0  0
   50.0570   20.3730    7.5110 N   0  0  0  0  0  0  0  0  0  0  0  0
   50.3530   20.8280    9.9550 C   0  0  0  0  0  0  0  0  0  0  0  0
   50.8550   21.6540   10.9530 C   0  0  0  0  0  0  0  0  0  0  0  0
   49.8480   19.5700   10.3140 C   0  0  0  0  0  0  0  0  0  0  0  0
   49.1600   18.4740    9.1760 Cl  0  0  0  0  0  0  0  0  0  0  0  0
   50.8790   21.2300   12.3000 C   0  0  0  0  0  0  0  0  0  0  0  0
   49.8770   19.1390   11.6340 C   0  0  0  0  0  0  0  0  0  0  0  0
   50.3930   19.9520   12.6140 C   0  0  0  0  0  0  0  0  0  0  0  0
  1  2  1  0
  2  3  2  0
  1  4  1  0
  2  5  1  0
  4  6  1  0
  3  7  1  0
  5  8  2  0
  3  9  1  0
  6 10  1  0
  8 11  1  0
  9 11  2  0
 10 12  1  0
 12 13  1  6
 12 14  1  0
 14 15  2  0
 14 16  1  0
 16 17  1  0
 15 18  1  0
 16 19  2  0
 18 20  2  0
 19 20  1  0
M  END
>  <ref_pdb>  (30) 
H-SOS3-x1154_00_Frag_2-SOS3-x1257_02_Frag_4.pdb

>  <ref_mols>  (30) 
x1154_2A,x1257_2A

>  <ddG_score>  (30) 
-5.604920518126455

>  <fragmensteinOld_score>  (30) 
-2.150664155463406

>  <LE_score>  (30) 
-0.28024602590632275

>  <comRMSD_score>  (30) 
0.3703199481618849

>  <fragmensteinNew_score>  (30) 
-0.5980927849316082

>  <aLogP_score>  (30) 
3.7662000000000013

>  <hbondD_score>  (30) 
2

>  <hbondA_score>  (30) 
3

>  <polarSurfaceArea_score>  (30) 
50.94

>  <rotableBonds_score>  (30) 
6

>  <QED_score>  (30) 
0.7972843932068271

>  <energyPoseVsEnsemble_score>  (30) 
1.418429780929233

>  <sucos_score>  (30) 
0.9280662249683077

>  <interactions_conservation_score>  (30) 
0.6324555320336759

>  <interactions_novelty_score>  (30) 
0.125

>  <SAscore_score>  (30) 
2.636238299509177

>  <SCScore_score>  (30) 
3.624271260860934

>  <original SMILES>  (30) 
N[C@@H](CCCNc1ncccc1F)c1ccccc1Cl

>  <CAR_friendly>  (30) 
0

$$$$
29_SOS3-x1154_00_Frag_2-SOS3-x1257_02_Frag
     RDKit          3D

 17 17  0  0  0  0  0  0  0  0999 V2000
   50.9820   24.5110    5.3590 N   0  0  0  0  0  0  0  0  0  0  0  0
   50.8250   25.8950    5.2050 C   0  0  0  0  0  0  0  0  0  0  0  0
   50.4940   26.3700    3.9340 C   0  0  0  0  0  0  0  0  0  0  0  0
   51.0670   23.9620    6.6900 C   0  0  0  0  0  0  0  0  0  0  0  0
   50.9890   26.7290    6.2480 N   0  0  0  0  0  0  0  0  0  0  0  0
   49.9480   23.2150    6.9640 C   0  0  0  0  0  0  0  0  0  0  0  0
   50.3470   25.5120    2.9230 F   0  0  0  0  0  0  0  0  0  0  0  0
   50.8170   28.0580    6.0110 C   0  0  0  0  0  0  0  0  0  0  0  0
   50.3210   27.7240    3.7090 C   0  0  0  0  0  0  0  0  0  0  0  0
   49.8500   22.6190    8.3470 C   0  0  0  0  0  0  0  0  0  0  0  0
   50.4860   28.5960    4.7760 C   0  0  0  0  0  0  0  0  0  0  0  0
   50.5910   21.2790    8.5130 C   0  0  0  0  0  0  0  0  0  0  0  0
   50.0540   20.2920    7.5600 N   0  0  0  0  0  0  0  0  0  0  0  0
   50.9430   19.0150    6.9600 S   0  0  0  0  0  0  0  0  0  0  0  0
   51.3260   19.3740    5.6080 O   0  0  0  0  0  0  0  0  0  0  0  0
   50.2500   17.7810    7.2610 O   0  0  0  0  0  0  0  0  0  0  0  0
   52.4200   19.0570    7.9500 C   0  0  0  0  0  0  0  0  0  0  0  0
  1  2  1  0
  2  3  2  0
  1  4  1  0
  2  5  1  0
  4  6  1  0
  3  7  1  0
  5  8  2  0
  3  9  1  0
  6 10  1  0
  8 11  1  0
  9 11  2  0
 10 12  1  0
 12 13  1  0
 13 14  1  0
 14 15  2  0
 14 16  2  0
 14 17  1  0
M  END
>  <ref_pdb>  (31) 
H-SOS3-x1154_00_Frag_2-SOS3-x1257_02_Frag_5.pdb

>  <ref_mols>  (31) 
x1154_2A,x1257_2A

>  <ddG_score>  (31) 
-5.8261489473616965

>  <fragmensteinOld_score>  (31) 
-2.081061968795876

>  <LE_score>  (31) 
-0.3427146439624527

>  <comRMSD_score>  (31) 
0.18416782067646345

>  <fragmensteinNew_score>  (31) 
-0.47806614812578174

>  <aLogP_score>  (31) 
0.962

>  <hbondD_score>  (31) 
2

>  <hbondA_score>  (31) 
4

>  <polarSurfaceArea_score>  (31) 
71.09

>  <rotableBonds_score>  (31) 
7

>  <QED_score>  (31) 
0.7172359121073715

>  <energyPoseVsEnsemble_score>  (31) 
3.8389389085270955

>  <sucos_score>  (31) 
0.9693146255919196

>  <interactions_conservation_score>  (31) 
0.8944271909999159

>  <interactions_novelty_score>  (31) 
0.0

>  <SAscore_score>  (31) 
2.2229153543446465

>  <SCScore_score>  (31) 
3.1814813077593156

>  <original SMILES>  (31) 
CS(=O)(=O)NCCCCNc1ncccc1F

>  <CAR_friendly>  (31) 
0

$$$$
30_SOS3-x1154_00_Frag_6-SOS3-x1257_02_Frag
     RDKit          3D

 24 25  0  0  0  0  0  0  0  0999 V2000
   51.3250   23.9620    6.6160 C   0  0  0  0  0  0  0  0  0  0  0  0
   51.3730   24.5840    5.3220 N   0  0  0  0  0  0  0  0  0  0  0  0
   51.0480   25.9410    5.1750 C   0  0  0  0  0  0  0  0  0  0  0  0
   50.2120   23.0940    6.6110 O   0  0  0  0  0  0  0  0  0  0  0  0
   49.7600   22.6180    7.8890 C   0  0  0  0  0  0  0  0  0  0  0  0
   51.1570   26.8160    6.1940 N   0  0  0  0  0  0  0  0  0  0  0  0
   50.6130   26.3550    3.9170 C   0  0  0  0  0  0  0  0  0  0  0  0
   50.4850   21.2780    8.1730 C   0  0  2  0  0  0  0  0  0  0  0  0
   50.5090   25.4650    2.9220 F   0  0  0  0  0  0  0  0  0  0  0  0
   50.8370   28.1110    5.9560 C   0  0  0  0  0  0  0  0  0  0  0  0
   50.2880   27.6810    3.6850 C   0  0  0  0  0  0  0  0  0  0  0  0
   49.9630   20.2430    7.2560 N   0  0  0  0  0  0  0  0  0  0  0  0
   50.3670   20.7660    9.5890 C   0  0  0  0  0  0  0  0  0  0  0  0
   50.4050   28.5870    4.7320 C   0  0  0  0  0  0  0  0  0  0  0  0
   50.9130   18.9540    6.8240 S   0  0  0  0  0  0  0  0  0  0  0  0
   49.3990   19.8620   10.0310 C   0  0  0  0  0  0  0  0  0  0  0  0
   51.2820   21.2120   10.4830 C   0  0  0  0  0  0  0  0  0  0  0  0
   48.1480   19.1850    9.0630 Cl  0  0  0  0  0  0  0  0  0  0  0  0
   51.3620   19.2440    5.4750 O   0  0  0  0  0  0  0  0  0  0  0  0
   50.2120   17.7310    7.1590 O   0  0  0  0  0  0  0  0  0  0  0  0
   52.2960   19.0800    7.9280 C   0  0  0  0  0  0  0  0  0  0  0  0
   51.2550   20.7650   11.8010 C   0  0  0  0  0  0  0  0  0  0  0  0
   49.4190   19.4590   11.3440 C   0  0  0  0  0  0  0  0  0  0  0  0
   50.3480   19.9030   12.2410 C   0  0  0  0  0  0  0  0  0  0  0  0
  1  2  1  0
  2  3  1  0
  1  4  1  0
  4  5  1  0
  3  6  2  0
  3  7  1  0
  8  5  1  1
  7  9  1  0
  6 10  1  0
  7 11  2  0
  8 12  1  0
  8 13  1  0
 10 14  2  0
 11 14  1  0
 12 15  1  0
 13 16  2  0
 13 17  1  0
 16 18  1  0
 15 19  2  0
 15 20  2  0
 15 21  1  0
 17 22  2  0
 16 23  1  0
 22 24  1  0
 23 24  2  0
M  END
>  <ref_pdb>  (32) 
H-SOS3-x1154_00_Frag_6-SOS3-x1257_02_Frag_0.pdb

>  <ref_mols>  (32) 
x1154_2A,x1257_2A

>  <ddG_score>  (32) 
-8.140713701677853

>  <fragmensteinOld_score>  (32) 
-3.3267036462307242

>  <LE_score>  (32) 
-0.3391964042365772

>  <comRMSD_score>  (32) 
0.4014390941048462

>  <fragmensteinNew_score>  (32) 
-1.1191297789066956

>  <aLogP_score>  (32) 
2.5506

>  <hbondD_score>  (32) 
2

>  <hbondA_score>  (32) 
5

>  <polarSurfaceArea_score>  (32) 
80.32

>  <rotableBonds_score>  (32) 
8

>  <QED_score>  (32) 
0.5487645770487681

>  <energyPoseVsEnsemble_score>  (32) 
2.1578791659784864

>  <sucos_score>  (32) 
0.8860053096914681

>  <interactions_conservation_score>  (32) 
0.5669467095138409

>  <interactions_novelty_score>  (32) 
0.14285714285714285

>  <SAscore_score>  (32) 
3.1560702032675856

>  <SCScore_score>  (32) 
3.4979038814027232

>  <original SMILES>  (32) 
CS(=O)(=O)N[C@@H](COCNc1ncccc1F)c1ccccc1Cl

>  <CAR_friendly>  (32) 
0

$$$$
31_SOS3-x1154_00_Frag_6-SOS3-x1257_02_Frag
     RDKit          3D

 16 16  0  0  0  0  0  0  0  0999 V2000
   51.6120   23.9740    6.9980 C   0  0  0  0  0  0  0  0  0  0  0  0
   50.8690   24.3500    5.7830 N   0  0  0  0  0  0  0  0  0  0  0  0
   50.7500   25.7370    5.4410 C   0  0  0  0  0  0  0  0  0  0  0  0
   51.5800   22.5960    7.4190 O   0  0  0  0  0  0  0  0  0  0  0  0
   50.4390   21.8700    6.9790 C   0  0  0  0  0  0  0  0  0  0  0  0
   50.8940   26.6960    6.3840 N   0  0  0  0  0  0  0  0  0  0  0  0
   50.4760   26.1240    4.1090 C   0  0  0  0  0  0  0  0  0  0  0  0
   50.2840   20.5710    7.6090 N   0  0  0  0  0  0  0  0  0  0  0  0
   50.3350   25.2050    3.1510 F   0  0  0  0  0  0  0  0  0  0  0  0
   50.7640   28.0010    6.0270 C   0  0  0  0  0  0  0  0  0  0  0  0
   50.3440   27.4710    3.7600 C   0  0  0  0  0  0  0  0  0  0  0  0
   51.0040   19.2270    6.9300 S   0  0  0  0  0  0  0  0  0  0  0  0
   50.4900   28.4360    4.7470 C   0  0  0  0  0  0  0  0  0  0  0  0
   51.3730   19.5930    5.5790 O   0  0  0  0  0  0  0  0  0  0  0  0
   50.1740   18.0690    7.2000 O   0  0  0  0  0  0  0  0  0  0  0  0
   52.4720   19.0340    7.9050 C   0  0  0  0  0  0  0  0  0  0  0  0
  1  2  1  0
  2  3  1  0
  1  4  1  0
  4  5  1  0
  3  6  2  0
  3  7  1  0
  5  8  1  0
  7  9  1  0
  6 10  1  0
  7 11  2  0
  8 12  1  0
 10 13  2  0
 11 13  1  0
 12 14  2  0
 12 15  2  0
 12 16  1  0
M  END
>  <ref_pdb>  (33) 
H-SOS3-x1154_00_Frag_6-SOS3-x1257_02_Frag_1.pdb

>  <ref_mols>  (33) 
x1154_2A,x1257_2A

>  <ddG_score>  (33) 
-6.01088068296391

>  <fragmensteinOld_score>  (33) 
-1.9985846211758975

>  <LE_score>  (33) 
-0.37568004268524435

>  <comRMSD_score>  (33) 
0.20359151541688417

>  <fragmensteinNew_score>  (33) 
-0.22478943436386878

>  <aLogP_score>  (33) 
0.11339999999999995

>  <hbondD_score>  (33) 
2

>  <hbondA_score>  (33) 
5

>  <polarSurfaceArea_score>  (33) 
80.32

>  <rotableBonds_score>  (33) 
6

>  <QED_score>  (33) 
0.5523947865860714

>  <energyPoseVsEnsemble_score>  (33) 
3.8442278813426936

>  <sucos_score>  (33) 
0.9409941037530188

>  <interactions_conservation_score>  (33) 
1.0

>  <interactions_novelty_score>  (33) 
0.0

>  <SAscore_score>  (33) 
2.9506446291944854

>  <SCScore_score>  (33) 
2.604030034648938

>  <original SMILES>  (33) 
CS(=O)(=O)NCOCNc1ncccc1F

>  <CAR_friendly>  (33) 
0

$$$$
32_SOS3-x1154_00_Frag_6-SOS3-x1257_02_Frag
     RDKit          3D

 19 20  0  0  0  0  0  0  0  0999 V2000
   51.2570   23.9180    6.5990 C   0  0  0  0  0  0  0  0  0  0  0  0
   51.3010   24.5570    5.3090 N   0  0  0  0  0  0  0  0  0  0  0  0
   51.0020   25.9240    5.1620 C   0  0  0  0  0  0  0  0  0  0  0  0
   50.1850   23.0070    6.5380 O   0  0  0  0  0  0  0  0  0  0  0  0
   49.7010   22.6460    7.8380 C   0  0  0  0  0  0  0  0  0  0  0  0
   51.1220   26.8090    6.1780 N   0  0  0  0  0  0  0  0  0  0  0  0
   50.5770   26.3450    3.9050 C   0  0  0  0  0  0  0  0  0  0  0  0
   50.5160   21.4100    8.2480 C   0  0  0  0  0  0  0  0  0  0  0  0
   50.4640   25.4540    2.9130 F   0  0  0  0  0  0  0  0  0  0  0  0
   50.8210   28.1080    5.9330 C   0  0  0  0  0  0  0  0  0  0  0  0
   50.2730   27.6760    3.6690 C   0  0  0  0  0  0  0  0  0  0  0  0
   50.5680   21.0600    9.7140 C   0  0  0  0  0  0  0  0  0  0  0  0
   50.3970   28.5880    4.7090 C   0  0  0  0  0  0  0  0  0  0  0  0
   51.2870   21.8770   10.5910 C   0  0  0  0  0  0  0  0  0  0  0  0
   49.9230   19.9250   10.1970 C   0  0  0  0  0  0  0  0  0  0  0  0
   48.9880   18.8760    9.1950 Cl  0  0  0  0  0  0  0  0  0  0  0  0
   51.3560   21.5060   11.9510 C   0  0  0  0  0  0  0  0  0  0  0  0
   50.0150   19.5920   11.5290 C   0  0  0  0  0  0  0  0  0  0  0  0
   50.7340   20.3690   12.4100 C   0  0  0  0  0  0  0  0  0  0  0  0
  1  2  1  0
  2  3  1  0
  1  4  1  0
  4  5  1  0
  3  6  2  0
  3  7  1  0
  5  8  1  0
  7  9  1  0
  6 10  1  0
  7 11  2  0
  8 12  1  0
 10 13  2  0
 11 13  1  0
 12 14  2  0
 12 15  1  0
 15 16  1  0
 14 17  1  0
 15 18  2  0
 17 19  2  0
 18 19  1  0
M  END
>  <ref_pdb>  (34) 
H-SOS3-x1154_00_Frag_6-SOS3-x1257_02_Frag_2.pdb

>  <ref_mols>  (34) 
x1154_2A,x1257_2A

>  <ddG_score>  (34) 
-9.4966354237043

>  <fragmensteinOld_score>  (34) 
-3.2037445600345347

>  <LE_score>  (34) 
-0.4998229170370684

>  <comRMSD_score>  (34) 
0.29558252470632546

>  <fragmensteinNew_score>  (34) 
-1.2303024177103148

>  <aLogP_score>  (34) 
3.5028000000000024

>  <hbondD_score>  (34) 
1

>  <hbondA_score>  (34) 
3

>  <polarSurfaceArea_score>  (34) 
34.15

>  <rotableBonds_score>  (34) 
6

>  <QED_score>  (34) 
0.649467112408046

>  <energyPoseVsEnsemble_score>  (34) 
1.5116307677761285

>  <sucos_score>  (34) 
0.9169812339320232

>  <interactions_conservation_score>  (34) 
0.5345224838248488

>  <interactions_novelty_score>  (34) 
0.14285714285714285

>  <SAscore_score>  (34) 
2.3429843281399023

>  <SCScore_score>  (34) 
2.740006637262976

>  <original SMILES>  (34) 
Fc1cccnc1NCOCCc1ccccc1Cl

>  <CAR_friendly>  (34) 
0

$$$$
33_SOS3-x1154_00_Frag_6-SOS3-x1257_02_Frag
     RDKit          3D

 20 21  0  0  0  0  0  0  0  0999 V2000
   51.2960   23.9360    6.6410 C   0  0  0  0  0  0  0  0  0  0  0  0
   51.2890   24.5490    5.3380 N   0  0  0  0  0  0  0  0  0  0  0  0
   50.9960   25.9220    5.1830 C   0  0  0  0  0  0  0  0  0  0  0  0
   50.2220   23.0130    6.6250 O   0  0  0  0  0  0  0  0  0  0  0  0
   49.7610   22.6260    7.9340 C   0  0  0  0  0  0  0  0  0  0  0  0
   51.1130   26.8030    6.1960 N   0  0  0  0  0  0  0  0  0  0  0  0
   50.5830   26.3420    3.9190 C   0  0  0  0  0  0  0  0  0  0  0  0
   50.5690   21.3760    8.3440 C   0  0  2  0  0  0  0  0  0  0  0  0
   50.4730   25.4520    2.9260 F   0  0  0  0  0  0  0  0  0  0  0  0
   50.8210   28.1060    5.9490 C   0  0  0  0  0  0  0  0  0  0  0  0
   50.2870   27.6760    3.6790 C   0  0  0  0  0  0  0  0  0  0  0  0
   50.1920   20.2770    7.4100 N   0  0  0  0  0  0  0  0  0  0  0  0
   50.5450   20.9430    9.8020 C   0  0  0  0  0  0  0  0  0  0  0  0
   50.4100   28.5890    4.7210 C   0  0  0  0  0  0  0  0  0  0  0  0
   51.2490   21.7240   10.7210 C   0  0  0  0  0  0  0  0  0  0  0  0
   49.8650   19.7920   10.2490 C   0  0  0  0  0  0  0  0  0  0  0  0
   48.9420   18.7720    9.2080 Cl  0  0  0  0  0  0  0  0  0  0  0  0
   51.2760   21.3230   12.0720 C   0  0  0  0  0  0  0  0  0  0  0  0
   49.9110   19.4140   11.5850 C   0  0  0  0  0  0  0  0  0  0  0  0
   50.6210   20.1780   12.4960 C   0  0  0  0  0  0  0  0  0  0  0  0
  1  2  1  0
  2  3  1  0
  1  4  1  0
  4  5  1  0
  3  6  2  0
  3  7  1  0
  5  8  1  0
  7  9  1  0
  6 10  1  0
  7 11  2  0
  8 12  1  6
  8 13  1  0
 10 14  2  0
 11 14  1  0
 13 15  2  0
 13 16  1  0
 16 17  1  0
 15 18  1  0
 16 19  2  0
 18 20  2  0
 19 20  1  0
M  END
>  <ref_pdb>  (35) 
H-SOS3-x1154_00_Frag_6-SOS3-x1257_02_Frag_4.pdb

>  <ref_mols>  (35) 
x1154_2A,x1257_2A

>  <ddG_score>  (35) 
-10.538401157825632

>  <fragmensteinOld_score>  (35) 
-3.535275316319561

>  <LE_score>  (35) 
-0.5269200578912816

>  <comRMSD_score>  (35) 
0.27240491524556504

>  <fragmensteinNew_score>  (35) 
-1.4016985480280368

>  <aLogP_score>  (35) 
2.9601000000000006

>  <hbondD_score>  (35) 
2

>  <hbondA_score>  (35) 
4

>  <polarSurfaceArea_score>  (35) 
60.17

>  <rotableBonds_score>  (35) 
6

>  <QED_score>  (35) 
0.6352476067282573

>  <energyPoseVsEnsemble_score>  (35) 
1.5357389429733992

>  <sucos_score>  (35) 
0.9253735927868258

>  <interactions_conservation_score>  (35) 
0.6123724356957946

>  <interactions_novelty_score>  (35) 
0.14285714285714285

>  <SAscore_score>  (35) 
2.983171902748044

>  <SCScore_score>  (35) 
2.989169922040125

>  <original SMILES>  (35) 
N[C@@H](COCNc1ncccc1F)c1ccccc1Cl

>  <CAR_friendly>  (35) 
0

$$$$
34_SOS3-x1154_00_Frag_6-SOS3-x1257_02_Frag
     RDKit          3D

 17 17  0  0  0  0  0  0  0  0999 V2000
   51.5790   23.9300    6.7680 C   0  0  0  0  0  0  0  0  0  0  0  0
   51.0230   24.4540    5.5290 N   0  0  0  0  0  0  0  0  0  0  0  0
   50.8340   25.8420    5.3010 C   0  0  0  0  0  0  0  0  0  0  0  0
   50.6930   23.9260    7.8850 O   0  0  0  0  0  0  0  0  0  0  0  0
   49.8350   22.7850    8.0690 C   0  0  0  0  0  0  0  0  0  0  0  0
   50.9650   26.7520    6.2900 N   0  0  0  0  0  0  0  0  0  0  0  0
   50.5090   26.2590    4.0010 C   0  0  0  0  0  0  0  0  0  0  0  0
   50.6380   21.4700    8.3190 C   0  0  0  0  0  0  0  0  0  0  0  0
   50.3860   25.3570    3.0210 F   0  0  0  0  0  0  0  0  0  0  0  0
   50.7710   28.0640    5.9920 C   0  0  0  0  0  0  0  0  0  0  0  0
   50.3120   27.6040    3.7110 C   0  0  0  0  0  0  0  0  0  0  0  0
   50.0290   20.3740    7.4940 N   0  0  0  0  0  0  0  0  0  0  0  0
   50.4460   28.5360    4.7330 C   0  0  0  0  0  0  0  0  0  0  0  0
   50.9310   19.0790    6.9360 S   0  0  0  0  0  0  0  0  0  0  0  0
   51.3340   19.4110    5.5840 O   0  0  0  0  0  0  0  0  0  0  0  0
   50.2210   17.8550    7.2420 O   0  0  0  0  0  0  0  0  0  0  0  0
   52.3680   19.0950    7.9660 C   0  0  0  0  0  0  0  0  0  0  0  0
  1  2  1  0
  2  3  1  0
  1  4  1  0
  4  5  1  0
  3  6  2  0
  3  7  1  0
  5  8  1  0
  7  9  1  0
  6 10  1  0
  7 11  2  0
  8 12  1  0
 10 13  2  0
 11 13  1  0
 12 14  1  0
 14 15  2  0
 14 16  2  0
 14 17  1  0
M  END
>  <ref_pdb>  (36) 
H-SOS3-x1154_00_Frag_6-SOS3-x1257_02_Frag_5.pdb

>  <ref_mols>  (36) 
x1154_2A,x1257_2A

>  <ddG_score>  (36) 
-6.638340782127399

>  <fragmensteinOld_score>  (36) 
-2.613903360463011

>  <LE_score>  (36) 
-0.3904906342427882

>  <comRMSD_score>  (36) 
0.11376479596246877

>  <fragmensteinNew_score>  (36) 
-1.1815006615012136

>  <aLogP_score>  (36) 
0.15589999999999998

>  <hbondD_score>  (36) 
2

>  <hbondA_score>  (36) 
5

>  <polarSurfaceArea_score>  (36) 
80.32

>  <rotableBonds_score>  (36) 
7

>  <QED_score>  (36) 
0.5407013330213387

>  <energyPoseVsEnsemble_score>  (36) 
3.7132964887436652

>  <sucos_score>  (36) 
0.9742148428907025

>  <interactions_conservation_score>  (36) 
0.0

>  <interactions_novelty_score>  (36) 
0.2

>  <SAscore_score>  (36) 
2.648286876439574

>  <SCScore_score>  (36) 
3.260113554555648

>  <original SMILES>  (36) 
CS(=O)(=O)NCCOCNc1ncccc1F

>  <CAR_friendly>  (36) 
0

$$$$
35_SOS3-x1154_00_Frag_2-SOS3-x1257_02_Frag
     RDKit          3D

 24 25  0  0  0  0  0  0  0  0999 V2000
   51.0310   24.5930    5.2560 N   0  0  0  0  0  0  0  0  0  0  0  0
   50.8450   25.9770    5.1090 C   0  0  0  0  0  0  0  0  0  0  0  0
   50.5110   26.4380    3.8420 C   0  0  0  0  0  0  0  0  0  0  0  0
   51.0310   24.0770    6.6050 C   0  0  0  0  0  0  0  0  0  0  0  0
   50.9840   26.8250    6.1450 N   0  0  0  0  0  0  0  0  0  0  0  0
   49.7350   23.4150    6.9670 C   0  0  0  0  0  0  0  0  0  0  0  0
   50.3850   25.5720    2.8340 F   0  0  0  0  0  0  0  0  0  0  0  0
   50.7860   28.1460    5.9170 C   0  0  0  0  0  0  0  0  0  0  0  0
   50.3080   27.7920    3.6190 C   0  0  0  0  0  0  0  0  0  0  0  0
   49.6690   22.6880    8.2840 C   0  0  0  0  0  0  0  0  0  0  0  0
   50.4490   28.6710    4.6820 C   0  0  0  0  0  0  0  0  0  0  0  0
   50.4940   21.4020    8.3490 C   0  0  2  0  0  0  0  0  0  0  0  0
   49.8460   20.3780    7.5140 N   0  0  0  0  0  0  0  0  0  0  0  0
   50.5650   21.0260    9.8070 C   0  0  0  0  0  0  0  0  0  0  0  0
   50.6790   19.1210    6.8170 S   0  0  0  0  0  0  0  0  0  0  0  0
   49.9040   19.9020   10.2960 C   0  0  0  0  0  0  0  0  0  0  0  0
   51.3040   21.8110   10.7140 C   0  0  0  0  0  0  0  0  0  0  0  0
   48.9290   18.8480    9.3300 Cl  0  0  0  0  0  0  0  0  0  0  0  0
   51.0960   19.5350    5.4910 O   0  0  0  0  0  0  0  0  0  0  0  0
   49.9840   17.8740    7.0600 O   0  0  0  0  0  0  0  0  0  0  0  0
   52.1260   19.1160    7.8080 C   0  0  0  0  0  0  0  0  0  0  0  0
   51.3830   21.4550   12.0590 C   0  0  0  0  0  0  0  0  0  0  0  0
   50.0060   19.5770   11.6220 C   0  0  0  0  0  0  0  0  0  0  0  0
   50.7370   20.3310   12.5080 C   0  0  0  0  0  0  0  0  0  0  0  0
  1  2  1  0
  2  3  2  0
  1  4  1  0
  2  5  1  0
  4  6  1  0
  3  7  1  0
  5  8  2  0
  3  9  1  0
  6 10  1  0
  8 11  1  0
  9 11  2  0
 12 10  1  1
 12 13  1  0
 12 14  1  0
 13 15  1  0
 14 16  2  0
 14 17  1  0
 16 18  1  0
 15 19  2  0
 15 20  2  0
 15 21  1  0
 17 22  2  0
 16 23  1  0
 22 24  1  0
 23 24  2  0
M  END
>  <ref_pdb>  (37) 
H-SOS3-x1154_00_Frag_2-SOS3-x1257_02_Frag_0.pdb

>  <ref_mols>  (37) 
x1154_2A,x1257_2A

>  <ddG_score>  (37) 
-8.57152999783024

>  <fragmensteinOld_score>  (37) 
-3.221246183378579

>  <LE_score>  (37) 
-0.35714708324292666

>  <comRMSD_score>  (37) 
0.29305981618746907

>  <fragmensteinNew_score>  (37) 
-1.1152899428542076

>  <aLogP_score>  (37) 
3.356700000000002

>  <hbondD_score>  (37) 
2

>  <hbondA_score>  (37) 
4

>  <polarSurfaceArea_score>  (37) 
71.09

>  <rotableBonds_score>  (37) 
8

>  <QED_score>  (37) 
0.6978779152878113

>  <energyPoseVsEnsemble_score>  (37) 
2.504222628739739

>  <sucos_score>  (37) 
0.9228505041145075

>  <interactions_conservation_score>  (37) 
0.6761234037828132

>  <interactions_novelty_score>  (37) 
0.18181818181818182

>  <SAscore_score>  (37) 
2.8537983318554154

>  <SCScore_score>  (37) 
3.9940784663824265

>  <original SMILES>  (37) 
CS(=O)(=O)N[C@@H](CCCNc1ncccc1F)c1ccccc1Cl

>  <CAR_friendly>  (37) 
0

$$$$
36_SOS3-x1154_00_Frag_2-SOS3-x1257_02_Frag
     RDKit          3D

 19 20  0  0  0  0  0  0  0  0999 V2000
   51.0330   24.5700    5.3130 N   0  0  0  0  0  0  0  0  0  0  0  0
   50.8460   25.9510    5.1470 C   0  0  0  0  0  0  0  0  0  0  0  0
   50.5120   26.4010    3.8770 C   0  0  0  0  0  0  0  0  0  0  0  0
   51.0850   24.1090    6.6740 C   0  0  0  0  0  0  0  0  0  0  0  0
   50.9830   26.8080    6.1750 N   0  0  0  0  0  0  0  0  0  0  0  0
   49.8190   23.3490    6.9560 C   0  0  0  0  0  0  0  0  0  0  0  0
   50.3850   25.5290    2.8730 F   0  0  0  0  0  0  0  0  0  0  0  0
   50.7860   28.1260    5.9360 C   0  0  0  0  0  0  0  0  0  0  0  0
   50.3090   27.7500    3.6430 C   0  0  0  0  0  0  0  0  0  0  0  0
   49.6830   22.7390    8.3290 C   0  0  0  0  0  0  0  0  0  0  0  0
   50.4490   28.6420    4.6990 C   0  0  0  0  0  0  0  0  0  0  0  0
   50.3980   21.3940    8.4990 C   0  0  0  0  0  0  0  0  0  0  0  0
   50.4300   20.8940    9.9170 C   0  0  0  0  0  0  0  0  0  0  0  0
   51.0720   21.6870   10.8640 C   0  0  0  0  0  0  0  0  0  0  0  0
   49.8570   19.6880   10.3290 C   0  0  0  0  0  0  0  0  0  0  0  0
   49.0140   18.6480    9.2410 Cl  0  0  0  0  0  0  0  0  0  0  0  0
   51.1670   21.2920   12.2020 C   0  0  0  0  0  0  0  0  0  0  0  0
   49.9490   19.2800   11.6550 C   0  0  0  0  0  0  0  0  0  0  0  0
   50.6000   20.0720   12.5820 C   0  0  0  0  0  0  0  0  0  0  0  0
  1  2  1  0
  2  3  2  0
  1  4  1  0
  2  5  1  0
  4  6  1  0
  3  7  1  0
  5  8  2  0
  3  9  1  0
  6 10  1  0
  8 11  1  0
  9 11  2  0
 10 12  1  0
 12 13  1  0
 13 14  2  0
 13 15  1  0
 15 16  1  0
 14 17  1  0
 15 18  2  0
 17 19  2  0
 18 19  1  0
M  END
>  <ref_pdb>  (38) 
H-SOS3-x1154_00_Frag_2-SOS3-x1257_02_Frag_2.pdb

>  <ref_mols>  (38) 
x1154_2A,x1257_2A

>  <ddG_score>  (38) 
-9.09016131703855

>  <fragmensteinOld_score>  (38) 
-2.809964433965555

>  <LE_score>  (38) 
-0.47842954300202895

>  <comRMSD_score>  (38) 
0.30806782944215494

>  <fragmensteinNew_score>  (38) 
-0.7728317886714131

>  <aLogP_score>  (38) 
4.308900000000003

>  <hbondD_score>  (38) 
1

>  <hbondA_score>  (38) 
2

>  <polarSurfaceArea_score>  (38) 
24.92

>  <rotableBonds_score>  (38) 
6

>  <QED_score>  (38) 
0.7966651321838324

>  <energyPoseVsEnsemble_score>  (38) 
1.4094234765499385

>  <sucos_score>  (38) 
0.9351934413619896

>  <interactions_conservation_score>  (38) 
0.828078671210825

>  <interactions_novelty_score>  (38) 
0.09090909090909091

>  <SAscore_score>  (38) 
1.9563443281399024

>  <SCScore_score>  (38) 
3.1673291167726694

>  <original SMILES>  (38) 
Fc1cccnc1NCCCCc1ccccc1Cl

>  <CAR_friendly>  (38) 
0

$$$$
37_SOS3-x1154_00_Frag_2-SOS3-x1257_02_Frag
     RDKit          3D

 20 21  0  0  0  0  0  0  0  0999 V2000
   51.0130   24.5220    5.3320 N   0  0  0  0  0  0  0  0  0  0  0  0
   50.8500   25.9030    5.1870 C   0  0  0  0  0  0  0  0  0  0  0  0
   50.5100   26.3750    3.9250 C   0  0  0  0  0  0  0  0  0  0  0  0
   51.0350   24.0470    6.6890 C   0  0  0  0  0  0  0  0  0  0  0  0
   51.0160   26.7340    6.2330 N   0  0  0  0  0  0  0  0  0  0  0  0
   49.8020   23.2410    6.9340 C   0  0  0  0  0  0  0  0  0  0  0  0
   50.3580   25.5170    2.9130 F   0  0  0  0  0  0  0  0  0  0  0  0
   50.8360   28.0610    6.0050 C   0  0  0  0  0  0  0  0  0  0  0  0
   50.3270   27.7280    3.7070 C   0  0  0  0  0  0  0  0  0  0  0  0
   49.6480   22.6650    8.3180 C   0  0  0  0  0  0  0  0  0  0  0  0
   50.4930   28.6000    4.7730 C   0  0  0  0  0  0  0  0  0  0  0  0
   50.3950   21.3500    8.5480 C   0  0  2  0  0  0  0  0  0  0  0  0
   50.0570   20.3730    7.5110 N   0  0  0  0  0  0  0  0  0  0  0  0
   50.3530   20.8280    9.9550 C   0  0  0  0  0  0  0  0  0  0  0  0
   50.8550   21.6540   10.9530 C   0  0  0  0  0  0  0  0  0  0  0  0
   49.8480   19.5700   10.3140 C   0  0  0  0  0  0  0  0  0  0  0  0
   49.1600   18.4740    9.1760 Cl  0  0  0  0  0  0  0  0  0  0  0  0
   50.8790   21.2300   12.3000 C   0  0  0  0  0  0  0  0  0  0  0  0
   49.8770   19.1390   11.6340 C   0  0  0  0  0  0  0  0  0  0  0  0
   50.3930   19.9520   12.6140 C   0  0  0  0  0  0  0  0  0  0  0  0
  1  2  1  0
  2  3  2  0
  1  4  1  0
  2  5  1  0
  4  6  1  0
  3  7  1  0
  5  8  2  0
  3  9  1  0
  6 10  1  0
  8 11  1  0
  9 11  2  0
 10 12  1  0
 12 13  1  6
 12 14  1  0
 14 15  2  0
 14 16  1  0
 16 17  1  0
 15 18  1  0
 16 19  2  0
 18 20  2  0
 19 20  1  0
M  END
>  <ref_pdb>  (39) 
H-SOS3-x1154_00_Frag_2-SOS3-x1257_02_Frag_4.pdb

>  <ref_mols>  (39) 
x1154_2A,x1257_2A

>  <ddG_score>  (39) 
-5.604920518126455

>  <fragmensteinOld_score>  (39) 
-2.150664155463406

>  <LE_score>  (39) 
-0.28024602590632275

>  <comRMSD_score>  (39) 
0.3703199481618849

>  <fragmensteinNew_score>  (39) 
-0.5980927849316082

>  <aLogP_score>  (39) 
3.7662000000000013

>  <hbondD_score>  (39) 
2

>  <hbondA_score>  (39) 
3

>  <polarSurfaceArea_score>  (39) 
50.94

>  <rotableBonds_score>  (39) 
6

>  <QED_score>  (39) 
0.7972843932068271

>  <energyPoseVsEnsemble_score>  (39) 
1.418429780929233

>  <sucos_score>  (39) 
0.9280662249683077

>  <interactions_conservation_score>  (39) 
0.6324555320336759

>  <interactions_novelty_score>  (39) 
0.125

>  <SAscore_score>  (39) 
2.636238299509177

>  <SCScore_score>  (39) 
3.624271260860934

>  <original SMILES>  (39) 
N[C@@H](CCCNc1ncccc1F)c1ccccc1Cl

>  <CAR_friendly>  (39) 
0

$$$$
38_SOS3-x1154_00_Frag_2-SOS3-x1257_02_Frag
     RDKit          3D

 17 17  0  0  0  0  0  0  0  0999 V2000
   50.9820   24.5110    5.3590 N   0  0  0  0  0  0  0  0  0  0  0  0
   50.8250   25.8950    5.2050 C   0  0  0  0  0  0  0  0  0  0  0  0
   50.4940   26.3700    3.9340 C   0  0  0  0  0  0  0  0  0  0  0  0
   51.0670   23.9620    6.6900 C   0  0  0  0  0  0  0  0  0  0  0  0
   50.9890   26.7290    6.2480 N   0  0  0  0  0  0  0  0  0  0  0  0
   49.9480   23.2150    6.9640 C   0  0  0  0  0  0  0  0  0  0  0  0
   50.3470   25.5120    2.9230 F   0  0  0  0  0  0  0  0  0  0  0  0
   50.8170   28.0580    6.0110 C   0  0  0  0  0  0  0  0  0  0  0  0
   50.3210   27.7240    3.7090 C   0  0  0  0  0  0  0  0  0  0  0  0
   49.8500   22.6190    8.3470 C   0  0  0  0  0  0  0  0  0  0  0  0
   50.4860   28.5960    4.7760 C   0  0  0  0  0  0  0  0  0  0  0  0
   50.5910   21.2790    8.5130 C   0  0  0  0  0  0  0  0  0  0  0  0
   50.0540   20.2920    7.5600 N   0  0  0  0  0  0  0  0  0  0  0  0
   50.9430   19.0150    6.9600 S   0  0  0  0  0  0  0  0  0  0  0  0
   51.3260   19.3740    5.6080 O   0  0  0  0  0  0  0  0  0  0  0  0
   50.2500   17.7810    7.2610 O   0  0  0  0  0  0  0  0  0  0  0  0
   52.4200   19.0570    7.9500 C   0  0  0  0  0  0  0  0  0  0  0  0
  1  2  1  0
  2  3  2  0
  1  4  1  0
  2  5  1  0
  4  6  1  0
  3  7  1  0
  5  8  2  0
  3  9  1  0
  6 10  1  0
  8 11  1  0
  9 11  2  0
 10 12  1  0
 12 13  1  0
 13 14  1  0
 14 15  2  0
 14 16  2  0
 14 17  1  0
M  END
>  <ref_pdb>  (40) 
H-SOS3-x1154_00_Frag_2-SOS3-x1257_02_Frag_5.pdb

>  <ref_mols>  (40) 
x1154_2A,x1257_2A

>  <ddG_score>  (40) 
-5.8261489473616965

>  <fragmensteinOld_score>  (40) 
-2.081061968795876

>  <LE_score>  (40) 
-0.3427146439624527

>  <comRMSD_score>  (40) 
0.18416782067646345

>  <fragmensteinNew_score>  (40) 
-0.47806614812578174

>  <aLogP_score>  (40) 
0.962

>  <hbondD_score>  (40) 
2

>  <hbondA_score>  (40) 
4

>  <polarSurfaceArea_score>  (40) 
71.09

>  <rotableBonds_score>  (40) 
7

>  <QED_score>  (40) 
0.7172359121073715

>  <energyPoseVsEnsemble_score>  (40) 
3.8389389085270955

>  <sucos_score>  (40) 
0.9693146255919196

>  <interactions_conservation_score>  (40) 
0.8944271909999159

>  <interactions_novelty_score>  (40) 
0.0

>  <SAscore_score>  (40) 
2.2229153543446465

>  <SCScore_score>  (40) 
3.1814813077593156

>  <original SMILES>  (40) 
CS(=O)(=O)NCCCCNc1ncccc1F

>  <CAR_friendly>  (40) 
0

$$$$
39_SOS3-x1154_00_Frag_6-SOS3-x1257_02_Frag
     RDKit          3D

 24 25  0  0  0  0  0  0  0  0999 V2000
   51.3250   23.9620    6.6160 C   0  0  0  0  0  0  0  0  0  0  0  0
   51.3730   24.5840    5.3220 N   0  0  0  0  0  0  0  0  0  0  0  0
   51.0480   25.9410    5.1750 C   0  0  0  0  0  0  0  0  0  0  0  0
   50.2120   23.0940    6.6110 O   0  0  0  0  0  0  0  0  0  0  0  0
   49.7600   22.6180    7.8890 C   0  0  0  0  0  0  0  0  0  0  0  0
   51.1570   26.8160    6.1940 N   0  0  0  0  0  0  0  0  0  0  0  0
   50.6130   26.3550    3.9170 C   0  0  0  0  0  0  0  0  0  0  0  0
   50.4850   21.2780    8.1730 C   0  0  2  0  0  0  0  0  0  0  0  0
   50.5090   25.4650    2.9220 F   0  0  0  0  0  0  0  0  0  0  0  0
   50.8370   28.1110    5.9560 C   0  0  0  0  0  0  0  0  0  0  0  0
   50.2880   27.6810    3.6850 C   0  0  0  0  0  0  0  0  0  0  0  0
   49.9630   20.2430    7.2560 N   0  0  0  0  0  0  0  0  0  0  0  0
   50.3670   20.7660    9.5890 C   0  0  0  0  0  0  0  0  0  0  0  0
   50.4050   28.5870    4.7320 C   0  0  0  0  0  0  0  0  0  0  0  0
   50.9130   18.9540    6.8240 S   0  0  0  0  0  0  0  0  0  0  0  0
   49.3990   19.8620   10.0310 C   0  0  0  0  0  0  0  0  0  0  0  0
   51.2820   21.2120   10.4830 C   0  0  0  0  0  0  0  0  0  0  0  0
   48.1480   19.1850    9.0630 Cl  0  0  0  0  0  0  0  0  0  0  0  0
   51.3620   19.2440    5.4750 O   0  0  0  0  0  0  0  0  0  0  0  0
   50.2120   17.7310    7.1590 O   0  0  0  0  0  0  0  0  0  0  0  0
   52.2960   19.0800    7.9280 C   0  0  0  0  0  0  0  0  0  0  0  0
   51.2550   20.7650   11.8010 C   0  0  0  0  0  0  0  0  0  0  0  0
   49.4190   19.4590   11.3440 C   0  0  0  0  0  0  0  0  0  0  0  0
   50.3480   19.9030   12.2410 C   0  0  0  0  0  0  0  0  0  0  0  0
  1  2  1  0
  2  3  1  0
  1  4  1  0
  4  5  1  0
  3  6  2  0
  3  7  1  0
  8  5  1  1
  7  9  1  0
  6 10  1  0
  7 11  2  0
  8 12  1  0
  8 13  1  0
 10 14  2  0
 11 14  1  0
 12 15  1  0
 13 16  2  0
 13 17  1  0
 16 18  1  0
 15 19  2  0
 15 20  2  0
 15 21  1  0
 17 22  2  0
 16 23  1  0
 22 24  1  0
 23 24  2  0
M  END
>  <ref_pdb>  (41) 
H-SOS3-x1154_00_Frag_6-SOS3-x1257_02_Frag_0.pdb

>  <ref_mols>  (41) 
x1154_2A,x1257_2A

>  <ddG_score>  (41) 
-8.140713701677853

>  <fragmensteinOld_score>  (41) 
-3.3267036462307242

>  <LE_score>  (41) 
-0.3391964042365772

>  <comRMSD_score>  (41) 
0.4014390941048462

>  <fragmensteinNew_score>  (41) 
-1.1191297789066956

>  <aLogP_score>  (41) 
2.5506

>  <hbondD_score>  (41) 
2

>  <hbondA_score>  (41) 
5

>  <polarSurfaceArea_score>  (41) 
80.32

>  <rotableBonds_score>  (41) 
8

>  <QED_score>  (41) 
0.5487645770487681

>  <energyPoseVsEnsemble_score>  (41) 
2.1578791659784864

>  <sucos_score>  (41) 
0.8860053096914681

>  <interactions_conservation_score>  (41) 
0.5669467095138409

>  <interactions_novelty_score>  (41) 
0.14285714285714285

>  <SAscore_score>  (41) 
3.1560702032675856

>  <SCScore_score>  (41) 
3.4979038814027232

>  <original SMILES>  (41) 
CS(=O)(=O)N[C@@H](COCNc1ncccc1F)c1ccccc1Cl

>  <CAR_friendly>  (41) 
0

$$$$
40_SOS3-x1154_00_Frag_6-SOS3-x1257_02_Frag
     RDKit          3D

 16 16  0  0  0  0  0  0  0  0999 V2000
   51.6120   23.9740    6.9980 C   0  0  0  0  0  0  0  0  0  0  0  0
   50.8690   24.3500    5.7830 N   0  0  0  0  0  0  0  0  0  0  0  0
   50.7500   25.7370    5.4410 C   0  0  0  0  0  0  0  0  0  0  0  0
   51.5800   22.5960    7.4190 O   0  0  0  0  0  0  0  0  0  0  0  0
   50.4390   21.8700    6.9790 C   0  0  0  0  0  0  0  0  0  0  0  0
   50.8940   26.6960    6.3840 N   0  0  0  0  0  0  0  0  0  0  0  0
   50.4760   26.1240    4.1090 C   0  0  0  0  0  0  0  0  0  0  0  0
   50.2840   20.5710    7.6090 N   0  0  0  0  0  0  0  0  0  0  0  0
   50.3350   25.2050    3.1510 F   0  0  0  0  0  0  0  0  0  0  0  0
   50.7640   28.0010    6.0270 C   0  0  0  0  0  0  0  0  0  0  0  0
   50.3440   27.4710    3.7600 C   0  0  0  0  0  0  0  0  0  0  0  0
   51.0040   19.2270    6.9300 S   0  0  0  0  0  0  0  0  0  0  0  0
   50.4900   28.4360    4.7470 C   0  0  0  0  0  0  0  0  0  0  0  0
   51.3730   19.5930    5.5790 O   0  0  0  0  0  0  0  0  0  0  0  0
   50.1740   18.0690    7.2000 O   0  0  0  0  0  0  0  0  0  0  0  0
   52.4720   19.0340    7.9050 C   0  0  0  0  0  0  0  0  0  0  0  0
  1  2  1  0
  2  3  1  0
  1  4  1  0
  4  5  1  0
  3  6  2  0
  3  7  1  0
  5  8  1  0
  7  9  1  0
  6 10  1  0
  7 11  2  0
  8 12  1  0
 10 13  2  0
 11 13  1  0
 12 14  2  0
 12 15  2  0
 12 16  1  0
M  END
>  <ref_pdb>  (42) 
H-SOS3-x1154_00_Frag_6-SOS3-x1257_02_Frag_1.pdb

>  <ref_mols>  (42) 
x1154_2A,x1257_2A

>  <ddG_score>  (42) 
-6.01088068296391

>  <fragmensteinOld_score>  (42) 
-1.9985846211758975

>  <LE_score>  (42) 
-0.37568004268524435

>  <comRMSD_score>  (42) 
0.20359151541688417

>  <fragmensteinNew_score>  (42) 
-0.22478943436386878

>  <aLogP_score>  (42) 
0.11339999999999995

>  <hbondD_score>  (42) 
2

>  <hbondA_score>  (42) 
5

>  <polarSurfaceArea_score>  (42) 
80.32

>  <rotableBonds_score>  (42) 
6

>  <QED_score>  (42) 
0.5523947865860714

>  <energyPoseVsEnsemble_score>  (42) 
3.8442278813426936

>  <sucos_score>  (42) 
0.9409941037530188

>  <interactions_conservation_score>  (42) 
1.0

>  <interactions_novelty_score>  (42) 
0.0

>  <SAscore_score>  (42) 
2.9506446291944854

>  <SCScore_score>  (42) 
2.604030034648938

>  <original SMILES>  (42) 
CS(=O)(=O)NCOCNc1ncccc1F

>  <CAR_friendly>  (42) 
0

$$$$
41_SOS3-x1154_00_Frag_6-SOS3-x1257_02_Frag
     RDKit          3D

 19 20  0  0  0  0  0  0  0  0999 V2000
   51.2570   23.9180    6.5990 C   0  0  0  0  0  0  0  0  0  0  0  0
   51.3010   24.5570    5.3090 N   0  0  0  0  0  0  0  0  0  0  0  0
   51.0020   25.9240    5.1620 C   0  0  0  0  0  0  0  0  0  0  0  0
   50.1850   23.0070    6.5380 O   0  0  0  0  0  0  0  0  0  0  0  0
   49.7010   22.6460    7.8380 C   0  0  0  0  0  0  0  0  0  0  0  0
   51.1220   26.8090    6.1780 N   0  0  0  0  0  0  0  0  0  0  0  0
   50.5770   26.3450    3.9050 C   0  0  0  0  0  0  0  0  0  0  0  0
   50.5160   21.4100    8.2480 C   0  0  0  0  0  0  0  0  0  0  0  0
   50.4640   25.4540    2.9130 F   0  0  0  0  0  0  0  0  0  0  0  0
   50.8210   28.1080    5.9330 C   0  0  0  0  0  0  0  0  0  0  0  0
   50.2730   27.6760    3.6690 C   0  0  0  0  0  0  0  0  0  0  0  0
   50.5680   21.0600    9.7140 C   0  0  0  0  0  0  0  0  0  0  0  0
   50.3970   28.5880    4.7090 C   0  0  0  0  0  0  0  0  0  0  0  0
   51.2870   21.8770   10.5910 C   0  0  0  0  0  0  0  0  0  0  0  0
   49.9230   19.9250   10.1970 C   0  0  0  0  0  0  0  0  0  0  0  0
   48.9880   18.8760    9.1950 Cl  0  0  0  0  0  0  0  0  0  0  0  0
   51.3560   21.5060   11.9510 C   0  0  0  0  0  0  0  0  0  0  0  0
   50.0150   19.5920   11.5290 C   0  0  0  0  0  0  0  0  0  0  0  0
   50.7340   20.3690   12.4100 C   0  0  0  0  0  0  0  0  0  0  0  0
  1  2  1  0
  2  3  1  0
  1  4  1  0
  4  5  1  0
  3  6  2  0
  3  7  1  0
  5  8  1  0
  7  9  1  0
  6 10  1  0
  7 11  2  0
  8 12  1  0
 10 13  2  0
 11 13  1  0
 12 14  2  0
 12 15  1  0
 15 16  1  0
 14 17  1  0
 15 18  2  0
 17 19  2  0
 18 19  1  0
M  END
>  <ref_pdb>  (43) 
H-SOS3-x1154_00_Frag_6-SOS3-x1257_02_Frag_2.pdb

>  <ref_mols>  (43) 
x1154_2A,x1257_2A

>  <ddG_score>  (43) 
-9.4966354237043

>  <fragmensteinOld_score>  (43) 
-3.2037445600345347

>  <LE_score>  (43) 
-0.4998229170370684

>  <comRMSD_score>  (43) 
0.29558252470632546

>  <fragmensteinNew_score>  (43) 
-1.2303024177103148

>  <aLogP_score>  (43) 
3.5028000000000024

>  <hbondD_score>  (43) 
1

>  <hbondA_score>  (43) 
3

>  <polarSurfaceArea_score>  (43) 
34.15

>  <rotableBonds_score>  (43) 
6

>  <QED_score>  (43) 
0.649467112408046

>  <energyPoseVsEnsemble_score>  (43) 
1.5116307677761285

>  <sucos_score>  (43) 
0.9169812339320232

>  <interactions_conservation_score>  (43) 
0.5345224838248488

>  <interactions_novelty_score>  (43) 
0.14285714285714285

>  <SAscore_score>  (43) 
2.3429843281399023

>  <SCScore_score>  (43) 
2.740006637262976

>  <original SMILES>  (43) 
Fc1cccnc1NCOCCc1ccccc1Cl

>  <CAR_friendly>  (43) 
0

$$$$
42_SOS3-x1154_00_Frag_6-SOS3-x1257_02_Frag
     RDKit          3D

 20 21  0  0  0  0  0  0  0  0999 V2000
   51.2960   23.9360    6.6410 C   0  0  0  0  0  0  0  0  0  0  0  0
   51.2890   24.5490    5.3380 N   0  0  0  0  0  0  0  0  0  0  0  0
   50.9960   25.9220    5.1830 C   0  0  0  0  0  0  0  0  0  0  0  0
   50.2220   23.0130    6.6250 O   0  0  0  0  0  0  0  0  0  0  0  0
   49.7610   22.6260    7.9340 C   0  0  0  0  0  0  0  0  0  0  0  0
   51.1130   26.8030    6.1960 N   0  0  0  0  0  0  0  0  0  0  0  0
   50.5830   26.3420    3.9190 C   0  0  0  0  0  0  0  0  0  0  0  0
   50.5690   21.3760    8.3440 C   0  0  2  0  0  0  0  0  0  0  0  0
   50.4730   25.4520    2.9260 F   0  0  0  0  0  0  0  0  0  0  0  0
   50.8210   28.1060    5.9490 C   0  0  0  0  0  0  0  0  0  0  0  0
   50.2870   27.6760    3.6790 C   0  0  0  0  0  0  0  0  0  0  0  0
   50.1920   20.2770    7.4100 N   0  0  0  0  0  0  0  0  0  0  0  0
   50.5450   20.9430    9.8020 C   0  0  0  0  0  0  0  0  0  0  0  0
   50.4100   28.5890    4.7210 C   0  0  0  0  0  0  0  0  0  0  0  0
   51.2490   21.7240   10.7210 C   0  0  0  0  0  0  0  0  0  0  0  0
   49.8650   19.7920   10.2490 C   0  0  0  0  0  0  0  0  0  0  0  0
   48.9420   18.7720    9.2080 Cl  0  0  0  0  0  0  0  0  0  0  0  0
   51.2760   21.3230   12.0720 C   0  0  0  0  0  0  0  0  0  0  0  0
   49.9110   19.4140   11.5850 C   0  0  0  0  0  0  0  0  0  0  0  0
   50.6210   20.1780   12.4960 C   0  0  0  0  0  0  0  0  0  0  0  0
  1  2  1  0
  2  3  1  0
  1  4  1  0
  4  5  1  0
  3  6  2  0
  3  7  1  0
  5  8  1  0
  7  9  1  0
  6 10  1  0
  7 11  2  0
  8 12  1  6
  8 13  1  0
 10 14  2  0
 11 14  1  0
 13 15  2  0
 13 16  1  0
 16 17  1  0
 15 18  1  0
 16 19  2  0
 18 20  2  0
 19 20  1  0
M  END
>  <ref_pdb>  (44) 
H-SOS3-x1154_00_Frag_6-SOS3-x1257_02_Frag_4.pdb

>  <ref_mols>  (44) 
x1154_2A,x1257_2A

>  <ddG_score>  (44) 
-10.538401157825632

>  <fragmensteinOld_score>  (44) 
-3.535275316319561

>  <LE_score>  (44) 
-0.5269200578912816

>  <comRMSD_score>  (44) 
0.27240491524556504

>  <fragmensteinNew_score>  (44) 
-1.4016985480280368

>  <aLogP_score>  (44) 
2.9601000000000006

>  <hbondD_score>  (44) 
2

>  <hbondA_score>  (44) 
4

>  <polarSurfaceArea_score>  (44) 
60.17

>  <rotableBonds_score>  (44) 
6

>  <QED_score>  (44) 
0.6352476067282573

>  <energyPoseVsEnsemble_score>  (44) 
1.5357389429733992

>  <sucos_score>  (44) 
0.9253735927868258

>  <interactions_conservation_score>  (44) 
0.6123724356957946

>  <interactions_novelty_score>  (44) 
0.14285714285714285

>  <SAscore_score>  (44) 
2.983171902748044

>  <SCScore_score>  (44) 
2.989169922040125

>  <original SMILES>  (44) 
N[C@@H](COCNc1ncccc1F)c1ccccc1Cl

>  <CAR_friendly>  (44) 
0

$$$$
43_SOS3-x1154_00_Frag_6-SOS3-x1257_02_Frag
     RDKit          3D

 17 17  0  0  0  0  0  0  0  0999 V2000
   51.5790   23.9300    6.7680 C   0  0  0  0  0  0  0  0  0  0  0  0
   51.0230   24.4540    5.5290 N   0  0  0  0  0  0  0  0  0  0  0  0
   50.8340   25.8420    5.3010 C   0  0  0  0  0  0  0  0  0  0  0  0
   50.6930   23.9260    7.8850 O   0  0  0  0  0  0  0  0  0  0  0  0
   49.8350   22.7850    8.0690 C   0  0  0  0  0  0  0  0  0  0  0  0
   50.9650   26.7520    6.2900 N   0  0  0  0  0  0  0  0  0  0  0  0
   50.5090   26.2590    4.0010 C   0  0  0  0  0  0  0  0  0  0  0  0
   50.6380   21.4700    8.3190 C   0  0  0  0  0  0  0  0  0  0  0  0
   50.3860   25.3570    3.0210 F   0  0  0  0  0  0  0  0  0  0  0  0
   50.7710   28.0640    5.9920 C   0  0  0  0  0  0  0  0  0  0  0  0
   50.3120   27.6040    3.7110 C   0  0  0  0  0  0  0  0  0  0  0  0
   50.0290   20.3740    7.4940 N   0  0  0  0  0  0  0  0  0  0  0  0
   50.4460   28.5360    4.7330 C   0  0  0  0  0  0  0  0  0  0  0  0
   50.9310   19.0790    6.9360 S   0  0  0  0  0  0  0  0  0  0  0  0
   51.3340   19.4110    5.5840 O   0  0  0  0  0  0  0  0  0  0  0  0
   50.2210   17.8550    7.2420 O   0  0  0  0  0  0  0  0  0  0  0  0
   52.3680   19.0950    7.9660 C   0  0  0  0  0  0  0  0  0  0  0  0
  1  2  1  0
  2  3  1  0
  1  4  1  0
  4  5  1  0
  3  6  2  0
  3  7  1  0
  5  8  1  0
  7  9  1  0
  6 10  1  0
  7 11  2  0
  8 12  1  0
 10 13  2  0
 11 13  1  0
 12 14  1  0
 14 15  2  0
 14 16  2  0
 14 17  1  0
M  END
>  <ref_pdb>  (45) 
H-SOS3-x1154_00_Frag_6-SOS3-x1257_02_Frag_5.pdb

>  <ref_mols>  (45) 
x1154_2A,x1257_2A

>  <ddG_score>  (45) 
-6.638340782127399

>  <fragmensteinOld_score>  (45) 
-2.613903360463011

>  <LE_score>  (45) 
-0.3904906342427882

>  <comRMSD_score>  (45) 
0.11376479596246877

>  <fragmensteinNew_score>  (45) 
-1.1815006615012136

>  <aLogP_score>  (45) 
0.15589999999999998

>  <hbondD_score>  (45) 
2

>  <hbondA_score>  (45) 
5

>  <polarSurfaceArea_score>  (45) 
80.32

>  <rotableBonds_score>  (45) 
7

>  <QED_score>  (45) 
0.5407013330213387

>  <energyPoseVsEnsemble_score>  (45) 
3.7132964887436652

>  <sucos_score>  (45) 
0.9742148428907025

>  <interactions_conservation_score>  (45) 
0.0

>  <interactions_novelty_score>  (45) 
0.2

>  <SAscore_score>  (45) 
2.648286876439574

>  <SCScore_score>  (45) 
3.260113554555648

>  <original SMILES>  (45) 
CS(=O)(=O)NCCOCNc1ncccc1F

>  <CAR_friendly>  (45) 
0

$$$$
44_SOS3-x1154_00_Frag_0-SOS3-x1257_03_Frag
     RDKit          3D

 22 23  0  0  0  0  0  0  0  0999 V2000
   50.0980   25.2000    3.0230 F   0  0  0  0  0  0  0  0  0  0  0  0
   50.3850   26.1090    3.9510 C   0  0  0  0  0  0  0  0  0  0  0  0
   50.3340   27.4580    3.6210 C   0  0  0  0  0  0  0  0  0  0  0  0
   50.7320   25.6960    5.2460 C   0  0  0  0  0  0  0  0  0  0  0  0
   50.7490   24.3260    5.5480 N   0  0  0  0  0  0  0  0  0  0  0  0
   51.0440   26.5960    6.1830 N   0  0  0  0  0  0  0  0  0  0  0  0
   50.6490   28.3760    4.5980 C   0  0  0  0  0  0  0  0  0  0  0  0
   51.4920   23.8460    6.7110 C   0  0  0  0  0  0  0  0  0  0  0  0
   51.0010   27.8860    5.8360 C   0  0  0  0  0  0  0  0  0  0  0  0
   50.6300   23.0310    7.6970 C   0  0  0  0  0  0  0  0  0  0  0  0
   51.3380   28.8180    6.7400 O   0  0  0  0  0  0  0  0  0  0  0  0
   51.2480   23.0620    9.1110 C   0  0  0  0  0  0  0  0  0  0  0  0
   49.2020   23.5760    7.8330 C   0  0  0  0  0  0  0  0  0  0  0  0
   52.1660   29.7990    6.1620 C   0  0  0  0  0  0  0  0  0  0  0  0
   50.2530   22.6180   10.1790 C   0  0  0  0  0  0  0  0  0  0  0  0
   48.3900   22.7570    8.8300 C   0  0  0  0  0  0  0  0  0  0  0  0
   53.1160   29.1910    5.2520 N   0  0  0  0  0  0  0  0  0  0  0  0
   49.2140   21.8660    9.5770 O   0  0  0  0  0  0  0  0  0  0  0  0
   54.5710   28.7490    5.8880 S   0  0  0  0  0  0  0  0  0  0  0  0
   55.5710   29.5930    5.2570 O   0  0  0  0  0  0  0  0  0  0  0  0
   54.4170   28.6740    7.3110 O   0  0  0  0  0  0  0  0  0  0  0  0
   54.7950   27.0880    5.2910 C   0  0  0  0  0  0  0  0  0  0  0  0
  1  2  1  0
  2  3  2  0
  2  4  1  0
  4  5  1  0
  4  6  2  0
  3  7  1  0
  5  8  1  0
  6  9  1  0
  7  9  2  0
 10  8  1  0
  9 11  1  0
 10 12  1  0
 10 13  1  0
 11 14  1  0
 12 15  1  0
 13 16  1  0
 14 17  1  0
 15 18  1  0
 16 18  1  0
 17 19  1  0
 19 20  2  0
 19 21  2  0
 19 22  1  0
M  END
>  <ref_pdb>  (46) 
H-SOS3-x1154_00_Frag_0-SOS3-x1257_03_Frag_1.pdb

>  <ref_mols>  (46) 
x1154_2A,x1257_0A

>  <ddG_score>  (46) 
-8.099234355408202

>  <fragmensteinOld_score>  (46) 
-2.976579073788422

>  <LE_score>  (46) 
-0.36814701615491824

>  <comRMSD_score>  (46) 
0.2432677972932183

>  <fragmensteinNew_score>  (46) 
-1.13075850376552

>  <aLogP_score>  (46) 
0.9447000000000001

>  <hbondD_score>  (46) 
2

>  <hbondA_score>  (46) 
6

>  <polarSurfaceArea_score>  (46) 
89.55000000000001

>  <rotableBonds_score>  (46) 
7

>  <QED_score>  (46) 
0.722155048496621

>  <energyPoseVsEnsemble_score>  (46) 
2.51234820382971

>  <sucos_score>  (46) 
0.9151509968569889

>  <interactions_conservation_score>  (46) 
0.5

>  <interactions_novelty_score>  (46) 
0.0

>  <SAscore_score>  (46) 
2.870410702099907

>  <SCScore_score>  (46) 
3.736929906293451

>  <original SMILES>  (46) 
CS(=O)(=O)NCOc1ccc(F)c(NCC2CCOCC2)n1

>  <CAR_friendly>  (46) 
0

$$$$
45_SOS3-x1154_00_Frag_0-SOS3-x1257_03_Frag
     RDKit          3D

 22 23  0  0  0  0  0  0  0  0999 V2000
   49.8670   24.8080    3.2300 F   0  0  0  0  0  0  0  0  0  0  0  0
   50.3800   25.8560    3.8210 C   0  0  0  0  0  0  0  0  0  0  0  0
   50.1840   27.0740    3.2360 C   0  0  0  0  0  0  0  0  0  0  0  0
   51.0950   25.6810    5.0010 C   0  0  0  0  0  0  0  0  0  0  0  0
   51.1700   24.3430    5.4700 N   0  0  0  0  0  0  0  0  0  0  0  0
   51.6650   26.7640    5.6050 N   0  0  0  0  0  0  0  0  0  0  0  0
   50.7340   28.1300    3.8260 C   0  0  0  0  0  0  0  0  0  0  0  0
   51.5350   24.0530    6.8480 C   0  0  0  0  0  0  0  0  0  0  0  0
   51.4500   27.9370    4.9450 C   0  0  0  0  0  0  0  0  0  0  0  0
   50.6350   23.1070    7.6670 C   0  0  0  0  0  0  0  0  0  0  0  0
   51.9710   29.2640    5.2800 C   0  0  1  0  0  0  0  0  0  0  0  0
   51.2180   23.0610    9.0980 C   0  0  0  0  0  0  0  0  0  0  0  0
   49.1870   23.6080    7.7970 C   0  0  0  0  0  0  0  0  0  0  0  0
   51.1610   29.9830    6.2880 C   0  0  0  0  0  0  0  0  0  0  0  0
   53.4160   29.5150    5.1450 N   0  0  0  0  0  0  0  0  0  0  0  0
   50.2160   22.5930   10.1450 C   0  0  0  0  0  0  0  0  0  0  0  0
   48.3820   22.7690    8.7800 C   0  0  0  0  0  0  0  0  0  0  0  0
   54.6460   28.8220    5.9920 S   0  0  0  0  0  0  0  0  0  0  0  0
   49.1920   21.8540    9.5100 O   0  0  0  0  0  0  0  0  0  0  0  0
   55.7900   29.6110    5.5750 O   0  0  0  0  0  0  0  0  0  0  0  0
   54.2690   28.6900    7.3660 O   0  0  0  0  0  0  0  0  0  0  0  0
   54.8370   27.1650    5.3490 C   0  0  0  0  0  0  0  0  0  0  0  0
  1  2  1  0
  2  3  2  0
  2  4  1  0
  4  5  1  0
  4  6  2  0
  3  7  1  0
  5  8  1  0
  6  9  1  0
  7  9  2  0
 10  8  1  0
  9 11  1  0
 10 12  1  0
 10 13  1  0
 11 14  1  1
 11 15  1  0
 12 16  1  0
 13 17  1  0
 15 18  1  0
 16 19  1  0
 17 19  1  0
 18 20  2  0
 18 21  2  0
 18 22  1  0
M  END
>  <ref_pdb>  (47) 
H-SOS3-x1154_00_Frag_0-SOS3-x1257_03_Frag_5.pdb

>  <ref_mols>  (47) 
x1154_2A,x1257_0A

>  <ddG_score>  (47) 
-8.005216014265802

>  <fragmensteinOld_score>  (47) 
-3.2454142516993287

>  <LE_score>  (47) 
-0.3638734551939001

>  <comRMSD_score>  (47) 
0.5556289511538316

>  <fragmensteinNew_score>  (47) 
-1.0316606535681079

>  <aLogP_score>  (47) 
1.6693999999999998

>  <hbondD_score>  (47) 
2

>  <hbondA_score>  (47) 
5

>  <polarSurfaceArea_score>  (47) 
80.32000000000001

>  <rotableBonds_score>  (47) 
6

>  <QED_score>  (47) 
0.8287063698417205

>  <energyPoseVsEnsemble_score>  (47) 
3.0453103110317925

>  <sucos_score>  (47) 
0.8445269412867273

>  <interactions_conservation_score>  (47) 
0.0

>  <interactions_novelty_score>  (47) 
0.2

>  <SAscore_score>  (47) 
3.145343199858952

>  <SCScore_score>  (47) 
4.035902407494266

>  <original SMILES>  (47) 
C[C@@H](NS(C)(=O)=O)c1ccc(F)c(NCC2CCOCC2)n1

>  <CAR_friendly>  (47) 
0

$$$$
46_SOS3-x1154_00_Frag_1-SOS3-x1257_03_Frag
     RDKit          3D

 22 23  0  0  0  0  0  0  0  0999 V2000
   51.2770   23.7760    6.5880 C   0  0  0  0  0  0  0  0  0  0  0  0
   50.5550   22.9730    7.6860 C   0  0  0  0  0  0  0  0  0  0  0  0
   51.0950   23.0920    8.9590 C   0  0  0  0  0  0  0  0  0  0  0  0
   50.3090   24.2260    5.6020 O   0  0  0  0  0  0  0  0  0  0  0  0
   49.2000   23.2440    7.5980 C   0  0  0  0  0  0  0  0  0  0  0  0
   50.7000   25.3210    4.7660 C   0  0  0  0  0  0  0  0  0  0  0  0
   48.4060   22.4000    8.5870 C   0  0  0  0  0  0  0  0  0  0  0  0
   50.4940   22.3040    9.9380 C   0  0  0  0  0  0  0  0  0  0  0  0
   51.0930   26.4410    5.4780 C   0  0  0  0  0  0  0  0  0  0  0  0
   50.7240   25.3530    3.3680 C   0  0  0  0  0  0  0  0  0  0  0  0
   49.2240   21.7280    9.5640 O   0  0  0  0  0  0  0  0  0  0  0  0
   51.5380   27.5930    4.8470 C   0  0  0  0  0  0  0  0  0  0  0  0
   51.1550   26.4850    2.6620 C   0  0  0  0  0  0  0  0  0  0  0  0
   52.0060   28.8550    5.5730 C   0  0  2  0  0  0  0  0  0  0  0  0
   51.5760   27.6260    3.3350 C   0  0  0  0  0  0  0  0  0  0  0  0
   52.1060   28.9780    2.4040 Cl  0  0  0  0  0  0  0  0  0  0  0  0
   50.9880   29.9680    5.4900 C   0  0  0  0  0  0  0  0  0  0  0  0
   53.3100   29.2940    5.0270 N   0  0  0  0  0  0  0  0  0  0  0  0
   54.6850   28.8130    5.8370 S   0  0  0  0  0  0  0  0  0  0  0  0
   55.7590   29.6210    5.2890 O   0  0  0  0  0  0  0  0  0  0  0  0
   54.3890   28.7570    7.2380 O   0  0  0  0  0  0  0  0  0  0  0  0
   54.9170   27.1330    5.3020 C   0  0  0  0  0  0  0  0  0  0  0  0
  2  1  1  0
  2  3  1  0
  1  4  1  0
  2  5  1  0
  4  6  1  0
  5  7  1  0
  3  8  1  0
  6  9  2  0
  6 10  1  0
  7 11  1  0
  8 11  1  0
  9 12  1  0
 10 13  2  0
 12 14  1  0
 12 15  2  0
 13 15  1  0
 15 16  1  0
 14 17  1  6
 14 18  1  0
 18 19  1  0
 19 20  2  0
 19 21  2  0
 19 22  1  0
M  END
>  <ref_pdb>  (48) 
H-SOS3-x1154_00_Frag_1-SOS3-x1257_03_Frag_0.pdb

>  <ref_mols>  (48) 
x1154_2A,x1257_0A

>  <ddG_score>  (48) 
-9.912413376930214

>  <fragmensteinOld_score>  (48) 
-3.6502334453054917

>  <LE_score>  (48) 
-0.4505642444059188

>  <comRMSD_score>  (48) 
0.2322492300805513

>  <fragmensteinNew_score>  (48) 
-1.5180677867378298

>  <aLogP_score>  (48) 
2.755600000000001

>  <hbondD_score>  (48) 
1

>  <hbondA_score>  (48) 
4

>  <polarSurfaceArea_score>  (48) 
64.63

>  <rotableBonds_score>  (48) 
6

>  <QED_score>  (48) 
0.8589651727579607

>  <energyPoseVsEnsemble_score>  (48) 
3.32602667027614

>  <sucos_score>  (48) 
0.9407767020087086

>  <interactions_conservation_score>  (48) 
0.6324555320336759

>  <interactions_novelty_score>  (48) 
0.2857142857142857

>  <SAscore_score>  (48) 
2.8091926323936303

>  <SCScore_score>  (48) 
3.556934945877325

>  <original SMILES>  (48) 
C[C@H](NS(C)(=O)=O)c1cc(OCC2CCOCC2)ccc1Cl

>  <CAR_friendly>  (48) 
0

$$$$
47_SOS3-x1154_00_Frag_1-SOS3-x1257_03_Frag
     RDKit          3D

 17 18  0  0  0  0  0  0  0  0999 V2000
   51.2110   23.7810    6.5680 C   0  0  0  0  0  0  0  0  0  0  0  0
   50.4860   22.9830    7.6610 C   0  0  0  0  0  0  0  0  0  0  0  0
   51.0240   23.1140    8.9300 C   0  0  0  0  0  0  0  0  0  0  0  0
   50.2770   24.2080    5.5340 O   0  0  0  0  0  0  0  0  0  0  0  0
   49.1360   23.2570    7.5820 C   0  0  0  0  0  0  0  0  0  0  0  0
   50.6800   25.3350    4.8760 C   0  0  0  0  0  0  0  0  0  0  0  0
   48.3460   22.4200    8.5700 C   0  0  0  0  0  0  0  0  0  0  0  0
   50.4330   22.3240    9.9150 C   0  0  0  0  0  0  0  0  0  0  0  0
   51.1130   26.5890    5.5910 C   0  0  0  0  0  0  0  0  0  0  0  0
   50.7060   25.3170    3.4810 C   0  0  0  0  0  0  0  0  0  0  0  0
   49.1560   21.7620    9.5620 O   0  0  0  0  0  0  0  0  0  0  0  0
   51.5930   27.7440    4.7550 C   0  0  0  0  0  0  0  0  0  0  0  0
   51.1850   26.5240    2.6970 C   0  0  0  0  0  0  0  0  0  0  0  0
   52.0430   28.9440    5.5220 C   0  0  0  0  0  0  0  0  0  0  0  0
   51.6090   27.6660    3.3590 C   0  0  0  0  0  0  0  0  0  0  0  0
   50.9670   29.9930    5.4920 C   0  0  0  0  0  0  0  0  0  0  0  0
   52.1590   28.9830    2.3900 Cl  0  0  0  0  0  0  0  0  0  0  0  0
  2  1  1  0
  2  3  1  0
  1  4  1  0
  2  5  1  0
  4  6  1  0
  5  7  1  0
  3  8  1  0
  6  9  2  0
  6 10  1  0
  7 11  1  0
  8 11  1  0
  9 12  1  0
 10 13  2  0
 12 14  1  0
 12 15  2  0
 13 15  1  0
 14 16  1  0
 15 17  1  0
M  END
>  <ref_pdb>  (49) 
H-SOS3-x1154_00_Frag_1-SOS3-x1257_03_Frag_2.pdb

>  <ref_mols>  (49) 
x1154_2A,x1257_0A

>  <ddG_score>  (49) 
-7.441878257949241

>  <fragmensteinOld_score>  (49) 
-2.6435698218692107

>  <LE_score>  (49) 
-0.43775754458524946

>  <comRMSD_score>  (49) 
0.2448058297206375

>  <fragmensteinNew_score>  (49) 
-0.9666855043273374

>  <aLogP_score>  (49) 
3.7078000000000024

>  <hbondD_score>  (49) 
0

>  <hbondA_score>  (49) 
2

>  <polarSurfaceArea_score>  (49) 
18.46

>  <rotableBonds_score>  (49) 
4

>  <QED_score>  (49) 
0.8156343331817679

>  <energyPoseVsEnsemble_score>  (49) 
3.308800733136672

>  <sucos_score>  (49) 
0.9410022370914849

>  <interactions_conservation_score>  (49) 
0.0

>  <interactions_novelty_score>  (49) 
0.25

>  <SAscore_score>  (49) 
2.043121212923758

>  <SCScore_score>  (49) 
2.9656798403331397

>  <original SMILES>  (49) 
CCc1cc(OCC2CCOCC2)ccc1Cl

>  <CAR_friendly>  (49) 
1

$$$$
48_SOS3-x1154_00_Frag_1-SOS3-x1257_03_Frag
     RDKit          3D

 18 19  0  0  0  0  0  0  0  0999 V2000
   51.2240   23.7730    6.5720 C   0  0  0  0  0  0  0  0  0  0  0  0
   50.5170   22.9670    7.6730 C   0  0  0  0  0  0  0  0  0  0  0  0
   51.0760   23.0880    8.9400 C   0  0  0  0  0  0  0  0  0  0  0  0
   50.2800   24.1920    5.5430 O   0  0  0  0  0  0  0  0  0  0  0  0
   49.1650   23.2380    7.6040 C   0  0  0  0  0  0  0  0  0  0  0  0
   50.6790   25.3200    4.8830 C   0  0  0  0  0  0  0  0  0  0  0  0
   48.3860   22.3930    8.6000 C   0  0  0  0  0  0  0  0  0  0  0  0
   50.4850   22.3050    9.9300 C   0  0  0  0  0  0  0  0  0  0  0  0
   51.1110   26.5680    5.5980 C   0  0  0  0  0  0  0  0  0  0  0  0
   50.7010   25.3060    3.4870 C   0  0  0  0  0  0  0  0  0  0  0  0
   49.2170   21.7220    9.5660 O   0  0  0  0  0  0  0  0  0  0  0  0
   51.5930   27.7300    4.7760 C   0  0  0  0  0  0  0  0  0  0  0  0
   51.1830   26.5220    2.7110 C   0  0  0  0  0  0  0  0  0  0  0  0
   52.0420   28.9170    5.5640 C   0  0  1  0  0  0  0  0  0  0  0  0
   51.6090   27.6610    3.3790 C   0  0  0  0  0  0  0  0  0  0  0  0
   53.3820   29.4160    5.1590 N   0  0  0  0  0  0  0  0  0  0  0  0
   51.0010   29.9990    5.4830 C   0  0  0  0  0  0  0  0  0  0  0  0
   52.1600   28.9840    2.4150 Cl  0  0  0  0  0  0  0  0  0  0  0  0
  2  1  1  0
  2  3  1  0
  1  4  1  0
  2  5  1  0
  4  6  1  0
  5  7  1  0
  3  8  1  0
  6  9  2  0
  6 10  1  0
  7 11  1  0
  8 11  1  0
  9 12  1  0
 10 13  2  0
 12 14  1  0
 12 15  2  0
 13 15  1  0
 14 16  1  0
 14 17  1  6
 15 18  1  0
M  END
>  <ref_pdb>  (50) 
H-SOS3-x1154_00_Frag_1-SOS3-x1257_03_Frag_4.pdb

>  <ref_mols>  (50) 
x1154_2A,x1257_0A

>  <ddG_score>  (50) 
-7.8647626327054745

>  <fragmensteinOld_score>  (50) 
-2.8420161822952115

>  <LE_score>  (50) 
-0.43693125737252636

>  <comRMSD_score>  (50) 
0.2309363442458835

>  <fragmensteinNew_score>  (50) 
-1.1633742512122311

>  <aLogP_score>  (50) 
3.1651000000000007

>  <hbondD_score>  (50) 
1

>  <hbondA_score>  (50) 
3

>  <polarSurfaceArea_score>  (50) 
44.480000000000004

>  <rotableBonds_score>  (50) 
4

>  <QED_score>  (50) 
0.9131422387379992

>  <energyPoseVsEnsemble_score>  (50) 
3.0067751250874077

>  <sucos_score>  (50) 
0.9450846149320183

>  <interactions_conservation_score>  (50) 
0.6324555320336759

>  <interactions_novelty_score>  (50) 
0.16666666666666666

>  <SAscore_score>  (50) 
2.6709673656895543

>  <SCScore_score>  (50) 
3.2189921791957845

>  <original SMILES>  (50) 
C[C@H](N)c1cc(OCC2CCOCC2)ccc1Cl

>  <CAR_friendly>  (50) 
0

$$$$
49_SOS3-x1154_00_Frag_1-SOS3-x1257_03_Frag
     RDKit          3D

 15 16  0  0  0  0  0  0  0  0999 V2000
   51.2920   23.8290    6.6390 C   0  0  0  0  0  0  0  0  0  0  0  0
   50.5720   22.9850    7.7040 C   0  0  0  0  0  0  0  0  0  0  0  0
   51.0970   23.0900    8.9850 C   0  0  0  0  0  0  0  0  0  0  0  0
   50.3240   24.3050    5.6740 O   0  0  0  0  0  0  0  0  0  0  0  0
   49.2150   23.2390    7.6070 C   0  0  0  0  0  0  0  0  0  0  0  0
   50.6800   25.3720    4.8740 C   0  0  0  0  0  0  0  0  0  0  0  0
   48.4180   22.3940    8.5860 C   0  0  0  0  0  0  0  0  0  0  0  0
   50.4940   22.2900    9.9490 C   0  0  0  0  0  0  0  0  0  0  0  0
   51.0470   26.5370    5.5480 C   0  0  0  0  0  0  0  0  0  0  0  0
   50.7110   25.3890    3.4770 C   0  0  0  0  0  0  0  0  0  0  0  0
   49.2310   21.7120    9.5580 O   0  0  0  0  0  0  0  0  0  0  0  0
   51.4500   27.6750    4.8620 C   0  0  0  0  0  0  0  0  0  0  0  0
   51.1160   26.5340    2.7820 C   0  0  0  0  0  0  0  0  0  0  0  0
   51.4920   27.6780    3.4800 C   0  0  0  0  0  0  0  0  0  0  0  0
   52.0060   29.0860    2.6370 Cl  0  0  0  0  0  0  0  0  0  0  0  0
  2  1  1  0
  2  3  1  0
  1  4  1  0
  2  5  1  0
  4  6  1  0
  5  7  1  0
  3  8  1  0
  6  9  2  0
  6 10  1  0
  7 11  1  0
  8 11  1  0
  9 12  1  0
 10 13  2  0
 12 14  2  0
 13 14  1  0
 14 15  1  0
M  END
>  <ref_pdb>  (51) 
H-SOS3-x1154_00_Frag_1-SOS3-x1257_03_Frag_6.pdb

>  <ref_mols>  (51) 
x1154_2A,x1257_0A

>  <ddG_score>  (51) 
-6.0298602988915695

>  <fragmensteinOld_score>  (51) 
-2.1601371894220254

>  <LE_score>  (51) 
-0.4019906865927713

>  <comRMSD_score>  (51) 
0.2458348703562887

>  <fragmensteinNew_score>  (51) 
-0.49994670172592015

>  <aLogP_score>  (51) 
3.145400000000002

>  <hbondD_score>  (51) 
0

>  <hbondA_score>  (51) 
2

>  <polarSurfaceArea_score>  (51) 
18.46

>  <rotableBonds_score>  (51) 
3

>  <QED_score>  (51) 
0.7885186118140366

>  <energyPoseVsEnsemble_score>  (51) 
2.8226980289101475

>  <sucos_score>  (51) 
0.9448873323821464

>  <interactions_conservation_score>  (51) 
0.0

>  <interactions_novelty_score>  (51) 
0.3333333333333333

>  <SAscore_score>  (51) 
1.78555899292979

>  <SCScore_score>  (51) 
2.2522221820944344

>  <original SMILES>  (51) 
Clc1ccc(OCC2CCOCC2)cc1

>  <CAR_friendly>  (51) 
1

$$$$
50_SOS3-x1154_00_Frag_2-SOS3-x1257_03_Frag
     RDKit          3D

 15 15  0  0  0  0  0  0  0  0999 V2000
   50.8230   24.3410    5.5980 N   0  0  0  0  0  0  0  0  0  0  0  0
   50.7530   25.7460    5.2200 C   0  0  0  0  0  0  0  0  0  0  0  0
   50.4070   26.1490    3.9370 C   0  0  0  0  0  0  0  0  0  0  0  0
   51.0410   26.6210    6.1730 N   0  0  0  0  0  0  0  0  0  0  0  0
   50.1430   25.2370    3.0050 F   0  0  0  0  0  0  0  0  0  0  0  0
   50.9760   27.9170    5.8330 C   0  0  0  0  0  0  0  0  0  0  0  0
   50.3330   27.4940    3.6170 C   0  0  0  0  0  0  0  0  0  0  0  0
   50.6220   28.4370    4.5870 C   0  0  0  0  0  0  0  0  0  0  0  0
   51.2900   28.8430    6.7580 O   0  0  0  0  0  0  0  0  0  0  0  0
   52.1810   29.7920    6.2080 C   0  0  0  0  0  0  0  0  0  0  0  0
   53.1340   29.2450    5.2720 N   0  0  0  0  0  0  0  0  0  0  0  0
   54.5920   28.7580    5.8620 S   0  0  0  0  0  0  0  0  0  0  0  0
   55.6030   29.6200    5.2770 O   0  0  0  0  0  0  0  0  0  0  0  0
   54.4150   28.6200    7.2790 O   0  0  0  0  0  0  0  0  0  0  0  0
   54.8210   27.1090    5.2360 C   0  0  0  0  0  0  0  0  0  0  0  0
  1  2  1  0
  2  3  2  0
  2  4  1  0
  3  5  1  0
  4  6  2  0
  3  7  1  0
  6  8  1  0
  7  8  2  0
  6  9  1  0
  9 10  1  0
 10 11  1  0
 11 12  1  0
 12 13  2  0
 12 14  2  0
 12 15  1  0
M  END
>  <ref_pdb>  (52) 
H-SOS3-x1154_00_Frag_2-SOS3-x1257_03_Frag_1.pdb

>  <ref_mols>  (52) 
x1154_2A,x1257_0A

>  <ddG_score>  (52) 
-4.593385541848188

>  <fragmensteinOld_score>  (52) 
-1.5634558591065653

>  <LE_score>  (52) 
-0.3062257027898792

>  <comRMSD_score>  (52) 
0.25522124926307244

>  <fragmensteinNew_score>  (52) 
0.21144112417077898

>  <aLogP_score>  (52) 
-0.3116000000000001

>  <hbondD_score>  (52) 
2

>  <hbondA_score>  (52) 
5

>  <polarSurfaceArea_score>  (52) 
94.31

>  <rotableBonds_score>  (52) 
4

>  <QED_score>  (52) 
0.6978807496003564

>  <energyPoseVsEnsemble_score>  (52) 
5.578797443726273

>  <sucos_score>  (52) 
0.9213123880835519

>  <interactions_conservation_score>  (52) 
0.8

>  <interactions_novelty_score>  (52) 
0.0

>  <SAscore_score>  (52) 
2.9087681188039163

>  <SCScore_score>  (52) 
3.3851708683849893

>  <original SMILES>  (52) 
CS(=O)(=O)NCOc1ccc(F)c(N)n1

>  <CAR_friendly>  (52) 
0

$$$$
51_SOS3-x1154_00_Frag_2-SOS3-x1257_03_Frag
     RDKit          3D

 15 15  0  0  0  0  0  0  0  0999 V2000
   51.1190   24.5260    5.6690 N   0  0  0  0  0  0  0  0  0  0  0  0
   51.0490   25.8440    5.0400 C   0  0  0  0  0  0  0  0  0  0  0  0
   50.3640   25.9810    3.8580 C   0  0  0  0  0  0  0  0  0  0  0  0
   51.6500   26.8940    5.6080 N   0  0  0  0  0  0  0  0  0  0  0  0
   49.8320   24.9200    3.3110 F   0  0  0  0  0  0  0  0  0  0  0  0
   51.5040   28.0590    4.9240 C   0  0  0  0  0  0  0  0  0  0  0  0
   50.2230   27.1940    3.2330 C   0  0  0  0  0  0  0  0  0  0  0  0
   50.8030   28.2830    3.7770 C   0  0  0  0  0  0  0  0  0  0  0  0
   52.1000   29.1830    5.3280 C   0  0  1  0  0  0  0  0  0  0  0  0
   50.9880   30.0870    5.7480 C   0  0  0  0  0  0  0  0  0  0  0  0
   52.9810   28.9000    6.4140 N   0  0  0  0  0  0  0  0  0  0  0  0
   54.5970   28.7060    6.1840 S   0  0  0  0  0  0  0  0  0  0  0  0
   55.1920   29.8130    5.4570 O   0  0  0  0  0  0  0  0  0  0  0  0
   54.9330   28.3420    7.5240 O   0  0  0  0  0  0  0  0  0  0  0  0
   54.7730   27.1900    5.2770 C   0  0  0  0  0  0  0  0  0  0  0  0
  1  2  1  0
  2  3  2  0
  2  4  1  0
  3  5  1  0
  4  6  2  0
  3  7  1  0
  6  8  1  0
  7  8  2  0
  6  9  1  0
  9 10  1  1
  9 11  1  0
 11 12  1  0
 12 13  2  0
 12 14  2  0
 12 15  1  0
M  END
>  <ref_pdb>  (53) 
H-SOS3-x1154_00_Frag_2-SOS3-x1257_03_Frag_5.pdb

>  <ref_mols>  (53) 
x1154_2A,x1257_0A

>  <ddG_score>  (53) 
-5.562939392814743

>  <fragmensteinOld_score>  (53) 
-1.8530239167620324

>  <LE_score>  (53) 
-0.3708626261876495

>  <comRMSD_score>  (53) 
0.7595639618009161

>  <fragmensteinNew_score>  (53) 
0.019578151897926777

>  <aLogP_score>  (53) 
0.41309999999999986

>  <hbondD_score>  (53) 
2

>  <hbondA_score>  (53) 
4

>  <polarSurfaceArea_score>  (53) 
85.07999999999998

>  <rotableBonds_score>  (53) 
3

>  <QED_score>  (53) 
0.7916108605571175

>  <energyPoseVsEnsemble_score>  (53) 
5.686562189588062

>  <sucos_score>  (53) 
0.6826035878866461

>  <interactions_conservation_score>  (53) 
0.0

>  <interactions_novelty_score>  (53) 
0.0

>  <SAscore_score>  (53) 
3.1182716926818568

>  <SCScore_score>  (53) 
3.1728052660973516

>  <original SMILES>  (53) 
C[C@@H](NS(C)(=O)=O)c1ccc(F)c(N)n1

>  <CAR_friendly>  (53) 
0

$$$$
52_SOS3-x1154_00_Frag_3-SOS3-x1257_03_Frag
     RDKit          3D

 14 14  0  0  0  0  0  0  0  0999 V2000
   50.1740   25.2530    2.9050 F   0  0  0  0  0  0  0  0  0  0  0  0
   50.4360   26.1360    3.8580 C   0  0  0  0  0  0  0  0  0  0  0  0
   50.8240   25.7110    5.1080 C   0  0  0  0  0  0  0  0  0  0  0  0
   50.3200   27.4910    3.5920 C   0  0  0  0  0  0  0  0  0  0  0  0
   51.1190   26.5510    6.1100 N   0  0  0  0  0  0  0  0  0  0  0  0
   50.6160   28.3810    4.6040 C   0  0  0  0  0  0  0  0  0  0  0  0
   51.0140   27.8610    5.8230 C   0  0  0  0  0  0  0  0  0  0  0  0
   51.3220   28.7770    6.7630 O   0  0  0  0  0  0  0  0  0  0  0  0
   52.2400   29.7280    6.2600 C   0  0  0  0  0  0  0  0  0  0  0  0
   53.1610   29.1650    5.3000 N   0  0  0  0  0  0  0  0  0  0  0  0
   54.6400   28.7460    5.9010 S   0  0  0  0  0  0  0  0  0  0  0  0
   55.6460   29.6220    5.3340 O   0  0  0  0  0  0  0  0  0  0  0  0
   54.4430   28.6030    7.3160 O   0  0  0  0  0  0  0  0  0  0  0  0
   54.9070   27.1010    5.2890 C   0  0  0  0  0  0  0  0  0  0  0  0
  1  2  1  0
  2  3  2  0
  2  4  1  0
  3  5  1  0
  4  6  2  0
  5  7  2  0
  6  7  1  0
  7  8  1  0
  8  9  1  0
  9 10  1  0
 10 11  1  0
 11 12  2  0
 11 13  2  0
 11 14  1  0
M  END
>  <ref_pdb>  (54) 
H-SOS3-x1154_00_Frag_3-SOS3-x1257_03_Frag_1.pdb

>  <ref_mols>  (54) 
x1154_2A,x1257_0A

>  <ddG_score>  (54) 
-5.030407167661286

>  <fragmensteinOld_score>  (54) 
-1.5295391108022862

>  <LE_score>  (54) 
-0.35931479769009184

>  <comRMSD_score>  (54) 
0.2765423227299711

>  <fragmensteinNew_score>  (54) 
0.4701827963417211

>  <aLogP_score>  (54) 
0.10620000000000013

>  <hbondD_score>  (54) 
1

>  <hbondA_score>  (54) 
4

>  <polarSurfaceArea_score>  (54) 
68.28999999999999

>  <rotableBonds_score>  (54) 
4

>  <QED_score>  (54) 
0.7309279144713405

>  <energyPoseVsEnsemble_score>  (54) 
5.039096227424857

>  <sucos_score>  (54) 
0.9154306387437692

>  <interactions_conservation_score>  (54) 
0.6666666666666666

>  <interactions_novelty_score>  (54) 
0.0

>  <SAscore_score>  (54) 
2.6482700593763475

>  <SCScore_score>  (54) 
2.7456118885624647

>  <original SMILES>  (54) 
CS(=O)(=O)NCOc1ccc(F)cn1

>  <CAR_friendly>  (54) 
0

$$$$
53_SOS3-x1154_00_Frag_3-SOS3-x1257_03_Frag
     RDKit          3D

 14 14  0  0  0  0  0  0  0  0999 V2000
   49.8890   24.8220    3.3250 F   0  0  0  0  0  0  0  0  0  0  0  0
   50.3980   25.9000    3.8590 C   0  0  0  0  0  0  0  0  0  0  0  0
   51.1460   25.8030    5.0060 C   0  0  0  0  0  0  0  0  0  0  0  0
   50.1740   27.1160    3.2520 C   0  0  0  0  0  0  0  0  0  0  0  0
   51.7210   26.8720    5.5760 N   0  0  0  0  0  0  0  0  0  0  0  0
   50.7360   28.2010    3.8100 C   0  0  0  0  0  0  0  0  0  0  0  0
   51.4850   28.0270    4.9120 C   0  0  0  0  0  0  0  0  0  0  0  0
   52.0270   29.1690    5.3040 C   0  0  1  0  0  0  0  0  0  0  0  0
   50.8930   30.0430    5.6900 C   0  0  0  0  0  0  0  0  0  0  0  0
   52.9560   28.9720    6.3600 N   0  0  0  0  0  0  0  0  0  0  0  0
   54.5420   28.7790    6.0520 S   0  0  0  0  0  0  0  0  0  0  0  0
   55.1110   29.8280    5.2310 O   0  0  0  0  0  0  0  0  0  0  0  0
   54.9010   28.5740    7.4080 O   0  0  0  0  0  0  0  0  0  0  0  0
   54.7420   27.1890    5.2740 C   0  0  0  0  0  0  0  0  0  0  0  0
  1  2  1  0
  2  3  2  0
  2  4  1  0
  3  5  1  0
  4  6  2  0
  5  7  2  0
  6  7  1  0
  7  8  1  0
  8  9  1  1
  8 10  1  0
 10 11  1  0
 11 12  2  0
 11 13  2  0
 11 14  1  0
M  END
>  <ref_pdb>  (55) 
H-SOS3-x1154_00_Frag_3-SOS3-x1257_03_Frag_5.pdb

>  <ref_mols>  (55) 
x1154_2A,x1257_0A

>  <ddG_score>  (55) 
-4.6323340084493525

>  <fragmensteinOld_score>  (55) 
-1.5418524271070275

>  <LE_score>  (55) 
-0.33088100060352515

>  <comRMSD_score>  (55) 
0.7846143745828429

>  <fragmensteinNew_score>  (55) 
0.31538865938310107

>  <aLogP_score>  (55) 
0.8309

>  <hbondD_score>  (55) 
1

>  <hbondA_score>  (55) 
3

>  <polarSurfaceArea_score>  (55) 
59.06

>  <rotableBonds_score>  (55) 
3

>  <QED_score>  (55) 
0.8171186596772796

>  <energyPoseVsEnsemble_score>  (55) 
6.141827665654898

>  <sucos_score>  (55) 
0.6591755030689522

>  <interactions_conservation_score>  (55) 
1.0

>  <interactions_novelty_score>  (55) 
0.42857142857142855

>  <SAscore_score>  (55) 
2.8159000807279195

>  <SCScore_score>  (55) 
2.956065184460452

>  <original SMILES>  (55) 
C[C@@H](NS(C)(=O)=O)c1ccc(F)cn1

>  <CAR_friendly>  (55) 
0

$$$$
54_SOS3-x1154_00_Frag_6-SOS3-x1257_03_Frag
     RDKit          3D

 16 16  0  0  0  0  0  0  0  0999 V2000
   51.4390   23.9980    6.7240 C   0  0  0  0  0  0  0  0  0  0  0  0
   50.8390   24.3650    5.5610 N   0  0  0  0  0  0  0  0  0  0  0  0
   50.7960   25.6820    5.2750 C   0  0  0  0  0  0  0  0  0  0  0  0
   51.1260   26.5820    6.2120 N   0  0  0  0  0  0  0  0  0  0  0  0
   50.4070   26.0910    3.9930 C   0  0  0  0  0  0  0  0  0  0  0  0
   50.1070   25.1690    3.0840 F   0  0  0  0  0  0  0  0  0  0  0  0
   51.0720   27.8710    5.8910 C   0  0  0  0  0  0  0  0  0  0  0  0
   50.3210   27.4380    3.6200 C   0  0  0  0  0  0  0  0  0  0  0  0
   50.6430   28.3910    4.5460 C   0  0  0  0  0  0  0  0  0  0  0  0
   51.4240   28.8230    6.7780 O   0  0  0  0  0  0  0  0  0  0  0  0
   52.2340   29.7920    6.1560 C   0  0  0  0  0  0  0  0  0  0  0  0
   53.1900   29.1800    5.2570 N   0  0  0  0  0  0  0  0  0  0  0  0
   54.6500   28.7550    5.9060 S   0  0  0  0  0  0  0  0  0  0  0  0
   55.6490   29.6430    5.3420 O   0  0  0  0  0  0  0  0  0  0  0  0
   54.4370   28.6220    7.3180 O   0  0  0  0  0  0  0  0  0  0  0  0
   54.9110   27.1030    5.3060 C   0  0  0  0  0  0  0  0  0  0  0  0
  1  2  1  0
  2  3  1  0
  3  4  2  0
  3  5  1  0
  5  6  1  0
  4  7  1  0
  5  8  2  0
  7  9  2  0
  8  9  1  0
  7 10  1  0
 10 11  1  0
 11 12  1  0
 12 13  1  0
 13 14  2  0
 13 15  2  0
 13 16  1  0
M  END
>  <ref_pdb>  (56) 
H-SOS3-x1154_00_Frag_6-SOS3-x1257_03_Frag_1.pdb

>  <ref_mols>  (56) 
x1154_2A,x1257_0A

>  <ddG_score>  (56) 
-5.431527472163171

>  <fragmensteinOld_score>  (56) 
-1.8370589665327213

>  <LE_score>  (56) 
-0.3394704670101982

>  <comRMSD_score>  (56) 
0.24924652789991275

>  <fragmensteinNew_score>  (56) 
-0.09726983372276554

>  <aLogP_score>  (56) 
0.14789999999999998

>  <hbondD_score>  (56) 
2

>  <hbondA_score>  (56) 
5

>  <polarSurfaceArea_score>  (56) 
80.32000000000001

>  <rotableBonds_score>  (56) 
5

>  <QED_score>  (56) 
0.7259107065849145

>  <energyPoseVsEnsemble_score>  (56) 
5.771623081352517

>  <sucos_score>  (56) 
0.9217556754270414

>  <interactions_conservation_score>  (56) 
0.75

>  <interactions_novelty_score>  (56) 
0.0

>  <SAscore_score>  (56) 
2.886988546904682

>  <SCScore_score>  (56) 
3.346891006482345

>  <original SMILES>  (56) 
CNc1nc(OCNS(C)(=O)=O)ccc1F

>  <CAR_friendly>  (56) 
0

$$$$
55_SOS3-x1154_00_Frag_6-SOS3-x1257_03_Frag
     RDKit          3D

 16 16  0  0  0  0  0  0  0  0999 V2000
   51.5530   24.1240    6.7560 C   0  0  0  0  0  0  0  0  0  0  0  0
   50.9930   24.4670    5.5700 N   0  0  0  0  0  0  0  0  0  0  0  0
   51.0130   25.7340    5.0800 C   0  0  0  0  0  0  0  0  0  0  0  0
   51.6170   26.7950    5.6670 N   0  0  0  0  0  0  0  0  0  0  0  0
   50.3480   25.9030    3.8730 C   0  0  0  0  0  0  0  0  0  0  0  0
   49.8200   24.8440    3.3160 F   0  0  0  0  0  0  0  0  0  0  0  0
   51.4980   27.9600    4.9890 C   0  0  0  0  0  0  0  0  0  0  0  0
   50.2030   27.1050    3.2080 C   0  0  0  0  0  0  0  0  0  0  0  0
   50.7660   28.1790    3.7450 C   0  0  0  0  0  0  0  0  0  0  0  0
   52.1280   29.2070    5.4020 C   0  0  1  0  0  0  0  0  0  0  0  0
   50.9990   30.1130    5.7580 C   0  0  0  0  0  0  0  0  0  0  0  0
   53.0260   28.9880    6.4450 N   0  0  0  0  0  0  0  0  0  0  0  0
   54.6240   28.7260    6.2060 S   0  0  0  0  0  0  0  0  0  0  0  0
   55.2600   29.8110    5.4800 O   0  0  0  0  0  0  0  0  0  0  0  0
   54.9490   28.3380    7.5410 O   0  0  0  0  0  0  0  0  0  0  0  0
   54.7510   27.1960    5.3020 C   0  0  0  0  0  0  0  0  0  0  0  0
  1  2  1  0
  2  3  1  0
  3  4  2  0
  3  5  1  0
  5  6  1  0
  4  7  1  0
  5  8  2  0
  7  9  2  0
  8  9  1  0
  7 10  1  0
 10 11  1  1
 10 12  1  0
 12 13  1  0
 13 14  2  0
 13 15  2  0
 13 16  1  0
M  END
>  <ref_pdb>  (57) 
H-SOS3-x1154_00_Frag_6-SOS3-x1257_03_Frag_5.pdb

>  <ref_mols>  (57) 
x1154_2A,x1257_0A

>  <ddG_score>  (57) 
-6.727021125446114

>  <fragmensteinOld_score>  (57) 
-2.2150626801420694

>  <LE_score>  (57) 
-0.4204388203403821

>  <comRMSD_score>  (57) 
0.7303415449471531

>  <fragmensteinNew_score>  (57) 
-0.2724129966882625

>  <aLogP_score>  (57) 
0.8725999999999999

>  <hbondD_score>  (57) 
2

>  <hbondA_score>  (57) 
4

>  <polarSurfaceArea_score>  (57) 
71.09

>  <rotableBonds_score>  (57) 
4

>  <QED_score>  (57) 
0.8279690965715623

>  <energyPoseVsEnsemble_score>  (57) 
5.366353352936523

>  <sucos_score>  (57) 
0.6956301668629794

>  <interactions_conservation_score>  (57) 
1.0

>  <interactions_novelty_score>  (57) 
0.2857142857142857

>  <SAscore_score>  (57) 
3.1020658319819763

>  <SCScore_score>  (57) 
3.362361508691557

>  <original SMILES>  (57) 
CNc1nc([C@@H](C)NS(C)(=O)=O)ccc1F

>  <CAR_friendly>  (57) 
0

$$$$
56_SOS3-x1176_00_Frag_0-SOS3-x1147_00_Frag
     RDKit          3D

 18 19  0  0  0  0  0  0  0  0999 V2000
   43.0090    6.4740   11.9870 O   0  0  0  0  0  0  0  0  0  0  0  0
   42.8960    7.8190   12.2280 C   0  0  0  0  0  0  0  0  0  0  0  0
   41.8970    8.5810   11.6370 C   0  0  0  0  0  0  0  0  0  0  0  0
   43.8240    8.4150   13.0850 C   0  0  0  0  0  0  0  0  0  0  0  0
   43.7960    9.7900   13.3830 C   0  0  0  0  0  0  0  0  0  0  0  0
   41.8350    9.9350   11.9170 C   0  0  0  0  0  0  0  0  0  0  0  0
   44.7220   10.3800   14.2250 N   0  0  0  0  0  0  0  0  0  0  0  0
   42.7690   10.5270   12.7740 C   0  0  0  0  0  0  0  0  0  0  0  0
   44.9670    9.6190   15.5030 C   0  0  0  0  0  0  0  0  0  0  0  0
   45.0150   11.8870   14.2390 C   0  0  2  0  0  0  0  0  0  0  0  0
   46.3290    8.9350   15.5670 C   0  0  0  0  0  0  0  0  0  0  0  0
   44.1050   12.4820   15.3560 C   0  0  0  0  0  0  0  0  0  0  0  0
   45.3060   12.7750   12.9080 C   0  0  0  0  0  0  0  0  0  0  0  0
   46.3950   12.4950   12.0160 C   0  0  0  0  0  0  0  0  0  0  0  0
   44.5300   13.9170   12.5050 C   0  0  0  0  0  0  0  0  0  0  0  0
   46.6610   13.2660   10.8510 C   0  0  0  0  0  0  0  0  0  0  0  0
   44.8060   14.6820   11.3390 C   0  0  0  0  0  0  0  0  0  0  0  0
   45.8670   14.3550   10.5140 C   0  0  0  0  0  0  0  0  0  0  0  0
  1  2  1  0
  2  3  2  0
  2  4  1  0
  4  5  2  0
  3  6  1  0
  5  7  1  0
  5  8  1  0
  6  8  2  0
  7  9  1  0
  7 10  1  0
  9 11  1  0
 10 12  1  6
 10 13  1  0
 13 14  2  0
 13 15  1  0
 14 16  1  0
 15 17  2  0
 16 18  2  0
 17 18  1  0
M  END
>  <ref_pdb>  (58) 
H-SOS3-x1176_00_Frag_0-SOS3-x1147_00_Frag_1.pdb

>  <ref_mols>  (58) 
x1147_0A,x1176_1A

>  <ddG_score>  (58) 
-12.450255481411627

>  <fragmensteinOld_score>  (58) 
-3.0510772374097668

>  <LE_score>  (58) 
-0.6916808600784238

>  <comRMSD_score>  (58) 
1.2389738588725585

>  <fragmensteinNew_score>  (58) 
0.2014644128439536

>  <aLogP_score>  (58) 
3.979700000000003

>  <hbondD_score>  (58) 
1

>  <hbondA_score>  (58) 
2

>  <polarSurfaceArea_score>  (58) 
23.47

>  <rotableBonds_score>  (58) 
4

>  <QED_score>  (58) 
0.8748152625591379

>  <energyPoseVsEnsemble_score>  (58) 
1.9345706642370963

>  <sucos_score>  (58) 
0.786335884914321

>  <interactions_conservation_score>  (58) 
0.8944271909999159

>  <interactions_novelty_score>  (58) 
0.0

>  <SAscore_score>  (58) 
2.478934786504034

>  <SCScore_score>  (58) 
3.106503069965399

>  <original SMILES>  (58) 
CCN(c1cccc(O)c1)[C@H](C)c1ccccc1

>  <CAR_friendly>  (58) 
1

$$$$
57_SOS3-x1176_00_Frag_2-SOS3-x1147_00_Frag
     RDKit          3D

 22 24  0  0  0  0  0  0  0  0999 V2000
   43.4910    6.5420   11.7380 O   0  0  0  0  0  0  0  0  0  0  0  0
   43.2330    7.8460   12.0580 C   0  0  0  0  0  0  0  0  0  0  0  0
   43.7970    8.3380   13.2290 C   0  0  0  0  0  0  0  0  0  0  0  0
   42.4240    8.6530   11.2590 C   0  0  0  0  0  0  0  0  0  0  0  0
   43.5410    9.6650   13.6190 C   0  0  0  0  0  0  0  0  0  0  0  0
   42.1880    9.9770   11.6330 C   0  0  0  0  0  0  0  0  0  0  0  0
   42.7450   10.4720   12.8030 C   0  0  0  0  0  0  0  0  0  0  0  0
   43.9680   10.2300   14.8970 C   0  0  0  0  0  0  0  0  0  0  0  0
   44.4100    9.3560   15.8540 C   0  0  0  0  0  0  0  0  0  0  0  0
   43.8760   11.5820   15.2120 C   0  0  0  0  0  0  0  0  0  0  0  0
   44.6580    8.0460   15.5300 N   0  0  0  0  0  0  0  0  0  0  0  0
   43.5930   12.5070   14.2590 O   0  0  0  0  0  0  0  0  0  0  0  0
   44.6080    9.7700   17.1460 C   0  0  0  0  0  0  0  0  0  0  0  0
   44.0860   12.0250   16.5170 C   0  0  0  0  0  0  0  0  0  0  0  0
   44.9860   12.8800   13.9760 C   0  0  0  0  0  0  0  0  0  0  0  0
   44.4220   11.0980   17.4910 C   0  0  0  0  0  0  0  0  0  0  0  0
   45.3130   13.4510   12.6110 C   0  0  0  0  0  0  0  0  0  0  0  0
   44.5450   14.4670   12.0610 C   0  0  0  0  0  0  0  0  0  0  0  0
   46.4180   12.9690   11.8620 C   0  0  0  0  0  0  0  0  0  0  0  0
   44.8580   14.9840   10.8200 C   0  0  0  0  0  0  0  0  0  0  0  0
   46.7230   13.5060   10.6060 C   0  0  0  0  0  0  0  0  0  0  0  0
   45.9340   14.5210   10.0870 C   0  0  0  0  0  0  0  0  0  0  0  0
  1  2  1  0
  2  3  2  0
  2  4  1  0
  3  5  1  0
  4  6  2  0
  5  7  2  0
  6  7  1  0
  5  8  1  0
  8  9  2  0
  8 10  1  0
  9 11  1  0
 10 12  1  0
  9 13  1  0
 10 14  2  0
 12 15  1  0
 13 16  2  0
 14 16  1  0
 15 17  1  0
 17 18  2  0
 17 19  1  0
 18 20  1  0
 19 21  2  0
 20 22  2  0
 21 22  1  0
M  END
>  <ref_pdb>  (59) 
H-SOS3-x1176_00_Frag_2-SOS3-x1147_00_Frag_0.pdb

>  <ref_mols>  (59) 
x1147_0A,x1176_1A

>  <ddG_score>  (59) 
-11.256453149750541

>  <fragmensteinOld_score>  (59) 
-3.9490617453237418

>  <LE_score>  (59) 
-0.5116569613522973

>  <comRMSD_score>  (59) 
0.5022288846263665

>  <fragmensteinNew_score>  (59) 
-1.2862442927814355

>  <aLogP_score>  (59) 
4.220400000000002

>  <hbondD_score>  (59) 
2

>  <hbondA_score>  (59) 
3

>  <polarSurfaceArea_score>  (59) 
55.480000000000004

>  <rotableBonds_score>  (59) 
4

>  <QED_score>  (59) 
0.7075404460149621

>  <energyPoseVsEnsemble_score>  (59) 
2.1649586389856394

>  <sucos_score>  (59) 
0.8345189595929609

>  <interactions_conservation_score>  (59) 
0.3535533905932738

>  <interactions_novelty_score>  (59) 
0.4

>  <SAscore_score>  (59) 
1.855990664879064

>  <SCScore_score>  (59) 
2.5974591760093997

>  <original SMILES>  (59) 
Nc1cccc(OCc2ccccc2)c1-c1cccc(O)c1

>  <CAR_friendly>  (59) 
1

$$$$
58_SOS3-x1176_00_Frag_2-SOS3-x1147_00_Frag
     RDKit          3D

 16 17  0  0  0  0  0  0  0  0999 V2000
   43.0170    6.4550   12.1150 O   0  0  0  0  0  0  0  0  0  0  0  0
   42.8560    7.7940   12.3430 C   0  0  0  0  0  0  0  0  0  0  0  0
   43.7100    8.4110   13.2530 C   0  0  0  0  0  0  0  0  0  0  0  0
   41.8730    8.5310   11.6810 C   0  0  0  0  0  0  0  0  0  0  0  0
   43.5800    9.7910   13.5050 C   0  0  0  0  0  0  0  0  0  0  0  0
   41.7410    9.8910   11.9380 C   0  0  0  0  0  0  0  0  0  0  0  0
   42.5910   10.5140   12.8440 C   0  0  0  0  0  0  0  0  0  0  0  0
   44.3170   10.5770   14.3260 O   0  0  0  0  0  0  0  0  0  0  0  0
   45.3830   11.2290   13.6310 C   0  0  0  0  0  0  0  0  0  0  0  0
   45.5070   12.7250   13.8060 C   0  0  0  0  0  0  0  0  0  0  0  0
   45.6500   13.3570   12.5540 C   0  0  0  0  0  0  0  0  0  0  0  0
   46.6870   12.9790   11.6820 C   0  0  0  0  0  0  0  0  0  0  0  0
   44.7710   14.3690   12.1570 C   0  0  0  0  0  0  0  0  0  0  0  0
   46.8550   13.5880   10.4390 C   0  0  0  0  0  0  0  0  0  0  0  0
   44.9570   14.9650   10.9020 C   0  0  0  0  0  0  0  0  0  0  0  0
   45.9840   14.5910   10.0470 C   0  0  0  0  0  0  0  0  0  0  0  0
  1  2  1  0
  2  3  2  0
  2  4  1  0
  3  5  1  0
  4  6  2  0
  5  7  2  0
  6  7  1  0
  5  8  1  0
  8  9  1  0
  9 10  1  0
 10 11  1  0
 11 12  2  0
 11 13  1  0
 12 14  1  0
 13 15  2  0
 14 16  2  0
 15 16  1  0
M  END
>  <ref_pdb>  (60) 
H-SOS3-x1176_00_Frag_2-SOS3-x1147_00_Frag_1.pdb

>  <ref_mols>  (60) 
x1147_0A,x1176_1A

>  <ddG_score>  (60) 
-7.81757051757279

>  <fragmensteinOld_score>  (60) 
-1.271614904697505

>  <LE_score>  (60) 
-0.48859815734829937

>  <comRMSD_score>  (60) 
1.2918991988170527

>  <fragmensteinNew_score>  (60) 
1.8389078177734133

>  <aLogP_score>  (60) 
3.013700000000001

>  <hbondD_score>  (60) 
1

>  <hbondA_score>  (60) 
2

>  <polarSurfaceArea_score>  (60) 
29.46

>  <rotableBonds_score>  (60) 
4

>  <QED_score>  (60) 
0.8472987990440669

>  <energyPoseVsEnsemble_score>  (60) 
2.1054683384295307

>  <sucos_score>  (60) 
0.9773918777265379

>  <interactions_conservation_score>  (60) 
0.8944271909999159

>  <interactions_novelty_score>  (60) 
0.0

>  <SAscore_score>  (60) 
1.5108751529260722

>  <SCScore_score>  (60) 
2.45384955685774

>  <original SMILES>  (60) 
Oc1cccc(OCCc2ccccc2)c1

>  <CAR_friendly>  (60) 
1

$$$$
59_SOS3-x1176_00_Frag_2-SOS3-x1147_00_Frag
     RDKit          3D

 15 16  0  0  0  0  0  0  0  0999 V2000
   43.2320    6.5180   11.8030 O   0  0  0  0  0  0  0  0  0  0  0  0
   43.0200    7.8280   12.1310 C   0  0  0  0  0  0  0  0  0  0  0  0
   43.5770    8.3090   13.3100 C   0  0  0  0  0  0  0  0  0  0  0  0
   42.2590    8.6610   11.3180 C   0  0  0  0  0  0  0  0  0  0  0  0
   43.3650    9.6480   13.6980 C   0  0  0  0  0  0  0  0  0  0  0  0
   42.0620    9.9890   11.6850 C   0  0  0  0  0  0  0  0  0  0  0  0
   42.6130   10.4790   12.8650 C   0  0  0  0  0  0  0  0  0  0  0  0
   43.8420   10.1580   14.9910 C   0  0  0  0  0  0  0  0  0  0  0  0
   43.5860   11.4860   15.3980 C   0  0  0  0  0  0  0  0  0  0  0  0
   44.4930    9.3050   15.8620 C   0  0  0  0  0  0  0  0  0  0  0  0
   43.0120   12.3840   14.5500 O   0  0  0  0  0  0  0  0  0  0  0  0
   44.8650    8.0120   15.4940 N   0  0  0  0  0  0  0  0  0  0  0  0
   43.9010   11.8980   16.6870 C   0  0  0  0  0  0  0  0  0  0  0  0
   44.7840    9.7090   17.1380 C   0  0  0  0  0  0  0  0  0  0  0  0
   44.4780   10.9900   17.5600 C   0  0  0  0  0  0  0  0  0  0  0  0
  1  2  1  0
  2  3  2  0
  2  4  1  0
  3  5  1  0
  4  6  2  0
  5  7  2  0
  6  7  1  0
  5  8  1  0
  8  9  2  0
  8 10  1  0
  9 11  1  0
 10 12  1  0
  9 13  1  0
 10 14  2  0
 13 15  2  0
 14 15  1  0
M  END
>  <ref_pdb>  (61) 
H-SOS3-x1176_00_Frag_2-SOS3-x1147_00_Frag_2.pdb

>  <ref_mols>  (61) 
x1147_0A,x1176_1A

>  <ddG_score>  (61) 
-7.348582418659823

>  <fragmensteinOld_score>  (61) 
-2.3599855893426023

>  <LE_score>  (61) 
-0.4899054945773215

>  <comRMSD_score>  (61) 
0.6097308943893625

>  <fragmensteinNew_score>  (61) 
-0.3991308513148526

>  <aLogP_score>  (61) 
2.3469999999999995

>  <hbondD_score>  (61) 
3

>  <hbondA_score>  (61) 
3

>  <polarSurfaceArea_score>  (61) 
66.48

>  <rotableBonds_score>  (61) 
1

>  <QED_score>  (61) 
0.6202375091755624

>  <energyPoseVsEnsemble_score>  (61) 
1.3452377562293638

>  <sucos_score>  (61) 
0.7677677003410215

>  <interactions_conservation_score>  (61) 
0.5477225575051662

>  <interactions_novelty_score>  (61) 
0.3333333333333333

>  <SAscore_score>  (61) 
1.9609199319907304

>  <SCScore_score>  (61) 
2.5773324808843894

>  <original SMILES>  (61) 
Nc1cccc(O)c1-c1cccc(O)c1

>  <CAR_friendly>  (61) 
1

$$$$
60_SOS3-x1176_00_Frag_2-SOS3-x1147_00_Frag
     RDKit          3D

 14 15  0  0  0  0  0  0  0  0999 V2000
   43.2070    6.5180   11.7690 O   0  0  0  0  0  0  0  0  0  0  0  0
   42.9850    7.8250   12.0950 C   0  0  0  0  0  0  0  0  0  0  0  0
   43.5160    8.2990   13.2870 C   0  0  0  0  0  0  0  0  0  0  0  0
   42.2400    8.6700   11.2760 C   0  0  0  0  0  0  0  0  0  0  0  0
   43.2940    9.6360   13.6770 C   0  0  0  0  0  0  0  0  0  0  0  0
   42.0350    9.9980   11.6490 C   0  0  0  0  0  0  0  0  0  0  0  0
   42.5640   10.4770   12.8460 C   0  0  0  0  0  0  0  0  0  0  0  0
   43.7530   10.1280   14.9750 C   0  0  0  0  0  0  0  0  0  0  0  0
   43.4130   11.4290   15.4040 C   0  0  0  0  0  0  0  0  0  0  0  0
   44.4610    9.2980   15.8220 C   0  0  0  0  0  0  0  0  0  0  0  0
   44.9010    8.0260   15.4460 N   0  0  0  0  0  0  0  0  0  0  0  0
   43.7250   11.8420   16.6890 C   0  0  0  0  0  0  0  0  0  0  0  0
   44.7400    9.7010   17.0920 C   0  0  0  0  0  0  0  0  0  0  0  0
   44.3710   10.9570   17.5380 C   0  0  0  0  0  0  0  0  0  0  0  0
  1  2  1  0
  2  3  2  0
  2  4  1  0
  3  5  1  0
  4  6  2  0
  5  7  2  0
  6  7  1  0
  5  8  1  0
  8  9  2  0
  8 10  1  0
 10 11  1  0
  9 12  1  0
 10 13  2  0
 12 14  2  0
 13 14  1  0
M  END
>  <ref_pdb>  (62) 
H-SOS3-x1176_00_Frag_2-SOS3-x1147_00_Frag_3.pdb

>  <ref_mols>  (62) 
x1147_0A,x1176_1A

>  <ddG_score>  (62) 
-7.746241643271529

>  <fragmensteinOld_score>  (62) 
-2.4061524171405555

>  <LE_score>  (62) 
-0.5533029745193949

>  <comRMSD_score>  (62) 
0.5430959115137504

>  <fragmensteinNew_score>  (62) 
-0.3900702406709537

>  <aLogP_score>  (62) 
2.6414

>  <hbondD_score>  (62) 
2

>  <hbondA_score>  (62) 
2

>  <polarSurfaceArea_score>  (62) 
46.25

>  <rotableBonds_score>  (62) 
1

>  <QED_score>  (62) 
0.6707120725102634

>  <energyPoseVsEnsemble_score>  (62) 
1.2558768603746275

>  <sucos_score>  (62) 
0.8495224611370596

>  <interactions_conservation_score>  (62) 
0.5477225575051662

>  <interactions_novelty_score>  (62) 
0.2

>  <SAscore_score>  (62) 
1.6743498164613708

>  <SCScore_score>  (62) 
2.4950333871445896

>  <original SMILES>  (62) 
Nc1ccccc1-c1cccc(O)c1

>  <CAR_friendly>  (62) 
1

$$$$
61_SOS3-x1176_00_Frag_2-SOS3-x1147_00_Frag
     RDKit          3D

 16 17  0  0  0  0  0  0  0  0999 V2000
   42.7050    6.4550   12.2400 O   0  0  0  0  0  0  0  0  0  0  0  0
   42.7810    7.8090   12.4260 C   0  0  0  0  0  0  0  0  0  0  0  0
   43.7040    8.2990   13.3460 C   0  0  0  0  0  0  0  0  0  0  0  0
   41.9580    8.6740   11.7130 C   0  0  0  0  0  0  0  0  0  0  0  0
   43.8150    9.6870   13.5610 C   0  0  0  0  0  0  0  0  0  0  0  0
   42.0580   10.0490   11.9170 C   0  0  0  0  0  0  0  0  0  0  0  0
   42.9860   10.5620   12.8330 C   0  0  0  0  0  0  0  0  0  0  0  0
   43.1630   11.9130   13.0850 O   0  0  0  0  0  0  0  0  0  0  0  0
   44.0480   12.0780   14.2370 O   0  0  0  0  0  0  0  0  0  0  0  0
   45.3040   12.6710   13.8510 C   0  0  0  0  0  0  0  0  0  0  0  0
   45.5190   13.2950   12.5950 C   0  0  0  0  0  0  0  0  0  0  0  0
   46.5830   12.9060   11.7470 C   0  0  0  0  0  0  0  0  0  0  0  0
   44.6780   14.3290   12.1650 C   0  0  0  0  0  0  0  0  0  0  0  0
   46.8010   13.5250   10.5110 C   0  0  0  0  0  0  0  0  0  0  0  0
   44.9160   14.9340   10.9200 C   0  0  0  0  0  0  0  0  0  0  0  0
   45.9620   14.5480   10.0970 C   0  0  0  0  0  0  0  0  0  0  0  0
  1  2  1  0
  2  3  2  0
  2  4  1  0
  3  5  1  0
  4  6  2  0
  5  7  2  0
  6  7  1  0
  7  8  1  0
  8  9  1  0
  9 10  1  0
 10 11  1  0
 11 12  2  0
 11 13  1  0
 12 14  1  0
 13 15  2  0
 14 16  2  0
 15 16  1  0
M  END
>  <ref_pdb>  (63) 
H-SOS3-x1176_00_Frag_2-SOS3-x1147_00_Frag_4.pdb

>  <ref_mols>  (63) 
x1147_0A,x1176_1A

>  <ddG_score>  (63) 
-8.433169189125973

>  <fragmensteinOld_score>  (63) 
-1.7201894609659576

>  <LE_score>  (63) 
-0.5270730743203733

>  <comRMSD_score>  (63) 
1.266444376859237

>  <fragmensteinNew_score>  (63) 
1.1896285338818446

>  <aLogP_score>  (63) 
2.902800000000001

>  <hbondD_score>  (63) 
1

>  <hbondA_score>  (63) 
3

>  <polarSurfaceArea_score>  (63) 
38.69

>  <rotableBonds_score>  (63) 
4

>  <QED_score>  (63) 
0.6304833549792903

>  <energyPoseVsEnsemble_score>  (63) 
2.574874297821015

>  <sucos_score>  (63) 
0.8723228508413818

>  <interactions_conservation_score>  (63) 
1.0

>  <interactions_novelty_score>  (63) 
0.14285714285714285

>  <SAscore_score>  (63) 
1.8549285080815565

>  <SCScore_score>  (63) 
1.8782526836541242

>  <original SMILES>  (63) 
Oc1ccc(OOCc2ccccc2)cc1

>  <CAR_friendly>  (63) 
0

$$$$
62_SOS3-x1176_00_Frag_2-SOS3-x1147_00_Frag
     RDKit          3D

 16 17  0  0  0  0  0  0  0  0999 V2000
   43.4090    6.5710   11.7490 O   0  0  0  0  0  0  0  0  0  0  0  0
   43.1840    7.8780   12.0850 C   0  0  0  0  0  0  0  0  0  0  0  0
   43.7510    8.3570   13.2650 C   0  0  0  0  0  0  0  0  0  0  0  0
   42.4020    8.7040   11.2850 C   0  0  0  0  0  0  0  0  0  0  0  0
   43.5200    9.6960   13.6620 C   0  0  0  0  0  0  0  0  0  0  0  0
   42.1900   10.0300   11.6630 C   0  0  0  0  0  0  0  0  0  0  0  0
   42.7450   10.5140   12.8370 C   0  0  0  0  0  0  0  0  0  0  0  0
   43.9550   10.2460   14.9530 C   0  0  0  0  0  0  0  0  0  0  0  0
   43.8500   11.5980   15.3300 C   0  0  0  0  0  0  0  0  0  0  0  0
   44.4260    9.3500   15.8810 C   0  0  0  0  0  0  0  0  0  0  0  0
   43.5220   12.4850   14.3640 O   0  0  0  0  0  0  0  0  0  0  0  0
   44.6790    8.0480   15.5070 N   0  0  0  0  0  0  0  0  0  0  0  0
   44.0870   11.9620   16.6530 C   0  0  0  0  0  0  0  0  0  0  0  0
   44.6530    9.6960   17.1820 C   0  0  0  0  0  0  0  0  0  0  0  0
   44.7840   13.0340   13.8630 C   0  0  0  0  0  0  0  0  0  0  0  0
   44.4580   11.0040   17.5820 C   0  0  0  0  0  0  0  0  0  0  0  0
  1  2  1  0
  2  3  2  0
  2  4  1  0
  3  5  1  0
  4  6  2  0
  5  7  2  0
  6  7  1  0
  5  8  1  0
  8  9  2  0
  8 10  1  0
  9 11  1  0
 10 12  1  0
  9 13  1  0
 10 14  2  0
 11 15  1  0
 13 16  2  0
 14 16  1  0
M  END
>  <ref_pdb>  (64) 
H-SOS3-x1176_00_Frag_2-SOS3-x1147_00_Frag_6.pdb

>  <ref_mols>  (64) 
x1147_0A,x1176_1A

>  <ddG_score>  (64) 
-8.177581944640982

>  <fragmensteinOld_score>  (64) 
-2.6612514775302447

>  <LE_score>  (64) 
-0.5110988715400614

>  <comRMSD_score>  (64) 
0.5742649113979519

>  <fragmensteinNew_score>  (64) 
-0.6752263149863442

>  <aLogP_score>  (64) 
2.6500000000000004

>  <hbondD_score>  (64) 
2

>  <hbondA_score>  (64) 
3

>  <polarSurfaceArea_score>  (64) 
55.480000000000004

>  <rotableBonds_score>  (64) 
2

>  <QED_score>  (64) 
0.7570352961027234

>  <energyPoseVsEnsemble_score>  (64) 
2.1411902384406893

>  <sucos_score>  (64) 
0.8001997858206427

>  <interactions_conservation_score>  (64) 
0.316227766016838

>  <interactions_novelty_score>  (64) 
0.5

>  <SAscore_score>  (64) 
1.8807084753483334

>  <SCScore_score>  (64) 
2.556370614669509

>  <original SMILES>  (64) 
COc1cccc(N)c1-c1cccc(O)c1

>  <CAR_friendly>  (64) 
1

$$$$
63_SOS3-x1171_01_Frag_0-SOS3-x1147_00_Frag
     RDKit          3D

 21 22  0  0  0  0  0  0  0  0999 V2000
   45.2120    6.8220   12.1660 S   0  0  0  0  0  0  0  0  0  0  0  0
   46.5840    7.8070   11.6290 C   0  0  0  0  0  0  0  0  0  0  0  0
   45.4820    6.3050   13.4920 O   0  0  0  0  0  0  0  0  0  0  0  0
   44.9210    5.9050   11.0730 O   0  0  0  0  0  0  0  0  0  0  0  0
   43.8650    7.9810   12.2190 C   0  0  0  0  0  0  0  0  0  0  0  0
   42.7460    7.7490   11.4020 C   0  0  0  0  0  0  0  0  0  0  0  0
   43.9180    9.1040   13.0290 C   0  0  0  0  0  0  0  0  0  0  0  0
   45.0020    9.3860   13.8520 N   0  0  0  0  0  0  0  0  0  0  0  0
   41.6830    8.6530   11.3870 C   0  0  0  0  0  0  0  0  0  0  0  0
   42.8240   10.0020   12.9950 C   0  0  0  0  0  0  0  0  0  0  0  0
   45.3240    8.3570   14.8530 C   0  0  0  0  0  0  0  0  0  0  0  0
   41.7230    9.7820   12.1840 C   0  0  0  0  0  0  0  0  0  0  0  0
   44.7760   10.6720   14.4270 C   0  0  0  0  0  0  0  0  0  0  0  0
   45.8210   11.6270   13.9860 C   0  0  0  0  0  0  0  0  0  0  0  0
   45.1310   12.9200   13.7540 C   0  0  0  0  0  0  0  0  0  0  0  0
   45.4680   13.5410   12.4360 C   0  0  0  0  0  0  0  0  0  0  0  0
   46.5420   13.0780   11.6550 C   0  0  0  0  0  0  0  0  0  0  0  0
   44.6950   14.5930   11.9780 C   0  0  0  0  0  0  0  0  0  0  0  0
   46.8180   13.6780   10.4260 C   0  0  0  0  0  0  0  0  0  0  0  0
   44.9740   15.1780   10.7620 C   0  0  0  0  0  0  0  0  0  0  0  0
   46.0280   14.7320    9.9810 C   0  0  0  0  0  0  0  0  0  0  0  0
  1  2  1  0
  1  3  2  0
  1  4  2  0
  1  5  1  0
  5  6  2  0
  5  7  1  0
  7  8  1  0
  6  9  1  0
  7 10  2  0
  8 11  1  0
  9 12  2  0
 10 12  1  0
  8 13  1  0
 13 14  1  0
 14 15  1  0
 15 16  1  0
 16 17  2  0
 16 18  1  0
 17 19  1  0
 18 20  2  0
 19 21  2  0
 20 21  1  0
M  END
>  <ref_pdb>  (65) 
H-SOS3-x1171_01_Frag_0-SOS3-x1147_00_Frag_1.pdb

>  <ref_mols>  (65) 
x1147_0A,x1171_2A

>  <ddG_score>  (65) 
-9.999075277711684

>  <fragmensteinOld_score>  (65) 
-2.365037367252682

>  <LE_score>  (65) 
-0.47614644179579446

>  <comRMSD_score>  (65) 
1.1347776882896548

>  <fragmensteinNew_score>  (65) 
0.6238206141556297

>  <aLogP_score>  (65) 
3.1591000000000022

>  <hbondD_score>  (65) 
0

>  <hbondA_score>  (65) 
3

>  <polarSurfaceArea_score>  (65) 
37.38

>  <rotableBonds_score>  (65) 
6

>  <QED_score>  (65) 
0.8224002378971739

>  <energyPoseVsEnsemble_score>  (65) 
2.1675866612239503

>  <sucos_score>  (65) 
0.9132241453769512

>  <interactions_conservation_score>  (65) 
0.7745966692414834

>  <interactions_novelty_score>  (65) 
0.0

>  <SAscore_score>  (65) 
1.947079604786797

>  <SCScore_score>  (65) 
3.4075688330615046

>  <original SMILES>  (65) 
CN(CCCc1ccccc1)c1ccccc1S(C)(=O)=O

>  <CAR_friendly>  (65) 
1

$$$$
64_SOS3-x1346_00_Frag_1-SOS3-x1346_01_Frag
     RDKit          3D

 15 16  0  0  0  0  0  0  0  0999 V2000
   44.8760   11.2050    9.9900 C   0  0  0  0  0  0  0  0  0  0  0  0
   46.0950   10.3960    9.8920 C   0  0  0  0  0  0  0  0  0  0  0  0
   46.6540    9.8640   11.0140 N   0  0  0  0  0  0  0  0  0  0  0  0
   46.8860    9.9990    8.8470 C   0  0  0  0  0  0  0  0  0  0  0  0
   47.7750    9.1430   10.7700 N   0  0  0  0  0  0  0  0  0  0  0  0
   47.9010    9.2390    9.4370 C   0  0  0  0  0  0  0  0  0  0  0  0
   46.1090   10.0380   12.3580 C   0  0  0  0  0  0  0  0  0  0  0  0
   46.7200    9.3390   13.4050 C   0  0  0  0  0  0  0  0  0  0  0  0
   45.7760    8.9280   14.4070 O   0  0  0  0  0  0  0  0  0  0  0  0
   45.1050    9.7810   15.2570 C   0  0  0  0  0  0  0  0  0  0  0  0
   44.6450   11.0820   15.0120 C   0  0  0  0  0  0  0  0  0  0  0  0
   44.8930    9.1940   16.4980 C   0  0  0  0  0  0  0  0  0  0  0  0
   43.9660   11.7650   16.0390 C   0  0  0  0  0  0  0  0  0  0  0  0
   44.2280    9.8760   17.4890 C   0  0  0  0  0  0  0  0  0  0  0  0
   43.7520   11.1660   17.2780 C   0  0  0  0  0  0  0  0  0  0  0  0
  1  2  1  0
  2  3  1  0
  2  4  2  0
  3  5  1  0
  4  6  1  0
  5  6  2  0
  3  7  1  0
  7  8  1  0
  8  9  1  0
  9 10  1  0
 10 11  2  0
 10 12  1  0
 11 13  1  0
 12 14  2  0
 13 15  2  0
 14 15  1  0
M  END
>  <ref_pdb>  (66) 
H-SOS3-x1346_00_Frag_1-SOS3-x1346_01_Frag_4.pdb

>  <ref_mols>  (66) 
x1346_1A,x1346_0A

>  <ddG_score>  (66) 
-6.494804089761448

>  <fragmensteinOld_score>  (66) 
-1.9524098372558933

>  <LE_score>  (66) 
-0.4329869393174299

>  <comRMSD_score>  (66) 
0.24655098069639608

>  <fragmensteinNew_score>  (66) 
0.0673393505098756

>  <aLogP_score>  (66) 
2.2705200000000003

>  <hbondD_score>  (66) 
0

>  <hbondA_score>  (66) 
2

>  <polarSurfaceArea_score>  (66) 
27.05

>  <rotableBonds_score>  (66) 
4

>  <QED_score>  (66) 
0.7600835891228483

>  <energyPoseVsEnsemble_score>  (66) 
1.5631278814485607

>  <sucos_score>  (66) 
0.7552390482740221

>  <interactions_conservation_score>  (66) 
0.816496580927726

>  <interactions_novelty_score>  (66) 
0.0

>  <SAscore_score>  (66) 
1.813965636286433

>  <SCScore_score>  (66) 
2.436195623543931

>  <original SMILES>  (66) 
Cc1ccnn1CCOc1ccccc1

>  <CAR_friendly>  (66) 
1

$$$$
65_SOS3-x1346_00_Frag_2-SOS3-x1346_01_Frag
     RDKit          3D

 18 19  0  0  0  0  0  0  0  0999 V2000
   43.5790   10.5220    9.8520 N   0  0  0  0  0  0  0  0  0  0  0  0
   42.8190    9.8960   10.9090 C   0  0  0  0  0  0  0  0  0  0  0  0
   41.5970    9.2840   10.7210 C   0  0  0  0  0  0  0  0  0  0  0  0
   43.3440    9.8970   12.2450 C   0  0  0  0  0  0  0  0  0  0  0  0
   41.0640    9.2690    9.5500 F   0  0  0  0  0  0  0  0  0  0  0  0
   42.6410    9.2880   13.2710 C   0  0  0  0  0  0  0  0  0  0  0  0
   40.8970    8.6740   11.7340 C   0  0  0  0  0  0  0  0  0  0  0  0
   44.5260   10.5390   12.3500 O   0  0  0  0  0  0  0  0  0  0  0  0
   41.4340    8.6800   13.0050 C   0  0  0  0  0  0  0  0  0  0  0  0
   44.1870   11.6290   13.1810 C   0  0  0  0  0  0  0  0  0  0  0  0
   45.2580   11.7980   14.0680 N   0  0  0  0  0  0  0  0  0  0  0  0
   44.8770   11.1610   15.2940 C   0  0  0  0  0  0  0  0  0  0  0  0
   44.1700   11.8170   16.3050 C   0  0  0  0  0  0  0  0  0  0  0  0
   45.2290    9.8350   15.4500 C   0  0  0  0  0  0  0  0  0  0  0  0
   45.8710    9.1580   14.4940 F   0  0  0  0  0  0  0  0  0  0  0  0
   43.7970   11.2190   17.5030 C   0  0  0  0  0  0  0  0  0  0  0  0
   44.8850    9.1850   16.6670 C   0  0  0  0  0  0  0  0  0  0  0  0
   44.2040    9.8680   17.6310 C   0  0  0  0  0  0  0  0  0  0  0  0
  1  2  1  0
  2  3  2  0
  2  4  1  0
  3  5  1  0
  4  6  2  0
  3  7  1  0
  4  8  1  0
  6  9  1  0
  7  9  2  0
  8 10  1  0
 10 11  1  0
 11 12  1  0
 12 13  2  0
 12 14  1  0
 14 15  1  0
 13 16  1  0
 14 17  2  0
 16 18  2  0
 17 18  1  0
M  END
>  <ref_pdb>  (67) 
H-SOS3-x1346_00_Frag_2-SOS3-x1346_01_Frag_2.pdb

>  <ref_mols>  (67) 
x1346_1A,x1346_0A

>  <ddG_score>  (67) 
-8.873184008629062

>  <fragmensteinOld_score>  (67) 
-2.7530641622771332

>  <LE_score>  (67) 
-0.492954667146059

>  <comRMSD_score>  (67) 
0.2215726394486792

>  <fragmensteinNew_score>  (67) 
-0.7742313603732399

>  <aLogP_score>  (67) 
2.995400000000001

>  <hbondD_score>  (67) 
2

>  <hbondA_score>  (67) 
3

>  <polarSurfaceArea_score>  (67) 
47.28

>  <rotableBonds_score>  (67) 
4

>  <QED_score>  (67) 
0.6474181238883994

>  <energyPoseVsEnsemble_score>  (67) 
3.086517615607015

>  <sucos_score>  (67) 
0.9496421584298486

>  <interactions_conservation_score>  (67) 
0.816496580927726

>  <interactions_novelty_score>  (67) 
0.0

>  <SAscore_score>  (67) 
2.1673710821005123

>  <SCScore_score>  (67) 
2.3469790360672924

>  <original SMILES>  (67) 
Nc1c(F)cccc1OCNc1ccccc1F

>  <CAR_friendly>  (67) 
0

$$$$
66_SOS3-x1346_00_Frag_2-SOS3-x1346_01_Frag
     RDKit          3D

 17 18  0  0  0  0  0  0  0  0999 V2000
   43.7520   10.4810    9.9570 N   0  0  0  0  0  0  0  0  0  0  0  0
   42.9040    9.8470   10.9510 C   0  0  0  0  0  0  0  0  0  0  0  0
   41.5830    9.5160   10.6950 C   0  0  0  0  0  0  0  0  0  0  0  0
   43.4120    9.5190   12.2750 C   0  0  0  0  0  0  0  0  0  0  0  0
   41.0400    9.7890    9.5500 F   0  0  0  0  0  0  0  0  0  0  0  0
   42.5890    8.9080   13.1880 C   0  0  0  0  0  0  0  0  0  0  0  0
   40.7870    8.8910   11.6200 C   0  0  0  0  0  0  0  0  0  0  0  0
   44.5870    9.7750   12.5870 O   0  0  0  0  0  0  0  0  0  0  0  0
   41.3040    8.5910   12.8560 C   0  0  0  0  0  0  0  0  0  0  0  0
   45.7660    9.9150   13.0210 C   0  0  0  0  0  0  0  0  0  0  0  0
   45.8090    9.2830   14.2550 O   0  0  0  0  0  0  0  0  0  0  0  0
   45.1110    9.8700   15.3180 C   0  0  0  0  0  0  0  0  0  0  0  0
   44.5870   11.1090   15.1850 C   0  0  0  0  0  0  0  0  0  0  0  0
   44.9160    9.2220   16.5790 C   0  0  0  0  0  0  0  0  0  0  0  0
   43.8860   11.7590   16.1950 C   0  0  0  0  0  0  0  0  0  0  0  0
   44.2260    9.8710   17.5660 C   0  0  0  0  0  0  0  0  0  0  0  0
   43.6690   11.1730   17.4380 C   0  0  0  0  0  0  0  0  0  0  0  0
  1  2  1  0
  2  3  2  0
  2  4  1  0
  3  5  1  0
  4  6  2  0
  3  7  1  0
  4  8  1  0
  6  9  1  0
  7  9  2  0
  8 10  1  0
 10 11  1  0
 11 12  1  0
 12 13  2  0
 12 14  1  0
 13 15  1  0
 14 16  2  0
 15 17  2  0
 16 17  1  0
M  END
>  <ref_pdb>  (68) 
H-SOS3-x1346_00_Frag_2-SOS3-x1346_01_Frag_4.pdb

>  <ref_mols>  (68) 
x1346_1A,x1346_0A

>  <ddG_score>  (68) 
-9.022344512904581

>  <fragmensteinOld_score>  (68) 
-2.5351906568580893

>  <LE_score>  (68) 
-0.5307261478179166

>  <comRMSD_score>  (68) 
0.36927824572282675

>  <fragmensteinNew_score>  (68) 
-0.29585680188851904

>  <aLogP_score>  (68) 
2.823200000000001

>  <hbondD_score>  (68) 
1

>  <hbondA_score>  (68) 
3

>  <polarSurfaceArea_score>  (68) 
44.480000000000004

>  <rotableBonds_score>  (68) 
4

>  <QED_score>  (68) 
0.6519788235008828

>  <energyPoseVsEnsemble_score>  (68) 
4.602503149320181

>  <sucos_score>  (68) 
0.8976256649517731

>  <interactions_conservation_score>  (68) 
0.9128709291752769

>  <interactions_novelty_score>  (68) 
0.0

>  <SAscore_score>  (68) 
1.8961570057024097

>  <SCScore_score>  (68) 
2.3661983075833826

>  <original SMILES>  (68) 
Nc1c(F)cccc1OCOc1ccccc1

>  <CAR_friendly>  (68) 
0

$$$$
67_SOS3-x1346_00_Frag_2-SOS3-x1346_01_Frag
     RDKit          3D

 19 20  0  0  0  0  0  0  0  0999 V2000
   43.5690   10.6940    9.8390 N   0  0  0  0  0  0  0  0  0  0  0  0
   42.8250    9.9990   10.8610 C   0  0  0  0  0  0  0  0  0  0  0  0
   41.5550    9.5020   10.6800 C   0  0  0  0  0  0  0  0  0  0  0  0
   43.4020    9.8030   12.1640 C   0  0  0  0  0  0  0  0  0  0  0  0
   40.9250    9.6370    9.5570 F   0  0  0  0  0  0  0  0  0  0  0  0
   42.7220    9.1470   13.1590 C   0  0  0  0  0  0  0  0  0  0  0  0
   40.8870    8.8510   11.6640 C   0  0  0  0  0  0  0  0  0  0  0  0
   44.6090   10.3280   12.3200 O   0  0  0  0  0  0  0  0  0  0  0  0
   41.4800    8.6730   12.9070 C   0  0  0  0  0  0  0  0  0  0  0  0
   44.1180   11.2660   13.2090 C   0  0  0  0  0  0  0  0  0  0  0  0
   45.0940   11.8430   14.0250 N   0  0  0  0  0  0  0  0  0  0  0  0
   44.8200   13.2630   14.0030 C   0  0  0  0  0  0  0  0  0  0  0  0
   44.8090   11.1400   15.2060 C   0  0  0  0  0  0  0  0  0  0  0  0
   44.1160   11.9380   16.1300 C   0  0  0  0  0  0  0  0  0  0  0  0
   45.1890    9.8020   15.3750 C   0  0  0  0  0  0  0  0  0  0  0  0
   45.8210    9.1150   14.4180 F   0  0  0  0  0  0  0  0  0  0  0  0
   43.8080   11.2870   17.3500 C   0  0  0  0  0  0  0  0  0  0  0  0
   44.9020    9.1860   16.5480 C   0  0  0  0  0  0  0  0  0  0  0  0
   44.2040    9.9660   17.5320 C   0  0  0  0  0  0  0  0  0  0  0  0
  1  2  1  0
  2  3  2  0
  2  4  1  0
  3  5  1  0
  4  6  2  0
  3  7  1  0
  4  8  1  0
  6  9  1  0
  7  9  2  0
  8 10  1  0
 10 11  1  0
 11 12  1  0
 11 13  1  0
 13 14  2  0
 13 15  1  0
 15 16  1  0
 14 17  1  0
 15 18  2  0
 17 19  2  0
 18 19  1  0
M  END
>  <ref_pdb>  (69) 
H-SOS3-x1346_00_Frag_2-SOS3-x1346_01_Frag_6.pdb

>  <ref_mols>  (69) 
x1346_1A,x1346_0A

>  <ddG_score>  (69) 
-8.710515740129416

>  <fragmensteinOld_score>  (69) 
-2.7332670607703458

>  <LE_score>  (69) 
-0.45844819684891663

>  <comRMSD_score>  (69) 
0.30883608725553713

>  <fragmensteinNew_score>  (69) 
-0.7513139268915365

>  <aLogP_score>  (69) 
3.019700000000002

>  <hbondD_score>  (69) 
1

>  <hbondA_score>  (69) 
3

>  <polarSurfaceArea_score>  (69) 
38.49

>  <rotableBonds_score>  (69) 
4

>  <QED_score>  (69) 
0.6811314854173991

>  <energyPoseVsEnsemble_score>  (69) 
4.007715233687271

>  <sucos_score>  (69) 
0.8521699758127018

>  <interactions_conservation_score>  (69) 
0.816496580927726

>  <interactions_novelty_score>  (69) 
0.0

>  <SAscore_score>  (69) 
2.382789146717551

>  <SCScore_score>  (69) 
3.1242435806849342

>  <original SMILES>  (69) 
CN(COc1cccc(F)c1N)c1ccccc1F

>  <CAR_friendly>  (69) 
0

$$$$
68_SOS3-x1346_00_Frag_3-SOS3-x1346_01_Frag
     RDKit          3D

 16 17  0  0  0  0  0  0  0  0999 V2000
   43.5670   10.4990    9.9620 N   0  0  0  0  0  0  0  0  0  0  0  0
   44.8390   11.1930    9.8270 C   0  0  0  0  0  0  0  0  0  0  0  0
   46.0420   10.3860    9.6910 C   0  0  0  0  0  0  0  0  0  0  0  0
   46.4260    9.7180   10.7730 N   0  0  0  0  0  0  0  0  0  0  0  0
   46.9390   10.1030    8.6980 C   0  0  0  0  0  0  0  0  0  0  0  0
   47.5510    8.9940   10.6030 N   0  0  0  0  0  0  0  0  0  0  0  0
   47.8620    9.2350    9.3130 C   0  0  0  0  0  0  0  0  0  0  0  0
   45.6820    9.7720   12.0060 C   0  0  0  0  0  0  0  0  0  0  0  0
   46.3840    9.4130   13.1060 C   0  0  0  0  0  0  0  0  0  0  0  0
   45.5560    8.9720   14.1990 O   0  0  0  0  0  0  0  0  0  0  0  0
   44.9670    9.8130   15.1120 C   0  0  0  0  0  0  0  0  0  0  0  0
   44.5710   11.1330   14.9620 C   0  0  0  0  0  0  0  0  0  0  0  0
   44.7630    9.2050   16.3360 C   0  0  0  0  0  0  0  0  0  0  0  0
   43.9740   11.8380   16.0150 C   0  0  0  0  0  0  0  0  0  0  0  0
   44.1720    9.8870   17.3840 C   0  0  0  0  0  0  0  0  0  0  0  0
   43.7630   11.2170   17.2460 C   0  0  0  0  0  0  0  0  0  0  0  0
  1  2  1  0
  2  3  1  0
  3  4  1  0
  3  5  2  0
  4  6  1  0
  5  7  1  0
  6  7  2  0
  4  8  1  0
  8  9  1  0
  9 10  1  0
 10 11  1  0
 11 12  2  0
 11 13  1  0
 12 14  1  0
 13 15  2  0
 14 16  2  0
 15 16  1  0
M  END
>  <ref_pdb>  (70) 
H-SOS3-x1346_00_Frag_3-SOS3-x1346_01_Frag_4.pdb

>  <ref_mols>  (70) 
x1346_1A,x1346_0A

>  <ddG_score>  (70) 
-5.759869638653466

>  <fragmensteinOld_score>  (70) 
-1.7864818681740018

>  <LE_score>  (70) 
-0.35999185241584164

>  <comRMSD_score>  (70) 
0.36549205955669134

>  <fragmensteinNew_score>  (70) 
0.11469984418514823

>  <aLogP_score>  (70) 
1.4207999999999994

>  <hbondD_score>  (70) 
1

>  <hbondA_score>  (70) 
3

>  <polarSurfaceArea_score>  (70) 
53.07000000000001

>  <rotableBonds_score>  (70) 
5

>  <QED_score>  (70) 
0.8237005304323711

>  <energyPoseVsEnsemble_score>  (70) 
1.7673331437378137

>  <sucos_score>  (70) 
0.783595780719067

>  <interactions_conservation_score>  (70) 
0.5

>  <interactions_novelty_score>  (70) 
0.0

>  <SAscore_score>  (70) 
2.0739481480160897

>  <SCScore_score>  (70) 
3.2684969214823383

>  <original SMILES>  (70) 
NCc1ccnn1CCOc1ccccc1

>  <CAR_friendly>  (70) 
0

$$$$
69_SOS3-x1346_00_Frag_4-SOS3-x1346_01_Frag
     RDKit          3D

 17 18  0  0  0  0  0  0  0  0999 V2000
   40.6780    9.4360    9.5620 F   0  0  0  0  0  0  0  0  0  0  0  0
   41.3570    9.4580   10.6630 C   0  0  0  0  0  0  0  0  0  0  0  0
   42.5300   10.1720   10.7630 C   0  0  0  0  0  0  0  0  0  0  0  0
   40.8440    8.7410   11.7180 C   0  0  0  0  0  0  0  0  0  0  0  0
   43.2380   10.1830   12.0290 C   0  0  0  0  0  0  0  0  0  0  0  0
   41.5250    8.7510   12.9120 C   0  0  0  0  0  0  0  0  0  0  0  0
   42.7090    9.4610   13.0890 C   0  0  0  0  0  0  0  0  0  0  0  0
   44.3720   10.9280   12.0590 O   0  0  0  0  0  0  0  0  0  0  0  0
   44.1860   11.7220   13.2140 C   0  0  0  0  0  0  0  0  0  0  0  0
   45.3310   11.7810   14.0420 N   0  0  0  0  0  0  0  0  0  0  0  0
   45.0020   11.1350   15.2940 C   0  0  0  0  0  0  0  0  0  0  0  0
   44.2210   11.7310   16.2940 C   0  0  0  0  0  0  0  0  0  0  0  0
   45.4860    9.8610   15.4800 C   0  0  0  0  0  0  0  0  0  0  0  0
   46.2280    9.2420   14.5460 F   0  0  0  0  0  0  0  0  0  0  0  0
   43.8770   11.1440   17.5150 C   0  0  0  0  0  0  0  0  0  0  0  0
   45.1740    9.2050   16.7050 C   0  0  0  0  0  0  0  0  0  0  0  0
   44.4180    9.8220   17.6590 C   0  0  0  0  0  0  0  0  0  0  0  0
  1  2  1  0
  2  3  2  0
  2  4  1  0
  3  5  1  0
  4  6  2  0
  5  7  2  0
  6  7  1  0
  5  8  1  0
  8  9  1  0
  9 10  1  0
 10 11  1  0
 11 12  2  0
 11 13  1  0
 13 14  1  0
 12 15  1  0
 13 16  2  0
 15 17  2  0
 16 17  1  0
M  END
>  <ref_pdb>  (71) 
H-SOS3-x1346_00_Frag_4-SOS3-x1346_01_Frag_2.pdb

>  <ref_mols>  (71) 
x1346_1A,x1346_0A

>  <ddG_score>  (71) 
-9.09901754799531

>  <fragmensteinOld_score>  (71) 
-2.519244381336586

>  <LE_score>  (71) 
-0.5352363263526653

>  <comRMSD_score>  (71) 
0.40055912826247597

>  <fragmensteinNew_score>  (71) 
-0.23780521534396915

>  <aLogP_score>  (71) 
3.4132000000000016

>  <hbondD_score>  (71) 
1

>  <hbondA_score>  (71) 
2

>  <polarSurfaceArea_score>  (71) 
21.259999999999998

>  <rotableBonds_score>  (71) 
4

>  <QED_score>  (71) 
0.81975896903699

>  <energyPoseVsEnsemble_score>  (71) 
2.8553183538344

>  <sucos_score>  (71) 
0.8655486007919585

>  <interactions_conservation_score>  (71) 
0.816496580927726

>  <interactions_novelty_score>  (71) 
0.14285714285714285

>  <SAscore_score>  (71) 
1.8778772568798026

>  <SCScore_score>  (71) 
2.1818143161779533

>  <original SMILES>  (71) 
Fc1cccc(OCNc2ccccc2F)c1

>  <CAR_friendly>  (71) 
0

$$$$
70_SOS3-x1346_00_Frag_4-SOS3-x1346_01_Frag
     RDKit          3D

 16 17  0  0  0  0  0  0  0  0999 V2000
   40.9900    9.7940    9.5760 F   0  0  0  0  0  0  0  0  0  0  0  0
   41.5270    9.5630   10.7350 C   0  0  0  0  0  0  0  0  0  0  0  0
   42.8330    9.9120   10.9820 C   0  0  0  0  0  0  0  0  0  0  0  0
   40.7330    8.9600   11.6890 C   0  0  0  0  0  0  0  0  0  0  0  0
   43.3790    9.6350   12.3090 C   0  0  0  0  0  0  0  0  0  0  0  0
   41.2590    8.7100   12.9440 C   0  0  0  0  0  0  0  0  0  0  0  0
   42.5640    9.0480   13.2500 C   0  0  0  0  0  0  0  0  0  0  0  0
   44.5560    9.9020   12.6070 O   0  0  0  0  0  0  0  0  0  0  0  0
   45.7410   10.0310   13.0410 C   0  0  0  0  0  0  0  0  0  0  0  0
   45.8250    9.3670   14.2610 O   0  0  0  0  0  0  0  0  0  0  0  0
   45.1280    9.9120   15.3460 C   0  0  0  0  0  0  0  0  0  0  0  0
   44.6160   11.1470   15.2410 C   0  0  0  0  0  0  0  0  0  0  0  0
   44.9120    9.2400   16.5890 C   0  0  0  0  0  0  0  0  0  0  0  0
   43.9100   11.7620   16.2600 C   0  0  0  0  0  0  0  0  0  0  0  0
   44.2130    9.8530   17.5970 C   0  0  0  0  0  0  0  0  0  0  0  0
   43.6540   11.1690   17.5010 C   0  0  0  0  0  0  0  0  0  0  0  0
  1  2  1  0
  2  3  2  0
  2  4  1  0
  3  5  1  0
  4  6  2  0
  5  7  2  0
  6  7  1  0
  5  8  1  0
  8  9  1  0
  9 10  1  0
 10 11  1  0
 11 12  2  0
 11 13  1  0
 12 14  1  0
 13 15  2  0
 14 16  2  0
 15 16  1  0
M  END
>  <ref_pdb>  (72) 
H-SOS3-x1346_00_Frag_4-SOS3-x1346_01_Frag_4.pdb

>  <ref_mols>  (72) 
x1346_1A,x1346_0A

>  <ddG_score>  (72) 
-9.20662493237599

>  <fragmensteinOld_score>  (72) 
-2.4569114585424208

>  <LE_score>  (72) 
-0.5754140582734993

>  <comRMSD_score>  (72) 
0.3844135279327769

>  <fragmensteinNew_score>  (72) 
-0.06287942492033838

>  <aLogP_score>  (72) 
3.2410000000000014

>  <hbondD_score>  (72) 
0

>  <hbondA_score>  (72) 
2

>  <polarSurfaceArea_score>  (72) 
18.46

>  <rotableBonds_score>  (72) 
4

>  <QED_score>  (72) 
0.7332672570017283

>  <energyPoseVsEnsemble_score>  (72) 
4.7386735300274285

>  <sucos_score>  (72) 
0.8784056559809025

>  <interactions_conservation_score>  (72) 
0.816496580927726

>  <interactions_novelty_score>  (72) 
0.0

>  <SAscore_score>  (72) 
1.602719342778773

>  <SCScore_score>  (72) 
1.788671282539278

>  <original SMILES>  (72) 
Fc1cccc(OCOc2ccccc2)c1

>  <CAR_friendly>  (72) 
1

$$$$
71_SOS3-x1346_00_Frag_4-SOS3-x1346_01_Frag
     RDKit          3D

 18 19  0  0  0  0  0  0  0  0999 V2000
   40.7880    9.6310    9.5470 F   0  0  0  0  0  0  0  0  0  0  0  0
   41.4480    9.5370   10.6500 C   0  0  0  0  0  0  0  0  0  0  0  0
   42.7150   10.0300   10.7830 C   0  0  0  0  0  0  0  0  0  0  0  0
   40.7930    8.9220   11.6760 C   0  0  0  0  0  0  0  0  0  0  0  0
   43.3530    9.8870   12.0740 C   0  0  0  0  0  0  0  0  0  0  0  0
   41.4120    8.7830   12.9120 C   0  0  0  0  0  0  0  0  0  0  0  0
   42.6860    9.2650   13.1150 C   0  0  0  0  0  0  0  0  0  0  0  0
   44.5730   10.4060   12.1910 O   0  0  0  0  0  0  0  0  0  0  0  0
   44.1310   11.3330   13.1210 C   0  0  0  0  0  0  0  0  0  0  0  0
   45.0800   11.8310   14.0200 N   0  0  0  0  0  0  0  0  0  0  0  0
   44.8730   13.2620   13.9950 C   0  0  0  0  0  0  0  0  0  0  0  0
   44.7710   11.1910   15.2260 C   0  0  0  0  0  0  0  0  0  0  0  0
   44.1370   11.9430   16.2300 C   0  0  0  0  0  0  0  0  0  0  0  0
   45.1050    9.8250   15.3530 C   0  0  0  0  0  0  0  0  0  0  0  0
   45.6900    9.1540   14.3560 F   0  0  0  0  0  0  0  0  0  0  0  0
   43.8480   11.2290   17.4200 C   0  0  0  0  0  0  0  0  0  0  0  0
   44.8290    9.1610   16.5090 C   0  0  0  0  0  0  0  0  0  0  0  0
   44.1850    9.8960   17.5580 C   0  0  0  0  0  0  0  0  0  0  0  0
  1  2  1  0
  2  3  2  0
  2  4  1  0
  3  5  1  0
  4  6  2  0
  5  7  2  0
  6  7  1  0
  5  8  1  0
  8  9  1  0
  9 10  1  0
 10 11  1  0
 10 12  1  0
 12 13  2  0
 12 14  1  0
 14 15  1  0
 13 16  1  0
 14 17  2  0
 16 18  2  0
 17 18  1  0
M  END
>  <ref_pdb>  (73) 
H-SOS3-x1346_00_Frag_4-SOS3-x1346_01_Frag_6.pdb

>  <ref_mols>  (73) 
x1346_1A,x1346_0A

>  <ddG_score>  (73) 
-8.799336226338099

>  <fragmensteinOld_score>  (73) 
-2.628362821240683

>  <LE_score>  (73) 
-0.4888520125743388

>  <comRMSD_score>  (73) 
0.33150442402693703

>  <fragmensteinNew_score>  (73) 
-0.5502651366450041

>  <aLogP_score>  (73) 
3.4375000000000018

>  <hbondD_score>  (73) 
0

>  <hbondA_score>  (73) 
2

>  <polarSurfaceArea_score>  (73) 
12.47

>  <rotableBonds_score>  (73) 
4

>  <QED_score>  (73) 
0.7695325756972337

>  <energyPoseVsEnsemble_score>  (73) 
3.840723863990685

>  <sucos_score>  (73) 
0.8362083125095001

>  <interactions_conservation_score>  (73) 
0.816496580927726

>  <interactions_novelty_score>  (73) 
0.0

>  <SAscore_score>  (73) 
2.1192271906977975

>  <SCScore_score>  (73) 
2.6403503730615254

>  <original SMILES>  (73) 
CN(COc1cccc(F)c1)c1ccccc1F

>  <CAR_friendly>  (73) 
0

$$$$
72_SOS3-x1346_00_Frag_5-SOS3-x1346_01_Frag
     RDKit          3D

 15 16  0  0  0  0  0  0  0  0999 V2000
   45.0430   11.9310   13.9210 N   0  0  0  0  0  0  0  0  0  0  0  0
   44.8000   11.1760   15.1300 C   0  0  0  0  0  0  0  0  0  0  0  0
   45.3700    9.9050   15.3530 C   0  0  0  0  0  0  0  0  0  0  0  0
   43.9340   11.7510   16.1770 C   0  0  0  0  0  0  0  0  0  0  0  0
   46.2210    9.3190   14.4130 O   0  0  0  0  0  0  0  0  0  0  0  0
   43.6950   11.0440   17.3440 C   0  0  0  0  0  0  0  0  0  0  0  0
   45.0940    9.2260   16.5410 C   0  0  0  0  0  0  0  0  0  0  0  0
   44.2770    9.7880   17.5090 C   0  0  0  0  0  0  0  0  0  0  0  0
   45.8970    9.2450   13.0790 C   0  0  0  0  0  0  0  0  0  0  0  0
   46.6010   10.2440   12.3850 C   0  0  0  0  0  0  0  0  0  0  0  0
   46.9380    9.9240   10.9910 N   0  0  0  0  0  0  0  0  0  0  0  0
   46.1180   10.4190    9.8860 C   0  0  0  0  0  0  0  0  0  0  0  0
   47.9820    9.1880   10.5690 N   0  0  0  0  0  0  0  0  0  0  0  0
   47.8070    9.2320    9.2360 C   0  0  0  0  0  0  0  0  0  0  0  0
   46.7200    9.9440    8.7540 C   0  0  0  0  0  0  0  0  0  0  0  0
  1  2  1  0
  2  3  2  0
  2  4  1  0
  3  5  1  0
  4  6  2  0
  3  7  1  0
  6  8  1  0
  7  8  2  0
  5  9  1  0
  9 10  1  0
 10 11  1  0
 11 12  1  0
 11 13  1  0
 13 14  2  0
 12 15  2  0
 14 15  1  0
M  END
>  <ref_pdb>  (74) 
H-SOS3-x1346_00_Frag_5-SOS3-x1346_01_Frag_2.pdb

>  <ref_mols>  (74) 
x1346_1A,x1346_0A

>  <ddG_score>  (74) 
-6.440912984801625

>  <fragmensteinOld_score>  (74) 
-1.936123223476312

>  <LE_score>  (74) 
-0.429394198986775

>  <comRMSD_score>  (74) 
0.2520593734840132

>  <fragmensteinNew_score>  (74) 
0.08194887641576465

>  <aLogP_score>  (74) 
1.5443

>  <hbondD_score>  (74) 
1

>  <hbondA_score>  (74) 
3

>  <polarSurfaceArea_score>  (74) 
53.07

>  <rotableBonds_score>  (74) 
4

>  <QED_score>  (74) 
0.7667886586348851

>  <energyPoseVsEnsemble_score>  (74) 
1.777222876152232

>  <sucos_score>  (74) 
0.758899316459575

>  <interactions_conservation_score>  (74) 
1.0

>  <interactions_novelty_score>  (74) 
0.0

>  <SAscore_score>  (74) 
1.9975026992234959

>  <SCScore_score>  (74) 
2.634566742969

>  <original SMILES>  (74) 
Nc1ccccc1OCCn1cccn1

>  <CAR_friendly>  (74) 
1

$$$$
73_SOS3-x1346_00_Frag_5-SOS3-x1346_01_Frag
     RDKit          3D

 14 15  0  0  0  0  0  0  0  0999 V2000
   46.1880    9.1810   14.4410 O   0  0  0  0  0  0  0  0  0  0  0  0
   45.3630    9.8620   15.3070 C   0  0  0  0  0  0  0  0  0  0  0  0
   44.8200   11.1240   15.0780 C   0  0  0  0  0  0  0  0  0  0  0  0
   45.8960    9.1670   13.0990 C   0  0  0  0  0  0  0  0  0  0  0  0
   45.0620    9.2290   16.5170 C   0  0  0  0  0  0  0  0  0  0  0  0
   46.5310   10.2390   12.4570 C   0  0  0  0  0  0  0  0  0  0  0  0
   43.9600   11.7770   16.0860 C   0  0  0  0  0  0  0  0  0  0  0  0
   44.2560    9.8350   17.4690 C   0  0  0  0  0  0  0  0  0  0  0  0
   46.9090    9.9280   11.0710 N   0  0  0  0  0  0  0  0  0  0  0  0
   43.6960   11.1110   17.2730 C   0  0  0  0  0  0  0  0  0  0  0  0
   46.1060   10.4290    9.9560 C   0  0  0  0  0  0  0  0  0  0  0  0
   47.9600    9.2040   10.6750 N   0  0  0  0  0  0  0  0  0  0  0  0
   47.8400    9.2370    9.2500 C   0  0  0  0  0  0  0  0  0  0  0  0
   46.7310    9.9670    8.8260 C   0  0  0  0  0  0  0  0  0  0  0  0
  1  2  1  0
  2  3  2  0
  1  4  1  0
  2  5  1  0
  4  6  1  0
  3  7  1  0
  5  8  2  0
  6  9  1  0
  7 10  2  0
  8 10  1  0
  9 11  1  0
  9 12  1  0
 12 13  2  0
 11 14  2  0
 13 14  1  0
M  END
>  <ref_pdb>  (75) 
H-SOS3-x1346_00_Frag_5-SOS3-x1346_01_Frag_4.pdb

>  <ref_mols>  (75) 
x1346_1A,x1346_0A

>  <ddG_score>  (75) 
-6.270018778417254

>  <fragmensteinOld_score>  (75) 
-1.8099248950332152

>  <LE_score>  (75) 
-0.447858484172661

>  <comRMSD_score>  (75) 
0.2440788606502352

>  <fragmensteinNew_score>  (75) 
0.3167121856996802

>  <aLogP_score>  (75) 
1.9620999999999997

>  <hbondD_score>  (75) 
0

>  <hbondA_score>  (75) 
2

>  <polarSurfaceArea_score>  (75) 
27.05

>  <rotableBonds_score>  (75) 
4

>  <QED_score>  (75) 
0.7329924089735445

>  <energyPoseVsEnsemble_score>  (75) 
1.7497087350860463

>  <sucos_score>  (75) 
0.7575668680964898

>  <interactions_conservation_score>  (75) 
0.6666666666666666

>  <interactions_novelty_score>  (75) 
0.0

>  <SAscore_score>  (75) 
1.7240805856921373

>  <SCScore_score>  (75) 
2.3265248514538963

>  <original SMILES>  (75) 
c1ccc(OCCn2cccn2)cc1

>  <CAR_friendly>  (75) 
1

$$$$
74_SOS3-x1346_00_Frag_5-SOS3-x1346_01_Frag
     RDKit          3D

 16 17  0  0  0  0  0  0  0  0999 V2000
   44.8030   13.0950   13.7920 C   0  0  0  0  0  0  0  0  0  0  0  0
   45.0150   11.7550   13.9170 N   0  0  0  0  0  0  0  0  0  0  0  0
   44.7630   11.1270   15.1340 C   0  0  0  0  0  0  0  0  0  0  0  0
   43.9430   11.7510   16.0970 C   0  0  0  0  0  0  0  0  0  0  0  0
   45.3480    9.8570   15.3870 C   0  0  0  0  0  0  0  0  0  0  0  0
   46.1820    9.2000   14.4870 O   0  0  0  0  0  0  0  0  0  0  0  0
   43.6970   11.1230   17.3120 C   0  0  0  0  0  0  0  0  0  0  0  0
   45.0810    9.2390   16.6120 C   0  0  0  0  0  0  0  0  0  0  0  0
   44.2790    9.8780   17.5260 C   0  0  0  0  0  0  0  0  0  0  0  0
   45.9230    9.2080   13.0880 C   0  0  0  0  0  0  0  0  0  0  0  0
   46.6330   10.2160   12.4040 C   0  0  0  0  0  0  0  0  0  0  0  0
   46.8840    9.9630   10.9910 N   0  0  0  0  0  0  0  0  0  0  0  0
   46.0910   10.4240    9.8920 C   0  0  0  0  0  0  0  0  0  0  0  0
   47.9560    9.2340   10.6020 N   0  0  0  0  0  0  0  0  0  0  0  0
   47.8320    9.2440    9.2770 C   0  0  0  0  0  0  0  0  0  0  0  0
   46.7310    9.9410    8.7770 C   0  0  0  0  0  0  0  0  0  0  0  0
  1  2  1  0
  2  3  1  0
  3  4  2  0
  3  5  1  0
  5  6  1  0
  4  7  1  0
  5  8  2  0
  7  9  2  0
  8  9  1  0
  6 10  1  0
 10 11  1  0
 11 12  1  0
 12 13  1  0
 12 14  1  0
 14 15  2  0
 13 16  2  0
 15 16  1  0
M  END
>  <ref_pdb>  (76) 
H-SOS3-x1346_00_Frag_5-SOS3-x1346_01_Frag_6.pdb

>  <ref_mols>  (76) 
x1346_1A,x1346_0A

>  <ddG_score>  (76) 
-8.39906964780526

>  <fragmensteinOld_score>  (76) 
-2.466030684221803

>  <LE_score>  (76) 
-0.5249418529878288

>  <comRMSD_score>  (76) 
0.21378324533924867

>  <fragmensteinNew_score>  (76) 
-0.35366778482172423

>  <aLogP_score>  (76) 
2.0038

>  <hbondD_score>  (76) 
1

>  <hbondA_score>  (76) 
3

>  <polarSurfaceArea_score>  (76) 
39.08

>  <rotableBonds_score>  (76) 
5

>  <QED_score>  (76) 
0.8322299003061591

>  <energyPoseVsEnsemble_score>  (76) 
1.7064037568332902

>  <sucos_score>  (76) 
0.7631264854307456

>  <interactions_conservation_score>  (76) 
1.0

>  <interactions_novelty_score>  (76) 
0.0

>  <SAscore_score>  (76) 
2.0522538763303295

>  <SCScore_score>  (76) 
3.4037582180480284

>  <original SMILES>  (76) 
CNc1ccccc1OCCn1cccn1

>  <CAR_friendly>  (76) 
1

$$$$
75_SOS3-x1346_00_Frag_6-SOS3-x1346_01_Frag
     RDKit          3D

 17 18  0  0  0  0  0  0  0  0999 V2000
   44.5570   11.5220    9.9560 C   0  0  0  0  0  0  0  0  0  0  0  0
   43.7060   10.4950    9.7620 N   0  0  0  0  0  0  0  0  0  0  0  0
   42.9810    9.9470   10.8100 C   0  0  0  0  0  0  0  0  0  0  0  0
   43.7120   12.6870    9.9470 O   0  0  0  0  0  0  0  0  0  0  0  0
   43.7960   13.4840   11.1130 C   0  0  0  0  0  0  0  0  0  0  0  0
   43.4080   10.0060   12.1370 C   0  0  0  0  0  0  0  0  0  0  0  0
   41.7760    9.3180   10.4970 C   0  0  0  0  0  0  0  0  0  0  0  0
   45.1680   13.6540   11.3670 N   0  0  0  0  0  0  0  0  0  0  0  0
   41.3460    9.2520    9.2430 F   0  0  0  0  0  0  0  0  0  0  0  0
   42.6490    9.4370   13.1440 C   0  0  0  0  0  0  0  0  0  0  0  0
   41.0170    8.7510   11.5070 C   0  0  0  0  0  0  0  0  0  0  0  0
   45.7640   13.3750   12.5140 C   0  0  0  0  0  0  0  0  0  0  0  0
   45.9630   14.1140   10.3760 N   0  0  0  0  0  0  0  0  0  0  0  0
   41.4630    8.8090   12.8220 C   0  0  0  0  0  0  0  0  0  0  0  0
   45.0660   12.9090   13.6430 C   0  0  0  0  0  0  0  0  0  0  0  0
   47.1520   14.0970   10.9480 C   0  0  0  0  0  0  0  0  0  0  0  0
   47.0810   13.6450   12.2500 C   0  0  0  0  0  0  0  0  0  0  0  0
  1  2  1  0
  2  3  1  0
  1  4  1  0
  4  5  1  0
  3  6  2  0
  3  7  1  0
  5  8  1  0
  7  9  1  0
  6 10  1  0
  7 11  2  0
  8 12  1  0
  8 13  1  0
 10 14  2  0
 11 14  1  0
 12 15  1  0
 13 16  2  0
 12 17  2  0
 16 17  1  0
M  END
>  <ref_pdb>  (77) 
H-SOS3-x1346_00_Frag_6-SOS3-x1346_01_Frag_1.pdb

>  <ref_mols>  (77) 
x1346_1A,x1346_0A

>  <ddG_score>  (77) 
-5.741218952451723

>  <fragmensteinOld_score>  (77) 
-1.8761585540004115

>  <LE_score>  (77) 
-0.33771876190892486

>  <comRMSD_score>  (77) 
0.3720852364899329

>  <fragmensteinNew_score>  (77) 
-0.09723543444531502

>  <aLogP_score>  (77) 
2.37432

>  <hbondD_score>  (77) 
1

>  <hbondA_score>  (77) 
3

>  <polarSurfaceArea_score>  (77) 
39.08

>  <rotableBonds_score>  (77) 
5

>  <QED_score>  (77) 
0.6384722037665117

>  <energyPoseVsEnsemble_score>  (77) 
1.7788749051888715

>  <sucos_score>  (77) 
0.7154358604152299

>  <interactions_conservation_score>  (77) 
0.0

>  <interactions_novelty_score>  (77) 
0.0

>  <SAscore_score>  (77) 
2.549237696440242

>  <SCScore_score>  (77) 
2.5805958279900185

>  <original SMILES>  (77) 
Cc1ccnn1COCNc1ccccc1F

>  <CAR_friendly>  (77) 
0

$$$$
76_SOS3-x1346_00_Frag_6-SOS3-x1346_01_Frag
     RDKit          3D

 19 20  0  0  0  0  0  0  0  0999 V2000
   44.7740   11.1820   10.0970 C   0  0  0  0  0  0  0  0  0  0  0  0
   43.4800   10.7560    9.9310 N   0  0  0  0  0  0  0  0  0  0  0  0
   42.7850   10.0810   10.9420 C   0  0  0  0  0  0  0  0  0  0  0  0
   43.2990    9.9740   12.2060 C   0  0  0  0  0  0  0  0  0  0  0  0
   41.5420    9.4970   10.7070 C   0  0  0  0  0  0  0  0  0  0  0  0
   40.9700    9.5650    9.5530 F   0  0  0  0  0  0  0  0  0  0  0  0
   42.6330    9.3010   13.2210 C   0  0  0  0  0  0  0  0  0  0  0  0
   40.8620    8.8230   11.7000 C   0  0  0  0  0  0  0  0  0  0  0  0
   44.4810   10.5290   12.5260 O   0  0  0  0  0  0  0  0  0  0  0  0
   41.4110    8.7190   12.9580 C   0  0  0  0  0  0  0  0  0  0  0  0
   44.1870   11.5400   13.4440 C   0  0  0  0  0  0  0  0  0  0  0  0
   45.3610   11.8230   14.2190 N   0  0  0  0  0  0  0  0  0  0  0  0
   45.0720   11.0680   15.3520 C   0  0  0  0  0  0  0  0  0  0  0  0
   44.2470   11.8200   16.2100 C   0  0  0  0  0  0  0  0  0  0  0  0
   45.5400    9.7640   15.5590 C   0  0  0  0  0  0  0  0  0  0  0  0
   46.3130    9.1340   14.6640 F   0  0  0  0  0  0  0  0  0  0  0  0
   43.8850   11.1550   17.4050 C   0  0  0  0  0  0  0  0  0  0  0  0
   45.1880    9.1320   16.7090 C   0  0  0  0  0  0  0  0  0  0  0  0
   44.3520    9.8650   17.6270 C   0  0  0  0  0  0  0  0  0  0  0  0
  1  2  1  0
  2  3  1  0
  3  4  2  0
  3  5  1  0
  5  6  1  0
  4  7  1  0
  5  8  2  0
  4  9  1  0
  7 10  2  0
  8 10  1  0
  9 11  1  0
 11 12  1  0
 12 13  1  0
 13 14  2  0
 13 15  1  0
 15 16  1  0
 14 17  1  0
 15 18  2  0
 17 19  2  0
 18 19  1  0
M  END
>  <ref_pdb>  (78) 
H-SOS3-x1346_00_Frag_6-SOS3-x1346_01_Frag_2.pdb

>  <ref_mols>  (78) 
x1346_1A,x1346_0A

>  <ddG_score>  (78) 
-9.136575976589555

>  <fragmensteinOld_score>  (78) 
-2.770680549302469

>  <LE_score>  (78) 
-0.4808724198205029

>  <comRMSD_score>  (78) 
0.35663464601544204

>  <fragmensteinNew_score>  (78) 
-0.6781410323433128

>  <aLogP_score>  (78) 
3.454900000000001

>  <hbondD_score>  (78) 
2

>  <hbondA_score>  (78) 
3

>  <polarSurfaceArea_score>  (78) 
33.29

>  <rotableBonds_score>  (78) 
5

>  <QED_score>  (78) 
0.8113638620944374

>  <energyPoseVsEnsemble_score>  (78) 
3.1098088670021427

>  <sucos_score>  (78) 
0.8801117675207966

>  <interactions_conservation_score>  (78) 
0.816496580927726

>  <interactions_novelty_score>  (78) 
0.0

>  <SAscore_score>  (78) 
2.2652361230116966

>  <SCScore_score>  (78) 
2.8805213385261466

>  <original SMILES>  (78) 
CNc1c(F)cccc1OCNc1ccccc1F

>  <CAR_friendly>  (78) 
0

$$$$
77_SOS3-x1346_00_Frag_6-SOS3-x1346_01_Frag
     RDKit          3D

 18 19  0  0  0  0  0  0  0  0999 V2000
   44.8590   11.1670   10.2340 C   0  0  0  0  0  0  0  0  0  0  0  0
   43.6080   10.6600   10.0240 N   0  0  0  0  0  0  0  0  0  0  0  0
   42.8600    9.9980   11.0080 C   0  0  0  0  0  0  0  0  0  0  0  0
   43.3440    9.6710   12.2690 C   0  0  0  0  0  0  0  0  0  0  0  0
   41.5380    9.6330   10.7240 C   0  0  0  0  0  0  0  0  0  0  0  0
   41.0160    9.9130    9.5610 F   0  0  0  0  0  0  0  0  0  0  0  0
   42.5620    9.0330   13.1980 C   0  0  0  0  0  0  0  0  0  0  0  0
   40.7490    8.9680   11.6610 C   0  0  0  0  0  0  0  0  0  0  0  0
   44.5290    9.9420   12.6000 O   0  0  0  0  0  0  0  0  0  0  0  0
   41.2800    8.6790   12.8980 C   0  0  0  0  0  0  0  0  0  0  0  0
   45.6960   10.0520   13.0640 C   0  0  0  0  0  0  0  0  0  0  0  0
   45.8220    9.3160   14.2730 O   0  0  0  0  0  0  0  0  0  0  0  0
   45.1230    9.8660   15.3660 C   0  0  0  0  0  0  0  0  0  0  0  0
   44.5790   11.1670   15.2430 C   0  0  0  0  0  0  0  0  0  0  0  0
   44.9450    9.2030   16.5470 C   0  0  0  0  0  0  0  0  0  0  0  0
   43.8650   11.8620   16.2150 C   0  0  0  0  0  0  0  0  0  0  0  0
   44.2120    9.8900   17.5730 C   0  0  0  0  0  0  0  0  0  0  0  0
   43.6810   11.1720   17.4340 C   0  0  0  0  0  0  0  0  0  0  0  0
  1  2  1  0
  2  3  1  0
  3  4  2  0
  3  5  1  0
  5  6  1  0
  4  7  1  0
  5  8  2  0
  4  9  1  0
  7 10  2  0
  8 10  1  0
  9 11  1  0
 11 12  1  0
 12 13  1  0
 13 14  2  0
 13 15  1  0
 14 16  1  0
 15 17  2  0
 16 18  2  0
 17 18  1  0
M  END
>  <ref_pdb>  (79) 
H-SOS3-x1346_00_Frag_6-SOS3-x1346_01_Frag_4.pdb

>  <ref_mols>  (79) 
x1346_1A,x1346_0A

>  <ddG_score>  (79) 
-9.98574789277492

>  <fragmensteinOld_score>  (79) 
-2.8135643576676563

>  <LE_score>  (79) 
-0.5547637718208289

>  <comRMSD_score>  (79) 
0.3835852208873278

>  <fragmensteinNew_score>  (79) 
-0.5120153021707127

>  <aLogP_score>  (79) 
3.282700000000002

>  <hbondD_score>  (79) 
1

>  <hbondA_score>  (79) 
3

>  <polarSurfaceArea_score>  (79) 
30.49

>  <rotableBonds_score>  (79) 
5

>  <QED_score>  (79) 
0.8223397933138511

>  <energyPoseVsEnsemble_score>  (79) 
3.972399697653304

>  <sucos_score>  (79) 
0.8840512446468791

>  <interactions_conservation_score>  (79) 
0.6123724356957946

>  <interactions_novelty_score>  (79) 
0.14285714285714285

>  <SAscore_score>  (79) 
2.0104314023232757

>  <SCScore_score>  (79) 
2.8331933433223826

>  <original SMILES>  (79) 
CNc1c(F)cccc1OCOc1ccccc1

>  <CAR_friendly>  (79) 
0

$$$$
78_SOS3-x1346_00_Frag_6-SOS3-x1346_01_Frag
     RDKit          3D

 20 21  0  0  0  0  0  0  0  0999 V2000
   44.7650   11.1980   10.1750 C   0  0  0  0  0  0  0  0  0  0  0  0
   43.5050   10.7040    9.9600 N   0  0  0  0  0  0  0  0  0  0  0  0
   42.7810    9.9990   10.9320 C   0  0  0  0  0  0  0  0  0  0  0  0
   43.3110    9.7490   12.1590 C   0  0  0  0  0  0  0  0  0  0  0  0
   41.4900    9.5340   10.6920 C   0  0  0  0  0  0  0  0  0  0  0  0
   40.8920    9.7390    9.5580 F   0  0  0  0  0  0  0  0  0  0  0  0
   42.6380    9.0700   13.1500 C   0  0  0  0  0  0  0  0  0  0  0  0
   40.7900    8.8390   11.6700 C   0  0  0  0  0  0  0  0  0  0  0  0
   44.5220   10.1810   12.4770 O   0  0  0  0  0  0  0  0  0  0  0  0
   41.3750    8.6110   12.8980 C   0  0  0  0  0  0  0  0  0  0  0  0
   44.0460   11.2720   13.1860 C   0  0  0  0  0  0  0  0  0  0  0  0
   44.9810   11.8120   14.0630 N   0  0  0  0  0  0  0  0  0  0  0  0
   44.8620   13.2050   13.9560 C   0  0  0  0  0  0  0  0  0  0  0  0
   44.7270   11.2450   15.2090 C   0  0  0  0  0  0  0  0  0  0  0  0
   44.0560   11.8910   16.2730 C   0  0  0  0  0  0  0  0  0  0  0  0
   45.1480    9.8880   15.3590 C   0  0  0  0  0  0  0  0  0  0  0  0
   45.7640    9.2200   14.3760 F   0  0  0  0  0  0  0  0  0  0  0  0
   43.8470   11.1780   17.4300 C   0  0  0  0  0  0  0  0  0  0  0  0
   44.9230    9.2180   16.5460 C   0  0  0  0  0  0  0  0  0  0  0  0
   44.2830    9.8680   17.5610 C   0  0  0  0  0  0  0  0  0  0  0  0
  1  2  1  0
  2  3  1  0
  3  4  2  0
  3  5  1  0
  5  6  1  0
  4  7  1  0
  5  8  2  0
  4  9  1  0
  7 10  2  0
  8 10  1  0
  9 11  1  0
 11 12  1  0
 12 13  1  0
 12 14  1  0
 14 15  2  0
 14 16  1  0
 16 17  1  0
 15 18  1  0
 16 19  2  0
 18 20  2  0
 19 20  1  0
M  END
>  <ref_pdb>  (80) 
H-SOS3-x1346_00_Frag_6-SOS3-x1346_01_Frag_6.pdb

>  <ref_mols>  (80) 
x1346_1A,x1346_0A

>  <ddG_score>  (80) 
-9.969540281189207

>  <fragmensteinOld_score>  (80) 
-3.059577949811474

>  <LE_score>  (80) 
-0.4984770140594604

>  <comRMSD_score>  (80) 
0.33433010642636807

>  <fragmensteinNew_score>  (80) 
-0.8883034565557795

>  <aLogP_score>  (80) 
3.4792000000000023

>  <hbondD_score>  (80) 
1

>  <hbondA_score>  (80) 
3

>  <polarSurfaceArea_score>  (80) 
24.5

>  <rotableBonds_score>  (80) 
5

>  <QED_score>  (80) 
0.8474167938903527

>  <energyPoseVsEnsemble_score>  (80) 
3.381068193425501

>  <sucos_score>  (80) 
0.83930918451519

>  <interactions_conservation_score>  (80) 
0.6123724356957946

>  <interactions_novelty_score>  (80) 
0.0

>  <SAscore_score>  (80) 
2.4684344767101187

>  <SCScore_score>  (80) 
3.560825651528905

>  <original SMILES>  (80) 
CNc1c(F)cccc1OCN(C)c1ccccc1F

>  <CAR_friendly>  (80) 
0

$$$$
79_SOS3-x1629_00_Frag_2-SOS3-x1131_00_Frag
     RDKit          3D

 21 22  0  0  0  0  0  0  0  0999 V2000
   50.5280   25.0340    6.4660 N   0  0  0  0  0  0  0  0  0  0  0  0
   50.7780   25.6290    4.9970 S   0  0  1  0  0  0  0  0  0  0  0  0
   52.5210   25.9140    4.6140 C   0  0  0  0  0  0  0  0  0  0  0  0
   50.0550   23.6360    6.9580 C   0  0  0  0  0  0  0  0  0  0  0  0
   50.2030   25.0660    3.7920 O   0  0  0  0  0  0  0  0  0  0  0  0
   50.2620   27.2790    5.0040 N   0  0  0  0  0  0  0  0  0  0  0  0
   48.8090   23.4660    7.6350 C   0  0  0  0  0  0  0  0  0  0  0  0
   50.8300   22.4610    6.7880 C   0  0  0  0  0  0  0  0  0  0  0  0
   50.4520   28.2590    6.0870 C   0  0  0  0  0  0  0  0  0  0  0  0
   48.3740   22.2000    8.1150 C   0  0  0  0  0  0  0  0  0  0  0  0
   50.3780   21.2000    7.2740 C   0  0  0  0  0  0  0  0  0  0  0  0
   51.0280   29.6480    5.6550 C   0  0  0  0  0  0  0  0  0  0  0  0
   49.1490   21.0580    7.9430 C   0  0  0  0  0  0  0  0  0  0  0  0
   48.8510   19.7700    8.3600 O   0  0  0  0  0  0  0  0  0  0  0  0
   52.5190   29.7280    5.3730 C   0  0  0  0  0  0  0  0  0  0  0  0
   47.6420   19.5080    9.0940 C   0  0  0  0  0  0  0  0  0  0  0  0
   53.4510   29.2780    6.3040 C   0  0  0  0  0  0  0  0  0  0  0  0
   53.0010   30.2600    4.1600 C   0  0  0  0  0  0  0  0  0  0  0  0
   54.8120   29.3460    6.0390 C   0  0  0  0  0  0  0  0  0  0  0  0
   54.3770   30.3260    3.9010 C   0  0  0  0  0  0  0  0  0  0  0  0
   55.2860   29.8650    4.8450 C   0  0  0  0  0  0  0  0  0  0  0  0
  1  2  2  0
  2  3  1  6
  1  4  1  0
  2  5  2  0
  2  6  1  0
  4  7  2  0
  4  8  1  0
  6  9  1  0
  7 10  1  0
  8 11  2  0
  9 12  1  0
 10 13  2  0
 11 13  1  0
 13 14  1  0
 12 15  1  0
 14 16  1  0
 15 17  2  0
 15 18  1  0
 17 19  1  0
 18 20  2  0
 19 21  2  0
 20 21  1  0
M  END
>  <ref_pdb>  (81) 
H-SOS3-x1629_00_Frag_2-SOS3-x1131_00_Frag_0.pdb

>  <ref_mols>  (81) 
x1131_1A,x1629_1A

>  <ddG_score>  (81) 
-9.743614291733612

>  <fragmensteinOld_score>  (81) 
-2.491905355035467

>  <LE_score>  (81) 
-0.46398163293969585

>  <comRMSD_score>  (81) 
1.5568175033112557

>  <fragmensteinNew_score>  (81) 
0.8903786439170747

>  <aLogP_score>  (81) 
3.171800000000002

>  <hbondD_score>  (81) 
1

>  <hbondA_score>  (81) 
2

>  <polarSurfaceArea_score>  (81) 
50.69

>  <rotableBonds_score>  (81) 
6

>  <QED_score>  (81) 
0.8908825950574598

>  <energyPoseVsEnsemble_score>  (81) 
2.9939063174981655

>  <sucos_score>  (81) 
0.767890703188739

>  <interactions_conservation_score>  (81) 
0.5773502691896257

>  <interactions_novelty_score>  (81) 
0.4444444444444444

>  <SAscore_score>  (81) 
2.7069343836592203

>  <SCScore_score>  (81) 
2.7782622945396653

>  <original SMILES>  (81) 
COc1ccc(N=[S@@](C)(=O)NCCc2ccccc2)cc1

>  <CAR_friendly>  (81) 
0

$$$$
80_SOS3-x1629_00_Frag_2-SOS3-x1131_00_Frag
     RDKit          3D

 13 13  0  0  0  0  0  0  0  0999 V2000
   50.5580   24.9060    6.4530 N   0  0  0  0  0  0  0  0  0  0  0  0
   50.7810   25.4850    4.9830 S   0  0  1  0  0  0  0  0  0  0  0  0
   50.0820   27.0390    5.0400 N   0  0  0  0  0  0  0  0  0  0  0  0
   50.0960   23.5320    6.9500 C   0  0  0  0  0  0  0  0  0  0  0  0
   52.5000   25.8910    4.6030 C   0  0  0  0  0  0  0  0  0  0  0  0
   50.2080   24.9450    3.7750 O   0  0  0  0  0  0  0  0  0  0  0  0
   48.7400   23.3120    7.6900 C   0  0  0  0  0  0  0  0  0  0  0  0
   50.8830   22.3740    6.7890 C   0  0  0  0  0  0  0  0  0  0  0  0
   48.3820   22.0200    8.1490 C   0  0  0  0  0  0  0  0  0  0  0  0
   50.4540   21.1100    7.2780 C   0  0  0  0  0  0  0  0  0  0  0  0
   49.2320   20.9260    7.9470 C   0  0  0  0  0  0  0  0  0  0  0  0
   48.8090   19.6950    8.4290 O   0  0  0  0  0  0  0  0  0  0  0  0
   47.5780   19.5200    9.1410 C   0  0  0  0  0  0  0  0  0  0  0  0
  1  2  2  0
  2  3  1  0
  1  4  1  0
  2  5  1  6
  2  6  2  0
  4  7  2  0
  4  8  1  0
  7  9  1  0
  8 10  2  0
  9 11  2  0
 10 11  1  0
 11 12  1  0
 12 13  1  0
M  END
>  <ref_pdb>  (82) 
H-SOS3-x1629_00_Frag_2-SOS3-x1131_00_Frag_1.pdb

>  <ref_mols>  (82) 
x1131_1A,x1629_1A

>  <ddG_score>  (82) 
-6.101157711262841

>  <fragmensteinOld_score>  (82) 
-1.0427487730492344

>  <LE_score>  (82) 
-0.46931982394329547

>  <comRMSD_score>  (82) 
1.4774827692033339

>  <fragmensteinNew_score>  (82) 
1.7785843286121712

>  <aLogP_score>  (82) 
1.2982

>  <hbondD_score>  (82) 
1

>  <hbondA_score>  (82) 
2

>  <polarSurfaceArea_score>  (82) 
64.67999999999999

>  <rotableBonds_score>  (82) 
2

>  <QED_score>  (82) 
0.7815526416826999

>  <energyPoseVsEnsemble_score>  (82) 
4.439139940223691

>  <sucos_score>  (82) 
0.626573965665881

>  <interactions_conservation_score>  (82) 
0.7071067811865476

>  <interactions_novelty_score>  (82) 
0.6

>  <SAscore_score>  (82) 
2.9325221615875243

>  <SCScore_score>  (82) 
2.1738189071844856

>  <original SMILES>  (82) 
COc1ccc(N=[S@](C)(N)=O)cc1

>  <CAR_friendly>  (82) 
0

$$$$
81_SOS3-x1629_00_Frag_2-SOS3-x1131_00_Frag
     RDKit          3D

 20 21  0  0  0  0  0  0  0  0999 V2000
   50.5410   24.4250    6.5010 N   0  0  0  0  0  0  0  0  0  0  0  0
   49.9680   23.2580    7.0770 C   0  0  0  0  0  0  0  0  0  0  0  0
   50.7350   22.0840    6.9430 C   0  0  0  0  0  0  0  0  0  0  0  0
   49.8630   25.7070    6.2280 C   0  0  0  0  0  0  0  0  0  0  0  0
   48.7430   23.1540    7.7580 C   0  0  0  0  0  0  0  0  0  0  0  0
   50.4840   26.3150    4.9360 C   0  0  0  0  0  0  0  0  0  0  0  0
   48.3100   21.7830    8.3200 C   0  0  0  0  0  0  0  0  0  0  0  0
   50.3480   20.8400    7.4480 C   0  0  0  0  0  0  0  0  0  0  0  0
   50.3600   27.7850    4.7800 N   0  0  0  0  0  0  0  0  0  0  0  0
   49.1510   20.6800    8.1330 C   0  0  0  0  0  0  0  0  0  0  0  0
   50.5200   28.5430    6.0260 C   0  0  0  0  0  0  0  0  0  0  0  0
   48.7350   19.4830    8.6490 O   0  0  0  0  0  0  0  0  0  0  0  0
   51.1260   29.9390    5.7700 C   0  0  0  0  0  0  0  0  0  0  0  0
   47.4480   19.3790    9.2310 C   0  0  0  0  0  0  0  0  0  0  0  0
   52.6020   29.9160    5.4520 C   0  0  0  0  0  0  0  0  0  0  0  0
   53.5060   29.4160    6.3890 C   0  0  0  0  0  0  0  0  0  0  0  0
   53.0940   30.3900    4.2250 C   0  0  0  0  0  0  0  0  0  0  0  0
   54.8720   29.3880    6.1050 C   0  0  0  0  0  0  0  0  0  0  0  0
   54.4630   30.3600    3.9460 C   0  0  0  0  0  0  0  0  0  0  0  0
   55.3570   29.8580    4.8890 C   0  0  0  0  0  0  0  0  0  0  0  0
  1  2  1  0
  2  3  2  0
  1  4  1  0
  2  5  1  0
  4  6  1  0
  5  7  2  0
  3  8  1  0
  6  9  1  0
  7 10  1  0
  8 10  2  0
  9 11  1  0
 10 12  1  0
 11 13  1  0
 12 14  1  0
 13 15  1  0
 15 16  2  0
 15 17  1  0
 16 18  1  0
 17 19  2  0
 18 20  2  0
 19 20  1  0
M  END
>  <ref_pdb>  (83) 
H-SOS3-x1629_00_Frag_2-SOS3-x1131_00_Frag_4.pdb

>  <ref_mols>  (83) 
x1131_1A,x1629_1A

>  <ddG_score>  (83) 
-10.412589560042653

>  <fragmensteinOld_score>  (83) 
-2.3449100835845895

>  <LE_score>  (83) 
-0.5206294780021327

>  <comRMSD_score>  (83) 
1.137607828423941

>  <fragmensteinNew_score>  (83) 
0.6960995234966942

>  <aLogP_score>  (83) 
2.939400000000001

>  <hbondD_score>  (83) 
2

>  <hbondA_score>  (83) 
3

>  <polarSurfaceArea_score>  (83) 
33.29

>  <rotableBonds_score>  (83) 
8

>  <QED_score>  (83) 
0.7235934301899768

>  <energyPoseVsEnsemble_score>  (83) 
1.96822396924814

>  <sucos_score>  (83) 
0.9685016833696305

>  <interactions_conservation_score>  (83) 
0.7559289460184544

>  <interactions_novelty_score>  (83) 
0.4

>  <SAscore_score>  (83) 
1.6136255737486742

>  <SCScore_score>  (83) 
2.954268844200045

>  <original SMILES>  (83) 
COc1ccc(NCCNCCc2ccccc2)cc1

>  <CAR_friendly>  (83) 
0

$$$$
82_SOS3-x1629_00_Frag_2-SOS3-x1131_00_Frag
     RDKit          3D

 15 15  0  0  0  0  0  0  0  0999 V2000
   50.5120   24.9890    6.4840 N   0  0  0  0  0  0  0  0  0  0  0  0
   50.7640   25.5820    5.0160 S   0  0  1  0  0  0  0  0  0  0  0  0
   50.2500   27.2260    5.0410 N   0  0  0  0  0  0  0  0  0  0  0  0
   50.0370   23.5990    6.9720 C   0  0  0  0  0  0  0  0  0  0  0  0
   52.4960   25.8890    4.6140 C   0  0  0  0  0  0  0  0  0  0  0  0
   50.1550   25.0610    3.8110 O   0  0  0  0  0  0  0  0  0  0  0  0
   48.7860   23.4360    7.6370 C   0  0  0  0  0  0  0  0  0  0  0  0
   50.8150   22.4230    6.8150 C   0  0  0  0  0  0  0  0  0  0  0  0
   50.4010   28.2180    6.1170 C   0  0  0  0  0  0  0  0  0  0  0  0
   48.3480   22.1730    8.1180 C   0  0  0  0  0  0  0  0  0  0  0  0
   50.3610   21.1640    7.2970 C   0  0  0  0  0  0  0  0  0  0  0  0
   51.0090   29.5790    5.7280 C   0  0  0  0  0  0  0  0  0  0  0  0
   49.1260   21.0290    7.9540 C   0  0  0  0  0  0  0  0  0  0  0  0
   48.8190   19.7430    8.3760 O   0  0  0  0  0  0  0  0  0  0  0  0
   47.6090   19.4970    9.1110 C   0  0  0  0  0  0  0  0  0  0  0  0
  1  2  2  0
  2  3  1  0
  1  4  1  0
  2  5  1  6
  2  6  2  0
  4  7  2  0
  4  8  1  0
  3  9  1  0
  7 10  1  0
  8 11  2  0
  9 12  1  0
 10 13  2  0
 11 13  1  0
 13 14  1  0
 14 15  1  0
M  END
>  <ref_pdb>  (84) 
H-SOS3-x1629_00_Frag_2-SOS3-x1131_00_Frag_6.pdb

>  <ref_mols>  (84) 
x1131_1A,x1629_1A

>  <ddG_score>  (84) 
-7.8799169463491

>  <fragmensteinOld_score>  (84) 
-1.7101391645810964

>  <LE_score>  (84) 
-0.5253277964232733

>  <comRMSD_score>  (84) 
1.3658442246887237

>  <fragmensteinNew_score>  (84) 
1.077673507437918

>  <aLogP_score>  (84) 
1.949

>  <hbondD_score>  (84) 
1

>  <hbondA_score>  (84) 
2

>  <polarSurfaceArea_score>  (84) 
50.69

>  <rotableBonds_score>  (84) 
4

>  <QED_score>  (84) 
0.8559496135594927

>  <energyPoseVsEnsemble_score>  (84) 
4.6545565431625535

>  <sucos_score>  (84) 
0.6699582012903328

>  <interactions_conservation_score>  (84) 
0.3535533905932738

>  <interactions_novelty_score>  (84) 
0.5

>  <SAscore_score>  (84) 
3.0510249326876284

>  <SCScore_score>  (84) 
2.3953635218518565

>  <original SMILES>  (84) 
CCN[S@](C)(=O)=Nc1ccc(OC)cc1

>  <CAR_friendly>  (84) 
0

$$$$
83_SOS3-x1629_00_Frag_3-SOS3-x1131_00_Frag
     RDKit          3D

 23 24  0  0  0  0  0  0  0  0999 V2000
   48.6890   19.6630    8.9310 O   0  0  0  0  0  0  0  0  0  0  0  0
   47.3370   19.4260    9.2550 C   0  0  0  0  0  0  0  0  0  0  0  0
   49.0560   20.6990    8.1670 C   0  0  0  0  0  0  0  0  0  0  0  0
   48.1670   21.7630    8.1920 C   0  0  0  0  0  0  0  0  0  0  0  0
   50.2270   20.7210    7.4070 C   0  0  0  0  0  0  0  0  0  0  0  0
   48.4160   22.8850    7.4290 C   0  0  0  0  0  0  0  0  0  0  0  0
   50.5370   21.8200    6.6190 C   0  0  0  0  0  0  0  0  0  0  0  0
   49.6730   22.9040    6.5790 C   0  0  0  0  0  0  0  0  0  0  0  0
   49.8450   24.0060    5.8250 O   0  0  0  0  0  0  0  0  0  0  0  0
   50.3520   25.0410    6.6130 C   0  0  0  0  0  0  0  0  0  0  0  0
   51.2200   26.0490    6.0390 N   0  0  0  0  0  0  0  0  0  0  0  0
   51.2250   26.3120    4.5500 S   0  0  1  0  0  0  0  0  0  0  0  0
   52.9250   26.4770    4.0740 C   0  0  0  0  0  0  0  0  0  0  0  0
   50.4990   25.6090    3.5170 O   0  0  0  0  0  0  0  0  0  0  0  0
   50.5480   27.8460    4.6060 N   0  0  0  0  0  0  0  0  0  0  0  0
   50.5260   28.5880    5.8660 C   0  0  0  0  0  0  0  0  0  0  0  0
   51.1990   29.9290    5.7400 C   0  0  0  0  0  0  0  0  0  0  0  0
   52.5740   29.9190    5.4440 C   0  0  0  0  0  0  0  0  0  0  0  0
   53.4870   29.4290    6.3790 C   0  0  0  0  0  0  0  0  0  0  0  0
   53.0680   30.3910    4.2140 C   0  0  0  0  0  0  0  0  0  0  0  0
   54.8560   29.4080    6.1000 C   0  0  0  0  0  0  0  0  0  0  0  0
   54.4430   30.3690    3.9370 C   0  0  0  0  0  0  0  0  0  0  0  0
   55.3380   29.8760    4.8850 C   0  0  0  0  0  0  0  0  0  0  0  0
  1  2  1  0
  1  3  1  0
  3  4  2  0
  3  5  1  0
  4  6  1  0
  5  7  2  0
  6  8  2  0
  7  8  1  0
  8  9  1  0
  9 10  1  0
 10 11  1  0
 11 12  2  0
 12 13  1  6
 12 14  2  0
 12 15  1  0
 15 16  1  0
 16 17  1  0
 17 18  1  0
 18 19  2  0
 18 20  1  0
 19 21  1  0
 20 22  2  0
 21 23  2  0
 22 23  1  0
M  END
>  <ref_pdb>  (85) 
H-SOS3-x1629_00_Frag_3-SOS3-x1131_00_Frag_0.pdb

>  <ref_mols>  (85) 
x1131_1A,x1629_1A

>  <ddG_score>  (85) 
-8.569211231501727

>  <fragmensteinOld_score>  (85) 
-2.342212472969767

>  <LE_score>  (85) 
-0.3725744013696403

>  <comRMSD_score>  (85) 
1.0716297733305786

>  <fragmensteinNew_score>  (85) 
0.4659558700712304

>  <aLogP_score>  (85) 
2.8766000000000016

>  <hbondD_score>  (85) 
1

>  <hbondA_score>  (85) 
3

>  <polarSurfaceArea_score>  (85) 
59.92

>  <rotableBonds_score>  (85) 
8

>  <QED_score>  (85) 
0.807371552938452

>  <energyPoseVsEnsemble_score>  (85) 
3.7464590126551816

>  <sucos_score>  (85) 
0.9047361942691231

>  <interactions_conservation_score>  (85) 
0.7071067811865476

>  <interactions_novelty_score>  (85) 
0.36363636363636365

>  <SAscore_score>  (85) 
2.8161134732638224

>  <SCScore_score>  (85) 
2.5061038804098845

>  <original SMILES>  (85) 
COc1ccc(OCN=[S@@](C)(=O)NCCc2ccccc2)cc1

>  <CAR_friendly>  (85) 
0

$$$$
84_SOS3-x1629_00_Frag_3-SOS3-x1131_00_Frag
     RDKit          3D

 15 15  0  0  0  0  0  0  0  0999 V2000
   48.7690   19.6480    8.9760 O   0  0  0  0  0  0  0  0  0  0  0  0
   47.4010   19.3940    9.2610 C   0  0  0  0  0  0  0  0  0  0  0  0
   49.1120   20.7120    8.2150 C   0  0  0  0  0  0  0  0  0  0  0  0
   48.2110   21.7730    8.2730 C   0  0  0  0  0  0  0  0  0  0  0  0
   50.2670   20.7720    7.4300 C   0  0  0  0  0  0  0  0  0  0  0  0
   48.4390   22.9210    7.5270 C   0  0  0  0  0  0  0  0  0  0  0  0
   50.5530   21.9020    6.6610 C   0  0  0  0  0  0  0  0  0  0  0  0
   49.6820   22.9880    6.6580 C   0  0  0  0  0  0  0  0  0  0  0  0
   49.8260   24.1310    5.9400 O   0  0  0  0  0  0  0  0  0  0  0  0
   50.4650   25.1410    6.6580 C   0  0  0  0  0  0  0  0  0  0  0  0
   51.0130   26.3240    6.0020 N   0  0  0  0  0  0  0  0  0  0  0  0
   51.1500   26.4410    4.5010 S   0  0  1  0  0  0  0  0  0  0  0  0
   50.4850   27.9740    4.4050 N   0  0  0  0  0  0  0  0  0  0  0  0
   52.8850   26.4620    4.1350 C   0  0  0  0  0  0  0  0  0  0  0  0
   50.5730   25.2190    3.9940 O   0  0  0  0  0  0  0  0  0  0  0  0
  1  2  1  0
  1  3  1  0
  3  4  2  0
  3  5  1  0
  4  6  1  0
  5  7  2  0
  6  8  2  0
  7  8  1  0
  8  9  1  0
  9 10  1  0
 10 11  1  0
 11 12  2  0
 12 13  1  0
 12 14  1  1
 12 15  2  0
M  END
>  <ref_pdb>  (86) 
H-SOS3-x1629_00_Frag_3-SOS3-x1131_00_Frag_1.pdb

>  <ref_mols>  (86) 
x1131_1A,x1629_1A

>  <ddG_score>  (86) 
-5.693894115176579

>  <fragmensteinOld_score>  (86) 
-1.705036627113119

>  <LE_score>  (86) 
-0.37959294101177193

>  <comRMSD_score>  (86) 
0.3337421959221968

>  <fragmensteinNew_score>  (86) 
0.29511577926713484

>  <aLogP_score>  (86) 
1.0030000000000001

>  <hbondD_score>  (86) 
1

>  <hbondA_score>  (86) 
3

>  <polarSurfaceArea_score>  (86) 
73.91

>  <rotableBonds_score>  (86) 
4

>  <QED_score>  (86) 
0.8382219998028185

>  <energyPoseVsEnsemble_score>  (86) 
5.666145217131171

>  <sucos_score>  (86) 
0.8236063188041088

>  <interactions_conservation_score>  (86) 
1.0

>  <interactions_novelty_score>  (86) 
0.4

>  <SAscore_score>  (86) 
3.0027322497607987

>  <SCScore_score>  (86) 
2.3366584813188362

>  <original SMILES>  (86) 
COc1ccc(OCN=[S@](C)(N)=O)cc1

>  <CAR_friendly>  (86) 
0

$$$$
85_SOS3-x1629_00_Frag_3-SOS3-x1131_00_Frag
     RDKit          3D

 17 17  0  0  0  0  0  0  0  0999 V2000
   48.7510   19.7420    9.1720 O   0  0  0  0  0  0  0  0  0  0  0  0
   47.3830   19.4070    9.3040 C   0  0  0  0  0  0  0  0  0  0  0  0
   49.1090   20.7240    8.3240 C   0  0  0  0  0  0  0  0  0  0  0  0
   48.2150   21.7880    8.3060 C   0  0  0  0  0  0  0  0  0  0  0  0
   50.2540   20.7040    7.5320 C   0  0  0  0  0  0  0  0  0  0  0  0
   48.4370   22.8670    7.4720 C   0  0  0  0  0  0  0  0  0  0  0  0
   50.5390   21.7560    6.6730 C   0  0  0  0  0  0  0  0  0  0  0  0
   49.6730   22.8380    6.5920 C   0  0  0  0  0  0  0  0  0  0  0  0
   49.8410   23.8880    5.7660 O   0  0  0  0  0  0  0  0  0  0  0  0
   50.6690   24.8400    6.3650 C   0  0  0  0  0  0  0  0  0  0  0  0
   50.6910   26.1960    5.8690 N   0  0  0  0  0  0  0  0  0  0  0  0
   51.0750   26.4950    4.4390 S   0  0  1  0  0  0  0  0  0  0  0  0
   50.5370   28.0680    4.5570 N   0  0  0  0  0  0  0  0  0  0  0  0
   52.8390   26.4780    4.2450 C   0  0  0  0  0  0  0  0  0  0  0  0
   50.4900   25.4060    3.6920 O   0  0  0  0  0  0  0  0  0  0  0  0
   50.5570   28.7040    5.8710 C   0  0  0  0  0  0  0  0  0  0  0  0
   51.1750   29.9490    5.7900 C   0  0  0  0  0  0  0  0  0  0  0  0
  1  2  1  0
  1  3  1  0
  3  4  2  0
  3  5  1  0
  4  6  1  0
  5  7  2  0
  6  8  2  0
  7  8  1  0
  8  9  1  0
  9 10  1  0
 10 11  1  0
 11 12  2  0
 12 13  1  0
 12 14  1  1
 12 15  2  0
 13 16  1  0
 16 17  1  0
M  END
>  <ref_pdb>  (87) 
H-SOS3-x1629_00_Frag_3-SOS3-x1131_00_Frag_6.pdb

>  <ref_mols>  (87) 
x1131_1A,x1629_1A

>  <ddG_score>  (87) 
-7.576208220722302

>  <fragmensteinOld_score>  (87) 
-2.2591409134855147

>  <LE_score>  (87) 
-0.4456593071013119

>  <comRMSD_score>  (87) 
0.356100730658946

>  <fragmensteinNew_score>  (87) 
-0.23714499129967592

>  <aLogP_score>  (87) 
1.6538

>  <hbondD_score>  (87) 
1

>  <hbondA_score>  (87) 
3

>  <polarSurfaceArea_score>  (87) 
59.92

>  <rotableBonds_score>  (87) 
6

>  <QED_score>  (87) 
0.843747634548509

>  <energyPoseVsEnsemble_score>  (87) 
6.759209826141319

>  <sucos_score>  (87) 
0.8338964829273805

>  <interactions_conservation_score>  (87) 
1.0

>  <interactions_novelty_score>  (87) 
0.25

>  <SAscore_score>  (87) 
3.1120007493229274

>  <SCScore_score>  (87) 
2.2440077447306317

>  <original SMILES>  (87) 
CCN[S@](C)(=O)=NCOc1ccc(OC)cc1

>  <CAR_friendly>  (87) 
0

$$$$
86_SOS3-x1629_00_Frag_6-SOS3-x1131_00_Frag
     RDKit          3D

 22 23  0  0  0  0  0  0  0  0999 V2000
   48.9440   25.8260    6.7320 C   0  0  0  0  0  0  0  0  0  0  0  0
   50.0190   24.9230    6.2760 C   0  0  0  0  0  0  0  0  0  0  0  0
   51.3600   25.4440    5.2190 S   0  0  0  0  0  0  0  0  0  0  0  0
   49.7920   23.5720    6.8200 C   0  0  0  0  0  0  0  0  0  0  0  0
   52.3800   26.5280    4.2340 C   0  0  0  0  0  0  0  0  0  0  0  0
   52.3240   24.4890    4.7850 O   0  0  0  0  0  0  0  0  0  0  0  0
   50.8360   27.1030    4.9950 N   0  0  0  0  0  0  0  0  0  0  0  0
   48.5870   23.3880    7.5480 C   0  0  0  0  0  0  0  0  0  0  0  0
   50.6750   22.4620    6.6710 C   0  0  0  0  0  0  0  0  0  0  0  0
   50.7400   28.2150    5.9960 C   0  0  0  0  0  0  0  0  0  0  0  0
   48.2170   22.0250    8.1590 C   0  0  0  0  0  0  0  0  0  0  0  0
   50.3720   21.1770    7.2190 C   0  0  0  0  0  0  0  0  0  0  0  0
   51.1220   29.5400    5.6630 C   0  0  0  0  0  0  0  0  0  0  0  0
   49.1950   20.9210    7.9390 C   0  0  0  0  0  0  0  0  0  0  0  0
   48.8300   19.7080    8.4800 O   0  0  0  0  0  0  0  0  0  0  0  0
   52.5910   29.6840    5.3610 C   0  0  0  0  0  0  0  0  0  0  0  0
   47.5560   19.5300    9.1150 C   0  0  0  0  0  0  0  0  0  0  0  0
   53.5380   29.2580    6.2850 C   0  0  0  0  0  0  0  0  0  0  0  0
   53.0440   30.2420    4.1520 C   0  0  0  0  0  0  0  0  0  0  0  0
   54.9040   29.3700    6.0220 C   0  0  0  0  0  0  0  0  0  0  0  0
   54.4120   30.3440    3.9120 C   0  0  0  0  0  0  0  0  0  0  0  0
   55.3550   29.9130    4.8320 C   0  0  0  0  0  0  0  0  0  0  0  0
  1  2  1  0
  2  3  2  0
  2  4  1  0
  3  5  1  0
  3  6  2  0
  3  7  1  0
  4  8  2  0
  4  9  1  0
  7 10  1  0
  8 11  1  0
  9 12  2  0
 10 13  1  0
 11 14  2  0
 12 14  1  0
 14 15  1  0
 13 16  1  0
 15 17  1  0
 16 18  2  0
 16 19  1  0
 18 20  1  0
 19 21  2  0
 20 22  2  0
 21 22  1  0
M  END
>  <ref_pdb>  (88) 
H-SOS3-x1629_00_Frag_6-SOS3-x1131_00_Frag_0.pdb

>  <ref_mols>  (88) 
x1131_1A,x1629_1A

>  <ddG_score>  (88) 
-11.00415371362439

>  <fragmensteinOld_score>  (88) 
-2.7964931008061287

>  <LE_score>  (88) 
-0.5001888051647451

>  <comRMSD_score>  (88) 
1.6043376419187496

>  <fragmensteinNew_score>  (88) 
0.9294413779908829

>  <aLogP_score>  (88) 
2.897100000000002

>  <hbondD_score>  (88) 
1

>  <hbondA_score>  (88) 
2

>  <polarSurfaceArea_score>  (88) 
38.33

>  <rotableBonds_score>  (88) 
6

>  <QED_score>  (88) 
0.6570340434355558

>  <energyPoseVsEnsemble_score>  (88) 
8.093994155440553

>  <sucos_score>  (88) 
0.7501863472150857

>  <interactions_conservation_score>  (88) 
0.4714045207910317

>  <interactions_novelty_score>  (88) 
0.4444444444444444

>  <SAscore_score>  (88) 
2.670312780463437

>  <SCScore_score>  (88) 
2.7307419395082224

>  <original SMILES>  (88) 
COc1ccc(C(C)=S(C)(=O)NCCc2ccccc2)cc1

>  <CAR_friendly>  (88) 
0

$$$$
87_SOS3-x1629_00_Frag_6-SOS3-x1131_00_Frag
     RDKit          3D

 20 21  0  0  0  0  0  0  0  0999 V2000
   49.2720   25.4940    6.5850 C   0  0  0  0  0  0  0  0  0  0  0  0
   50.2660   24.4680    6.7510 N   0  0  0  0  0  0  0  0  0  0  0  0
   49.8870   23.1460    7.2100 C   0  0  0  0  0  0  0  0  0  0  0  0
   49.8430   26.5140    5.7940 O   0  0  0  0  0  0  0  0  0  0  0  0
   50.0140   27.7830    6.4140 C   0  0  0  0  0  0  0  0  0  0  0  0
   48.5670   22.9330    7.9430 C   0  0  0  0  0  0  0  0  0  0  0  0
   50.7200   22.0560    6.9920 C   0  0  0  0  0  0  0  0  0  0  0  0
   50.4210   28.7670    5.3440 C   0  0  0  0  0  0  0  0  0  0  0  0
   48.2520   21.6500    8.3690 C   0  0  0  0  0  0  0  0  0  0  0  0
   50.3420   20.7880    7.4460 C   0  0  0  0  0  0  0  0  0  0  0  0
   51.2200   29.9730    5.7570 C   0  0  0  0  0  0  0  0  0  0  0  0
   49.1310   20.5880    8.1230 C   0  0  0  0  0  0  0  0  0  0  0  0
   52.5940   29.9460    5.4730 C   0  0  0  0  0  0  0  0  0  0  0  0
   48.7120   19.3750    8.5900 O   0  0  0  0  0  0  0  0  0  0  0  0
   53.5000   29.4380    6.4020 C   0  0  0  0  0  0  0  0  0  0  0  0
   53.0890   30.4220    4.2440 C   0  0  0  0  0  0  0  0  0  0  0  0
   47.4570   19.3060    9.2470 C   0  0  0  0  0  0  0  0  0  0  0  0
   54.8650   29.4040    6.1180 C   0  0  0  0  0  0  0  0  0  0  0  0
   54.4600   30.3840    3.9660 C   0  0  0  0  0  0  0  0  0  0  0  0
   55.3510   29.8740    4.9050 C   0  0  0  0  0  0  0  0  0  0  0  0
  1  2  1  0
  2  3  1  0
  1  4  1  0
  4  5  1  0
  3  6  2  0
  3  7  1  0
  5  8  1  0
  6  9  1  0
  7 10  2  0
  8 11  1  0
  9 12  2  0
 10 12  1  0
 11 13  1  0
 12 14  1  0
 13 15  2  0
 13 16  1  0
 14 17  1  0
 15 18  1  0
 16 19  2  0
 18 20  2  0
 19 20  1  0
M  END
>  <ref_pdb>  (89) 
H-SOS3-x1629_00_Frag_6-SOS3-x1131_00_Frag_2.pdb

>  <ref_mols>  (89) 
x1131_1A,x1629_1A

>  <ddG_score>  (89) 
-10.24794086488976

>  <fragmensteinOld_score>  (89) 
-1.8296418525459655

>  <LE_score>  (89) 
-0.512397043244488

>  <comRMSD_score>  (89) 
1.6199463204319864

>  <fragmensteinNew_score>  (89) 
1.6690089422704295

>  <aLogP_score>  (89) 
3.714000000000002

>  <hbondD_score>  (89) 
1

>  <hbondA_score>  (89) 
3

>  <polarSurfaceArea_score>  (89) 
30.49

>  <rotableBonds_score>  (89) 
8

>  <QED_score>  (89) 
0.5861633718749696

>  <energyPoseVsEnsemble_score>  (89) 
2.029180221894693

>  <sucos_score>  (89) 
0.9818035842683522

>  <interactions_conservation_score>  (89) 
0.9354143466934853

>  <interactions_novelty_score>  (89) 
0.16666666666666666

>  <SAscore_score>  (89) 
1.7948928488464588

>  <SCScore_score>  (89) 
2.5385868964742935

>  <original SMILES>  (89) 
COc1ccc(NCOCCCc2ccccc2)cc1

>  <CAR_friendly>  (89) 
1

$$$$
88_SOS3-x1629_00_Frag_6-SOS3-x1131_00_Frag
     RDKit          3D

 21 22  0  0  0  0  0  0  0  0999 V2000
   49.0520   25.2990    6.4400 C   0  0  0  0  0  0  0  0  0  0  0  0
   50.1430   24.4270    6.7820 N   0  0  0  0  0  0  0  0  0  0  0  0
   49.8080   23.0920    7.1990 C   0  0  0  0  0  0  0  0  0  0  0  0
   49.3340   25.8470    5.1750 O   0  0  0  0  0  0  0  0  0  0  0  0
   50.3860   26.7430    5.3560 C   0  0  0  0  0  0  0  0  0  0  0  0
   48.4820   22.8660    7.9040 C   0  0  0  0  0  0  0  0  0  0  0  0
   50.6560   22.0160    6.9710 C   0  0  0  0  0  0  0  0  0  0  0  0
   50.0780   28.0570    4.8710 N   0  0  0  0  0  0  0  0  0  0  0  0
   48.1630   21.5810    8.2930 C   0  0  0  0  0  0  0  0  0  0  0  0
   50.2710   20.7380    7.3900 C   0  0  0  0  0  0  0  0  0  0  0  0
   50.4840   28.7960    6.0310 C   0  0  0  0  0  0  0  0  0  0  0  0
   49.0420   20.5310    8.0360 C   0  0  0  0  0  0  0  0  0  0  0  0
   51.2180   30.0580    5.7540 C   0  0  0  0  0  0  0  0  0  0  0  0
   48.5910   19.3230    8.4630 O   0  0  0  0  0  0  0  0  0  0  0  0
   52.5840   29.9780    5.4370 C   0  0  0  0  0  0  0  0  0  0  0  0
   47.4160   19.2920    9.2530 C   0  0  0  0  0  0  0  0  0  0  0  0
   53.4870   29.4270    6.3430 C   0  0  0  0  0  0  0  0  0  0  0  0
   53.0810   30.4480    4.2070 C   0  0  0  0  0  0  0  0  0  0  0  0
   54.8450   29.3450    6.0420 C   0  0  0  0  0  0  0  0  0  0  0  0
   54.4490   30.3640    3.9100 C   0  0  0  0  0  0  0  0  0  0  0  0
   55.3340   29.8120    4.8290 C   0  0  0  0  0  0  0  0  0  0  0  0
  1  2  1  0
  2  3  1  0
  1  4  1  0
  4  5  1  0
  3  6  2  0
  3  7  1  0
  5  8  1  0
  6  9  1  0
  7 10  2  0
  8 11  1  0
  9 12  2  0
 10 12  1  0
 11 13  1  0
 12 14  1  0
 13 15  1  0
 14 16  1  0
 15 17  2  0
 15 18  1  0
 17 19  1  0
 18 20  2  0
 19 21  2  0
 20 21  1  0
M  END
>  <ref_pdb>  (90) 
H-SOS3-x1629_00_Frag_6-SOS3-x1131_00_Frag_4.pdb

>  <ref_mols>  (90) 
x1131_1A,x1629_1A

>  <ddG_score>  (90) 
-8.377329187985092

>  <fragmensteinOld_score>  (90) 
-1.5963986922534446

>  <LE_score>  (90) 
-0.39892043752309964

>  <comRMSD_score>  (90) 
1.5790671453435736

>  <fragmensteinNew_score>  (90) 
1.5896255325361626

>  <aLogP_score>  (90) 
2.8710000000000013

>  <hbondD_score>  (90) 
2

>  <hbondA_score>  (90) 
4

>  <polarSurfaceArea_score>  (90) 
42.519999999999996

>  <rotableBonds_score>  (90) 
9

>  <QED_score>  (90) 
0.5493064227474814

>  <energyPoseVsEnsemble_score>  (90) 
2.1350962339430466

>  <sucos_score>  (90) 
0.9433268224893854

>  <interactions_conservation_score>  (90) 
0.9258200997725514

>  <interactions_novelty_score>  (90) 
0.25

>  <SAscore_score>  (90) 
2.063282826387505

>  <SCScore_score>  (90) 
2.806983718873842

>  <original SMILES>  (90) 
COc1ccc(NCOCNCCc2ccccc2)cc1

>  <CAR_friendly>  (90) 
1

$$$$
89_SOS3-x1629_00_Frag_1-SOS3-x1131_01_Frag
     RDKit          3D

 23 24  0  0  0  0  0  0  0  0999 V2000
   49.2370   25.5770    6.5810 C   0  0  0  0  0  0  0  0  0  0  0  0
   49.6660   26.5920    5.5590 C   0  0  0  0  0  0  0  0  0  0  0  0
   49.8620   27.9170    5.9810 C   0  0  0  0  0  0  0  0  0  0  0  0
   50.1990   24.7370    7.1880 O   0  0  0  0  0  0  0  0  0  0  0  0
   49.8770   26.2900    4.2200 C   0  0  0  0  0  0  0  0  0  0  0  0
   49.6250   23.5240    7.5780 C   0  0  0  0  0  0  0  0  0  0  0  0
   49.7150   25.0200    3.7320 O   0  0  0  0  0  0  0  0  0  0  0  0
   50.2640   27.2770    3.3140 C   0  0  0  0  0  0  0  0  0  0  0  0
   50.2540   28.9080    5.0820 C   0  0  0  0  0  0  0  0  0  0  0  0
   50.3420   22.7670    8.5690 N   0  0  0  0  0  0  0  0  0  0  0  0
   50.4520   28.5890    3.7430 C   0  0  0  0  0  0  0  0  0  0  0  0
   49.8690   21.3920    8.2570 S   0  0  2  0  0  0  0  0  0  0  0  0
   50.9720   20.7480    7.0400 C   0  0  0  0  0  0  0  0  0  0  0  0
   48.5210   21.1630    7.8190 O   0  0  0  0  0  0  0  0  0  0  0  0
   49.8590   20.4880    9.6560 N   0  0  0  0  0  0  0  0  0  0  0  0
   48.9430   19.3610    9.6560 C   0  0  0  0  0  0  0  0  0  0  0  0
   49.6490   18.1410    9.0600 C   0  0  0  0  0  0  0  0  0  0  0  0
   48.9290   17.5760    7.8550 C   0  0  0  0  0  0  0  0  0  0  0  0
   47.7540   16.8300    8.0200 C   0  0  0  0  0  0  0  0  0  0  0  0
   49.4200   17.7850    6.5550 C   0  0  0  0  0  0  0  0  0  0  0  0
   47.0890   16.3030    6.9140 C   0  0  0  0  0  0  0  0  0  0  0  0
   48.7500   17.2560    5.4500 C   0  0  0  0  0  0  0  0  0  0  0  0
   47.5840   16.5150    5.6300 C   0  0  0  0  0  0  0  0  0  0  0  0
  1  2  1  0
  2  3  2  0
  1  4  1  0
  2  5  1  0
  4  6  1  0
  5  7  1  0
  5  8  2  0
  3  9  1  0
  6 10  1  0
  8 11  1  0
  9 11  2  0
 10 12  2  0
 12 13  1  6
 12 14  2  0
 12 15  1  0
 15 16  1  0
 16 17  1  0
 17 18  1  0
 18 19  2  0
 18 20  1  0
 19 21  1  0
 20 22  2  0
 21 23  2  0
 22 23  1  0
M  END
>  <ref_pdb>  (91) 
H-SOS3-x1629_00_Frag_1-SOS3-x1131_01_Frag_0.pdb

>  <ref_mols>  (91) 
x1131_0A,x1629_1A

>  <ddG_score>  (91) 
-9.068128147625458

>  <fragmensteinOld_score>  (91) 
-2.436555934387412

>  <LE_score>  (91) 
-0.3942664412011069

>  <comRMSD_score>  (91) 
1.0770696951376795

>  <fragmensteinNew_score>  (91) 
0.4551436738539657

>  <aLogP_score>  (91) 
2.711400000000001

>  <hbondD_score>  (91) 
2

>  <hbondA_score>  (91) 
3

>  <polarSurfaceArea_score>  (91) 
70.92

>  <rotableBonds_score>  (91) 
8

>  <QED_score>  (91) 
0.7292828074436339

>  <energyPoseVsEnsemble_score>  (91) 
2.621313032551864

>  <sucos_score>  (91) 
0.9176186433304161

>  <interactions_conservation_score>  (91) 
0.8944271909999159

>  <interactions_novelty_score>  (91) 
0.0

>  <SAscore_score>  (91) 
3.075019766970116

>  <SCScore_score>  (91) 
3.5997998346266638

>  <original SMILES>  (91) 
C[S@](=O)(=NCOCc1ccccc1O)NCCc1ccccc1

>  <CAR_friendly>  (91) 
0

$$$$
90_SOS3-x1629_00_Frag_1-SOS3-x1131_01_Frag
     RDKit          3D

 15 15  0  0  0  0  0  0  0  0999 V2000
   49.2090   25.5520    6.5650 C   0  0  0  0  0  0  0  0  0  0  0  0
   49.6340   26.5800    5.5460 C   0  0  0  0  0  0  0  0  0  0  0  0
   49.8080   27.9070    5.9790 C   0  0  0  0  0  0  0  0  0  0  0  0
   50.1910   24.8150    7.2630 O   0  0  0  0  0  0  0  0  0  0  0  0
   49.8600   26.2850    4.2030 C   0  0  0  0  0  0  0  0  0  0  0  0
   49.8080   23.4800    7.5250 C   0  0  0  0  0  0  0  0  0  0  0  0
   49.7210   25.0110    3.7050 O   0  0  0  0  0  0  0  0  0  0  0  0
   50.2420   27.2840    3.3070 C   0  0  0  0  0  0  0  0  0  0  0  0
   50.1950   28.9110    5.0870 C   0  0  0  0  0  0  0  0  0  0  0  0
   50.3080   22.7330    8.6810 N   0  0  0  0  0  0  0  0  0  0  0  0
   50.4080   28.5950    3.7500 C   0  0  0  0  0  0  0  0  0  0  0  0
   49.7740   21.3450    8.4230 S   0  0  2  0  0  0  0  0  0  0  0  0
   50.2270   20.6050    9.8450 N   0  0  0  0  0  0  0  0  0  0  0  0
   50.8220   20.7330    7.1350 C   0  0  0  0  0  0  0  0  0  0  0  0
   48.4340   21.2100    7.9190 O   0  0  0  0  0  0  0  0  0  0  0  0
  1  2  1  0
  2  3  2  0
  1  4  1  0
  2  5  1  0
  4  6  1  0
  5  7  1  0
  5  8  2  0
  3  9  1  0
  6 10  1  0
  8 11  1  0
  9 11  2  0
 10 12  2  0
 12 13  1  0
 12 14  1  6
 12 15  2  0
M  END
>  <ref_pdb>  (92) 
H-SOS3-x1629_00_Frag_1-SOS3-x1131_01_Frag_1.pdb

>  <ref_mols>  (92) 
x1131_0A,x1629_1A

>  <ddG_score>  (92) 
-8.615383293530499

>  <fragmensteinOld_score>  (92) 
-2.2931569086710426

>  <LE_score>  (92) 
-0.5743588862353666

>  <comRMSD_score>  (92) 
0.3299197500350569

>  <fragmensteinNew_score>  (92) 
0.09270494226926052

>  <aLogP_score>  (92) 
0.8378000000000001

>  <hbondD_score>  (92) 
2

>  <hbondA_score>  (92) 
3

>  <polarSurfaceArea_score>  (92) 
84.91

>  <rotableBonds_score>  (92) 
4

>  <QED_score>  (92) 
0.7514334165166703

>  <energyPoseVsEnsemble_score>  (92) 
4.91562635085886

>  <sucos_score>  (92) 
0.8052225602501005

>  <interactions_conservation_score>  (92) 
0.8

>  <interactions_novelty_score>  (92) 
0.0

>  <SAscore_score>  (92) 
3.419508234751418

>  <SCScore_score>  (92) 
2.8138419732929716

>  <original SMILES>  (92) 
C[S@](N)(=O)=NCOCc1ccccc1O

>  <CAR_friendly>  (92) 
0

$$$$
91_SOS3-x1629_00_Frag_1-SOS3-x1131_01_Frag
     RDKit          3D

 17 17  0  0  0  0  0  0  0  0999 V2000
   49.2720   25.5650    6.5800 C   0  0  0  0  0  0  0  0  0  0  0  0
   49.6690   26.5900    5.5510 C   0  0  0  0  0  0  0  0  0  0  0  0
   49.8400   27.9180    5.9800 C   0  0  0  0  0  0  0  0  0  0  0  0
   50.2870   24.8530    7.2740 O   0  0  0  0  0  0  0  0  0  0  0  0
   49.8750   26.2930    4.2050 C   0  0  0  0  0  0  0  0  0  0  0  0
   49.7970   23.5580    7.5650 C   0  0  0  0  0  0  0  0  0  0  0  0
   49.7340   25.0200    3.7120 O   0  0  0  0  0  0  0  0  0  0  0  0
   50.2380   27.2960    3.3010 C   0  0  0  0  0  0  0  0  0  0  0  0
   50.2060   28.9230    5.0810 C   0  0  0  0  0  0  0  0  0  0  0  0
   50.3330   22.7640    8.6530 N   0  0  0  0  0  0  0  0  0  0  0  0
   50.4020   28.6070    3.7420 C   0  0  0  0  0  0  0  0  0  0  0  0
   49.7340   21.4270    8.3070 S   0  0  2  0  0  0  0  0  0  0  0  0
   49.9570   20.5410    9.6880 N   0  0  0  0  0  0  0  0  0  0  0  0
   50.8500   20.7820    7.0940 C   0  0  0  0  0  0  0  0  0  0  0  0
   48.4320   21.4290    7.7100 O   0  0  0  0  0  0  0  0  0  0  0  0
   49.0820   19.3880    9.7910 C   0  0  0  0  0  0  0  0  0  0  0  0
   49.7080   18.1600    9.1510 C   0  0  0  0  0  0  0  0  0  0  0  0
  1  2  1  0
  2  3  2  0
  1  4  1  0
  2  5  1  0
  4  6  1  0
  5  7  1  0
  5  8  2  0
  3  9  1  0
  6 10  1  0
  8 11  1  0
  9 11  2  0
 10 12  2  0
 12 13  1  0
 12 14  1  6
 12 15  2  0
 13 16  1  0
 16 17  1  0
M  END
>  <ref_pdb>  (93) 
H-SOS3-x1629_00_Frag_1-SOS3-x1131_01_Frag_6.pdb

>  <ref_mols>  (93) 
x1131_0A,x1629_1A

>  <ddG_score>  (93) 
-9.129609770347317

>  <fragmensteinOld_score>  (93) 
-2.646860081745556

>  <LE_score>  (93) 
-0.5370358688439598

>  <comRMSD_score>  (93) 
0.2790618723239075

>  <fragmensteinNew_score>  (93) 
-0.48259926971240086

>  <aLogP_score>  (93) 
1.4886000000000001

>  <hbondD_score>  (93) 
2

>  <hbondA_score>  (93) 
3

>  <polarSurfaceArea_score>  (93) 
70.92

>  <rotableBonds_score>  (93) 
6

>  <QED_score>  (93) 
0.759366540666335

>  <energyPoseVsEnsemble_score>  (93) 
4.5153960564634295

>  <sucos_score>  (93) 
0.838903783642511

>  <interactions_conservation_score>  (93) 
0.8

>  <interactions_novelty_score>  (93) 
0.0

>  <SAscore_score>  (93) 
3.4755712894211266

>  <SCScore_score>  (93) 
3.0655680421004594

>  <original SMILES>  (93) 
CCN[S@@](C)(=O)=NCOCc1ccccc1O

>  <CAR_friendly>  (93) 
0

$$$$
92_SOS3-x1154_00_Frag_0-SOS3-x1385_00_Frag
     RDKit          3D

 26 28  0  0  0  0  0  0  0  0999 V2000
   50.3310   25.3540    2.9490 F   0  0  0  0  0  0  0  0  0  0  0  0
   50.5030   26.2460    3.9290 C   0  0  0  0  0  0  0  0  0  0  0  0
   50.3370   27.6010    3.6490 C   0  0  0  0  0  0  0  0  0  0  0  0
   50.8430   25.8140    5.2130 C   0  0  0  0  0  0  0  0  0  0  0  0
   50.9870   24.4000    5.4340 N   0  0  0  0  0  0  0  0  0  0  0  0
   51.0170   26.7320    6.1890 N   0  0  0  0  0  0  0  0  0  0  0  0
   50.5140   28.5320    4.6650 C   0  0  0  0  0  0  0  0  0  0  0  0
   51.6070   23.7850    6.6280 C   0  0  0  0  0  0  0  0  0  0  0  0
   50.8540   28.0490    5.9120 C   0  0  0  0  0  0  0  0  0  0  0  0
   50.6560   22.9770    7.5930 C   0  0  0  0  0  0  0  0  0  0  0  0
   51.2700   22.9450    9.0090 C   0  0  0  0  0  0  0  0  0  0  0  0
   49.1730   23.4700    7.6950 C   0  0  0  0  0  0  0  0  0  0  0  0
   50.2400   22.6420   10.0990 C   0  0  0  0  0  0  0  0  0  0  0  0
   48.2730   22.7320    8.6900 C   0  0  0  0  0  0  0  0  0  0  0  0
   49.0460   21.9320    9.6210 N   0  0  0  0  0  0  0  0  0  0  0  0
   49.2030   20.5030    9.3320 C   0  0  0  0  0  0  0  0  0  0  0  0
   50.1960   19.7890   10.2380 C   0  0  0  0  0  0  0  0  0  0  0  0
   49.9560   18.3060   10.3400 C   0  0  0  0  0  0  0  0  0  0  0  0
   49.3520   17.8700   11.2970 O   0  0  0  0  0  0  0  0  0  0  0  0
   50.4940   17.5420    9.3250 N   0  0  0  0  0  0  0  0  0  0  0  0
   50.5710   17.7150    7.9250 C   0  0  0  0  0  0  0  0  0  0  0  0
   49.3910   17.7540    7.1550 C   0  0  0  0  0  0  0  0  0  0  0  0
   51.7740   17.8380    7.2430 C   0  0  0  0  0  0  0  0  0  0  0  0
   49.4760   17.8990    5.7690 C   0  0  0  0  0  0  0  0  0  0  0  0
   51.8790   17.9780    5.8940 N   0  0  0  0  0  0  0  0  0  0  0  0
   50.7300   18.0040    5.1930 C   0  0  0  0  0  0  0  0  0  0  0  0
  1  2  1  0
  2  3  2  0
  2  4  1  0
  4  5  1  0
  4  6  2  0
  3  7  1  0
  5  8  1  0
  6  9  1  0
  7  9  2  0
 10  8  1  0
 10 11  1  0
 10 12  1  0
 11 13  1  0
 12 14  1  0
 13 15  1  0
 14 15  1  0
 15 16  1  0
 16 17  1  0
 17 18  1  0
 18 19  2  0
 18 20  1  0
 20 21  1  0
 21 22  2  0
 21 23  1  0
 22 24  1  0
 23 25  2  0
 24 26  2  0
 25 26  1  0
M  END
>  <ref_pdb>  (94) 
H-SOS3-x1154_00_Frag_0-SOS3-x1385_00_Frag_4.pdb

>  <ref_mols>  (94) 
x1154_2A,x1385_0A

>  <ddG_score>  (94) 
-8.75270196074619

>  <fragmensteinOld_score>  (94) 
-3.5199452443029267

>  <LE_score>  (94) 
-0.3366423831056227

>  <comRMSD_score>  (94) 
0.230595147846311

>  <fragmensteinNew_score>  (94) 
-1.2754340090787717

>  <aLogP_score>  (94) 
2.7684000000000006

>  <hbondD_score>  (94) 
2

>  <hbondA_score>  (94) 
5

>  <polarSurfaceArea_score>  (94) 
70.15

>  <rotableBonds_score>  (94) 
7

>  <QED_score>  (94) 
0.7973617380570177

>  <energyPoseVsEnsemble_score>  (94) 
1.8229191205915092

>  <sucos_score>  (94) 
0.8979290261684958

>  <interactions_conservation_score>  (94) 
0.0

>  <interactions_novelty_score>  (94) 
0.14285714285714285

>  <SAscore_score>  (94) 
2.2634051979656853

>  <SCScore_score>  (94) 
4.028980365949955

>  <original SMILES>  (94) 
O=C(CCN1CCC(CNc2ncccc2F)CC1)Nc1cccnc1

>  <CAR_friendly>  (94) 
0

$$$$
93_SOS3-x1154_00_Frag_1-SOS3-x1385_00_Frag
     RDKit          3D

 18 19  0  0  0  0  0  0  0  0999 V2000
   51.5620   23.8530    6.8230 C   0  0  0  0  0  0  0  0  0  0  0  0
   50.6960   23.0190    7.7590 C   0  0  0  0  0  0  0  0  0  0  0  0
   51.1310   23.1130    9.0720 C   0  0  0  0  0  0  0  0  0  0  0  0
   49.3530   23.3060    7.5260 C   0  0  0  0  0  0  0  0  0  0  0  0
   48.4770   22.5060    8.4780 C   0  0  0  0  0  0  0  0  0  0  0  0
   50.5090   22.2960   10.0030 C   0  0  0  0  0  0  0  0  0  0  0  0
   49.1690   21.8210    9.5890 N   0  0  0  0  0  0  0  0  0  0  0  0
   49.1190   20.3520    9.4700 C   0  0  0  0  0  0  0  0  0  0  0  0
   50.0950   19.7090   10.2340 C   0  0  0  0  0  0  0  0  0  0  0  0
   50.0650   18.1980   10.2160 C   0  0  0  0  0  0  0  0  0  0  0  0
   49.5170   17.5590   11.0660 O   0  0  0  0  0  0  0  0  0  0  0  0
   50.7510   17.6220    9.1760 N   0  0  0  0  0  0  0  0  0  0  0  0
   50.5910   17.7510    7.7840 C   0  0  0  0  0  0  0  0  0  0  0  0
   49.3970   17.7950    7.0650 C   0  0  0  0  0  0  0  0  0  0  0  0
   51.7680   17.8310    7.0570 C   0  0  0  0  0  0  0  0  0  0  0  0
   49.4490   17.9060    5.6710 C   0  0  0  0  0  0  0  0  0  0  0  0
   51.8560   17.9410    5.7170 N   0  0  0  0  0  0  0  0  0  0  0  0
   50.6870   17.9740    5.0530 C   0  0  0  0  0  0  0  0  0  0  0  0
  2  1  1  0
  2  3  1  0
  2  4  1  0
  4  5  1  0
  3  6  1  0
  5  7  1  0
  6  7  1  0
  7  8  1  0
  8  9  1  0
  9 10  1  0
 10 11  2  0
 10 12  1  0
 12 13  1  0
 13 14  2  0
 13 15  1  0
 14 16  1  0
 15 17  2  0
 16 18  2  0
 17 18  1  0
M  END
>  <ref_pdb>  (95) 
H-SOS3-x1154_00_Frag_1-SOS3-x1385_00_Frag_4.pdb

>  <ref_mols>  (95) 
x1154_2A,x1385_0A

>  <ddG_score>  (95) 
-7.379923810882602

>  <fragmensteinOld_score>  (95) 
-2.368891112443406

>  <LE_score>  (95) 
-0.40999576727125564

>  <comRMSD_score>  (95) 
0.30709364973311426

>  <fragmensteinNew_score>  (95) 
-0.5202304399295666

>  <aLogP_score>  (95) 
2.1421

>  <hbondD_score>  (95) 
1

>  <hbondA_score>  (95) 
3

>  <polarSurfaceArea_score>  (95) 
45.230000000000004

>  <rotableBonds_score>  (95) 
4

>  <QED_score>  (95) 
0.8863164019600047

>  <energyPoseVsEnsemble_score>  (95) 
2.8944830482957737

>  <sucos_score>  (95) 
0.7869259060462478

>  <interactions_conservation_score>  (95) 
1.0

>  <interactions_novelty_score>  (95) 
0.16666666666666666

>  <SAscore_score>  (95) 
1.86765625439428

>  <SCScore_score>  (95) 
3.4512617576976146

>  <original SMILES>  (95) 
CC1CCN(CCC(=O)Nc2cccnc2)CC1

>  <CAR_friendly>  (95) 
1

$$$$
94_SOS3-x1154_00_Frag_2-SOS3-x1385_00_Frag
     RDKit          3D

 26 28  0  0  0  0  0  0  0  0999 V2000
   51.1210   24.6090    5.2940 N   0  0  0  0  0  0  0  0  0  0  0  0
   50.9000   26.0210    5.0920 C   0  0  0  0  0  0  0  0  0  0  0  0
   50.5280   26.4600    3.8410 C   0  0  0  0  0  0  0  0  0  0  0  0
   51.1790   24.2310    6.6790 C   0  0  0  0  0  0  0  0  0  0  0  0
   51.0520   26.8830    6.1080 N   0  0  0  0  0  0  0  0  0  0  0  0
   49.7950   23.9420    7.1460 C   0  0  0  0  0  0  0  0  0  0  0  0
   50.3880   25.5800    2.8440 F   0  0  0  0  0  0  0  0  0  0  0  0
   50.8300   28.1920    5.8800 C   0  0  0  0  0  0  0  0  0  0  0  0
   50.2990   27.8030    3.6070 C   0  0  0  0  0  0  0  0  0  0  0  0
   49.6470   22.7430    7.9500 C   0  0  0  0  0  0  0  0  0  0  0  0
   50.4460   28.7270    4.6440 C   0  0  0  0  0  0  0  0  0  0  0  0
   50.7150   22.1170    8.5880 C   0  0  0  0  0  0  0  0  0  0  0  0
   48.3660   22.2700    8.0100 C   0  0  0  0  0  0  0  0  0  0  0  0
   50.4430   20.9620    9.2840 C   0  0  0  0  0  0  0  0  0  0  0  0
   48.1110   21.1300    8.6970 C   0  0  0  0  0  0  0  0  0  0  0  0
   49.1380   20.4720    9.3260 C   0  0  0  0  0  0  0  0  0  0  0  0
   48.9770   19.3070   10.0230 N   0  0  0  0  0  0  0  0  0  0  0  0
   50.0370   18.5760   10.4510 C   0  0  0  0  0  0  0  0  0  0  0  0
   50.5070   18.6850   11.5590 O   0  0  0  0  0  0  0  0  0  0  0  0
   50.5000   17.7030    9.4670 N   0  0  0  0  0  0  0  0  0  0  0  0
   50.4620   17.8000    8.1190 C   0  0  0  0  0  0  0  0  0  0  0  0
   51.7550   17.8820    7.3070 C   0  0  0  0  0  0  0  0  0  0  0  0
   49.2180   17.8290    7.2010 C   0  0  0  0  0  0  0  0  0  0  0  0
   51.9000   17.9610    5.9610 N   0  0  0  0  0  0  0  0  0  0  0  0
   49.4810   17.9220    5.6910 C   0  0  0  0  0  0  0  0  0  0  0  0
   50.7790   17.9780    5.2040 C   0  0  0  0  0  0  0  0  0  0  0  0
  1  2  1  0
  2  3  2  0
  1  4  1  0
  2  5  1  0
  4  6  1  0
  3  7  1  0
  5  8  2  0
  3  9  1  0
  6 10  1  0
  8 11  1  0
  9 11  2  0
 10 12  2  0
 10 13  1  0
 12 14  1  0
 13 15  2  0
 14 16  2  0
 15 16  1  0
 16 17  1  0
 17 18  1  0
 18 19  2  0
 18 20  1  0
 20 21  1  0
 21 22  2  0
 21 23  1  0
 22 24  1  0
 23 25  2  0
 24 26  2  0
 25 26  1  0
M  END
>  <ref_pdb>  (96) 
H-SOS3-x1154_00_Frag_2-SOS3-x1385_00_Frag_0.pdb

>  <ref_mols>  (96) 
x1154_2A,x1385_0A

>  <ddG_score>  (96) 
-10.229453549826317

>  <fragmensteinOld_score>  (96) 
-3.684029888020297

>  <LE_score>  (96) 
-0.39344052114716604

>  <comRMSD_score>  (96) 
0.3618608219449663

>  <fragmensteinNew_score>  (96) 
-1.0697007989230043

>  <aLogP_score>  (96) 
3.9143000000000017

>  <hbondD_score>  (96) 
3

>  <hbondA_score>  (96) 
4

>  <polarSurfaceArea_score>  (96) 
78.94

>  <rotableBonds_score>  (96) 
6

>  <QED_score>  (96) 
0.6289604744890657

>  <energyPoseVsEnsemble_score>  (96) 
3.198019288142376

>  <sucos_score>  (96) 
0.9040789888847931

>  <interactions_conservation_score>  (96) 
0.8944271909999159

>  <interactions_novelty_score>  (96) 
0.0

>  <SAscore_score>  (96) 
2.06781005626528

>  <SCScore_score>  (96) 
3.7409120179660906

>  <original SMILES>  (96) 
O=C(Nc1ccc(CCNc2ncccc2F)cc1)Nc1cccnc1

>  <CAR_friendly>  (96) 
0

$$$$
95_SOS3-x1154_00_Frag_2-SOS3-x1385_00_Frag
     RDKit          3D

 19 20  0  0  0  0  0  0  0  0999 V2000
   51.4530   24.6830    5.3820 N   0  0  0  0  0  0  0  0  0  0  0  0
   51.0900   26.0600    5.1300 C   0  0  0  0  0  0  0  0  0  0  0  0
   50.6280   26.4340    3.8820 C   0  0  0  0  0  0  0  0  0  0  0  0
   51.2280   24.2520    6.7540 C   0  0  0  0  0  0  0  0  0  0  0  0
   51.2080   26.9590    6.1170 N   0  0  0  0  0  0  0  0  0  0  0  0
   49.9410   23.8600    6.9360 C   0  0  0  0  0  0  0  0  0  0  0  0
   50.5140   25.5230    2.9070 F   0  0  0  0  0  0  0  0  0  0  0  0
   50.8740   28.2360    5.8710 C   0  0  0  0  0  0  0  0  0  0  0  0
   50.2850   27.7500    3.6310 C   0  0  0  0  0  0  0  0  0  0  0  0
   49.8050   22.7340    7.8570 C   0  0  0  0  0  0  0  0  0  0  0  0
   50.4010   28.7120    4.6390 C   0  0  0  0  0  0  0  0  0  0  0  0
   48.4050   22.2160    8.0000 C   0  0  0  0  0  0  0  0  0  0  0  0
   50.8560   22.1560    8.5440 C   0  0  0  0  0  0  0  0  0  0  0  0
   48.2110   21.1480    8.8030 C   0  0  0  0  0  0  0  0  0  0  0  0
   50.5870   21.0680    9.3530 C   0  0  0  0  0  0  0  0  0  0  0  0
   49.2840   20.5810    9.4650 C   0  0  0  0  0  0  0  0  0  0  0  0
   49.0040   19.5010   10.2420 N   0  0  0  0  0  0  0  0  0  0  0  0
   49.9640   18.6260   10.5620 C   0  0  0  0  0  0  0  0  0  0  0  0
   50.6070   18.6010   11.5820 O   0  0  0  0  0  0  0  0  0  0  0  0
  1  2  1  0
  2  3  2  0
  1  4  1  0
  2  5  1  0
  4  6  1  0
  3  7  1  0
  5  8  2  0
  3  9  1  0
  6 10  1  0
  8 11  1  0
  9 11  2  0
 10 12  2  0
 10 13  1  0
 12 14  1  0
 13 15  2  0
 14 16  2  0
 15 16  1  0
 16 17  1  0
 17 18  1  0
 18 19  2  0
M  END
>  <ref_pdb>  (97) 
H-SOS3-x1154_00_Frag_2-SOS3-x1385_00_Frag_2.pdb

>  <ref_mols>  (97) 
x1154_2A,x1385_0A

>  <ddG_score>  (97) 
-7.152250674723768

>  <fragmensteinOld_score>  (97) 
-2.283947935771361

>  <LE_score>  (97) 
-0.37643424603809306

>  <comRMSD_score>  (97) 
0.44650219917339257

>  <fragmensteinNew_score>  (97) 
-0.393967752245002

>  <aLogP_score>  (97) 
2.4436

>  <hbondD_score>  (97) 
2

>  <hbondA_score>  (97) 
3

>  <polarSurfaceArea_score>  (97) 
54.02

>  <rotableBonds_score>  (97) 
6

>  <QED_score>  (97) 
0.7833679238111582

>  <energyPoseVsEnsemble_score>  (97) 
2.879971501150826

>  <sucos_score>  (97) 
0.8497544559013116

>  <interactions_conservation_score>  (97) 
0.7302967433402215

>  <interactions_novelty_score>  (97) 
0.25

>  <SAscore_score>  (97) 
2.148153838629412

>  <SCScore_score>  (97) 
3.3098956470194905

>  <original SMILES>  (97) 
O=CNc1ccc(CCNc2ncccc2F)cc1

>  <CAR_friendly>  (97) 
0

$$$$
96_SOS3-x1154_00_Frag_2-SOS3-x1385_00_Frag
     RDKit          3D

 17 18  0  0  0  0  0  0  0  0999 V2000
   51.0210   24.5620    5.3310 N   0  0  0  0  0  0  0  0  0  0  0  0
   50.8300   25.9840    5.1230 C   0  0  0  0  0  0  0  0  0  0  0  0
   50.5040   26.4200    3.8580 C   0  0  0  0  0  0  0  0  0  0  0  0
   51.0720   24.2210    6.7280 C   0  0  0  0  0  0  0  0  0  0  0  0
   50.9670   26.8510    6.1370 N   0  0  0  0  0  0  0  0  0  0  0  0
   49.7050   23.7530    7.1140 C   0  0  0  0  0  0  0  0  0  0  0  0
   50.3780   25.5390    2.8610 F   0  0  0  0  0  0  0  0  0  0  0  0
   50.7760   28.1600    5.8940 C   0  0  0  0  0  0  0  0  0  0  0  0
   50.3050   27.7630    3.6100 C   0  0  0  0  0  0  0  0  0  0  0  0
   49.6610   22.5830    7.9980 C   0  0  0  0  0  0  0  0  0  0  0  0
   50.4390   28.6930    4.6420 C   0  0  0  0  0  0  0  0  0  0  0  0
   48.4160   22.0670    8.1430 C   0  0  0  0  0  0  0  0  0  0  0  0
   50.7790   22.0210    8.6310 C   0  0  0  0  0  0  0  0  0  0  0  0
   48.2420   20.9480    8.9120 C   0  0  0  0  0  0  0  0  0  0  0  0
   50.5820   20.8910    9.4050 C   0  0  0  0  0  0  0  0  0  0  0  0
   49.3110   20.3360    9.5500 C   0  0  0  0  0  0  0  0  0  0  0  0
   49.1160   19.1990   10.3080 N   0  0  0  0  0  0  0  0  0  0  0  0
  1  2  1  0
  2  3  2  0
  1  4  1  0
  2  5  1  0
  4  6  1  0
  3  7  1  0
  5  8  2  0
  3  9  1  0
  6 10  1  0
  8 11  1  0
  9 11  2  0
 10 12  2  0
 10 13  1  0
 12 14  1  0
 13 15  2  0
 14 16  2  0
 15 16  1  0
 16 17  1  0
M  END
>  <ref_pdb>  (98) 
H-SOS3-x1154_00_Frag_2-SOS3-x1385_00_Frag_3.pdb

>  <ref_mols>  (98) 
x1154_2A,x1385_0A

>  <ddG_score>  (98) 
-6.337172939174356

>  <fragmensteinOld_score>  (98) 
-1.9808929840530083

>  <LE_score>  (98) 
-0.3727748787749621

>  <comRMSD_score>  (98) 
0.3865416037818629

>  <fragmensteinNew_score>  (98) 
-0.10337881672749227

>  <aLogP_score>  (98) 
2.4574999999999996

>  <hbondD_score>  (98) 
2

>  <hbondA_score>  (98) 
3

>  <polarSurfaceArea_score>  (98) 
50.94

>  <rotableBonds_score>  (98) 
4

>  <QED_score>  (98) 
0.7945874724399807

>  <energyPoseVsEnsemble_score>  (98) 
1.8029455856059764

>  <sucos_score>  (98) 
0.903648796849025

>  <interactions_conservation_score>  (98) 
0.7302967433402215

>  <interactions_novelty_score>  (98) 
0.14285714285714285

>  <SAscore_score>  (98) 
1.949001275718107

>  <SCScore_score>  (98) 
2.744364257837259

>  <original SMILES>  (98) 
Nc1ccc(CCNc2ncccc2F)cc1

>  <CAR_friendly>  (98) 
0

$$$$
97_SOS3-x1154_00_Frag_2-SOS3-x1385_00_Frag
     RDKit          3D

 20 21  0  0  0  0  0  0  0  0999 V2000
   51.0970   24.5830    5.3450 N   0  0  0  0  0  0  0  0  0  0  0  0
   50.8780   25.9960    5.1300 C   0  0  0  0  0  0  0  0  0  0  0  0
   50.5300   26.4260    3.8650 C   0  0  0  0  0  0  0  0  0  0  0  0
   51.1520   24.1910    6.7450 C   0  0  0  0  0  0  0  0  0  0  0  0
   51.0090   26.8690    6.1380 N   0  0  0  0  0  0  0  0  0  0  0  0
   49.9010   23.7820    7.0800 C   0  0  0  0  0  0  0  0  0  0  0  0
   50.4060   25.5400    2.8710 F   0  0  0  0  0  0  0  0  0  0  0  0
   50.7930   28.1770    5.8940 C   0  0  0  0  0  0  0  0  0  0  0  0
   50.3070   27.7660    3.6160 C   0  0  0  0  0  0  0  0  0  0  0  0
   49.8060   22.6350    7.9850 C   0  0  0  0  0  0  0  0  0  0  0  0
   50.4340   28.7020    4.6440 C   0  0  0  0  0  0  0  0  0  0  0  0
   48.4080   22.1140    8.1160 C   0  0  0  0  0  0  0  0  0  0  0  0
   50.8520   22.0370    8.6650 C   0  0  0  0  0  0  0  0  0  0  0  0
   48.2060   21.0320    8.9000 C   0  0  0  0  0  0  0  0  0  0  0  0
   50.5820   20.9210    9.4630 C   0  0  0  0  0  0  0  0  0  0  0  0
   49.2670   20.4270    9.5700 C   0  0  0  0  0  0  0  0  0  0  0  0
   49.0410   19.3110   10.3670 N   0  0  0  0  0  0  0  0  0  0  0  0
   49.8580   18.2100   10.5250 C   0  0  0  0  0  0  0  0  0  0  0  0
   50.4520   17.8740    9.3130 N   0  0  0  0  0  0  0  0  0  0  0  0
   50.0010   17.6540   11.5920 O   0  0  0  0  0  0  0  0  0  0  0  0
  1  2  1  0
  2  3  2  0
  1  4  1  0
  2  5  1  0
  4  6  1  0
  3  7  1  0
  5  8  2  0
  3  9  1  0
  6 10  1  0
  8 11  1  0
  9 11  2  0
 10 12  2  0
 10 13  1  0
 12 14  1  0
 13 15  2  0
 14 16  2  0
 15 16  1  0
 16 17  1  0
 17 18  1  0
 18 19  1  0
 18 20  2  0
M  END
>  <ref_pdb>  (99) 
H-SOS3-x1154_00_Frag_2-SOS3-x1385_00_Frag_6.pdb

>  <ref_mols>  (99) 
x1154_2A,x1385_0A

>  <ddG_score>  (99) 
-7.5452556285820505

>  <fragmensteinOld_score>  (99) 
-2.5503210651997374

>  <LE_score>  (99) 
-0.3772627814291025

>  <comRMSD_score>  (99) 
0.3587300605166726

>  <fragmensteinNew_score>  (99) 
-0.7182893157448127

>  <aLogP_score>  (99) 
2.3659

>  <hbondD_score>  (99) 
3

>  <hbondA_score>  (99) 
3

>  <polarSurfaceArea_score>  (99) 
80.03999999999999

>  <rotableBonds_score>  (99) 
5

>  <QED_score>  (99) 
0.7826621656002212

>  <energyPoseVsEnsemble_score>  (99) 
2.6183648610356425

>  <sucos_score>  (99) 
0.9111652239418765

>  <interactions_conservation_score>  (99) 
0.6324555320336759

>  <interactions_novelty_score>  (99) 
0.2857142857142857

>  <SAscore_score>  (99) 
1.9732502083469026

>  <SCScore_score>  (99) 
3.629347315572716

>  <original SMILES>  (99) 
NC(=O)Nc1ccc(CCNc2ncccc2F)cc1

>  <CAR_friendly>  (99) 
1

$$$$
98_SOS3-x1154_00_Frag_4-SOS3-x1385_00_Frag
     RDKit          3D

 19 20  0  0  0  0  0  0  0  0999 V2000
   50.8360   24.4800    5.6240 N   0  0  0  0  0  0  0  0  0  0  0  0
   51.5520   23.8130    6.7120 C   0  0  0  0  0  0  0  0  0  0  0  0
   50.6930   23.0340    7.7030 C   0  0  0  0  0  0  0  0  0  0  0  0
   49.3520   23.3760    7.5460 C   0  0  0  0  0  0  0  0  0  0  0  0
   51.1180   23.1770    9.0170 C   0  0  0  0  0  0  0  0  0  0  0  0
   48.4580   22.6950    8.5610 C   0  0  0  0  0  0  0  0  0  0  0  0
   50.5270   22.3890    9.9830 C   0  0  0  0  0  0  0  0  0  0  0  0
   49.1470   21.9950    9.6660 N   0  0  0  0  0  0  0  0  0  0  0  0
   49.0740   20.5660    9.4070 C   0  0  0  0  0  0  0  0  0  0  0  0
   49.8580   19.7590   10.2100 C   0  0  0  0  0  0  0  0  0  0  0  0
   49.4740   18.3500    9.9470 C   0  0  0  0  0  0  0  0  0  0  0  0
   48.4220   17.9250   10.3720 O   0  0  0  0  0  0  0  0  0  0  0  0
   50.4090   17.6720    9.1640 N   0  0  0  0  0  0  0  0  0  0  0  0
   50.4570   17.7400    7.7700 C   0  0  0  0  0  0  0  0  0  0  0  0
   49.3290   17.7720    6.9560 C   0  0  0  0  0  0  0  0  0  0  0  0
   51.6930   17.7820    7.1380 C   0  0  0  0  0  0  0  0  0  0  0  0
   49.4750   17.8370    5.5740 C   0  0  0  0  0  0  0  0  0  0  0  0
   51.8770   17.8480    5.7770 N   0  0  0  0  0  0  0  0  0  0  0  0
   50.7520   17.8720    5.0360 C   0  0  0  0  0  0  0  0  0  0  0  0
  1  2  1  0
  3  2  1  0
  3  4  1  0
  3  5  1  0
  4  6  1  0
  5  7  1  0
  6  8  1  0
  7  8  1  0
  8  9  1  0
  9 10  1  0
 10 11  1  0
 11 12  2  0
 11 13  1  0
 13 14  1  0
 14 15  2  0
 14 16  1  0
 15 17  1  0
 16 18  2  0
 17 19  2  0
 18 19  1  0
M  END
>  <ref_pdb>  (100) 
H-SOS3-x1154_00_Frag_4-SOS3-x1385_00_Frag_4.pdb

>  <ref_mols>  (100) 
x1154_2A,x1385_0A

>  <ddG_score>  (100) 
-7.518744718225333

>  <fragmensteinOld_score>  (100) 
-1.526190753299554

>  <LE_score>  (100) 
-0.39572340622238594

>  <comRMSD_score>  (100) 
1.2775581903455124

>  <fragmensteinNew_score>  (100) 
1.248855069914945

>  <aLogP_score>  (100) 
1.0808999999999997

>  <hbondD_score>  (100) 
2

>  <hbondA_score>  (100) 
4

>  <polarSurfaceArea_score>  (100) 
71.25

>  <rotableBonds_score>  (100) 
5

>  <QED_score>  (100) 
0.8327433962028905

>  <energyPoseVsEnsemble_score>  (100) 
2.8592636483760487

>  <sucos_score>  (100) 
0.8233873062407101

>  <interactions_conservation_score>  (100) 
0.0

>  <interactions_novelty_score>  (100) 
0.2

>  <SAscore_score>  (100) 
2.019117754713328

>  <SCScore_score>  (100) 
3.96436396089585

>  <original SMILES>  (100) 
NCC1CCN(CCC(=O)Nc2cccnc2)CC1

>  <CAR_friendly>  (100) 
1

$$$$
99_SOS3-x1154_00_Frag_6-SOS3-x1385_00_Frag
     RDKit          3D

 26 28  0  0  0  0  0  0  0  0999 V2000
   51.4690   24.0990    6.6270 C   0  0  0  0  0  0  0  0  0  0  0  0
   51.0990   24.5690    5.3240 N   0  0  0  0  0  0  0  0  0  0  0  0
   50.8830   25.9430    5.1680 C   0  0  0  0  0  0  0  0  0  0  0  0
   50.3780   24.2480    7.5420 O   0  0  0  0  0  0  0  0  0  0  0  0
   50.0620   23.0770    8.1250 C   0  0  0  0  0  0  0  0  0  0  0  0
   51.0280   26.7850    6.2170 N   0  0  0  0  0  0  0  0  0  0  0  0
   50.5260   26.3790    3.8960 C   0  0  0  0  0  0  0  0  0  0  0  0
   50.9800   22.2770    8.7690 C   0  0  0  0  0  0  0  0  0  0  0  0
   48.7300   22.6610    8.0480 C   0  0  0  0  0  0  0  0  0  0  0  0
   50.4060   25.4870    2.9090 F   0  0  0  0  0  0  0  0  0  0  0  0
   50.8130   28.0990    6.0010 C   0  0  0  0  0  0  0  0  0  0  0  0
   50.2920   27.7240    3.6250 C   0  0  0  0  0  0  0  0  0  0  0  0
   50.5990   21.0820    9.3180 C   0  0  0  0  0  0  0  0  0  0  0  0
   48.3460   21.4360    8.6090 C   0  0  0  0  0  0  0  0  0  0  0  0
   50.4200   28.6470    4.6460 C   0  0  0  0  0  0  0  0  0  0  0  0
   49.2960   20.6450    9.2460 C   0  0  0  0  0  0  0  0  0  0  0  0
   48.9480   19.4300    9.7980 N   0  0  0  0  0  0  0  0  0  0  0  0
   49.9230   18.6420   10.3410 C   0  0  0  0  0  0  0  0  0  0  0  0
   50.3010   18.7550   11.4900 O   0  0  0  0  0  0  0  0  0  0  0  0
   50.4200   17.7250    9.3920 N   0  0  0  0  0  0  0  0  0  0  0  0
   50.4290   17.8090    7.9800 C   0  0  0  0  0  0  0  0  0  0  0  0
   51.6800   17.8830    7.3380 C   0  0  0  0  0  0  0  0  0  0  0  0
   49.2800   17.8140    7.1880 C   0  0  0  0  0  0  0  0  0  0  0  0
   51.9110   17.9500    5.9930 N   0  0  0  0  0  0  0  0  0  0  0  0
   49.4100   17.8880    5.6590 C   0  0  0  0  0  0  0  0  0  0  0  0
   50.8490   17.9540    5.1640 C   0  0  0  0  0  0  0  0  0  0  0  0
  1  2  1  0
  2  3  1  0
  1  4  1  0
  4  5  1  0
  3  6  2  0
  3  7  1  0
  5  8  2  0
  5  9  1  0
  7 10  1  0
  6 11  1  0
  7 12  2  0
  8 13  1  0
  9 14  2  0
 11 15  2  0
 12 15  1  0
 13 16  2  0
 14 16  1  0
 16 17  1  0
 17 18  1  0
 18 19  2  0
 18 20  1  0
 20 21  1  0
 21 22  2  0
 21 23  1  0
 22 24  1  0
 23 25  2  0
 24 26  2  0
 25 26  1  0
M  END
>  <ref_pdb>  (101) 
H-SOS3-x1154_00_Frag_6-SOS3-x1385_00_Frag_0.pdb

>  <ref_mols>  (101) 
x1154_2A,x1385_0A

>  <ddG_score>  (101) 
-9.743849117760664

>  <fragmensteinOld_score>  (101) 
-3.9961839411536086

>  <LE_score>  (101) 
-0.3747634276061794

>  <comRMSD_score>  (101) 
0.25258588239852453

>  <fragmensteinNew_score>  (101) 
-1.484976278193746

>  <aLogP_score>  (101) 
3.7081000000000017

>  <hbondD_score>  (101) 
3

>  <hbondA_score>  (101) 
5

>  <polarSurfaceArea_score>  (101) 
88.17

>  <rotableBonds_score>  (101) 
6

>  <QED_score>  (101) 
0.5881144890078889

>  <energyPoseVsEnsemble_score>  (101) 
2.741208609978917

>  <sucos_score>  (101) 
0.931983815521306

>  <interactions_conservation_score>  (101) 
0.0

>  <interactions_novelty_score>  (101) 
0.2

>  <SAscore_score>  (101) 
2.262643659504148

>  <SCScore_score>  (101) 
3.447189791255676

>  <original SMILES>  (101) 
O=C(Nc1ccc(OCNc2ncccc2F)cc1)Nc1cccnc1

>  <CAR_friendly>  (101) 
0

$$$$
100_SOS3-x1154_00_Frag_6-SOS3-x1385_00_Frag
     RDKit          3D

 19 20  0  0  0  0  0  0  0  0999 V2000
   51.5690   24.0940    6.6420 C   0  0  0  0  0  0  0  0  0  0  0  0
   50.8170   24.5260    5.4920 N   0  0  0  0  0  0  0  0  0  0  0  0
   50.7270   25.9060    5.2670 C   0  0  0  0  0  0  0  0  0  0  0  0
   50.7620   24.2440    7.8050 O   0  0  0  0  0  0  0  0  0  0  0  0
   50.1950   23.1100    8.2710 C   0  0  0  0  0  0  0  0  0  0  0  0
   50.9040   26.7730    6.2900 N   0  0  0  0  0  0  0  0  0  0  0  0
   50.4500   26.3300    3.9670 C   0  0  0  0  0  0  0  0  0  0  0  0
   48.7150   22.7070    8.1290 C   0  0  0  0  0  0  0  0  0  0  0  0
   51.0910   22.2700    8.9190 C   0  0  0  0  0  0  0  0  0  0  0  0
   50.2950   25.4240    3.0000 F   0  0  0  0  0  0  0  0  0  0  0  0
   50.7980   28.0930    6.0270 C   0  0  0  0  0  0  0  0  0  0  0  0
   50.3280   27.6810    3.6470 C   0  0  0  0  0  0  0  0  0  0  0  0
   48.3350   21.3520    8.7390 C   0  0  0  0  0  0  0  0  0  0  0  0
   50.6180   20.9440    9.4970 C   0  0  0  0  0  0  0  0  0  0  0  0
   50.4920   28.6220    4.6440 C   0  0  0  0  0  0  0  0  0  0  0  0
   49.2770   20.5610    9.3770 C   0  0  0  0  0  0  0  0  0  0  0  0
   48.9090   19.2730    9.9630 N   0  0  0  0  0  0  0  0  0  0  0  0
   49.7430   18.2330   10.2640 C   0  0  0  0  0  0  0  0  0  0  0  0
   50.1720   17.8920   11.3470 O   0  0  0  0  0  0  0  0  0  0  0  0
  1  2  1  0
  2  3  1  0
  1  4  1  0
  4  5  1  0
  3  6  2  0
  3  7  1  0
  5  8  2  0
  5  9  1  0
  7 10  1  0
  6 11  1  0
  7 12  2  0
  8 13  1  0
  9 14  2  0
 11 15  2  0
 12 15  1  0
 13 16  2  0
 14 16  1  0
 16 17  1  0
 17 18  1  0
 18 19  2  0
M  END
>  <ref_pdb>  (102) 
H-SOS3-x1154_00_Frag_6-SOS3-x1385_00_Frag_2.pdb

>  <ref_mols>  (102) 
x1154_2A,x1385_0A

>  <ddG_score>  (102) 
-8.241684165792696

>  <fragmensteinOld_score>  (102) 
-3.098808640531717

>  <LE_score>  (102) 
-0.43377285083119455

>  <comRMSD_score>  (102) 
0.14952819262682243

>  <fragmensteinNew_score>  (102) 
-1.4563610156634472

>  <aLogP_score>  (102) 
2.2374

>  <hbondD_score>  (102) 
2

>  <hbondA_score>  (102) 
4

>  <polarSurfaceArea_score>  (102) 
63.25

>  <rotableBonds_score>  (102) 
6

>  <QED_score>  (102) 
0.6180200768552621

>  <energyPoseVsEnsemble_score>  (102) 
3.440247788904979

>  <sucos_score>  (102) 
0.9737319015222305

>  <interactions_conservation_score>  (102) 
0.7071067811865475

>  <interactions_novelty_score>  (102) 
0.14285714285714285

>  <SAscore_score>  (102) 
2.4173784540140275

>  <SCScore_score>  (102) 
2.930553721286029

>  <original SMILES>  (102) 
O=CNc1ccc(OCNc2ncccc2F)cc1

>  <CAR_friendly>  (102) 
0

$$$$
101_SOS3-x1154_00_Frag_6-SOS3-x1385_00_Frag
     RDKit          3D

 17 18  0  0  0  0  0  0  0  0999 V2000
   51.5720   24.0530    6.7020 C   0  0  0  0  0  0  0  0  0  0  0  0
   51.1240   24.5170    5.4060 N   0  0  0  0  0  0  0  0  0  0  0  0
   50.9010   25.8930    5.2240 C   0  0  0  0  0  0  0  0  0  0  0  0
   50.5810   24.2000    7.7180 O   0  0  0  0  0  0  0  0  0  0  0  0
   50.0860   23.0540    8.2530 C   0  0  0  0  0  0  0  0  0  0  0  0
   51.0470   26.7570    6.2570 N   0  0  0  0  0  0  0  0  0  0  0  0
   50.5330   26.3160    3.9460 C   0  0  0  0  0  0  0  0  0  0  0  0
   48.6300   22.5950    8.2000 C   0  0  0  0  0  0  0  0  0  0  0  0
   51.0100   22.2420    8.8970 C   0  0  0  0  0  0  0  0  0  0  0  0
   50.4090   25.4170    2.9650 F   0  0  0  0  0  0  0  0  0  0  0  0
   50.8230   28.0700    6.0220 C   0  0  0  0  0  0  0  0  0  0  0  0
   50.2910   27.6600    3.6570 C   0  0  0  0  0  0  0  0  0  0  0  0
   48.3320   21.3950    8.7990 C   0  0  0  0  0  0  0  0  0  0  0  0
   50.6160   21.0260    9.4880 C   0  0  0  0  0  0  0  0  0  0  0  0
   50.4200   28.5960    4.6630 C   0  0  0  0  0  0  0  0  0  0  0  0
   49.2820   20.5950    9.4460 C   0  0  0  0  0  0  0  0  0  0  0  0
   48.8320   19.3940   10.0260 N   0  0  0  0  0  0  0  0  0  0  0  0
  1  2  1  0
  2  3  1  0
  1  4  1  0
  4  5  1  0
  3  6  2  0
  3  7  1  0
  5  8  2  0
  5  9  1  0
  7 10  1  0
  6 11  1  0
  7 12  2  0
  8 13  1  0
  9 14  2  0
 11 15  2  0
 12 15  1  0
 13 16  2  0
 14 16  1  0
 16 17  1  0
M  END
>  <ref_pdb>  (103) 
H-SOS3-x1154_00_Frag_6-SOS3-x1385_00_Frag_3.pdb

>  <ref_mols>  (103) 
x1154_2A,x1385_0A

>  <ddG_score>  (103) 
-7.515853787046138

>  <fragmensteinOld_score>  (103) 
-2.7441614464082864

>  <LE_score>  (103) 
-0.4421090462968317

>  <comRMSD_score>  (103) 
0.1590093110009413

>  <fragmensteinNew_score>  (103) 
-1.142630043478312

>  <aLogP_score>  (103) 
2.2513

>  <hbondD_score>  (103) 
2

>  <hbondA_score>  (103) 
4

>  <polarSurfaceArea_score>  (103) 
60.17

>  <rotableBonds_score>  (103) 
4

>  <QED_score>  (103) 
0.6277686369634706

>  <energyPoseVsEnsemble_score>  (103) 
2.1558953349121426

>  <sucos_score>  (103) 
0.9670035651766528

>  <interactions_conservation_score>  (103) 
0.7071067811865475

>  <interactions_novelty_score>  (103) 
0.14285714285714285

>  <SAscore_score>  (103) 
2.251192170537573

>  <SCScore_score>  (103) 
2.634793612517236

>  <original SMILES>  (103) 
Nc1ccc(OCNc2ncccc2F)cc1

>  <CAR_friendly>  (103) 
1

$$$$
102_SOS3-x1154_00_Frag_6-SOS3-x1385_00_Frag
     RDKit          3D

 20 21  0  0  0  0  0  0  0  0999 V2000
   51.5550   24.1020    6.6710 C   0  0  0  0  0  0  0  0  0  0  0  0
   50.8320   24.5250    5.4990 N   0  0  0  0  0  0  0  0  0  0  0  0
   50.7390   25.9050    5.2720 C   0  0  0  0  0  0  0  0  0  0  0  0
   50.7220   24.2540    7.8150 O   0  0  0  0  0  0  0  0  0  0  0  0
   50.1660   23.1120    8.2730 C   0  0  0  0  0  0  0  0  0  0  0  0
   50.9210   26.7750    6.2940 N   0  0  0  0  0  0  0  0  0  0  0  0
   50.4550   26.3270    3.9740 C   0  0  0  0  0  0  0  0  0  0  0  0
   48.6860   22.6890    8.1530 C   0  0  0  0  0  0  0  0  0  0  0  0
   51.0700   22.2690    8.8990 C   0  0  0  0  0  0  0  0  0  0  0  0
   50.2950   25.4190    3.0070 F   0  0  0  0  0  0  0  0  0  0  0  0
   50.8120   28.0910    6.0300 C   0  0  0  0  0  0  0  0  0  0  0  0
   50.3310   27.6780    3.6520 C   0  0  0  0  0  0  0  0  0  0  0  0
   48.3330   21.3150    8.7540 C   0  0  0  0  0  0  0  0  0  0  0  0
   50.6180   20.9370    9.4620 C   0  0  0  0  0  0  0  0  0  0  0  0
   50.4980   28.6220    4.6490 C   0  0  0  0  0  0  0  0  0  0  0  0
   49.2920   20.5180    9.3700 C   0  0  0  0  0  0  0  0  0  0  0  0
   48.9980   19.2740    9.9220 N   0  0  0  0  0  0  0  0  0  0  0  0
   49.9100   18.3070   10.2860 C   0  0  0  0  0  0  0  0  0  0  0  0
   50.5370   17.7960    9.1390 N   0  0  0  0  0  0  0  0  0  0  0  0
   50.1140   17.9860   11.4330 O   0  0  0  0  0  0  0  0  0  0  0  0
  1  2  1  0
  2  3  1  0
  1  4  1  0
  4  5  1  0
  3  6  2  0
  3  7  1  0
  5  8  2  0
  5  9  1  0
  7 10  1  0
  6 11  1  0
  7 12  2  0
  8 13  1  0
  9 14  2  0
 11 15  2  0
 12 15  1  0
 13 16  2  0
 14 16  1  0
 16 17  1  0
 17 18  1  0
 18 19  1  0
 18 20  2  0
M  END
>  <ref_pdb>  (104) 
H-SOS3-x1154_00_Frag_6-SOS3-x1385_00_Frag_6.pdb

>  <ref_mols>  (104) 
x1154_2A,x1385_0A

>  <ddG_score>  (104) 
-8.014585575123537

>  <fragmensteinOld_score>  (104) 
-3.1538565956682842

>  <LE_score>  (104) 
-0.4007292787561768

>  <comRMSD_score>  (104) 
0.1490605193564229

>  <fragmensteinNew_score>  (104) 
-1.5221965606712162

>  <aLogP_score>  (104) 
2.1597

>  <hbondD_score>  (104) 
3

>  <hbondA_score>  (104) 
4

>  <polarSurfaceArea_score>  (104) 
89.27000000000001

>  <rotableBonds_score>  (104) 
5

>  <QED_score>  (104) 
0.7299372308502399

>  <energyPoseVsEnsemble_score>  (104) 
3.694607970792505

>  <sucos_score>  (104) 
0.9735049730083382

>  <interactions_conservation_score>  (104) 
0.8660254037844387

>  <interactions_novelty_score>  (104) 
0.14285714285714285

>  <SAscore_score>  (104) 
2.233028345998724

>  <SCScore_score>  (104) 
3.1294816962000542

>  <original SMILES>  (104) 
NC(=O)Nc1ccc(OCNc2ncccc2F)cc1

>  <CAR_friendly>  (104) 
0

$$$$
