ver_1.2
     RDKit          3D

 14 15  0  0  0  0  0  0  0  0999 V2000
    3.2390   -0.7971   -0.1247 C   0  0  0  0  0  0  0  0  0  0  0  0
    2.1978    0.2170   -0.0524 N   0  0  0  0  0  0  0  0  0  0  0  0
    2.3691    1.5570   -0.0003 C   0  0  0  0  0  0  0  0  0  0  0  0
    1.1339    2.0897    0.0570 N   0  0  0  0  0  0  0  0  0  0  0  0
    0.2100    1.1180    0.0416 C   0  0  0  0  0  0  0  0  0  0  0  0
    0.8843   -0.0785   -0.0281 C   0  0  0  0  0  0  0  0  0  0  0  0
    0.1454   -1.2600   -0.0576 C   0  0  0  0  0  0  0  0  0  0  0  0
    0.8196   -2.3204   -0.1215 O   0  0  0  0  0  0  0  0  0  0  0  0
   -1.1883   -1.2523   -0.0199 N   0  0  0  0  0  0  0  0  0  0  0  0
   -1.8127   -0.0775    0.0475 C   0  0  0  0  0  0  0  0  0  0  0  0
   -3.0840   -0.1120    0.0817 O   0  0  0  0  0  0  0  0  0  0  0  0
   -1.1470    1.0916    0.0785 N   0  0  0  0  0  0  0  0  0  0  0  0
   -1.8683    2.3530    0.1523 C   0  0  0  0  0  0  0  0  0  0  0  0
   -1.8988   -2.5287   -0.0541 C   0  0  0  0  0  0  0  0  0  0  0  0
  1  2  1  0
  2  3  1  0
  3  4  2  0
  4  5  1  0
  5  6  2  0
  6  7  1  0
  7  8  2  0
  7  9  1  0
  9 10  1  0
 10 11  2  0
 10 12  1  0
 12 13  1  0
  9 14  1  0
  6  2  1  0
 12  5  1  0
M  END
>  <ref_url>  (1) 
https://github.com/matteoferla/Fragment-hit-follow-up-chemistry

>  <submitter_name>  (1) 
Matteo Ferla

>  <submitter_email>  (1) 
matteo.ferla@stats.ox.ac.uk

>  <submitter_institution>  (1) 
Nowehere

>  <generation_date>  (1) 
2023-09-06

>  <method>  (1) 
Fragmenstein-Tris_P1-ridge

>  <index>  (1) 
index

>  <∆∆G>  (1) 
∆∆G

>  <comRMSD>  (1) 
comRMSD

>  <N_constrained_atoms>  (1) 
N_constrained_atoms

>  <N_unconstrained_atoms>  (1) 
N_unconstrained_atoms

>  <LE>  (1) 
LE

>  <percent_hybrid>  (1) 
percent_hybrid

>  <max_hit_Tanimoto>  (1) 
max_hit_Tanimoto

>  <largest_ring>  (1) 
largest_ring

>  <N_interactions_kept>  (1) 
N_interactions_kept

>  <N_interactions_lost>  (1) 
N_interactions_lost

>  <interaction_uniqueness_metric>  (1) 
interaction_uniqueness_metric

>  <N_HA>  (1) 
N_HA

>  <N_rotatable_bonds>  (1) 
N_rotatable_bonds

>  <N_interactions>  (1) 
N_interactions

>  <N_PAINS>  (1) 
N_PAINS

>  <UFF_Gibbs>  (1) 
UFF_Gibbs

>  <strain_per_HA>  (1) 
strain_per_HA

>  <ad_hoc_penalty>  (1) 
ad_hoc_penalty

>  <cluster>  (1) 
cluster

>  <ranked>  (1) 
ranked

>  <merger_rank>  (1) 
merger_rank

>  <hydroph_interaction:LEU:127>  (1) 
hydroph_interaction:LEU:127

>  <hbond:GLY:128>  (1) 
hbond:GLY:128

>  <hydroph_interaction:ALA:144>  (1) 
hydroph_interaction:ALA:144

>  <hbond:GLY:164>  (1) 
hbond:GLY:164

>  <hbond:HIS:40>  (1) 
hbond:HIS:40

>  <pistack:HIS:40>  (1) 
pistack:HIS:40

>  <hydroph_interaction:LEU:125>  (1) 
hydroph_interaction:LEU:125

>  <hydroph_interaction:PHE:170>  (1) 
hydroph_interaction:PHE:170

>  <hydroph_interaction:HIS:40>  (1) 
hydroph_interaction:HIS:40

>  <pication:HIS:40>  (1) 
pication:HIS:40

>  <hbond:THR:142>  (1) 
hbond:THR:142

>  <hbond:HIS:161>  (1) 
hbond:HIS:161

>  <hbond:GLY:166>  (1) 
hbond:GLY:166

>  <hbond:VAL:162>  (1) 
hbond:VAL:162

>  <hydroph_interaction:ASN:165>  (1) 
hydroph_interaction:ASN:165

>  <saltbridge:HIS:161>  (1) 
saltbridge:HIS:161

>  <hbond:GLY:145>  (1) 
hbond:GLY:145

>  <hbond:CYS:147>  (1) 
hbond:CYS:147

>  <saltbridge:HIS:40>  (1) 
saltbridge:HIS:40

>  <hbond:LEU:127>  (1) 
hbond:LEU:127

>  <hbond:THR:130>  (1) 
hbond:THR:130

>  <halogenbond:THR:142>  (1) 
halogenbond:THR:142

>  <halogenbond:CYS:147>  (1) 
halogenbond:CYS:147

$$$$
PV-001573842640-x1071-0A
     RDKit          3D

 48 49  0  0  0  0  0  0  0  0999 V2000
   -5.6680    0.0900   -2.1600 C   0  0  0  0  0  0  0  0  0  0  0  0
   -6.2830   -0.9710   -1.3120 C   0  0  0  0  0  0  0  0  0  0  0  0
   -6.2550   -0.9060   -0.0940 O   0  0  0  0  0  0  0  0  0  0  0  0
   -6.8610   -1.9960   -2.0340 N   0  0  0  0  0  0  0  0  0  0  0  0
   -6.6240   -3.3880   -1.6780 C   0  0  0  0  0  0  0  0  0  0  0  0
   -6.6190   -4.4010   -2.8410 C   0  0  0  0  0  0  0  0  0  0  0  0
   -7.6100   -4.0140   -3.8440 N   0  0  0  0  0  0  0  0  0  0  0  0
   -8.9150   -4.4670   -3.8000 C   0  0  0  0  0  0  0  0  0  0  0  0
   -9.7960   -3.9560   -3.1090 O   0  0  0  0  0  0  0  0  0  0  0  0
   -9.1980   -5.6700   -4.6850 C   0  0  0  0  0  0  0  0  0  0  0  0
   -8.7870   -5.4290   -6.1060 C   0  0  0  0  0  0  0  0  0  0  0  0
   -9.1650   -4.3060   -6.8620 C   0  0  0  0  0  0  0  0  0  0  0  0
   -8.8210   -4.0620   -8.1180 N   0  0  0  0  0  0  0  0  0  0  0  0
   -7.5830   -4.6340   -8.3680 C   0  0  0  0  0  0  0  0  0  0  0  0
   -6.7050   -4.0420   -8.9590 O   0  0  0  0  0  0  0  0  0  0  0  0
   -7.3320   -5.9420   -7.9510 C   0  0  0  0  0  0  0  0  0  0  0  0
   -7.9450   -6.3730   -6.7770 C   0  0  0  0  0  0  0  0  0  0  0  0
   -6.8470   -5.8600   -2.3440 C   0  0  0  0  0  0  0  0  0  0  0  0
   -5.9950   -6.8080   -2.9400 C   0  0  0  0  0  0  0  0  0  0  0  0
   -4.7690   -7.3510   -2.1870 C   0  0  0  0  0  0  0  0  0  0  0  0
   -4.9920   -7.4750   -0.6760 C   0  0  0  0  0  0  0  0  0  0  0  0
   -6.3130   -7.2620   -0.2930 C   0  0  0  0  0  0  0  0  0  0  0  0
   -6.7860   -5.9160   -0.8020 C   0  0  0  0  0  0  0  0  0  0  0  0
   -6.2690    1.0030   -2.1620 H   0  0  0  0  0  0  0  0  0  0  0  0
   -4.6710    0.3050   -1.7820 H   0  0  0  0  0  0  0  0  0  0  0  0
   -5.5960   -0.2800   -3.1840 H   0  0  0  0  0  0  0  0  0  0  0  0
   -7.0830   -1.7820   -3.0080 H   0  0  0  0  0  0  0  0  0  0  0  0
   -7.3500   -3.6600   -0.9060 H   0  0  0  0  0  0  0  0  0  0  0  0
   -5.6460   -3.4240   -1.2110 H   0  0  0  0  0  0  0  0  0  0  0  0
   -5.6340   -4.3390   -3.3160 H   0  0  0  0  0  0  0  0  0  0  0  0
   -7.4740   -3.0740   -4.2390 H   0  0  0  0  0  0  0  0  0  0  0  0
   -8.6720   -6.5380   -4.2740 H   0  0  0  0  0  0  0  0  0  0  0  0
  -10.2670   -5.9070   -4.6340 H   0  0  0  0  0  0  0  0  0  0  0  0
   -9.8040   -3.5530   -6.3920 H   0  0  0  0  0  0  0  0  0  0  0  0
   -8.9790   -3.1490   -8.5320 H   0  0  0  0  0  0  0  0  0  0  0  0
   -6.6800   -6.5990   -8.5150 H   0  0  0  0  0  0  0  0  0  0  0  0
   -7.7980   -7.3730   -6.3890 H   0  0  0  0  0  0  0  0  0  0  0  0
   -7.8710   -6.1360   -2.6290 H   0  0  0  0  0  0  0  0  0  0  0  0
   -5.6130   -6.3560   -3.8690 H   0  0  0  0  0  0  0  0  0  0  0  0
   -6.5670   -7.6750   -3.2790 H   0  0  0  0  0  0  0  0  0  0  0  0
   -4.4910   -8.3300   -2.5910 H   0  0  0  0  0  0  0  0  0  0  0  0
   -3.9130   -6.6940   -2.3770 H   0  0  0  0  0  0  0  0  0  0  0  0
   -4.3370   -6.7560   -0.1690 H   0  0  0  0  0  0  0  0  0  0  0  0
   -4.6780   -8.4690   -0.3330 H   0  0  0  0  0  0  0  0  0  0  0  0
   -6.9520   -8.0660   -0.6760 H   0  0  0  0  0  0  0  0  0  0  0  0
   -6.3910   -7.2840    0.8000 H   0  0  0  0  0  0  0  0  0  0  0  0
   -7.7720   -5.6900   -0.3800 H   0  0  0  0  0  0  0  0  0  0  0  0
   -6.0970   -5.1500   -0.4350 H   0  0  0  0  0  0  0  0  0  0  0  0
  1  2  1  0
  2  3  2  0
  2  4  1  0
  4  5  1  0
  5  6  1  0
  6  7  1  0
  7  8  1  0
  8  9  2  0
  8 10  1  0
 10 11  1  0
 11 12  2  0
 12 13  1  0
 13 14  1  0
 14 15  2  0
 14 16  1  0
 16 17  2  0
  6 18  1  0
 18 19  1  0
 19 20  1  0
 20 21  1  0
 21 22  1  0
 22 23  1  0
 17 11  1  0
 23 18  1  0
  1 24  1  0
  1 25  1  0
  1 26  1  0
  4 27  1  0
  5 28  1  0
  5 29  1  0
  6 30  1  0
  7 31  1  0
 10 32  1  0
 10 33  1  0
 12 34  1  0
 13 35  1  0
 16 36  1  0
 17 37  1  0
 18 38  1  0
 19 39  1  0
 19 40  1  0
 20 41  1  0
 20 42  1  0
 21 43  1  0
 21 44  1  0
 22 45  1  0
 22 46  1  0
 23 47  1  0
 23 48  1  0
A    1
 C1 
A    2
 C2 
A    3
 O1 
A    4
 N1 
A    5
 C3 
A    6
 C4 
A    7
 N2 
A    8
 C5 
A    9
 O2 
A   10
 C6 
A   11
 C7 
A   12
 C8 
A   13
 N3 
A   14
 C9 
A   15
 O3 
A   16
 C10
A   17
 C11
A   18
 C12
A   19
 C13
A   20
 C14
A   21
 C15
A   22
 C16
A   23
 C17
A   24
 H1 
A   25
 H2 
A   26
 H3 
A   27
 H4 
A   28
 H5 
A   29
 H6 
A   30
 H7 
A   31
 H8 
A   32
 H9 
A   33
 H10
A   34
 H11
A   35
 H12
A   36
 H13
A   37
 H14
A   38
 H15
A   39
 H16
A   40
 H17
A   41
 H18
A   42
 H19
A   43
 H20
A   44
 H21
A   45
 H22
A   46
 H23
A   47
 H24
A   48
 H25
M  END
>  <ref_pdb>  (1) 
x0147_0A

>  <ref_mols>  (1) 
x1071_0A,x1498_0A

>  <original SMILES>  (1) 
[H]c1c(C([H])([H])C(=O)N([H])C([H])(C([H])([H])N([H])C(=O)C([H])([H])[H])C2([H])C([H])([H])C([H])([H])C([H])([H])C([H])([H])C2([H])[H])c([H])n([H])c(=O)c1[H]

>  <index>  (1) 
1246

>  <∆∆G>  (1) 
-8.395819

>  <comRMSD>  (1) 
0.36218

>  <N_constrained_atoms>  (1) 
20.0

>  <N_unconstrained_atoms>  (1) 
3.0

>  <LE>  (1) 
0.365036

>  <percent_hybrid>  (1) 
35.0

>  <max_hit_Tanimoto>  (1) 
0.182236

>  <largest_ring>  (1) 
6

>  <N_interactions_kept>  (1) 
0.5

>  <N_interactions_lost>  (1) 
2.0

>  <interaction_uniqueness_metric>  (1) 
0.10524

>  <N_HA>  (1) 
23

>  <N_rotatable_bonds>  (1) 
7

>  <N_interactions>  (1) 
7

>  <N_PAINS>  (1) 
0

>  <UFF_Gibbs>  (1) 
144.79719

>  <strain_per_HA>  (1) 
6.295503

>  <ad_hoc_penalty>  (1) 
-41.220628

>  <cluster>  (1) 
1597

>  <ranked>  (1) 
5.0

>  <merger_rank>  (1) 
1

>  <hydroph_interaction:LEU:127>  (1) 
1

>  <hbond:GLY:128>  (1) 
1

>  <hydroph_interaction:ALA:144>  (1) 
0

>  <hbond:GLY:164>  (1) 
3

>  <hbond:HIS:40>  (1) 
0

>  <pistack:HIS:40>  (1) 
0

>  <hydroph_interaction:LEU:125>  (1) 
0

>  <hydroph_interaction:PHE:170>  (1) 
1

>  <hydroph_interaction:HIS:40>  (1) 
0

>  <pication:HIS:40>  (1) 
0

>  <hbond:THR:142>  (1) 
1

>  <hbond:HIS:161>  (1) 
0

>  <hbond:GLY:166>  (1) 
0

>  <hbond:VAL:162>  (1) 
0

>  <hydroph_interaction:ASN:165>  (1) 
0

>  <saltbridge:HIS:161>  (1) 
0

>  <hbond:GLY:145>  (1) 
0

>  <hbond:CYS:147>  (1) 
0

>  <saltbridge:HIS:40>  (1) 
0

>  <hbond:LEU:127>  (1) 
0

>  <hbond:THR:130>  (1) 
0

>  <halogenbond:THR:142>  (1) 
0

>  <halogenbond:CYS:147>  (1) 
0

$$$$
Z2518203573-x1071-0AS4
     RDKit          3D

 37 38  0  0  0  0  0  0  0  0999 V2000
   -6.2900   -3.3600   -2.6210 N   0  0  0  0  0  0  0  0  0  0  0  0
   -6.9080   -4.5550   -2.8310 C   0  0  0  0  0  0  0  0  0  0  0  0
   -7.8850   -4.7430   -3.6440 N   0  0  0  0  0  0  0  0  0  0  0  0
   -8.4660   -6.0030   -3.7660 C   0  0  0  0  0  0  0  0  0  0  0  0
   -9.5220   -6.0210   -4.8740 C   0  0  0  0  0  0  0  0  0  0  0  0
   -8.8200   -5.5870   -6.1730 C   0  0  0  0  0  0  0  0  0  0  0  0
   -9.2310   -4.2600   -6.7950 C   0  0  0  0  0  0  0  0  0  0  0  0
   -8.5160   -3.8560   -8.0550 C   0  0  0  0  0  0  0  0  0  0  0  0
   -7.4670   -4.7710   -8.6020 C   0  0  0  0  0  0  0  0  0  0  0  0
   -6.7510   -4.5490   -9.7170 O   0  0  0  0  0  0  0  0  0  0  0  0
   -7.2030   -5.9500   -7.9280 C   0  0  0  0  0  0  0  0  0  0  0  0
   -7.8280   -6.3590   -6.7770 C   0  0  0  0  0  0  0  0  0  0  0  0
   -6.3870   -5.5770   -2.0670 N   0  0  0  0  0  0  0  0  0  0  0  0
   -7.0490   -5.9330   -0.9470 C   0  0  0  0  0  0  0  0  0  0  0  0
   -6.5060   -7.1110   -0.4150 C   0  0  0  0  0  0  0  0  0  0  0  0
   -5.0900   -7.1950   -0.6470 O   0  0  0  0  0  0  0  0  0  0  0  0
   -4.8360   -7.3070   -2.0580 C   0  0  0  0  0  0  0  0  0  0  0  0
   -5.8960   -6.7430   -2.7700 C   0  0  0  0  0  0  0  0  0  0  0  0
   -6.4630   -2.9900   -1.6920 H   0  0  0  0  0  0  0  0  0  0  0  0
   -6.5800   -2.6760   -3.3320 H   0  0  0  0  0  0  0  0  0  0  0  0
   -7.6710   -6.6810   -4.0940 H   0  0  0  0  0  0  0  0  0  0  0  0
   -8.9070   -6.5050   -2.8970 H   0  0  0  0  0  0  0  0  0  0  0  0
  -10.3890   -5.3780   -4.6850 H   0  0  0  0  0  0  0  0  0  0  0  0
   -9.9070   -7.0390   -4.9980 H   0  0  0  0  0  0  0  0  0  0  0  0
  -10.0030   -3.6530   -6.3310 H   0  0  0  0  0  0  0  0  0  0  0  0
   -8.7610   -2.9110   -8.5570 H   0  0  0  0  0  0  0  0  0  0  0  0
   -7.2070   -5.0230  -10.4470 H   0  0  0  0  0  0  0  0  0  0  0  0
   -6.4340   -6.6150   -8.3400 H   0  0  0  0  0  0  0  0  0  0  0  0
   -7.4840   -7.3230   -6.3860 H   0  0  0  0  0  0  0  0  0  0  0  0
   -8.0700   -6.1670   -1.2690 H   0  0  0  0  0  0  0  0  0  0  0  0
   -7.1500   -5.0690   -0.3090 H   0  0  0  0  0  0  0  0  0  0  0  0
   -6.9750   -7.9970   -0.8480 H   0  0  0  0  0  0  0  0  0  0  0  0
   -6.6460   -7.1370    0.6700 H   0  0  0  0  0  0  0  0  0  0  0  0
   -4.6220   -8.3560   -2.2450 H   0  0  0  0  0  0  0  0  0  0  0  0
   -3.9130   -6.7630   -2.2790 H   0  0  0  0  0  0  0  0  0  0  0  0
   -5.7160   -6.4250   -3.7940 H   0  0  0  0  0  0  0  0  0  0  0  0
   -6.7100   -7.4720   -2.8210 H   0  0  0  0  0  0  0  0  0  0  0  0
  1  2  1  0
  2  3  2  3
  3  4  1  0
  4  5  1  0
  5  6  1  0
  6  7  2  0
  7  8  1  0
  8  9  2  0
  9 10  1  0
  9 11  1  0
 11 12  2  0
  2 13  1  0
 13 14  1  0
 14 15  1  0
 15 16  1  0
 16 17  1  0
 17 18  1  0
 12  6  1  0
 18 13  1  0
  1 19  1  0
  1 20  1  0
  4 21  1  0
  4 22  1  0
  5 23  1  0
  5 24  1  0
  7 25  1  0
  8 26  1  0
 10 27  1  0
 11 28  1  0
 12 29  1  0
 14 30  1  0
 14 31  1  0
 15 32  1  0
 15 33  1  0
 17 34  1  0
 17 35  1  0
 18 36  1  0
 18 37  1  0
A    1
 N1 
A    2
 C1 
A    3
 N2 
A    4
 C2 
A    5
 C3 
A    6
 C4 
A    7
 C5 
A    8
 C6 
A    9
 C7 
A   10
 O1 
A   11
 C8 
A   12
 C9 
A   13
 N3 
A   14
 C10
A   15
 C11
A   16
 O2 
A   17
 C12
A   18
 C13
A   19
 H1 
A   20
 H2 
A   21
 H3 
A   22
 H4 
A   23
 H5 
A   24
 H6 
A   25
 H7 
A   26
 H8 
A   27
 H9 
A   28
 H10
A   29
 H11
A   30
 H12
A   31
 H13
A   32
 H14
A   33
 H15
A   34
 H16
A   35
 H17
A   36
 H18
A   37
 H19
M  END
>  <ref_pdb>  (2) 
x0147_0A

>  <ref_mols>  (2) 
x1071_0AS4,x1498_0A

>  <original SMILES>  (2) 
[H]Oc1c([H])c([H])c(C([H])([H])C([H])([H])N=C(N([H])[H])N2C([H])([H])C([H])([H])OC([H])([H])C2([H])[H])c([H])c1[H]

>  <index>  (2) 
9422

>  <∆∆G>  (2) 
-6.363098

>  <comRMSD>  (2) 
0.414848

>  <N_constrained_atoms>  (2) 
16.0

>  <N_unconstrained_atoms>  (2) 
2.0

>  <LE>  (2) 
0.353505

>  <percent_hybrid>  (2) 
44.0

>  <max_hit_Tanimoto>  (2) 
0.078329

>  <largest_ring>  (2) 
6

>  <N_interactions_kept>  (2) 
1.0

>  <N_interactions_lost>  (2) 
1.0

>  <interaction_uniqueness_metric>  (2) 
0.070592

>  <N_HA>  (2) 
18

>  <N_rotatable_bonds>  (2) 
4

>  <N_interactions>  (2) 
5

>  <N_PAINS>  (2) 
0

>  <UFF_Gibbs>  (2) 
163.159451

>  <strain_per_HA>  (2) 
9.064364

>  <ad_hoc_penalty>  (2) 
-34.741299

>  <cluster>  (2) 
378

>  <ranked>  (2) 
19.0

>  <merger_rank>  (2) 
1

>  <hydroph_interaction:LEU:127>  (2) 
0

>  <hbond:GLY:128>  (2) 
1

>  <hydroph_interaction:ALA:144>  (2) 
0

>  <hbond:GLY:164>  (2) 
3

>  <hbond:HIS:40>  (2) 
0

>  <pistack:HIS:40>  (2) 
0

>  <hydroph_interaction:LEU:125>  (2) 
0

>  <hydroph_interaction:PHE:170>  (2) 
0

>  <hydroph_interaction:HIS:40>  (2) 
0

>  <pication:HIS:40>  (2) 
0

>  <hbond:THR:142>  (2) 
1

>  <hbond:HIS:161>  (2) 
0

>  <hbond:GLY:166>  (2) 
0

>  <hbond:VAL:162>  (2) 
0

>  <hydroph_interaction:ASN:165>  (2) 
0

>  <saltbridge:HIS:161>  (2) 
0

>  <hbond:GLY:145>  (2) 
0

>  <hbond:CYS:147>  (2) 
0

>  <saltbridge:HIS:40>  (2) 
0

>  <hbond:LEU:127>  (2) 
0

>  <hbond:THR:130>  (2) 
0

>  <halogenbond:THR:142>  (2) 
0

>  <halogenbond:CYS:147>  (2) 
0

$$$$
PV-002212510091-x0771-1AS1
     RDKit          3D

 36 38  0  0  0  0  0  0  0  0999 V2000
   -7.1120   -4.2870   -9.2530 N   0  0  0  0  0  0  0  0  0  0  0  0
   -7.9560   -4.4640   -8.2220 C   0  0  0  0  0  0  0  0  0  0  0  0
   -9.1020   -3.6400   -8.0350 O   0  0  0  0  0  0  0  0  0  0  0  0
   -7.5950   -5.5640   -7.2760 C   0  0  0  0  0  0  0  0  0  0  0  0
   -7.9540   -5.2540   -5.8690 C   0  0  0  0  0  0  0  0  0  0  0  0
   -7.5870   -6.3340   -4.8720 C   0  0  0  0  0  0  0  0  0  0  0  0
   -6.9040   -7.6030   -5.4090 C   0  0  0  0  0  0  0  0  0  0  0  0
   -6.5240   -8.6450   -4.3730 C   0  0  0  0  0  0  0  0  0  0  0  0
   -5.7780   -7.8320   -3.4120 N   0  0  0  0  0  0  0  0  0  0  0  0
   -5.3470   -8.1340   -2.1100 C   0  0  0  0  0  0  0  0  0  0  0  0
   -6.0340   -9.0410   -1.1030 C   0  0  0  0  0  0  0  0  0  0  0  0
   -5.4670   -9.2290    0.1890 C   0  0  0  0  0  0  0  0  0  0  0  0
   -4.2820   -8.5610    0.4890 C   0  0  0  0  0  0  0  0  0  0  0  0
   -3.5770   -8.5920    1.6520 C   0  0  0  0  0  0  0  0  0  0  0  0
   -2.4620   -7.7660    1.5290 C   0  0  0  0  0  0  0  0  0  0  0  0
   -2.4890   -7.2250    0.1730 O   0  0  0  0  0  0  0  0  0  0  0  0
   -3.6320   -7.7480   -0.3770 C   0  0  0  0  0  0  0  0  0  0  0  0
   -4.1560   -7.5060   -1.7250 C   0  0  0  0  0  0  0  0  0  0  0  0
   -6.6420   -7.7500   -6.7870 C   0  0  0  0  0  0  0  0  0  0  0  0
   -6.9790   -6.7440   -7.7020 C   0  0  0  0  0  0  0  0  0  0  0  0
   -6.4830   -5.0600   -9.4580 H   0  0  0  0  0  0  0  0  0  0  0  0
   -6.8470   -3.3790   -9.5800 H   0  0  0  0  0  0  0  0  0  0  0  0
   -8.4340   -4.3300   -5.5600 H   0  0  0  0  0  0  0  0  0  0  0  0
   -7.7990   -6.2030   -3.8140 H   0  0  0  0  0  0  0  0  0  0  0  0
   -7.4260   -9.0900   -3.9370 H   0  0  0  0  0  0  0  0  0  0  0  0
   -5.9020   -9.4350   -4.8160 H   0  0  0  0  0  0  0  0  0  0  0  0
   -5.9340   -6.8350   -3.5370 H   0  0  0  0  0  0  0  0  0  0  0  0
   -6.9580   -9.5560   -1.3440 H   0  0  0  0  0  0  0  0  0  0  0  0
   -5.9510   -9.8710    0.9150 H   0  0  0  0  0  0  0  0  0  0  0  0
   -4.2160   -8.2110    2.4560 H   0  0  0  0  0  0  0  0  0  0  0  0
   -3.2590   -9.6020    1.9130 H   0  0  0  0  0  0  0  0  0  0  0  0
   -1.5280   -8.3110    1.6960 H   0  0  0  0  0  0  0  0  0  0  0  0
   -2.5030   -6.9200    2.2250 H   0  0  0  0  0  0  0  0  0  0  0  0
   -3.6260   -6.8510   -2.4040 H   0  0  0  0  0  0  0  0  0  0  0  0
   -6.1620   -8.6520   -7.1500 H   0  0  0  0  0  0  0  0  0  0  0  0
   -6.7540   -6.8840   -8.7580 H   0  0  0  0  0  0  0  0  0  0  0  0
  1  2  1  0
  2  3  2  0
  2  4  1  0
  4  5  2  0
  5  6  1  0
  6  7  2  0
  7  8  1  0
  8  9  1  0
  9 10  1  0
 10 11  2  0
 11 12  1  0
 12 13  2  0
 13 14  1  0
 14 15  1  0
 15 16  1  0
 16 17  1  0
 17 18  2  0
  7 19  1  0
 19 20  2  0
 20  4  1  0
 18 10  1  0
 17 13  1  0
  1 21  1  0
  1 22  1  0
  5 23  1  0
  6 24  1  0
  8 25  1  0
  8 26  1  0
  9 27  1  0
 11 28  1  0
 12 29  1  0
 14 30  1  0
 14 31  1  0
 15 32  1  0
 15 33  1  0
 18 34  1  0
 19 35  1  0
 20 36  1  0
A    1
 N1 
A    2
 C1 
A    3
 O1 
A    4
 C2 
A    5
 C3 
A    6
 C4 
A    7
 C5 
A    8
 C6 
A    9
 N2 
A   10
 C7 
A   11
 C8 
A   12
 C9 
A   13
 C10
A   14
 C11
A   15
 C12
A   16
 O2 
A   17
 C13
A   18
 C14
A   19
 C15
A   20
 C16
A   21
 H1 
A   22
 H2 
A   23
 H3 
A   24
 H4 
A   25
 H5 
A   26
 H6 
A   27
 H7 
A   28
 H8 
A   29
 H9 
A   30
 H10
A   31
 H11
A   32
 H12
A   33
 H13
A   34
 H14
A   35
 H15
A   36
 H16
M  END
>  <ref_pdb>  (3) 
x0147_0A

>  <ref_mols>  (3) 
x0771_1AS1,x1140_0AS2

>  <original SMILES>  (3) 
[H]c1c([H])c(C([H])([H])N([H])c2c([H])c([H])c3c(c2[H])OC([H])([H])C3([H])[H])c([H])c([H])c1C(=O)N([H])[H]

>  <index>  (3) 
16773

>  <∆∆G>  (3) 
-5.803034

>  <comRMSD>  (3) 
0.31351

>  <N_constrained_atoms>  (3) 
19.0

>  <N_unconstrained_atoms>  (3) 
1.0

>  <LE>  (3) 
0.290152

>  <percent_hybrid>  (3) 
48.0

>  <max_hit_Tanimoto>  (3) 
0.215726

>  <largest_ring>  (3) 
6

>  <N_interactions_kept>  (3) 
2.0

>  <N_interactions_lost>  (3) 
1.5

>  <interaction_uniqueness_metric>  (3) 
0.155014

>  <N_HA>  (3) 
20

>  <N_rotatable_bonds>  (3) 
4

>  <N_interactions>  (3) 
5

>  <N_PAINS>  (3) 
0

>  <UFF_Gibbs>  (3) 
124.94785

>  <strain_per_HA>  (3) 
6.247361

>  <ad_hoc_penalty>  (3) 
-33.333803

>  <cluster>  (3) 
3086

>  <ranked>  (3) 
30.0

>  <merger_rank>  (3) 
1

>  <hydroph_interaction:LEU:127>  (3) 
1

>  <hbond:GLY:128>  (3) 
0

>  <hydroph_interaction:ALA:144>  (3) 
0

>  <hbond:GLY:164>  (3) 
0

>  <hbond:HIS:40>  (3) 
0

>  <pistack:HIS:40>  (3) 
1

>  <hydroph_interaction:LEU:125>  (3) 
0

>  <hydroph_interaction:PHE:170>  (3) 
0

>  <hydroph_interaction:HIS:40>  (3) 
1

>  <pication:HIS:40>  (3) 
0

>  <hbond:THR:142>  (3) 
0

>  <hbond:HIS:161>  (3) 
1

>  <hbond:GLY:166>  (3) 
0

>  <hbond:VAL:162>  (3) 
1

>  <hydroph_interaction:ASN:165>  (3) 
0

>  <saltbridge:HIS:161>  (3) 
0

>  <hbond:GLY:145>  (3) 
0

>  <hbond:CYS:147>  (3) 
0

>  <saltbridge:HIS:40>  (3) 
0

>  <hbond:LEU:127>  (3) 
0

>  <hbond:THR:130>  (3) 
0

>  <halogenbond:THR:142>  (3) 
0

>  <halogenbond:CYS:147>  (3) 
0

$$$$
Z4906404319-x0771-1A
     RDKit          3D

 43 46  0  0  0  0  0  0  0  0999 V2000
   -8.4060   -3.2160   -7.8420 O   0  0  0  0  0  0  0  0  0  0  0  0
   -7.6950   -4.1630   -8.1360 C   0  0  0  0  0  0  0  0  0  0  0  0
   -6.9210   -4.2600   -9.2470 O   0  0  0  0  0  0  0  0  0  0  0  0
   -7.5910   -5.3690   -7.3010 C   0  0  0  0  0  0  0  0  0  0  0  0
   -7.9370   -5.2900   -5.8560 C   0  0  0  0  0  0  0  0  0  0  0  0
   -7.8780   -6.3860   -5.0170 C   0  0  0  0  0  0  0  0  0  0  0  0
   -7.4800   -7.5880   -5.6110 C   0  0  0  0  0  0  0  0  0  0  0  0
   -7.1560   -7.6670   -6.9500 C   0  0  0  0  0  0  0  0  0  0  0  0
   -7.1880   -6.5850   -7.8200 C   0  0  0  0  0  0  0  0  0  0  0  0
   -6.8070   -9.0790   -7.2300 C   0  0  0  0  0  0  0  0  0  0  0  0
   -6.4170   -9.4450   -5.9400 C   0  0  0  0  0  0  0  0  0  0  0  0
   -7.3140   -8.9740   -5.0410 C   0  0  0  0  0  0  0  0  0  0  0  0
   -6.8860   -8.9740   -3.6590 N   0  0  0  0  0  0  0  0  0  0  0  0
   -5.8070   -8.0460   -3.3550 C   0  0  0  0  0  0  0  0  0  0  0  0
   -5.2830   -8.2350   -1.9660 C   0  0  0  0  0  0  0  0  0  0  0  0
   -5.9640   -9.0880   -1.0720 C   0  0  0  0  0  0  0  0  0  0  0  0
   -5.4940   -9.2870    0.2270 C   0  0  0  0  0  0  0  0  0  0  0  0
   -4.3540   -8.6340    0.6210 C   0  0  0  0  0  0  0  0  0  0  0  0
   -3.9380   -8.8640    1.8960 O   0  0  0  0  0  0  0  0  0  0  0  0
   -3.2220   -7.7330    2.3700 C   0  0  0  0  0  0  0  0  0  0  0  0
   -2.1100   -7.3750    1.4310 C   0  0  0  0  0  0  0  0  0  0  0  0
   -2.5450   -7.1240    0.0940 O   0  0  0  0  0  0  0  0  0  0  0  0
   -3.6740   -7.7890   -0.2500 C   0  0  0  0  0  0  0  0  0  0  0  0
   -4.1310   -7.5840   -1.5430 C   0  0  0  0  0  0  0  0  0  0  0  0
   -7.5330   -4.6530   -9.9140 H   0  0  0  0  0  0  0  0  0  0  0  0
   -8.2520   -4.3340   -5.4390 H   0  0  0  0  0  0  0  0  0  0  0  0
   -8.1160   -6.3890   -3.9630 H   0  0  0  0  0  0  0  0  0  0  0  0
   -6.9200   -6.7010   -8.8640 H   0  0  0  0  0  0  0  0  0  0  0  0
   -7.6850   -9.6700   -7.4980 H   0  0  0  0  0  0  0  0  0  0  0  0
   -6.1380   -9.0850   -8.0670 H   0  0  0  0  0  0  0  0  0  0  0  0
   -5.3720   -9.2310   -5.7100 H   0  0  0  0  0  0  0  0  0  0  0  0
   -6.4430  -10.5380   -5.9050 H   0  0  0  0  0  0  0  0  0  0  0  0
   -8.2780   -9.4850   -5.1630 H   0  0  0  0  0  0  0  0  0  0  0  0
   -6.6310   -9.9160   -3.3740 H   0  0  0  0  0  0  0  0  0  0  0  0
   -6.1830   -7.0200   -3.4420 H   0  0  0  0  0  0  0  0  0  0  0  0
   -5.0000   -8.1260   -4.0970 H   0  0  0  0  0  0  0  0  0  0  0  0
   -6.8670   -9.6050   -1.3880 H   0  0  0  0  0  0  0  0  0  0  0  0
   -6.0200   -9.9460    0.9120 H   0  0  0  0  0  0  0  0  0  0  0  0
   -2.8110   -7.9910    3.3500 H   0  0  0  0  0  0  0  0  0  0  0  0
   -3.9180   -6.8950    2.5000 H   0  0  0  0  0  0  0  0  0  0  0  0
   -1.3930   -8.2010    1.3930 H   0  0  0  0  0  0  0  0  0  0  0  0
   -1.5890   -6.4800    1.7850 H   0  0  0  0  0  0  0  0  0  0  0  0
   -3.5900   -6.9240   -2.2110 H   0  0  0  0  0  0  0  0  0  0  0  0
  1  2  2  0
  2  3  1  0
  2  4  1  0
  4  5  2  0
  5  6  1  0
  6  7  2  0
  7  8  1  0
  8  9  2  0
  8 10  1  0
 10 11  1  0
 11 12  1  0
 12 13  1  0
 13 14  1  0
 14 15  1  0
 15 16  2  0
 16 17  1  0
 17 18  2  0
 18 19  1  0
 19 20  1  0
 20 21  1  0
 21 22  1  0
 22 23  1  0
 23 24  2  0
  9  4  1  0
 12  7  1  0
 24 15  1  0
 23 18  1  0
  3 25  1  0
  5 26  1  0
  6 27  1  0
  9 28  1  0
 10 29  1  0
 10 30  1  0
 11 31  1  0
 11 32  1  0
 12 33  1  0
 13 34  1  0
 14 35  1  0
 14 36  1  0
 16 37  1  0
 17 38  1  0
 20 39  1  0
 20 40  1  0
 21 41  1  0
 21 42  1  0
 24 43  1  0
A    1
 O1 
A    2
 C1 
A    3
 O2 
A    4
 C2 
A    5
 C3 
A    6
 C4 
A    7
 C5 
A    8
 C6 
A    9
 C7 
A   10
 C8 
A   11
 C9 
A   12
 C10
A   13
 N1 
A   14
 C11
A   15
 C12
A   16
 C13
A   17
 C14
A   18
 C15
A   19
 O3 
A   20
 C16
A   21
 C17
A   22
 O4 
A   23
 C18
A   24
 C19
A   25
 H1 
A   26
 H2 
A   27
 H3 
A   28
 H4 
A   29
 H5 
A   30
 H6 
A   31
 H7 
A   32
 H8 
A   33
 H9 
A   34
 H10
A   35
 H11
A   36
 H12
A   37
 H13
A   38
 H14
A   39
 H15
A   40
 H16
A   41
 H17
A   42
 H18
A   43
 H19
M  END
>  <ref_pdb>  (4) 
x0147_0A

>  <ref_mols>  (4) 
x0771_1A,x1140_0AS4

>  <original SMILES>  (4) 
[H]OC(=O)c1c([H])c([H])c2c(c1[H])C([H])([H])C([H])([H])C2([H])N([H])C([H])([H])c1c([H])c([H])c2c(c1[H])OC([H])([H])C([H])([H])O2

>  <index>  (4) 
13425

>  <∆∆G>  (4) 
-5.73693

>  <comRMSD>  (4) 
0.423064

>  <N_constrained_atoms>  (4) 
21.0

>  <N_unconstrained_atoms>  (4) 
3.0

>  <LE>  (4) 
0.239039

>  <percent_hybrid>  (4) 
43.0

>  <max_hit_Tanimoto>  (4) 
0.256044

>  <largest_ring>  (4) 
6

>  <N_interactions_kept>  (4) 
1.5

>  <N_interactions_lost>  (4) 
2.5

>  <interaction_uniqueness_metric>  (4) 
0.139024

>  <N_HA>  (4) 
24

>  <N_rotatable_bonds>  (4) 
4

>  <N_interactions>  (4) 
6

>  <N_PAINS>  (4) 
0

>  <UFF_Gibbs>  (4) 
105.349098

>  <strain_per_HA>  (4) 
4.389527

>  <ad_hoc_penalty>  (4) 
-30.081641

>  <cluster>  (4) 
350

>  <ranked>  (4) 
49.0

>  <merger_rank>  (4) 
1

>  <hydroph_interaction:LEU:127>  (4) 
1

>  <hbond:GLY:128>  (4) 
0

>  <hydroph_interaction:ALA:144>  (4) 
0

>  <hbond:GLY:164>  (4) 
1

>  <hbond:HIS:40>  (4) 
1

>  <pistack:HIS:40>  (4) 
1

>  <hydroph_interaction:LEU:125>  (4) 
0

>  <hydroph_interaction:PHE:170>  (4) 
0

>  <hydroph_interaction:HIS:40>  (4) 
1

>  <pication:HIS:40>  (4) 
0

>  <hbond:THR:142>  (4) 
0

>  <hbond:HIS:161>  (4) 
0

>  <hbond:GLY:166>  (4) 
0

>  <hbond:VAL:162>  (4) 
0

>  <hydroph_interaction:ASN:165>  (4) 
0

>  <saltbridge:HIS:161>  (4) 
1

>  <hbond:GLY:145>  (4) 
0

>  <hbond:CYS:147>  (4) 
0

>  <saltbridge:HIS:40>  (4) 
0

>  <hbond:LEU:127>  (4) 
0

>  <hbond:THR:130>  (4) 
0

>  <halogenbond:THR:142>  (4) 
0

>  <halogenbond:CYS:147>  (4) 
0

$$$$
PV-002509291870-x1919-0AS2
     RDKit          3D

 41 43  0  0  0  0  0  0  0  0999 V2000
   -5.8330   -4.4310   -3.4330 O   0  0  0  0  0  0  0  0  0  0  0  0
   -6.6610   -5.1790   -2.9500 C   0  0  0  0  0  0  0  0  0  0  0  0
   -7.7180   -4.6710   -2.2700 N   0  0  0  0  0  0  0  0  0  0  0  0
   -8.6880   -4.0760   -3.1610 C   0  0  0  0  0  0  0  0  0  0  0  0
   -9.0610   -5.0090   -4.3390 C   0  0  0  0  0  0  0  0  0  0  0  0
   -8.5680   -4.9280   -5.6710 C   0  0  0  0  0  0  0  0  0  0  0  0
   -7.7860   -5.9780   -6.1840 C   0  0  0  0  0  0  0  0  0  0  0  0
   -7.2490   -5.9550   -7.4680 C   0  0  0  0  0  0  0  0  0  0  0  0
   -7.5290   -4.7320   -8.3400 C   0  0  0  0  0  0  0  0  0  0  0  0
   -7.0320   -4.5970   -9.6000 O   0  0  0  0  0  0  0  0  0  0  0  0
   -8.3260   -3.7410   -7.7810 C   0  0  0  0  0  0  0  0  0  0  0  0
   -8.8370   -3.8220   -6.4910 C   0  0  0  0  0  0  0  0  0  0  0  0
   -6.7390   -6.5530   -3.0210 N   0  0  0  0  0  0  0  0  0  0  0  0
   -5.6600   -7.4970   -3.2450 C   0  0  0  0  0  0  0  0  0  0  0  0
   -5.2120   -7.8920   -1.9990 C   0  0  0  0  0  0  0  0  0  0  0  0
   -6.0090   -8.9490   -1.2180 C   0  0  0  0  0  0  0  0  0  0  0  0
   -5.4500   -9.3120    0.1340 C   0  0  0  0  0  0  0  0  0  0  0  0
   -4.2880   -8.6850    0.5760 C   0  0  0  0  0  0  0  0  0  0  0  0
   -3.7120   -8.8850    1.6760 O   0  0  0  0  0  0  0  0  0  0  0  0
   -2.6140   -8.0650    1.7090 C   0  0  0  0  0  0  0  0  0  0  0  0
   -2.5710   -7.3540    0.5450 C   0  0  0  0  0  0  0  0  0  0  0  0
   -3.6350   -7.7370   -0.2020 C   0  0  0  0  0  0  0  0  0  0  0  0
   -4.0460   -7.3220   -1.4640 C   0  0  0  0  0  0  0  0  0  0  0  0
   -7.4470   -4.0960   -1.4890 H   0  0  0  0  0  0  0  0  0  0  0  0
   -8.2980   -3.1440   -3.5780 H   0  0  0  0  0  0  0  0  0  0  0  0
   -9.5770   -3.8130   -2.5760 H   0  0  0  0  0  0  0  0  0  0  0  0
   -8.8280   -6.0170   -3.9620 H   0  0  0  0  0  0  0  0  0  0  0  0
  -10.1520   -4.9440   -4.3980 H   0  0  0  0  0  0  0  0  0  0  0  0
   -7.5640   -6.8540   -5.5840 H   0  0  0  0  0  0  0  0  0  0  0  0
   -6.6410   -6.7770   -7.8400 H   0  0  0  0  0  0  0  0  0  0  0  0
   -7.4530   -5.2700  -10.1800 H   0  0  0  0  0  0  0  0  0  0  0  0
   -8.5080   -2.8910   -8.4500 H   0  0  0  0  0  0  0  0  0  0  0  0
   -9.4530   -2.9960   -6.1170 H   0  0  0  0  0  0  0  0  0  0  0  0
   -7.6150   -6.9440   -2.6400 H   0  0  0  0  0  0  0  0  0  0  0  0
   -6.0680   -8.3680   -3.7660 H   0  0  0  0  0  0  0  0  0  0  0  0
   -4.9700   -7.0350   -3.9520 H   0  0  0  0  0  0  0  0  0  0  0  0
   -6.9160   -9.4080   -1.6080 H   0  0  0  0  0  0  0  0  0  0  0  0
   -5.9370  -10.0510    0.7680 H   0  0  0  0  0  0  0  0  0  0  0  0
   -1.9110   -8.0110    2.5390 H   0  0  0  0  0  0  0  0  0  0  0  0
   -1.7890   -6.6400    0.3580 H   0  0  0  0  0  0  0  0  0  0  0  0
   -3.4910   -6.5800   -2.0210 H   0  0  0  0  0  0  0  0  0  0  0  0
  1  2  2  0
  2  3  1  0
  3  4  1  0
  4  5  1  0
  5  6  1  0
  6  7  2  0
  7  8  1  0
  8  9  2  0
  9 10  1  0
  9 11  1  0
 11 12  2  0
  2 13  1  0
 13 14  1  0
 14 15  1  0
 15 16  2  0
 16 17  1  0
 17 18  2  0
 18 19  1  0
 19 20  1  0
 20 21  2  0
 21 22  1  0
 22 23  2  0
 12  6  1  0
 23 15  1  0
 22 18  1  0
  3 24  1  0
  4 25  1  0
  4 26  1  0
  5 27  1  0
  5 28  1  0
  7 29  1  0
  8 30  1  0
 10 31  1  0
 11 32  1  0
 12 33  1  0
 13 34  1  0
 14 35  1  0
 14 36  1  0
 16 37  1  0
 17 38  1  0
 20 39  1  0
 21 40  1  0
 23 41  1  0
A    1
 O1 
A    2
 C1 
A    3
 N1 
A    4
 C2 
A    5
 C3 
A    6
 C4 
A    7
 C5 
A    8
 C6 
A    9
 C7 
A   10
 O2 
A   11
 C8 
A   12
 C9 
A   13
 N2 
A   14
 C10
A   15
 C11
A   16
 C12
A   17
 C13
A   18
 C14
A   19
 O3 
A   20
 C15
A   21
 C16
A   22
 C17
A   23
 C18
A   24
 H1 
A   25
 H2 
A   26
 H3 
A   27
 H4 
A   28
 H5 
A   29
 H6 
A   30
 H7 
A   31
 H8 
A   32
 H9 
A   33
 H10
A   34
 H11
A   35
 H12
A   36
 H13
A   37
 H14
A   38
 H15
A   39
 H16
A   40
 H17
A   41
 H18
M  END
>  <ref_pdb>  (5) 
x0147_0A

>  <ref_mols>  (5) 
x1919_0AS2,x1498_0A

>  <original SMILES>  (5) 
[H]Oc1c([H])c([H])c(C([H])([H])C([H])([H])N([H])C(=O)N([H])C([H])([H])c2c([H])c([H])c3oc([H])c([H])c3c2[H])c([H])c1[H]

>  <index>  (5) 
3700

>  <∆∆G>  (5) 
-7.866887

>  <comRMSD>  (5) 
0.891512

>  <N_constrained_atoms>  (5) 
23.0

>  <N_unconstrained_atoms>  (5) 
0.0

>  <LE>  (5) 
0.342039

>  <percent_hybrid>  (5) 
31.0

>  <max_hit_Tanimoto>  (5) 
0.229885

>  <largest_ring>  (5) 
6

>  <N_interactions_kept>  (5) 
2.0

>  <N_interactions_lost>  (5) 
2.0

>  <interaction_uniqueness_metric>  (5) 
0.081682

>  <N_HA>  (5) 
23

>  <N_rotatable_bonds>  (5) 
6

>  <N_interactions>  (5) 
4

>  <N_PAINS>  (5) 
0

>  <UFF_Gibbs>  (5) 
107.275832

>  <strain_per_HA>  (5) 
4.664146

>  <ad_hoc_penalty>  (5) 
-30.03382

>  <cluster>  (5) 
1211

>  <ranked>  (5) 
50.0

>  <merger_rank>  (5) 
1

>  <hydroph_interaction:LEU:127>  (5) 
0

>  <hbond:GLY:128>  (5) 
0

>  <hydroph_interaction:ALA:144>  (5) 
0

>  <hbond:GLY:164>  (5) 
1

>  <hbond:HIS:40>  (5) 
0

>  <pistack:HIS:40>  (5) 
1

>  <hydroph_interaction:LEU:125>  (5) 
0

>  <hydroph_interaction:PHE:170>  (5) 
0

>  <hydroph_interaction:HIS:40>  (5) 
1

>  <pication:HIS:40>  (5) 
0

>  <hbond:THR:142>  (5) 
1

>  <hbond:HIS:161>  (5) 
0

>  <hbond:GLY:166>  (5) 
0

>  <hbond:VAL:162>  (5) 
0

>  <hydroph_interaction:ASN:165>  (5) 
0

>  <saltbridge:HIS:161>  (5) 
0

>  <hbond:GLY:145>  (5) 
0

>  <hbond:CYS:147>  (5) 
0

>  <saltbridge:HIS:40>  (5) 
0

>  <hbond:LEU:127>  (5) 
0

>  <hbond:THR:130>  (5) 
0

>  <halogenbond:THR:142>  (5) 
0

>  <halogenbond:CYS:147>  (5) 
0

$$$$
Z3226867952-x1919-0AS10
     RDKit          3D

 39 39  0  0  0  0  0  0  0  0999 V2000
   -5.4610    0.3240   -1.9120 C   0  0  0  0  0  0  0  0  0  0  0  0
   -6.1750    0.1950   -0.5880 C   0  0  0  0  0  0  0  0  0  0  0  0
   -7.2360   -0.8630   -0.6750 C   0  0  0  0  0  0  0  0  0  0  0  0
   -6.6500   -2.1540   -0.7320 O   0  0  0  0  0  0  0  0  0  0  0  0
   -7.5000   -3.1280   -1.3470 C   0  0  0  0  0  0  0  0  0  0  0  0
   -6.8050   -4.3260   -1.5440 C   0  0  0  0  0  0  0  0  0  0  0  0
   -6.7230   -4.8590   -2.8360 C   0  0  0  0  0  0  0  0  0  0  0  0
   -6.4280   -4.1860   -3.8300 O   0  0  0  0  0  0  0  0  0  0  0  0
   -7.0320   -6.3010   -2.8240 N   0  0  0  0  0  0  0  0  0  0  0  0
   -7.3190   -6.8820   -4.1500 C   0  0  0  0  0  0  0  0  0  0  0  0
   -8.6930   -6.4530   -4.7160 C   0  0  0  0  0  0  0  0  0  0  0  0
   -8.3490   -5.8360   -5.9420 C   0  0  0  0  0  0  0  0  0  0  0  0
   -8.8370   -4.6030   -6.3890 C   0  0  0  0  0  0  0  0  0  0  0  0
   -8.3530   -4.0390   -7.7140 C   0  0  0  0  0  0  0  0  0  0  0  0
   -7.4300   -4.7220   -8.5020 C   0  0  0  0  0  0  0  0  0  0  0  0
   -6.9120   -4.3280   -9.6700 O   0  0  0  0  0  0  0  0  0  0  0  0
   -6.9650   -5.9600   -8.0550 C   0  0  0  0  0  0  0  0  0  0  0  0
   -7.4390   -6.5200   -6.7490 C   0  0  0  0  0  0  0  0  0  0  0  0
   -4.4800   -0.1450   -1.8730 H   0  0  0  0  0  0  0  0  0  0  0  0
   -5.3310    1.3770   -2.1740 H   0  0  0  0  0  0  0  0  0  0  0  0
   -6.0360   -0.1580   -2.7080 H   0  0  0  0  0  0  0  0  0  0  0  0
   -6.6260    1.1520   -0.3060 H   0  0  0  0  0  0  0  0  0  0  0  0
   -5.4500   -0.0460    0.1930 H   0  0  0  0  0  0  0  0  0  0  0  0
   -7.8600   -0.8360    0.2250 H   0  0  0  0  0  0  0  0  0  0  0  0
   -7.8950   -0.7060   -1.5380 H   0  0  0  0  0  0  0  0  0  0  0  0
   -7.7850   -2.7340   -2.3290 H   0  0  0  0  0  0  0  0  0  0  0  0
   -8.4070   -3.2760   -0.7560 H   0  0  0  0  0  0  0  0  0  0  0  0
   -7.2410   -5.1120   -0.9250 H   0  0  0  0  0  0  0  0  0  0  0  0
   -5.7770   -4.1730   -1.2270 H   0  0  0  0  0  0  0  0  0  0  0  0
   -6.5480   -6.8710   -2.1330 H   0  0  0  0  0  0  0  0  0  0  0  0
   -6.5040   -6.5580   -4.8080 H   0  0  0  0  0  0  0  0  0  0  0  0
   -7.2670   -7.9760   -4.0880 H   0  0  0  0  0  0  0  0  0  0  0  0
   -9.3440   -7.3140   -4.8810 H   0  0  0  0  0  0  0  0  0  0  0  0
   -9.1970   -5.7450   -4.0510 H   0  0  0  0  0  0  0  0  0  0  0  0
   -9.5550   -4.0630   -5.7640 H   0  0  0  0  0  0  0  0  0  0  0  0
   -8.7280   -3.0690   -8.0640 H   0  0  0  0  0  0  0  0  0  0  0  0
   -7.0480   -3.3740   -9.7550 H   0  0  0  0  0  0  0  0  0  0  0  0
   -6.2450   -6.5190   -8.6640 H   0  0  0  0  0  0  0  0  0  0  0  0
   -7.0540   -7.4800   -6.4270 H   0  0  0  0  0  0  0  0  0  0  0  0
  1  2  1  0
  2  3  1  0
  3  4  1  0
  4  5  1  0
  5  6  1  0
  6  7  1  0
  7  8  2  0
  7  9  1  0
  9 10  1  0
 10 11  1  0
 11 12  1  0
 12 13  2  0
 13 14  1  0
 14 15  2  0
 15 16  1  0
 15 17  1  0
 17 18  2  0
 18 12  1  0
  1 19  1  0
  1 20  1  0
  1 21  1  0
  2 22  1  0
  2 23  1  0
  3 24  1  0
  3 25  1  0
  5 26  1  0
  5 27  1  0
  6 28  1  0
  6 29  1  0
  9 30  1  0
 10 31  1  0
 10 32  1  0
 11 33  1  0
 11 34  1  0
 13 35  1  0
 14 36  1  0
 16 37  1  0
 17 38  1  0
 18 39  1  0
A    1
 C1 
A    2
 C2 
A    3
 C3 
A    4
 O1 
A    5
 C4 
A    6
 C5 
A    7
 C6 
A    8
 O2 
A    9
 N1 
A   10
 C7 
A   11
 C8 
A   12
 C9 
A   13
 C10
A   14
 C11
A   15
 C12
A   16
 O3 
A   17
 C13
A   18
 C14
A   19
 H1 
A   20
 H2 
A   21
 H3 
A   22
 H4 
A   23
 H5 
A   24
 H6 
A   25
 H7 
A   26
 H8 
A   27
 H9 
A   28
 H10
A   29
 H11
A   30
 H12
A   31
 H13
A   32
 H14
A   33
 H15
A   34
 H16
A   35
 H17
A   36
 H18
A   37
 H19
A   38
 H20
A   39
 H21
M  END
>  <ref_pdb>  (6) 
x0147_0A

>  <ref_mols>  (6) 
x1919_0AS10,x1498_0A

>  <original SMILES>  (6) 
[H]Oc1c([H])c([H])c(C([H])([H])C([H])([H])N([H])C(=O)C([H])([H])C([H])([H])OC([H])([H])C([H])([H])C([H])([H])[H])c([H])c1[H]

>  <index>  (6) 
1161

>  <∆∆G>  (6) 
-10.603721

>  <comRMSD>  (6) 
0.683675

>  <N_constrained_atoms>  (6) 
17.0

>  <N_unconstrained_atoms>  (6) 
1.0

>  <LE>  (6) 
0.589096

>  <percent_hybrid>  (6) 
42.0

>  <max_hit_Tanimoto>  (6) 
0.098976

>  <largest_ring>  (6) 
6

>  <N_interactions_kept>  (6) 
1.0

>  <N_interactions_lost>  (6) 
2.5

>  <interaction_uniqueness_metric>  (6) 
0.163298

>  <N_HA>  (6) 
18

>  <N_rotatable_bonds>  (6) 
10

>  <N_interactions>  (6) 
5

>  <N_PAINS>  (6) 
0

>  <UFF_Gibbs>  (6) 
108.491166

>  <strain_per_HA>  (6) 
6.027254

>  <ad_hoc_penalty>  (6) 
-28.606297

>  <cluster>  (6) 
124

>  <ranked>  (6) 
83.0

>  <merger_rank>  (6) 
1

>  <hydroph_interaction:LEU:127>  (6) 
0

>  <hbond:GLY:128>  (6) 
1

>  <hydroph_interaction:ALA:144>  (6) 
0

>  <hbond:GLY:164>  (6) 
1

>  <hbond:HIS:40>  (6) 
0

>  <pistack:HIS:40>  (6) 
0

>  <hydroph_interaction:LEU:125>  (6) 
1

>  <hydroph_interaction:PHE:170>  (6) 
1

>  <hydroph_interaction:HIS:40>  (6) 
0

>  <pication:HIS:40>  (6) 
0

>  <hbond:THR:142>  (6) 
0

>  <hbond:HIS:161>  (6) 
1

>  <hbond:GLY:166>  (6) 
0

>  <hbond:VAL:162>  (6) 
0

>  <hydroph_interaction:ASN:165>  (6) 
0

>  <saltbridge:HIS:161>  (6) 
0

>  <hbond:GLY:145>  (6) 
0

>  <hbond:CYS:147>  (6) 
0

>  <saltbridge:HIS:40>  (6) 
0

>  <hbond:LEU:127>  (6) 
0

>  <hbond:THR:130>  (6) 
0

>  <halogenbond:THR:142>  (6) 
0

>  <halogenbond:CYS:147>  (6) 
0

$$$$
PV-002900902338-x0771-1A
     RDKit          3D

 27 27  0  0  0  0  0  0  0  0999 V2000
   -6.9450  -10.2260   -6.9230 C   0  0  0  0  0  0  0  0  0  0  0  0
   -6.7070   -9.0800   -7.7450 O   0  0  0  0  0  0  0  0  0  0  0  0
   -6.8810   -7.8890   -7.1030 C   0  0  0  0  0  0  0  0  0  0  0  0
   -7.1690   -6.6790   -7.9550 C   0  0  0  0  0  0  0  0  0  0  0  0
   -7.4190   -5.3760   -7.2860 C   0  0  0  0  0  0  0  0  0  0  0  0
   -7.7110   -4.2500   -8.0640 C   0  0  0  0  0  0  0  0  0  0  0  0
   -8.5030   -3.3520   -7.7570 O   0  0  0  0  0  0  0  0  0  0  0  0
   -7.0280   -4.2580   -9.2360 O   0  0  0  0  0  0  0  0  0  0  0  0
   -7.3460   -5.3290   -5.8840 C   0  0  0  0  0  0  0  0  0  0  0  0
   -7.0290   -6.4970   -5.1440 C   0  0  0  0  0  0  0  0  0  0  0  0
   -6.9070   -6.4190   -3.7230 N   0  0  0  0  0  0  0  0  0  0  0  0
   -7.4650   -4.9810   -3.0780 S   0  0  0  0  0  6  0  0  0  0  0  0
   -6.9800   -5.1830   -1.3810 C   0  0  0  0  0  0  0  0  0  0  0  0
   -6.6640   -3.9140   -3.6620 O   0  0  0  0  0  0  0  0  0  0  0  0
   -8.9000   -5.0360   -3.1910 O   0  0  0  0  0  0  0  0  0  0  0  0
   -6.8150   -7.7500   -5.7330 C   0  0  0  0  0  0  0  0  0  0  0  0
   -6.4720   -9.0990   -4.7050 Cl  0  0  0  0  0  0  0  0  0  0  0  0
   -7.1760  -11.0990   -7.5460 H   0  0  0  0  0  0  0  0  0  0  0  0
   -6.0750  -10.4430   -6.2950 H   0  0  0  0  0  0  0  0  0  0  0  0
   -7.8040  -10.0150   -6.2830 H   0  0  0  0  0  0  0  0  0  0  0  0
   -7.2060   -6.7810   -9.0410 H   0  0  0  0  0  0  0  0  0  0  0  0
   -7.0130   -3.3210   -9.5070 H   0  0  0  0  0  0  0  0  0  0  0  0
   -7.5200   -4.3870   -5.3660 H   0  0  0  0  0  0  0  0  0  0  0  0
   -7.4010   -7.1740   -3.2330 H   0  0  0  0  0  0  0  0  0  0  0  0
   -7.6480   -4.6070   -0.7210 H   0  0  0  0  0  0  0  0  0  0  0  0
   -5.9780   -4.7640   -1.2320 H   0  0  0  0  0  0  0  0  0  0  0  0
   -7.0010   -6.2450   -1.1280 H   0  0  0  0  0  0  0  0  0  0  0  0
  1  2  1  0
  2  3  1  0
  3  4  2  0
  4  5  1  0
  5  6  1  0
  6  7  2  0
  6  8  1  0
  5  9  2  0
  9 10  1  0
 10 11  1  0
 11 12  1  0
 12 13  1  0
 12 14  2  0
 12 15  2  0
 10 16  2  0
 16 17  1  0
 16  3  1  0
  1 18  1  0
  1 19  1  0
  1 20  1  0
  4 21  1  0
  8 22  1  0
  9 23  1  0
 11 24  1  0
 13 25  1  0
 13 26  1  0
 13 27  1  0
A    1
 C1 
A    2
 O1 
A    3
 C2 
A    4
 C3 
A    5
 C4 
A    6
 C5 
A    7
 O2 
A    8
 O3 
A    9
 C6 
A   10
 C7 
A   11
 N1 
A   12
 S1 
A   13
 C8 
A   14
 O4 
A   15
 O5 
A   16
 C9 
A   17
CL1 
A   18
 H1 
A   19
 H2 
A   20
 H3 
A   21
 H4 
A   22
 H5 
A   23
 H6 
A   24
 H7 
A   25
 H8 
A   26
 H9 
A   27
 H10
M  END
>  <ref_pdb>  (7) 
x0147_0A

>  <ref_mols>  (7) 
x0771_1A,x1140_0AS3

>  <original SMILES>  (7) 
[H]OC(=O)c1c([H])c(OC([H])([H])[H])c(Cl)c(N([H])S(=O)(=O)C([H])([H])[H])c1[H]

>  <index>  (7) 
14593

>  <∆∆G>  (7) 
-4.548243

>  <comRMSD>  (7) 
0.726934

>  <N_constrained_atoms>  (7) 
19.0

>  <N_unconstrained_atoms>  (7) 
0.0

>  <LE>  (7) 
0.239381

>  <percent_hybrid>  (7) 
37.0

>  <max_hit_Tanimoto>  (7) 
0.185841

>  <largest_ring>  (7) 
6

>  <N_interactions_kept>  (7) 
3.0

>  <N_interactions_lost>  (7) 
1.0

>  <interaction_uniqueness_metric>  (7) 
0.336002

>  <N_HA>  (7) 
17

>  <N_rotatable_bonds>  (7) 
6

>  <N_interactions>  (7) 
5

>  <N_PAINS>  (7) 
0

>  <UFF_Gibbs>  (7) 
144.799318

>  <strain_per_HA>  (7) 
8.517557

>  <ad_hoc_penalty>  (7) 
-27.62955

>  <cluster>  (7) 
3676

>  <ranked>  (7) 
104.0

>  <merger_rank>  (7) 
1

>  <hydroph_interaction:LEU:127>  (7) 
0

>  <hbond:GLY:128>  (7) 
0

>  <hydroph_interaction:ALA:144>  (7) 
0

>  <hbond:GLY:164>  (7) 
2

>  <hbond:HIS:40>  (7) 
0

>  <pistack:HIS:40>  (7) 
0

>  <hydroph_interaction:LEU:125>  (7) 
0

>  <hydroph_interaction:PHE:170>  (7) 
0

>  <hydroph_interaction:HIS:40>  (7) 
0

>  <pication:HIS:40>  (7) 
0

>  <hbond:THR:142>  (7) 
0

>  <hbond:HIS:161>  (7) 
0

>  <hbond:GLY:166>  (7) 
0

>  <hbond:VAL:162>  (7) 
0

>  <hydroph_interaction:ASN:165>  (7) 
0

>  <saltbridge:HIS:161>  (7) 
1

>  <hbond:GLY:145>  (7) 
1

>  <hbond:CYS:147>  (7) 
1

>  <saltbridge:HIS:40>  (7) 
0

>  <hbond:LEU:127>  (7) 
0

>  <hbond:THR:130>  (7) 
0

>  <halogenbond:THR:142>  (7) 
0

>  <halogenbond:CYS:147>  (7) 
0

$$$$
PV-002507852029-x0771-1AS1
     RDKit          3D

 38 40  0  0  0  0  0  0  0  0999 V2000
   -7.0470   -4.0990   -9.1870 N   0  0  0  0  0  0  0  0  0  0  0  0
   -7.9130   -4.1850   -8.1590 C   0  0  0  0  0  0  0  0  0  0  0  0
   -8.8090   -3.3710   -7.9680 O   0  0  0  0  0  0  0  0  0  0  0  0
   -7.6740   -5.3770   -7.2600 C   0  0  0  0  0  0  0  0  0  0  0  0
   -7.0250   -6.5140   -8.0370 C   0  0  0  0  0  0  0  0  0  0  0  0
   -6.7570   -7.7490   -7.1920 C   0  0  0  0  0  0  0  0  0  0  0  0
   -7.1350   -7.7230   -5.7400 C   0  0  0  0  0  0  0  0  0  0  0  0
   -7.7770   -6.4830   -5.1210 C   0  0  0  0  0  0  0  0  0  0  0  0
   -8.1390   -6.3770   -3.7810 N   0  0  0  0  0  0  0  0  0  0  0  0
   -7.2990   -5.8340   -2.8970 C   0  0  0  0  0  0  0  0  0  0  0  0
   -7.6130   -5.0930   -2.0080 O   0  0  0  0  0  0  0  0  0  0  0  0
   -6.0230   -6.2670   -3.1890 N   0  0  0  0  0  0  0  0  0  0  0  0
   -5.7370   -7.6890   -3.2130 C   0  0  0  0  0  0  0  0  0  0  0  0
   -5.2570   -8.0730   -1.8470 C   0  0  0  0  0  0  0  0  0  0  0  0
   -6.0290   -9.0430   -0.9920 C   0  0  0  0  0  0  0  0  0  0  0  0
   -5.5020   -9.3840    0.3840 C   0  0  0  0  0  0  0  0  0  0  0  0
   -4.2130   -8.6770    0.7400 C   0  0  0  0  0  0  0  0  0  0  0  0
   -3.5440   -8.8140    1.9150 O   0  0  0  0  0  0  0  0  0  0  0  0
   -2.4530   -8.0160    1.8320 C   0  0  0  0  0  0  0  0  0  0  0  0
   -2.4140   -7.3770    0.6280 C   0  0  0  0  0  0  0  0  0  0  0  0
   -3.5490   -7.7880   -0.1030 C   0  0  0  0  0  0  0  0  0  0  0  0
   -4.0620   -7.4920   -1.3810 C   0  0  0  0  0  0  0  0  0  0  0  0
   -8.0140   -5.3790   -5.9140 C   0  0  0  0  0  0  0  0  0  0  0  0
   -6.7690   -3.2230   -9.5860 H   0  0  0  0  0  0  0  0  0  0  0  0
   -7.0120   -4.9140   -9.7900 H   0  0  0  0  0  0  0  0  0  0  0  0
   -6.7780   -6.4560   -9.0950 H   0  0  0  0  0  0  0  0  0  0  0  0
   -6.3050   -8.6280   -7.6240 H   0  0  0  0  0  0  0  0  0  0  0  0
   -6.9340   -8.6130   -5.1530 H   0  0  0  0  0  0  0  0  0  0  0  0
   -9.1180   -6.2430   -3.5820 H   0  0  0  0  0  0  0  0  0  0  0  0
   -5.2690   -5.6800   -2.8660 H   0  0  0  0  0  0  0  0  0  0  0  0
   -6.6090   -8.2780   -3.5040 H   0  0  0  0  0  0  0  0  0  0  0  0
   -4.9500   -7.8540   -3.9620 H   0  0  0  0  0  0  0  0  0  0  0  0
   -6.9560   -9.4990   -1.3450 H   0  0  0  0  0  0  0  0  0  0  0  0
   -6.0000  -10.0710    1.0590 H   0  0  0  0  0  0  0  0  0  0  0  0
   -1.8050   -8.0100    2.7000 H   0  0  0  0  0  0  0  0  0  0  0  0
   -1.6540   -6.6950    0.3250 H   0  0  0  0  0  0  0  0  0  0  0  0
   -3.5300   -6.8000   -2.0230 H   0  0  0  0  0  0  0  0  0  0  0  0
   -8.4710   -4.4940   -5.4810 H   0  0  0  0  0  0  0  0  0  0  0  0
  1  2  1  0
  2  3  2  0
  2  4  1  0
  4  5  2  0
  5  6  1  0
  6  7  2  0
  7  8  1  0
  8  9  1  0
  9 10  1  0
 10 11  2  0
 10 12  1  0
 12 13  1  0
 13 14  1  0
 14 15  2  0
 15 16  1  0
 16 17  2  0
 17 18  1  0
 18 19  1  0
 19 20  2  0
 20 21  1  0
 21 22  2  0
  8 23  2  0
 23  4  1  0
 22 14  1  0
 21 17  1  0
  1 24  1  0
  1 25  1  0
  5 26  1  0
  6 27  1  0
  7 28  1  0
  9 29  1  0
 12 30  1  0
 13 31  1  0
 13 32  1  0
 15 33  1  0
 16 34  1  0
 19 35  1  0
 20 36  1  0
 22 37  1  0
 23 38  1  0
A    1
 N1 
A    2
 C1 
A    3
 O1 
A    4
 C2 
A    5
 C3 
A    6
 C4 
A    7
 C5 
A    8
 C6 
A    9
 N2 
A   10
 C7 
A   11
 O2 
A   12
 N3 
A   13
 C8 
A   14
 C9 
A   15
 C10
A   16
 C11
A   17
 C12
A   18
 O3 
A   19
 C13
A   20
 C14
A   21
 C15
A   22
 C16
A   23
 C17
A   24
 H1 
A   25
 H2 
A   26
 H3 
A   27
 H4 
A   28
 H5 
A   29
 H6 
A   30
 H7 
A   31
 H8 
A   32
 H9 
A   33
 H10
A   34
 H11
A   35
 H12
A   36
 H13
A   37
 H14
A   38
 H15
M  END
>  <ref_pdb>  (8) 
x0147_0A

>  <ref_mols>  (8) 
x0771_1AS1,x1140_0A

>  <original SMILES>  (8) 
[H]c1oc2c([H])c([H])c(C([H])([H])N([H])C(=O)N([H])c3c([H])c([H])c([H])c(C(=O)N([H])[H])c3[H])c([H])c2c1[H]

>  <index>  (8) 
5755

>  <∆∆G>  (8) 
-7.305605

>  <comRMSD>  (8) 
0.768435

>  <N_constrained_atoms>  (8) 
23.0

>  <N_unconstrained_atoms>  (8) 
0.0

>  <LE>  (8) 
0.317635

>  <percent_hybrid>  (8) 
40.0

>  <max_hit_Tanimoto>  (8) 
0.190731

>  <largest_ring>  (8) 
6

>  <N_interactions_kept>  (8) 
2.5

>  <N_interactions_lost>  (8) 
2.0

>  <interaction_uniqueness_metric>  (8) 
0.082356

>  <N_HA>  (8) 
23

>  <N_rotatable_bonds>  (8) 
4

>  <N_interactions>  (8) 
3

>  <N_PAINS>  (8) 
0

>  <UFF_Gibbs>  (8) 
175.183849

>  <strain_per_HA>  (8) 
7.616656

>  <ad_hoc_penalty>  (8) 
-25.249222

>  <cluster>  (8) 
2458

>  <ranked>  (8) 
160.0

>  <merger_rank>  (8) 
1

>  <hydroph_interaction:LEU:127>  (8) 
0

>  <hbond:GLY:128>  (8) 
0

>  <hydroph_interaction:ALA:144>  (8) 
0

>  <hbond:GLY:164>  (8) 
0

>  <hbond:HIS:40>  (8) 
0

>  <pistack:HIS:40>  (8) 
1

>  <hydroph_interaction:LEU:125>  (8) 
0

>  <hydroph_interaction:PHE:170>  (8) 
0

>  <hydroph_interaction:HIS:40>  (8) 
0

>  <pication:HIS:40>  (8) 
0

>  <hbond:THR:142>  (8) 
1

>  <hbond:HIS:161>  (8) 
0

>  <hbond:GLY:166>  (8) 
0

>  <hbond:VAL:162>  (8) 
1

>  <hydroph_interaction:ASN:165>  (8) 
0

>  <saltbridge:HIS:161>  (8) 
0

>  <hbond:GLY:145>  (8) 
0

>  <hbond:CYS:147>  (8) 
0

>  <saltbridge:HIS:40>  (8) 
0

>  <hbond:LEU:127>  (8) 
0

>  <hbond:THR:130>  (8) 
0

>  <halogenbond:THR:142>  (8) 
0

>  <halogenbond:CYS:147>  (8) 
0

$$$$
Z1258036417-x1919-0AS2
     RDKit          3D

 41 43  0  0  0  0  0  0  0  0999 V2000
   -5.6950   -4.6050   -3.2750 O   0  0  0  0  0  0  0  0  0  0  0  0
   -6.6890   -5.2430   -2.9910 C   0  0  0  0  0  0  0  0  0  0  0  0
   -7.7450   -4.6990   -2.3370 N   0  0  0  0  0  0  0  0  0  0  0  0
   -8.7690   -4.1190   -3.1830 C   0  0  0  0  0  0  0  0  0  0  0  0
   -9.2620   -5.0520   -4.1630 C   0  0  0  0  0  0  0  0  0  0  0  0
   -8.7210   -4.9720   -5.4940 C   0  0  0  0  0  0  0  0  0  0  0  0
   -7.9180   -6.0020   -5.9910 C   0  0  0  0  0  0  0  0  0  0  0  0
   -7.3260   -5.9230   -7.3680 C   0  0  0  0  0  0  0  0  0  0  0  0
   -7.5620   -4.7340   -8.2880 C   0  0  0  0  0  0  0  0  0  0  0  0
   -7.0110   -4.6390   -9.5310 O   0  0  0  0  0  0  0  0  0  0  0  0
   -8.3910   -3.6940   -7.8090 C   0  0  0  0  0  0  0  0  0  0  0  0
   -8.9500   -3.8750   -6.3740 C   0  0  0  0  0  0  0  0  0  0  0  0
   -6.9280   -6.5640   -3.2860 N   0  0  0  0  0  0  0  0  0  0  0  0
   -5.8050   -7.5240   -3.3810 C   0  0  0  0  0  0  0  0  0  0  0  0
   -5.2490   -7.8760   -2.0290 C   0  0  0  0  0  0  0  0  0  0  0  0
   -5.9560   -8.7260   -1.1520 C   0  0  0  0  0  0  0  0  0  0  0  0
   -5.4800   -9.0710    0.1160 C   0  0  0  0  0  0  0  0  0  0  0  0
   -4.2670   -8.5530    0.5240 C   0  0  0  0  0  0  0  0  0  0  0  0
   -3.5650   -8.7050    1.6820 C   0  0  0  0  0  0  0  0  0  0  0  0
   -2.3090   -7.9140    1.5870 C   0  0  0  0  0  0  0  0  0  0  0  0
   -2.3450   -7.3290    0.3430 O   0  0  0  0  0  0  0  0  0  0  0  0
   -3.5180   -7.7190   -0.2760 C   0  0  0  0  0  0  0  0  0  0  0  0
   -4.0100   -7.3310   -1.6560 C   0  0  0  0  0  0  0  0  0  0  0  0
   -7.5250   -4.2170   -1.4820 H   0  0  0  0  0  0  0  0  0  0  0  0
   -9.4830   -3.6960   -2.4790 H   0  0  0  0  0  0  0  0  0  0  0  0
   -8.3490   -3.2540   -3.7020 H   0  0  0  0  0  0  0  0  0  0  0  0
  -10.3430   -5.1460   -4.1560 H   0  0  0  0  0  0  0  0  0  0  0  0
   -8.9100   -6.0150   -3.7840 H   0  0  0  0  0  0  0  0  0  0  0  0
   -7.7070   -6.8750   -5.3820 H   0  0  0  0  0  0  0  0  0  0  0  0
   -6.6950   -6.7500   -7.7160 H   0  0  0  0  0  0  0  0  0  0  0  0
   -7.4680   -5.2730  -10.1260 H   0  0  0  0  0  0  0  0  0  0  0  0
   -8.6270   -2.8090   -8.3910 H   0  0  0  0  0  0  0  0  0  0  0  0
   -9.5690   -3.0130   -6.0950 H   0  0  0  0  0  0  0  0  0  0  0  0
   -7.7770   -6.9340   -2.8830 H   0  0  0  0  0  0  0  0  0  0  0  0
   -5.0390   -7.1030   -4.0370 H   0  0  0  0  0  0  0  0  0  0  0  0
   -6.1750   -8.4560   -3.8240 H   0  0  0  0  0  0  0  0  0  0  0  0
   -6.9250   -9.1740   -1.3960 H   0  0  0  0  0  0  0  0  0  0  0  0
   -6.0950   -9.7370    0.7290 H   0  0  0  0  0  0  0  0  0  0  0  0
   -3.8670   -9.3030    2.5320 H   0  0  0  0  0  0  0  0  0  0  0  0
   -1.4530   -7.7170    2.2170 H   0  0  0  0  0  0  0  0  0  0  0  0
   -3.4460   -6.6780   -2.3060 H   0  0  0  0  0  0  0  0  0  0  0  0
  1  2  2  0
  2  3  1  0
  3  4  1  0
  4  5  1  0
  5  6  1  0
  6  7  2  0
  7  8  1  0
  8  9  2  0
  9 10  1  0
  9 11  1  0
 11 12  2  0
  2 13  1  0
 13 14  1  0
 14 15  1  0
 15 16  2  0
 16 17  1  0
 17 18  2  0
 18 19  1  0
 19 20  2  0
 20 21  1  0
 21 22  1  0
 22 23  2  0
 12  6  1  0
 23 15  1  0
 22 18  1  0
  3 24  1  0
  4 25  1  0
  4 26  1  0
  5 27  1  0
  5 28  1  0
  7 29  1  0
  8 30  1  0
 10 31  1  0
 11 32  1  0
 12 33  1  0
 13 34  1  0
 14 35  1  0
 14 36  1  0
 16 37  1  0
 17 38  1  0
 19 39  1  0
 20 40  1  0
 23 41  1  0
A    1
 O1 
A    2
 C1 
A    3
 N1 
A    4
 C2 
A    5
 C3 
A    6
 C4 
A    7
 C5 
A    8
 C6 
A    9
 C7 
A   10
 O2 
A   11
 C8 
A   12
 C9 
A   13
 N2 
A   14
 C10
A   15
 C11
A   16
 C12
A   17
 C13
A   18
 C14
A   19
 C15
A   20
 C16
A   21
 O3 
A   22
 C17
A   23
 C18
A   24
 H1 
A   25
 H2 
A   26
 H3 
A   27
 H4 
A   28
 H5 
A   29
 H6 
A   30
 H7 
A   31
 H8 
A   32
 H9 
A   33
 H10
A   34
 H11
A   35
 H12
A   36
 H13
A   37
 H14
A   38
 H15
A   39
 H16
A   40
 H17
A   41
 H18
M  END
>  <ref_pdb>  (9) 
x0147_0A

>  <ref_mols>  (9) 
x1919_0AS2,x1498_0A

>  <original SMILES>  (9) 
[H]Oc1c([H])c([H])c(C([H])([H])C([H])([H])N([H])C(=O)N([H])C([H])([H])c2c([H])c([H])c3c([H])c([H])oc3c2[H])c([H])c1[H]

>  <index>  (9) 
3699

>  <∆∆G>  (9) 
-7.207423

>  <comRMSD>  (9) 
0.903871

>  <N_constrained_atoms>  (9) 
23.0

>  <N_unconstrained_atoms>  (9) 
0.0

>  <LE>  (9) 
0.313366

>  <percent_hybrid>  (9) 
31.0

>  <max_hit_Tanimoto>  (9) 
0.223629

>  <largest_ring>  (9) 
6

>  <N_interactions_kept>  (9) 
1.5

>  <N_interactions_lost>  (9) 
2.5

>  <interaction_uniqueness_metric>  (9) 
0.091508

>  <N_HA>  (9) 
23

>  <N_rotatable_bonds>  (9) 
6

>  <N_interactions>  (9) 
5

>  <N_PAINS>  (9) 
0

>  <UFF_Gibbs>  (9) 
150.831195

>  <strain_per_HA>  (9) 
6.55785

>  <ad_hoc_penalty>  (9) 
-25.033052

>  <cluster>  (9) 
1514

>  <ranked>  (9) 
165.0

>  <merger_rank>  (9) 
3

>  <hydroph_interaction:LEU:127>  (9) 
1

>  <hbond:GLY:128>  (9) 
0

>  <hydroph_interaction:ALA:144>  (9) 
0

>  <hbond:GLY:164>  (9) 
1

>  <hbond:HIS:40>  (9) 
0

>  <pistack:HIS:40>  (9) 
1

>  <hydroph_interaction:LEU:125>  (9) 
0

>  <hydroph_interaction:PHE:170>  (9) 
0

>  <hydroph_interaction:HIS:40>  (9) 
1

>  <pication:HIS:40>  (9) 
0

>  <hbond:THR:142>  (9) 
1

>  <hbond:HIS:161>  (9) 
0

>  <hbond:GLY:166>  (9) 
0

>  <hbond:VAL:162>  (9) 
0

>  <hydroph_interaction:ASN:165>  (9) 
0

>  <saltbridge:HIS:161>  (9) 
0

>  <hbond:GLY:145>  (9) 
0

>  <hbond:CYS:147>  (9) 
0

>  <saltbridge:HIS:40>  (9) 
0

>  <hbond:LEU:127>  (9) 
0

>  <hbond:THR:130>  (9) 
0

>  <halogenbond:THR:142>  (9) 
0

>  <halogenbond:CYS:147>  (9) 
0

$$$$
Z2170211741-x2149-0AS2
     RDKit          3D

 33 34  0  0  0  0  0  0  0  0999 V2000
   -4.4310   -8.1460   -1.2910 C   0  0  0  0  0  0  0  0  0  0  0  0
   -5.5220   -7.1210   -1.1160 C   0  0  0  0  0  0  0  0  0  0  0  0
   -5.6750   -5.9380   -1.9870 C   0  0  0  0  0  0  0  0  0  0  0  0
   -6.8690   -5.2520   -1.4220 C   0  0  0  0  0  0  0  0  0  0  0  0
   -7.3780   -4.0130   -2.0050 N   0  0  0  0  0  0  0  0  0  0  0  0
   -7.0380   -3.8360   -3.4050 C   0  0  0  0  0  0  0  0  0  0  0  0
   -6.0190   -3.3720   -3.8550 O   0  0  0  0  0  0  0  0  0  0  0  0
   -8.1050   -4.3050   -4.4460 C   0  0  0  0  0  0  0  0  0  0  0  0
   -7.8940   -3.9820   -5.7970 N   0  0  0  0  0  0  0  0  0  0  0  0
   -8.2830   -4.8350   -6.9100 C   0  0  0  0  0  0  0  0  0  0  0  0
   -9.3040   -4.2570   -7.6600 C   0  0  0  0  0  0  0  0  0  0  0  0
   -8.5620   -6.2070   -6.3620 C   0  0  0  0  0  0  0  0  0  0  0  0
   -7.4170   -6.9530   -6.4670 C   0  0  0  0  0  0  0  0  0  0  0  0
   -6.7220   -6.2960   -7.5280 O   0  0  0  0  0  0  0  0  0  0  0  0
   -7.2180   -5.1840   -7.8040 C   0  0  0  0  0  0  0  0  0  0  0  0
   -6.8130   -4.5040   -8.7600 O   0  0  0  0  0  0  0  0  0  0  0  0
   -7.3470   -5.9470   -0.3680 N   0  0  0  0  0  0  0  0  0  0  0  0
   -6.5200   -7.0940   -0.1750 O   0  0  0  0  0  0  0  0  0  0  0  0
   -3.5330   -7.6880   -1.7220 H   0  0  0  0  0  0  0  0  0  0  0  0
   -4.1600   -8.6170   -0.3410 H   0  0  0  0  0  0  0  0  0  0  0  0
   -4.7610   -8.9350   -1.9740 H   0  0  0  0  0  0  0  0  0  0  0  0
   -5.1290   -5.5650   -2.8390 H   0  0  0  0  0  0  0  0  0  0  0  0
   -8.3240   -3.7480   -1.7200 H   0  0  0  0  0  0  0  0  0  0  0  0
   -8.1950   -5.3860   -4.3320 H   0  0  0  0  0  0  0  0  0  0  0  0
   -9.0650   -3.8800   -4.1390 H   0  0  0  0  0  0  0  0  0  0  0  0
   -8.2680   -3.0530   -5.9700 H   0  0  0  0  0  0  0  0  0  0  0  0
   -9.8530   -3.4390   -7.1980 H   0  0  0  0  0  0  0  0  0  0  0  0
   -9.0340   -3.8890   -8.6500 H   0  0  0  0  0  0  0  0  0  0  0  0
  -10.0520   -5.0370   -7.8380 H   0  0  0  0  0  0  0  0  0  0  0  0
   -9.3480   -6.6610   -6.9500 H   0  0  0  0  0  0  0  0  0  0  0  0
   -8.9210   -6.2210   -5.3270 H   0  0  0  0  0  0  0  0  0  0  0  0
   -6.8430   -6.8870   -5.5330 H   0  0  0  0  0  0  0  0  0  0  0  0
   -7.6220   -8.0000   -6.7090 H   0  0  0  0  0  0  0  0  0  0  0  0
  1  2  1  0
  2  3  2  0
  3  4  1  0
  4  5  1  0
  5  6  1  0
  6  7  2  0
  6  8  1  0
  8  9  1  0
  9 10  1  0
 10 11  1  0
 10 12  1  0
 12 13  1  0
 13 14  1  0
 14 15  1  0
 15 16  2  0
  4 17  2  0
 17 18  1  0
 18  2  1  0
 15 10  1  0
  1 19  1  0
  1 20  1  0
  1 21  1  0
  3 22  1  0
  5 23  1  0
  8 24  1  0
  8 25  1  0
  9 26  1  0
 11 27  1  0
 11 28  1  0
 11 29  1  0
 12 30  1  0
 12 31  1  0
 13 32  1  0
 13 33  1  0
A    1
 C1 
A    2
 C2 
A    3
 C3 
A    4
 C4 
A    5
 N1 
A    6
 C5 
A    7
 O1 
A    8
 C6 
A    9
 N2 
A   10
 C7 
A   11
 C8 
A   12
 C9 
A   13
 C10
A   14
 O2 
A   15
 C11
A   16
 O3 
A   17
 N3 
A   18
 O4 
A   19
 H1 
A   20
 H2 
A   21
 H3 
A   22
 H4 
A   23
 H5 
A   24
 H6 
A   25
 H7 
A   26
 H8 
A   27
 H9 
A   28
 H10
A   29
 H11
A   30
 H12
A   31
 H13
A   32
 H14
A   33
 H15
M  END
>  <ref_pdb>  (10) 
x0147_0A

>  <ref_mols>  (10) 
x2149_0AS2,x1052_1AS2

>  <original SMILES>  (10) 
[H]c1c(N([H])C(=O)C([H])([H])N([H])C2(C([H])([H])[H])C(=O)OC([H])([H])C2([H])[H])noc1C([H])([H])[H]

>  <index>  (10) 
10130

>  <∆∆G>  (10) 
-5.290073

>  <comRMSD>  (10) 
0.753775

>  <N_constrained_atoms>  (10) 
15.0

>  <N_unconstrained_atoms>  (10) 
3.0

>  <LE>  (10) 
0.293893

>  <percent_hybrid>  (10) 
47.0

>  <max_hit_Tanimoto>  (10) 
0.141791

>  <largest_ring>  (10) 
5

>  <N_interactions_kept>  (10) 
1.0

>  <N_interactions_lost>  (10) 
1.5

>  <interaction_uniqueness_metric>  (10) 
0.140609

>  <N_HA>  (10) 
18

>  <N_rotatable_bonds>  (10) 
6

>  <N_interactions>  (10) 
7

>  <N_PAINS>  (10) 
0

>  <UFF_Gibbs>  (10) 
250.648345

>  <strain_per_HA>  (10) 
13.924831

>  <ad_hoc_penalty>  (10) 
-24.229499

>  <cluster>  (10) 
4907

>  <ranked>  (10) 
195.0

>  <merger_rank>  (10) 
2

>  <hydroph_interaction:LEU:127>  (10) 
1

>  <hbond:GLY:128>  (10) 
1

>  <hydroph_interaction:ALA:144>  (10) 
1

>  <hbond:GLY:164>  (10) 
2

>  <hbond:HIS:40>  (10) 
0

>  <pistack:HIS:40>  (10) 
0

>  <hydroph_interaction:LEU:125>  (10) 
0

>  <hydroph_interaction:PHE:170>  (10) 
0

>  <hydroph_interaction:HIS:40>  (10) 
1

>  <pication:HIS:40>  (10) 
0

>  <hbond:THR:142>  (10) 
0

>  <hbond:HIS:161>  (10) 
0

>  <hbond:GLY:166>  (10) 
0

>  <hbond:VAL:162>  (10) 
0

>  <hydroph_interaction:ASN:165>  (10) 
0

>  <saltbridge:HIS:161>  (10) 
1

>  <hbond:GLY:145>  (10) 
0

>  <hbond:CYS:147>  (10) 
0

>  <saltbridge:HIS:40>  (10) 
0

>  <hbond:LEU:127>  (10) 
0

>  <hbond:THR:130>  (10) 
0

>  <halogenbond:THR:142>  (10) 
0

>  <halogenbond:CYS:147>  (10) 
0

$$$$
Z45824763-x0771-1AS1
     RDKit          3D

 39 41  0  0  0  0  0  0  0  0999 V2000
   -6.8680   -4.2570   -9.0690 C   0  0  0  0  0  0  0  0  0  0  0  0
   -7.8130   -4.2220   -7.9130 C   0  0  0  0  0  0  0  0  0  0  0  0
   -8.6870   -3.0990   -7.7980 O   0  0  0  0  0  0  0  0  0  0  0  0
   -7.7600   -5.3570   -7.0200 C   0  0  0  0  0  0  0  0  0  0  0  0
   -7.4250   -6.6600   -7.5910 C   0  0  0  0  0  0  0  0  0  0  0  0
   -7.3930   -7.8100   -6.7130 C   0  0  0  0  0  0  0  0  0  0  0  0
   -7.6710   -7.5980   -5.2680 C   0  0  0  0  0  0  0  0  0  0  0  0
   -7.9570   -6.3240   -4.8090 C   0  0  0  0  0  0  0  0  0  0  0  0
   -8.1890   -6.0460   -3.4790 N   0  0  0  0  0  0  0  0  0  0  0  0
   -7.1440   -5.7380   -2.7380 C   0  0  0  0  0  0  0  0  0  0  0  0
   -7.0550   -4.6930   -1.4870 S   0  0  0  0  0  0  0  0  0  0  0  0
   -6.0180   -6.4030   -3.1450 N   0  0  0  0  0  0  0  0  0  0  0  0
   -5.7870   -7.8350   -3.1010 C   0  0  0  0  0  0  0  0  0  0  0  0
   -5.2800   -8.1120   -1.8440 C   0  0  0  0  0  0  0  0  0  0  0  0
   -5.9260   -8.9790   -0.9930 C   0  0  0  0  0  0  0  0  0  0  0  0
   -5.4130   -9.2400    0.2820 C   0  0  0  0  0  0  0  0  0  0  0  0
   -4.2490   -8.5970    0.6420 C   0  0  0  0  0  0  0  0  0  0  0  0
   -3.5990   -8.7130    1.8300 O   0  0  0  0  0  0  0  0  0  0  0  0
   -2.4400   -7.8930    1.5710 C   0  0  0  0  0  0  0  0  0  0  0  0
   -2.5020   -7.2100    0.3070 O   0  0  0  0  0  0  0  0  0  0  0  0
   -3.6180   -7.7410   -0.2160 C   0  0  0  0  0  0  0  0  0  0  0  0
   -4.1040   -7.4780   -1.4630 C   0  0  0  0  0  0  0  0  0  0  0  0
   -8.0100   -5.2230   -5.6660 C   0  0  0  0  0  0  0  0  0  0  0  0
   -6.3200   -5.2040   -9.0750 H   0  0  0  0  0  0  0  0  0  0  0  0
   -6.1530   -3.4490   -9.0060 H   0  0  0  0  0  0  0  0  0  0  0  0
   -7.4010   -4.2160   -9.9980 H   0  0  0  0  0  0  0  0  0  0  0  0
   -7.2190   -6.7410   -8.6630 H   0  0  0  0  0  0  0  0  0  0  0  0
   -7.1710   -8.8030   -7.0870 H   0  0  0  0  0  0  0  0  0  0  0  0
   -7.6330   -8.4600   -4.6130 H   0  0  0  0  0  0  0  0  0  0  0  0
   -8.9840   -5.4400   -3.3150 H   0  0  0  0  0  0  0  0  0  0  0  0
   -5.1900   -5.8210   -3.1580 H   0  0  0  0  0  0  0  0  0  0  0  0
   -5.1740   -8.0850   -3.9640 H   0  0  0  0  0  0  0  0  0  0  0  0
   -6.7550   -8.3310   -3.2260 H   0  0  0  0  0  0  0  0  0  0  0  0
   -6.8460   -9.4690   -1.3040 H   0  0  0  0  0  0  0  0  0  0  0  0
   -5.9170   -9.9270    0.9710 H   0  0  0  0  0  0  0  0  0  0  0  0
   -2.3490   -7.1460    2.3550 H   0  0  0  0  0  0  0  0  0  0  0  0
   -1.5460   -8.5260    1.5830 H   0  0  0  0  0  0  0  0  0  0  0  0
   -3.5860   -6.7940   -2.1230 H   0  0  0  0  0  0  0  0  0  0  0  0
   -8.2440   -4.2330   -5.2720 H   0  0  0  0  0  0  0  0  0  0  0  0
  1  2  1  0
  2  3  2  0
  2  4  1  0
  4  5  2  0
  5  6  1  0
  6  7  2  0
  7  8  1  0
  8  9  1  0
  9 10  1  0
 10 11  2  0
 10 12  1  0
 12 13  1  0
 13 14  1  0
 14 15  2  0
 15 16  1  0
 16 17  2  0
 17 18  1  0
 18 19  1  0
 19 20  1  0
 20 21  1  0
 21 22  2  0
  8 23  2  0
 23  4  1  0
 22 14  1  0
 21 17  1  0
  1 24  1  0
  1 25  1  0
  1 26  1  0
  5 27  1  0
  6 28  1  0
  7 29  1  0
  9 30  1  0
 12 31  1  0
 13 32  1  0
 13 33  1  0
 15 34  1  0
 16 35  1  0
 19 36  1  0
 19 37  1  0
 22 38  1  0
 23 39  1  0
A    1
 C1 
A    2
 C2 
A    3
 O1 
A    4
 C3 
A    5
 C4 
A    6
 C5 
A    7
 C6 
A    8
 C7 
A    9
 N1 
A   10
 C8 
A   11
 S1 
A   12
 N2 
A   13
 C9 
A   14
 C10
A   15
 C11
A   16
 C12
A   17
 C13
A   18
 O2 
A   19
 C14
A   20
 O3 
A   21
 C15
A   22
 C16
A   23
 C17
A   24
 H1 
A   25
 H2 
A   26
 H3 
A   27
 H4 
A   28
 H5 
A   29
 H6 
A   30
 H7 
A   31
 H8 
A   32
 H9 
A   33
 H10
A   34
 H11
A   35
 H12
A   36
 H13
A   37
 H14
A   38
 H15
A   39
 H16
M  END
>  <ref_pdb>  (11) 
x0147_0A

>  <ref_mols>  (11) 
x0771_1AS1,x1140_0A

>  <original SMILES>  (11) 
[H]c1c([H])c(C(=O)C([H])([H])[H])c([H])c(N([H])C(=S)N([H])C([H])([H])c2c([H])c([H])c3c(c2[H])OC([H])([H])O3)c1[H]

>  <index>  (11) 
5759

>  <∆∆G>  (11) 
-6.018114

>  <comRMSD>  (11) 
0.866584

>  <N_constrained_atoms>  (11) 
23.0

>  <N_unconstrained_atoms>  (11) 
0.0

>  <LE>  (11) 
0.261657

>  <percent_hybrid>  (11) 
40.0

>  <max_hit_Tanimoto>  (11) 
0.43741

>  <largest_ring>  (11) 
6

>  <N_interactions_kept>  (11) 
1.0

>  <N_interactions_lost>  (11) 
3.5

>  <interaction_uniqueness_metric>  (11) 
0.154765

>  <N_HA>  (11) 
23

>  <N_rotatable_bonds>  (11) 
5

>  <N_interactions>  (11) 
7

>  <N_PAINS>  (11) 
0

>  <UFF_Gibbs>  (11) 
153.303455

>  <strain_per_HA>  (11) 
6.665339

>  <ad_hoc_penalty>  (11) 
-23.45794

>  <cluster>  (11) 
1439

>  <ranked>  (11) 
220.0

>  <merger_rank>  (11) 
2

>  <hydroph_interaction:LEU:127>  (11) 
1

>  <hbond:GLY:128>  (11) 
0

>  <hydroph_interaction:ALA:144>  (11) 
1

>  <hbond:GLY:164>  (11) 
0

>  <hbond:HIS:40>  (11) 
1

>  <pistack:HIS:40>  (11) 
1

>  <hydroph_interaction:LEU:125>  (11) 
0

>  <hydroph_interaction:PHE:170>  (11) 
0

>  <hydroph_interaction:HIS:40>  (11) 
1

>  <pication:HIS:40>  (11) 
0

>  <hbond:THR:142>  (11) 
1

>  <hbond:HIS:161>  (11) 
0

>  <hbond:GLY:166>  (11) 
0

>  <hbond:VAL:162>  (11) 
1

>  <hydroph_interaction:ASN:165>  (11) 
0

>  <saltbridge:HIS:161>  (11) 
0

>  <hbond:GLY:145>  (11) 
0

>  <hbond:CYS:147>  (11) 
0

>  <saltbridge:HIS:40>  (11) 
0

>  <hbond:LEU:127>  (11) 
0

>  <hbond:THR:130>  (11) 
0

>  <halogenbond:THR:142>  (11) 
0

>  <halogenbond:CYS:147>  (11) 
0

$$$$
Z2967428904-x2149-0AS3
     RDKit          3D

 37 39  0  0  0  0  0  0  0  0999 V2000
   -8.4290   -7.2660   -2.8710 O   0  0  0  0  0  0  0  0  0  0  0  0
   -7.5550   -6.4770   -3.1800 C   0  0  0  0  0  0  0  0  0  0  0  0
   -6.2140   -6.7890   -3.3210 N   0  0  0  0  0  0  0  0  0  0  0  0
   -5.7440   -8.0710   -3.1510 C   0  0  0  0  0  0  0  0  0  0  0  0
   -5.2530   -8.2320   -1.9200 C   0  0  0  0  0  0  0  0  0  0  0  0
   -5.9180   -9.0230   -0.8940 C   0  0  0  0  0  0  0  0  0  0  0  0
   -5.3680   -9.1580    0.3830 C   0  0  0  0  0  0  0  0  0  0  0  0
   -4.1570   -8.5320    0.7020 C   0  0  0  0  0  0  0  0  0  0  0  0
   -3.4730   -8.5390    1.8660 O   0  0  0  0  0  0  0  0  0  0  0  0
   -2.3990   -7.6720    1.4510 C   0  0  0  0  0  0  0  0  0  0  0  0
   -2.4980   -7.2870    0.0640 O   0  0  0  0  0  0  0  0  0  0  0  0
   -3.5480   -7.7930   -0.2930 C   0  0  0  0  0  0  0  0  0  0  0  0
   -4.0480   -7.6190   -1.5850 C   0  0  0  0  0  0  0  0  0  0  0  0
   -7.7710   -5.1930   -3.4670 N   0  0  0  0  0  0  0  0  0  0  0  0
   -7.3870   -4.8190   -4.8560 C   0  0  0  0  0  0  0  0  0  0  0  0
   -7.8190   -5.8660   -5.9200 C   0  0  0  0  0  0  0  0  0  0  0  0
   -9.0060   -5.4850   -6.5070 C   0  0  0  0  0  0  0  0  0  0  0  0
   -8.6490   -4.5100   -7.5870 C   0  0  0  0  0  0  0  0  0  0  0  0
   -7.3030   -4.9380   -8.0310 C   0  0  0  0  0  0  0  0  0  0  0  0
   -6.6680   -4.5230   -9.0060 O   0  0  0  0  0  0  0  0  0  0  0  0
   -6.9330   -5.9020   -7.1040 O   0  0  0  0  0  0  0  0  0  0  0  0
   -5.6510   -6.0460   -2.9000 H   0  0  0  0  0  0  0  0  0  0  0  0
   -6.5600   -8.7730   -3.3450 H   0  0  0  0  0  0  0  0  0  0  0  0
   -4.9650   -8.2680   -3.8980 H   0  0  0  0  0  0  0  0  0  0  0  0
   -6.8600   -9.5190   -1.1180 H   0  0  0  0  0  0  0  0  0  0  0  0
   -5.8810   -9.7500    1.1320 H   0  0  0  0  0  0  0  0  0  0  0  0
   -2.4210   -6.7630    2.0600 H   0  0  0  0  0  0  0  0  0  0  0  0
   -1.4450   -8.1860    1.6090 H   0  0  0  0  0  0  0  0  0  0  0  0
   -3.5060   -7.0180   -2.3110 H   0  0  0  0  0  0  0  0  0  0  0  0
   -8.6130   -4.7800   -3.0640 H   0  0  0  0  0  0  0  0  0  0  0  0
   -7.8180   -3.8410   -5.0940 H   0  0  0  0  0  0  0  0  0  0  0  0
   -6.3200   -4.7300   -4.8170 H   0  0  0  0  0  0  0  0  0  0  0  0
   -7.9190   -6.9060   -5.6190 H   0  0  0  0  0  0  0  0  0  0  0  0
   -9.6520   -5.0010   -5.7630 H   0  0  0  0  0  0  0  0  0  0  0  0
   -9.5580   -6.3370   -6.8960 H   0  0  0  0  0  0  0  0  0  0  0  0
   -9.4520   -4.5270   -8.3210 H   0  0  0  0  0  0  0  0  0  0  0  0
   -8.5880   -3.4590   -7.3170 H   0  0  0  0  0  0  0  0  0  0  0  0
  1  2  2  0
  2  3  1  0
  3  4  1  0
  4  5  1  0
  5  6  2  0
  6  7  1  0
  7  8  2  0
  8  9  1  0
  9 10  1  0
 10 11  1  0
 11 12  1  0
 12 13  2  0
  2 14  1  0
 14 15  1  0
 15 16  1  0
 16 17  1  0
 17 18  1  0
 18 19  1  0
 19 20  2  0
 19 21  1  0
 13  5  1  0
 12  8  1  0
 21 16  1  0
  3 22  1  0
  4 23  1  0
  4 24  1  0
  6 25  1  0
  7 26  1  0
 10 27  1  0
 10 28  1  0
 13 29  1  0
 14 30  1  0
 15 31  1  0
 15 32  1  0
 16 33  1  0
 17 34  1  0
 17 35  1  0
 18 36  1  0
 18 37  1  0
A    1
 O1 
A    2
 C1 
A    3
 N1 
A    4
 C2 
A    5
 C3 
A    6
 C4 
A    7
 C5 
A    8
 C6 
A    9
 O2 
A   10
 C7 
A   11
 O3 
A   12
 C8 
A   13
 C9 
A   14
 N2 
A   15
 C10
A   16
 C11
A   17
 C12
A   18
 C13
A   19
 C14
A   20
 O4 
A   21
 O5 
A   22
 H1 
A   23
 H2 
A   24
 H3 
A   25
 H4 
A   26
 H5 
A   27
 H6 
A   28
 H7 
A   29
 H8 
A   30
 H9 
A   31
 H10
A   32
 H11
A   33
 H12
A   34
 H13
A   35
 H14
A   36
 H15
A   37
 H16
M  END
>  <ref_pdb>  (12) 
x0147_0A

>  <ref_mols>  (12) 
x2149_0AS3,x1140_0A

>  <original SMILES>  (12) 
[H]c1c([H])c(C([H])([H])N([H])C(=O)N([H])C([H])([H])C2([H])OC(=O)C([H])([H])C2([H])[H])c([H])c2c1OC([H])([H])O2

>  <index>  (12) 
3122

>  <∆∆G>  (12) 
-4.433523

>  <comRMSD>  (12) 
0.793446

>  <N_constrained_atoms>  (12) 
21.0

>  <N_unconstrained_atoms>  (12) 
1.0

>  <LE>  (12) 
0.201524

>  <percent_hybrid>  (12) 
29.0

>  <max_hit_Tanimoto>  (12) 
0.473282

>  <largest_ring>  (12) 
6

>  <N_interactions_kept>  (12) 
1.0

>  <N_interactions_lost>  (12) 
2.5

>  <interaction_uniqueness_metric>  (12) 
0.155305

>  <N_HA>  (12) 
21

>  <N_rotatable_bonds>  (12) 
4

>  <N_interactions>  (12) 
6

>  <N_PAINS>  (12) 
0

>  <UFF_Gibbs>  (12) 
117.462546

>  <strain_per_HA>  (12) 
5.593428

>  <ad_hoc_penalty>  (12) 
-23.403579

>  <cluster>  (12) 
428

>  <ranked>  (12) 
227.0

>  <merger_rank>  (12) 
1

>  <hydroph_interaction:LEU:127>  (12) 
1

>  <hbond:GLY:128>  (12) 
0

>  <hydroph_interaction:ALA:144>  (12) 
0

>  <hbond:GLY:164>  (12) 
0

>  <hbond:HIS:40>  (12) 
1

>  <pistack:HIS:40>  (12) 
1

>  <hydroph_interaction:LEU:125>  (12) 
0

>  <hydroph_interaction:PHE:170>  (12) 
0

>  <hydroph_interaction:HIS:40>  (12) 
1

>  <pication:HIS:40>  (12) 
0

>  <hbond:THR:142>  (12) 
0

>  <hbond:HIS:161>  (12) 
0

>  <hbond:GLY:166>  (12) 
0

>  <hbond:VAL:162>  (12) 
1

>  <hydroph_interaction:ASN:165>  (12) 
0

>  <saltbridge:HIS:161>  (12) 
1

>  <hbond:GLY:145>  (12) 
0

>  <hbond:CYS:147>  (12) 
0

>  <saltbridge:HIS:40>  (12) 
0

>  <hbond:LEU:127>  (12) 
0

>  <hbond:THR:130>  (12) 
0

>  <halogenbond:THR:142>  (12) 
0

>  <halogenbond:CYS:147>  (12) 
0

$$$$
Z2927115446-x1919-0AS11
     RDKit          3D

 33 33  0  0  0  0  0  0  0  0999 V2000
   -7.3710   -2.9260   -1.1890 C   0  0  0  0  0  0  0  0  0  0  0  0
   -6.9540   -4.3610   -1.4100 C   0  0  0  0  0  0  0  0  0  0  0  0
   -7.1790   -4.8010   -3.1070 S   0  0  0  0  0  6  0  0  0  0  0  0
   -6.2090   -3.9870   -3.8080 O   0  0  0  0  0  0  0  0  0  0  0  0
   -6.7630   -6.5530   -3.2460 C   0  0  0  0  0  0  0  0  0  0  0  0
   -5.3070   -6.9740   -3.2910 C   0  0  0  0  0  0  0  0  0  0  0  0
   -8.6930   -4.6970   -3.3710 N   0  0  0  0  0  0  0  0  0  0  0  0
   -9.3810   -5.8050   -3.9020 C   0  0  0  0  0  0  0  0  0  0  0  0
   -9.3690   -6.8920   -3.3290 O   0  0  0  0  0  0  0  0  0  0  0  0
  -10.1470   -5.6100   -5.2090 C   0  0  0  0  0  0  0  0  0  0  0  0
   -9.2160   -5.3540   -6.3920 C   0  0  0  0  0  0  0  0  0  0  0  0
   -9.4590   -4.2160   -7.0660 C   0  0  0  0  0  0  0  0  0  0  0  0
   -8.6790   -3.8890   -8.1480 N   0  0  0  0  0  0  0  0  0  0  0  0
   -7.4670   -4.6480   -8.4670 C   0  0  0  0  0  0  0  0  0  0  0  0
   -6.6240   -4.2620   -9.2580 O   0  0  0  0  0  0  0  0  0  0  0  0
   -7.3020   -5.9380   -7.7600 C   0  0  0  0  0  0  0  0  0  0  0  0
   -8.1440   -6.2590   -6.7690 C   0  0  0  0  0  0  0  0  0  0  0  0
   -8.0650   -2.8610   -0.3490 H   0  0  0  0  0  0  0  0  0  0  0  0
   -6.5040   -2.2870   -1.0170 H   0  0  0  0  0  0  0  0  0  0  0  0
   -7.8880   -2.5420   -2.0730 H   0  0  0  0  0  0  0  0  0  0  0  0
   -5.8910   -4.4930   -1.1870 H   0  0  0  0  0  0  0  0  0  0  0  0
   -7.5270   -5.0530   -0.7800 H   0  0  0  0  0  0  0  0  0  0  0  0
   -7.2570   -7.0540   -2.4060 H   0  0  0  0  0  0  0  0  0  0  0  0
   -7.2370   -6.9060   -4.1700 H   0  0  0  0  0  0  0  0  0  0  0  0
   -5.0750   -7.7030   -2.5090 H   0  0  0  0  0  0  0  0  0  0  0  0
   -5.0800   -7.4340   -4.2580 H   0  0  0  0  0  0  0  0  0  0  0  0
   -4.6450   -6.1130   -3.1530 H   0  0  0  0  0  0  0  0  0  0  0  0
  -10.7610   -6.4920   -5.4100 H   0  0  0  0  0  0  0  0  0  0  0  0
  -10.8300   -4.7590   -5.1030 H   0  0  0  0  0  0  0  0  0  0  0  0
  -10.2490   -3.5170   -6.8100 H   0  0  0  0  0  0  0  0  0  0  0  0
   -9.0700   -3.3410   -8.9290 H   0  0  0  0  0  0  0  0  0  0  0  0
   -6.4910   -6.5760   -8.0810 H   0  0  0  0  0  0  0  0  0  0  0  0
   -8.0280   -7.2030   -6.2430 H   0  0  0  0  0  0  0  0  0  0  0  0
  1  2  1  0
  2  3  1  0
  3  4  2  0
  3  5  1  0
  5  6  1  0
  3  7  2  0
  7  8  1  0
  8  9  2  0
  8 10  1  0
 10 11  1  0
 11 12  2  0
 12 13  1  0
 13 14  1  0
 14 15  2  0
 14 16  1  0
 16 17  2  0
 17 11  1  0
  1 18  1  0
  1 19  1  0
  1 20  1  0
  2 21  1  0
  2 22  1  0
  5 23  1  0
  5 24  1  0
  6 25  1  0
  6 26  1  0
  6 27  1  0
 10 28  1  0
 10 29  1  0
 12 30  1  0
 13 31  1  0
 16 32  1  0
 17 33  1  0
A    1
 C1 
A    2
 C2 
A    3
 S1 
A    4
 O1 
A    5
 C3 
A    6
 C4 
A    7
 N1 
A    8
 C5 
A    9
 O2 
A   10
 C6 
A   11
 C7 
A   12
 C8 
A   13
 N2 
A   14
 C9 
A   15
 O3 
A   16
 C10
A   17
 C11
A   18
 H1 
A   19
 H2 
A   20
 H3 
A   21
 H4 
A   22
 H5 
A   23
 H6 
A   24
 H7 
A   25
 H8 
A   26
 H9 
A   27
 H10
A   28
 H11
A   29
 H12
A   30
 H13
A   31
 H14
A   32
 H15
A   33
 H16
M  END
>  <ref_pdb>  (13) 
x0147_0A

>  <ref_mols>  (13) 
x1919_0AS11,x1498_0A

>  <original SMILES>  (13) 
[H]c1c(C([H])([H])C(=O)N=S(=O)(C([H])([H])C([H])([H])[H])C([H])([H])C([H])([H])[H])c([H])n([H])c(=O)c1[H]

>  <index>  (13) 
13905

>  <∆∆G>  (13) 
-6.426712

>  <comRMSD>  (13) 
0.332671

>  <N_constrained_atoms>  (13) 
14.0

>  <N_unconstrained_atoms>  (13) 
3.0

>  <LE>  (13) 
0.378042

>  <percent_hybrid>  (13) 
50.0

>  <max_hit_Tanimoto>  (13) 
0.08159

>  <largest_ring>  (13) 
6

>  <N_interactions_kept>  (13) 
0.0

>  <N_interactions_lost>  (13) 
1.5

>  <interaction_uniqueness_metric>  (13) 
0.077495

>  <N_HA>  (13) 
17

>  <N_rotatable_bonds>  (13) 
6

>  <N_interactions>  (13) 
4

>  <N_PAINS>  (13) 
0

>  <UFF_Gibbs>  (13) 
76.191116

>  <strain_per_HA>  (13) 
4.481804

>  <ad_hoc_penalty>  (13) 
-22.533252

>  <cluster>  (13) 
3853

>  <ranked>  (13) 
276.0

>  <merger_rank>  (13) 
3

>  <hydroph_interaction:LEU:127>  (13) 
0

>  <hbond:GLY:128>  (13) 
0

>  <hydroph_interaction:ALA:144>  (13) 
1

>  <hbond:GLY:164>  (13) 
2

>  <hbond:HIS:40>  (13) 
0

>  <pistack:HIS:40>  (13) 
0

>  <hydroph_interaction:LEU:125>  (13) 
0

>  <hydroph_interaction:PHE:170>  (13) 
0

>  <hydroph_interaction:HIS:40>  (13) 
0

>  <pication:HIS:40>  (13) 
0

>  <hbond:THR:142>  (13) 
1

>  <hbond:HIS:161>  (13) 
0

>  <hbond:GLY:166>  (13) 
0

>  <hbond:VAL:162>  (13) 
0

>  <hydroph_interaction:ASN:165>  (13) 
0

>  <saltbridge:HIS:161>  (13) 
0

>  <hbond:GLY:145>  (13) 
0

>  <hbond:CYS:147>  (13) 
0

>  <saltbridge:HIS:40>  (13) 
0

>  <hbond:LEU:127>  (13) 
0

>  <hbond:THR:130>  (13) 
0

>  <halogenbond:THR:142>  (13) 
0

>  <halogenbond:CYS:147>  (13) 
0

$$$$
Z402428842-x2021-0AS2
     RDKit          3D

 38 40  0  0  0  0  0  0  0  0999 V2000
   -6.7340   -4.9290   -3.6790 O   0  0  0  0  0  0  0  0  0  0  0  0
   -7.4520   -5.8910   -3.6560 C   0  0  0  0  0  0  0  0  0  0  0  0
   -8.7830   -5.7990   -3.4610 N   0  0  0  0  0  0  0  0  0  0  0  0
   -9.6790   -5.8550   -4.6150 C   0  0  0  0  0  0  0  0  0  0  0  0
   -8.9700   -5.4400   -5.9380 C   0  0  0  0  0  0  0  0  0  0  0  0
   -7.9440   -6.4620   -6.4330 C   0  0  0  0  0  0  0  0  0  0  0  0
   -7.1780   -6.1510   -7.7200 C   0  0  0  0  0  0  0  0  0  0  0  0
   -7.4670   -4.8280   -8.4650 C   0  0  0  0  0  0  0  0  0  0  0  0
   -6.8090   -4.5250   -9.6020 O   0  0  0  0  0  0  0  0  0  0  0  0
   -8.5180   -3.8610   -7.9020 C   0  0  0  0  0  0  0  0  0  0  0  0
   -9.2350   -4.2450   -6.6170 C   0  0  0  0  0  0  0  0  0  0  0  0
   -7.0660   -7.1980   -3.8260 N   0  0  0  0  0  0  0  0  0  0  0  0
   -5.6730   -7.5730   -3.8630 C   0  0  0  0  0  0  0  0  0  0  0  0
   -5.1700   -7.9100   -2.5040 C   0  0  0  0  0  0  0  0  0  0  0  0
   -5.7850   -9.0710   -1.8710 C   0  0  0  0  0  0  0  0  0  0  0  0
   -5.3790   -9.4510   -0.5930 C   0  0  0  0  0  0  0  0  0  0  0  0
   -4.2890   -8.6260    0.1020 C   0  0  0  0  0  0  0  0  0  0  0  0
   -3.7440   -8.8060    1.3330 O   0  0  0  0  0  0  0  0  0  0  0  0
   -2.8310   -7.6850    1.3610 C   0  0  0  0  0  0  0  0  0  0  0  0
   -2.8230   -6.9220    0.1380 O   0  0  0  0  0  0  0  0  0  0  0  0
   -3.7740   -7.5510   -0.5930 C   0  0  0  0  0  0  0  0  0  0  0  0
   -4.1840   -7.1800   -1.8610 C   0  0  0  0  0  0  0  0  0  0  0  0
   -9.1770   -5.4000   -2.6200 H   0  0  0  0  0  0  0  0  0  0  0  0
  -10.5130   -5.1770   -4.4090 H   0  0  0  0  0  0  0  0  0  0  0  0
  -10.0990   -6.8600   -4.7330 H   0  0  0  0  0  0  0  0  0  0  0  0
   -7.7580   -7.3860   -5.8870 H   0  0  0  0  0  0  0  0  0  0  0  0
   -6.4430   -6.8570   -8.0930 H   0  0  0  0  0  0  0  0  0  0  0  0
   -7.2590   -5.0020  -10.3360 H   0  0  0  0  0  0  0  0  0  0  0  0
   -8.7360   -2.9260   -8.4140 H   0  0  0  0  0  0  0  0  0  0  0  0
   -9.9780   -3.5550   -6.2190 H   0  0  0  0  0  0  0  0  0  0  0  0
   -7.7020   -7.8870   -3.4580 H   0  0  0  0  0  0  0  0  0  0  0  0
   -5.5810   -8.4380   -4.5270 H   0  0  0  0  0  0  0  0  0  0  0  0
   -5.0830   -6.7690   -4.2960 H   0  0  0  0  0  0  0  0  0  0  0  0
   -6.5570   -9.6390   -2.3840 H   0  0  0  0  0  0  0  0  0  0  0  0
   -5.8210  -10.3110   -0.1000 H   0  0  0  0  0  0  0  0  0  0  0  0
   -3.1070   -7.0180    2.1870 H   0  0  0  0  0  0  0  0  0  0  0  0
   -1.8180   -8.0650    1.5420 H   0  0  0  0  0  0  0  0  0  0  0  0
   -3.7500   -6.3310   -2.3560 H   0  0  0  0  0  0  0  0  0  0  0  0
  1  2  2  0
  2  3  1  0
  3  4  1  0
  4  5  1  0
  5  6  2  0
  6  7  1  0
  7  8  2  0
  8  9  1  0
  8 10  1  0
 10 11  2  0
  2 12  1  0
 12 13  1  0
 13 14  1  0
 14 15  2  0
 15 16  1  0
 16 17  2  0
 17 18  1  0
 18 19  1  0
 19 20  1  0
 20 21  1  0
 21 22  2  0
 11  5  1  0
 22 14  1  0
 21 17  1  0
  3 23  1  0
  4 24  1  0
  4 25  1  0
  6 26  1  0
  7 27  1  0
  9 28  1  0
 10 29  1  0
 11 30  1  0
 12 31  1  0
 13 32  1  0
 13 33  1  0
 15 34  1  0
 16 35  1  0
 19 36  1  0
 19 37  1  0
 22 38  1  0
A    1
 O1 
A    2
 C1 
A    3
 N1 
A    4
 C2 
A    5
 C3 
A    6
 C4 
A    7
 C5 
A    8
 C6 
A    9
 O2 
A   10
 C7 
A   11
 C8 
A   12
 N2 
A   13
 C9 
A   14
 C10
A   15
 C11
A   16
 C12
A   17
 C13
A   18
 O3 
A   19
 C14
A   20
 O4 
A   21
 C15
A   22
 C16
A   23
 H1 
A   24
 H2 
A   25
 H3 
A   26
 H4 
A   27
 H5 
A   28
 H6 
A   29
 H7 
A   30
 H8 
A   31
 H9 
A   32
 H10
A   33
 H11
A   34
 H12
A   35
 H13
A   36
 H14
A   37
 H15
A   38
 H16
M  END
>  <ref_pdb>  (14) 
x0147_0A

>  <ref_mols>  (14) 
x2021_0AS2,x1498_0A

>  <original SMILES>  (14) 
[H]Oc1c([H])c([H])c(C([H])([H])N([H])C(=O)N([H])C([H])([H])c2c([H])c([H])c3c(c2[H])OC([H])([H])O3)c([H])c1[H]

>  <index>  (14) 
15213

>  <∆∆G>  (14) 
-7.666815

>  <comRMSD>  (14) 
0.976409

>  <N_constrained_atoms>  (14) 
22.0

>  <N_unconstrained_atoms>  (14) 
1.0

>  <LE>  (14) 
0.33334

>  <percent_hybrid>  (14) 
32.0

>  <max_hit_Tanimoto>  (14) 
0.629067

>  <largest_ring>  (14) 
6

>  <N_interactions_kept>  (14) 
0.5

>  <N_interactions_lost>  (14) 
4.0

>  <interaction_uniqueness_metric>  (14) 
0.114814

>  <N_HA>  (14) 
22

>  <N_rotatable_bonds>  (14) 
5

>  <N_interactions>  (14) 
6

>  <N_PAINS>  (14) 
0

>  <UFF_Gibbs>  (14) 
127.668576

>  <strain_per_HA>  (14) 
5.803091

>  <ad_hoc_penalty>  (14) 
-21.206339

>  <cluster>  (14) 
337

>  <ranked>  (14) 
353.0

>  <merger_rank>  (14) 
1

>  <hydroph_interaction:LEU:127>  (14) 
1

>  <hbond:GLY:128>  (14) 
0

>  <hydroph_interaction:ALA:144>  (14) 
0

>  <hbond:GLY:164>  (14) 
1

>  <hbond:HIS:40>  (14) 
1

>  <pistack:HIS:40>  (14) 
1

>  <hydroph_interaction:LEU:125>  (14) 
0

>  <hydroph_interaction:PHE:170>  (14) 
0

>  <hydroph_interaction:HIS:40>  (14) 
1

>  <pication:HIS:40>  (14) 
0

>  <hbond:THR:142>  (14) 
1

>  <hbond:HIS:161>  (14) 
0

>  <hbond:GLY:166>  (14) 
0

>  <hbond:VAL:162>  (14) 
0

>  <hydroph_interaction:ASN:165>  (14) 
0

>  <saltbridge:HIS:161>  (14) 
0

>  <hbond:GLY:145>  (14) 
0

>  <hbond:CYS:147>  (14) 
0

>  <saltbridge:HIS:40>  (14) 
0

>  <hbond:LEU:127>  (14) 
0

>  <hbond:THR:130>  (14) 
0

>  <halogenbond:THR:142>  (14) 
0

>  <halogenbond:CYS:147>  (14) 
0

$$$$
Z730649442-x1919-0AS11
     RDKit          3D

 29 29  0  0  0  0  0  0  0  0999 V2000
   -7.3380   -3.0210   -1.3630 C   0  0  0  0  0  0  0  0  0  0  0  0
   -6.7380   -4.4090   -1.4010 C   0  0  0  0  0  0  0  0  0  0  0  0
   -6.7830   -5.0080   -2.7760 C   0  0  0  0  0  0  0  0  0  0  0  0
   -6.4520   -4.1270   -3.8590 O   0  0  0  0  0  0  0  0  0  0  0  0
   -7.1580   -6.4340   -2.8170 N   0  0  0  0  0  0  0  0  0  0  0  0
   -7.5080   -7.0080   -4.1140 C   0  0  0  0  0  0  0  0  0  0  0  0
   -8.6260   -6.3780   -4.7320 C   0  0  0  0  0  0  0  0  0  0  0  0
   -8.3150   -5.7990   -5.9540 C   0  0  0  0  0  0  0  0  0  0  0  0
   -7.3460   -6.5860   -6.8030 C   0  0  0  0  0  0  0  0  0  0  0  0
   -6.9410   -6.0120   -8.0890 C   0  0  0  0  0  0  0  0  0  0  0  0
   -7.4070   -4.7980   -8.5450 C   0  0  0  0  0  0  0  0  0  0  0  0
   -6.9040   -4.4330   -9.7330 O   0  0  0  0  0  0  0  0  0  0  0  0
   -8.4040   -4.0280   -7.6840 C   0  0  0  0  0  0  0  0  0  0  0  0
   -8.8140   -4.5540   -6.4340 C   0  0  0  0  0  0  0  0  0  0  0  0
   -6.5600   -2.2740   -1.1680 H   0  0  0  0  0  0  0  0  0  0  0  0
   -7.8030   -2.7730   -2.3250 H   0  0  0  0  0  0  0  0  0  0  0  0
   -8.0930   -2.9320   -0.5810 H   0  0  0  0  0  0  0  0  0  0  0  0
   -5.7060   -4.3840   -1.0540 H   0  0  0  0  0  0  0  0  0  0  0  0
   -7.2690   -5.0530   -0.6860 H   0  0  0  0  0  0  0  0  0  0  0  0
   -6.6590   -7.0960   -2.2140 H   0  0  0  0  0  0  0  0  0  0  0  0
   -7.7160   -8.0830   -3.9950 H   0  0  0  0  0  0  0  0  0  0  0  0
   -6.6130   -6.9550   -4.7440 H   0  0  0  0  0  0  0  0  0  0  0  0
   -9.4260   -7.1160   -4.8790 H   0  0  0  0  0  0  0  0  0  0  0  0
   -9.0530   -5.6030   -4.0890 H   0  0  0  0  0  0  0  0  0  0  0  0
   -6.9560   -7.5500   -6.4560 H   0  0  0  0  0  0  0  0  0  0  0  0
   -6.2290   -6.5580   -8.7250 H   0  0  0  0  0  0  0  0  0  0  0  0
   -5.9550   -4.7410   -9.8040 H   0  0  0  0  0  0  0  0  0  0  0  0
   -8.7900   -3.0740   -8.0280 H   0  0  0  0  0  0  0  0  0  0  0  0
   -9.5180   -3.9820   -5.8320 H   0  0  0  0  0  0  0  0  0  0  0  0
  1  2  1  0
  2  3  1  0
  3  4  2  0
  3  5  1  0
  5  6  1  0
  6  7  1  0
  7  8  1  0
  8  9  2  0
  9 10  1  0
 10 11  2  0
 11 12  1  0
 11 13  1  0
 13 14  2  0
 14  8  1  0
  1 15  1  0
  1 16  1  0
  1 17  1  0
  2 18  1  0
  2 19  1  0
  5 20  1  0
  6 21  1  0
  6 22  1  0
  7 23  1  0
  7 24  1  0
  9 25  1  0
 10 26  1  0
 12 27  1  0
 13 28  1  0
 14 29  1  0
A    1
 C1 
A    2
 C2 
A    3
 C3 
A    4
 O1 
A    5
 N1 
A    6
 C4 
A    7
 C5 
A    8
 C6 
A    9
 C7 
A   10
 C8 
A   11
 C9 
A   12
 O2 
A   13
 C10
A   14
 C11
A   15
 H1 
A   16
 H2 
A   17
 H3 
A   18
 H4 
A   19
 H5 
A   20
 H6 
A   21
 H7 
A   22
 H8 
A   23
 H9 
A   24
 H10
A   25
 H11
A   26
 H12
A   27
 H13
A   28
 H14
A   29
 H15
M  END
>  <ref_pdb>  (15) 
x0147_0A

>  <ref_mols>  (15) 
x1919_0AS11,x1498_0A

>  <original SMILES>  (15) 
[H]Oc1c([H])c([H])c(C([H])([H])C([H])([H])N([H])C(=O)C([H])([H])C([H])([H])[H])c([H])c1[H]

>  <index>  (15) 
13911

>  <∆∆G>  (15) 
-6.689539

>  <comRMSD>  (15) 
0.794664

>  <N_constrained_atoms>  (15) 
13.0

>  <N_unconstrained_atoms>  (15) 
1.0

>  <LE>  (15) 
0.477824

>  <percent_hybrid>  (15) 
47.0

>  <max_hit_Tanimoto>  (15) 
0.115226

>  <largest_ring>  (15) 
6

>  <N_interactions_kept>  (15) 
0.5

>  <N_interactions_lost>  (15) 
1.0

>  <interaction_uniqueness_metric>  (15) 
0.106581

>  <N_HA>  (15) 
14

>  <N_rotatable_bonds>  (15) 
6

>  <N_interactions>  (15) 
3

>  <N_PAINS>  (15) 
0

>  <UFF_Gibbs>  (15) 
113.432629

>  <strain_per_HA>  (15) 
8.102273

>  <ad_hoc_penalty>  (15) 
-20.842269

>  <cluster>  (15) 
3851

>  <ranked>  (15) 
375.0

>  <merger_rank>  (15) 
4

>  <hydroph_interaction:LEU:127>  (15) 
1

>  <hbond:GLY:128>  (15) 
0

>  <hydroph_interaction:ALA:144>  (15) 
0

>  <hbond:GLY:164>  (15) 
1

>  <hbond:HIS:40>  (15) 
0

>  <pistack:HIS:40>  (15) 
0

>  <hydroph_interaction:LEU:125>  (15) 
0

>  <hydroph_interaction:PHE:170>  (15) 
0

>  <hydroph_interaction:HIS:40>  (15) 
0

>  <pication:HIS:40>  (15) 
0

>  <hbond:THR:142>  (15) 
0

>  <hbond:HIS:161>  (15) 
1

>  <hbond:GLY:166>  (15) 
0

>  <hbond:VAL:162>  (15) 
0

>  <hydroph_interaction:ASN:165>  (15) 
0

>  <saltbridge:HIS:161>  (15) 
0

>  <hbond:GLY:145>  (15) 
0

>  <hbond:CYS:147>  (15) 
0

>  <saltbridge:HIS:40>  (15) 
0

>  <hbond:LEU:127>  (15) 
0

>  <hbond:THR:130>  (15) 
0

>  <halogenbond:THR:142>  (15) 
0

>  <halogenbond:CYS:147>  (15) 
0

$$$$
Z806526086-x1919-0AS6
     RDKit          3D

 41 41  0  0  0  0  0  0  0  0999 V2000
   -5.5240    0.3670   -1.8740 C   0  0  0  0  0  0  0  0  0  0  0  0
   -6.1340    0.2730   -0.4840 C   0  0  0  0  0  0  0  0  0  0  0  0
   -7.2580   -0.7480   -0.4270 C   0  0  0  0  0  0  0  0  0  0  0  0
   -6.8950   -1.9260   -1.3220 C   0  0  0  0  0  0  0  0  0  0  0  0
   -7.8050   -3.1320   -1.2130 C   0  0  0  0  0  0  0  0  0  0  0  0
   -7.0770   -4.3490   -1.5780 C   0  0  0  0  0  0  0  0  0  0  0  0
   -7.1630   -4.7210   -2.9750 C   0  0  0  0  0  0  0  0  0  0  0  0
   -6.2120   -4.8300   -3.7330 O   0  0  0  0  0  0  0  0  0  0  0  0
   -8.5510   -4.9180   -3.3510 N   0  0  0  0  0  0  0  0  0  0  0  0
   -8.9940   -6.1240   -3.8620 C   0  0  0  0  0  0  0  0  0  0  0  0
   -9.7010   -5.9330   -5.0510 C   0  0  0  0  0  0  0  0  0  0  0  0
   -8.9590   -5.5990   -6.1730 C   0  0  0  0  0  0  0  0  0  0  0  0
   -7.9960   -6.4360   -6.5970 C   0  0  0  0  0  0  0  0  0  0  0  0
   -7.1900   -6.0890   -7.7990 C   0  0  0  0  0  0  0  0  0  0  0  0
   -7.4820   -4.8010   -8.5060 C   0  0  0  0  0  0  0  0  0  0  0  0
   -6.7570   -4.4920   -9.5990 O   0  0  0  0  0  0  0  0  0  0  0  0
   -8.4850   -4.0250   -7.9860 C   0  0  0  0  0  0  0  0  0  0  0  0
   -9.2170   -4.3890   -6.8560 C   0  0  0  0  0  0  0  0  0  0  0  0
   -6.1950   -0.0520   -2.6290 H   0  0  0  0  0  0  0  0  0  0  0  0
   -5.3480    1.4150   -2.1270 H   0  0  0  0  0  0  0  0  0  0  0  0
   -4.5720   -0.1570   -1.9300 H   0  0  0  0  0  0  0  0  0  0  0  0
   -6.5170    1.2550   -0.1910 H   0  0  0  0  0  0  0  0  0  0  0  0
   -5.3440   -0.0000    0.2190 H   0  0  0  0  0  0  0  0  0  0  0  0
   -8.1840   -0.2880   -0.7910 H   0  0  0  0  0  0  0  0  0  0  0  0
   -7.4130   -1.0860    0.6040 H   0  0  0  0  0  0  0  0  0  0  0  0
   -5.8830   -2.2290   -1.1150 H   0  0  0  0  0  0  0  0  0  0  0  0
   -6.9140   -1.5890   -2.3610 H   0  0  0  0  0  0  0  0  0  0  0  0
   -8.6320   -3.0010   -1.9200 H   0  0  0  0  0  0  0  0  0  0  0  0
   -8.2570   -3.2110   -0.2270 H   0  0  0  0  0  0  0  0  0  0  0  0
   -7.4490   -5.2010   -0.9940 H   0  0  0  0  0  0  0  0  0  0  0  0
   -6.0190   -4.2350   -1.3130 H   0  0  0  0  0  0  0  0  0  0  0  0
   -9.1640   -4.1140   -3.4120 H   0  0  0  0  0  0  0  0  0  0  0  0
   -8.1290   -6.7960   -3.8940 H   0  0  0  0  0  0  0  0  0  0  0  0
   -9.6640   -6.5420   -3.1040 H   0  0  0  0  0  0  0  0  0  0  0  0
  -10.4540   -5.1580   -4.8700 H   0  0  0  0  0  0  0  0  0  0  0  0
  -10.2490   -6.8620   -5.2520 H   0  0  0  0  0  0  0  0  0  0  0  0
   -7.7980   -7.3680   -6.0710 H   0  0  0  0  0  0  0  0  0  0  0  0
   -6.4090   -6.7670   -8.1460 H   0  0  0  0  0  0  0  0  0  0  0  0
   -7.1860   -4.9440  -10.3570 H   0  0  0  0  0  0  0  0  0  0  0  0
   -8.6590   -3.1010   -8.5350 H   0  0  0  0  0  0  0  0  0  0  0  0
  -10.0010   -3.7340   -6.4880 H   0  0  0  0  0  0  0  0  0  0  0  0
  1  2  1  0
  2  3  1  0
  3  4  1  0
  4  5  1  0
  5  6  1  0
  6  7  1  0
  7  8  2  0
  7  9  1  0
  9 10  1  0
 10 11  1  0
 11 12  1  0
 12 13  2  0
 13 14  1  0
 14 15  2  0
 15 16  1  0
 15 17  1  0
 17 18  2  0
 18 12  1  0
  1 19  1  0
  1 20  1  0
  1 21  1  0
  2 22  1  0
  2 23  1  0
  3 24  1  0
  3 25  1  0
  4 26  1  0
  4 27  1  0
  5 28  1  0
  5 29  1  0
  6 30  1  0
  6 31  1  0
  9 32  1  0
 10 33  1  0
 10 34  1  0
 11 35  1  0
 11 36  1  0
 13 37  1  0
 14 38  1  0
 16 39  1  0
 17 40  1  0
 18 41  1  0
A    1
 C1 
A    2
 C2 
A    3
 C3 
A    4
 C4 
A    5
 C5 
A    6
 C6 
A    7
 C7 
A    8
 O1 
A    9
 N1 
A   10
 C8 
A   11
 C9 
A   12
 C10
A   13
 C11
A   14
 C12
A   15
 C13
A   16
 O2 
A   17
 C14
A   18
 C15
A   19
 H1 
A   20
 H2 
A   21
 H3 
A   22
 H4 
A   23
 H5 
A   24
 H6 
A   25
 H7 
A   26
 H8 
A   27
 H9 
A   28
 H10
A   29
 H11
A   30
 H12
A   31
 H13
A   32
 H14
A   33
 H15
A   34
 H16
A   35
 H17
A   36
 H18
A   37
 H19
A   38
 H20
A   39
 H21
A   40
 H22
A   41
 H23
M  END
>  <ref_pdb>  (16) 
x0147_0A

>  <ref_mols>  (16) 
x1919_0AS6,x1498_0A

>  <original SMILES>  (16) 
[H]Oc1c([H])c([H])c(C([H])([H])C([H])([H])N([H])C(=O)C([H])([H])C([H])([H])C([H])([H])C([H])([H])C([H])([H])C([H])([H])[H])c([H])c1[H]

>  <index>  (16) 
1943

>  <∆∆G>  (16) 
-8.548461

>  <comRMSD>  (16) 
0.494988

>  <N_constrained_atoms>  (16) 
16.0

>  <N_unconstrained_atoms>  (16) 
2.0

>  <LE>  (16) 
0.474915

>  <percent_hybrid>  (16) 
44.0

>  <max_hit_Tanimoto>  (16) 
0.101399

>  <largest_ring>  (16) 
6

>  <N_interactions_kept>  (16) 
1.5

>  <N_interactions_lost>  (16) 
2.0

>  <interaction_uniqueness_metric>  (16) 
0.11243

>  <N_HA>  (16) 
18

>  <N_rotatable_bonds>  (16) 
10

>  <N_interactions>  (16) 
5

>  <N_PAINS>  (16) 
0

>  <UFF_Gibbs>  (16) 
122.96312

>  <strain_per_HA>  (16) 
6.831246

>  <ad_hoc_penalty>  (16) 
-20.761051

>  <cluster>  (16) 
2701

>  <ranked>  (16) 
379.0

>  <merger_rank>  (16) 
2

>  <hydroph_interaction:LEU:127>  (16) 
1

>  <hbond:GLY:128>  (16) 
0

>  <hydroph_interaction:ALA:144>  (16) 
0

>  <hbond:GLY:164>  (16) 
1

>  <hbond:HIS:40>  (16) 
0

>  <pistack:HIS:40>  (16) 
0

>  <hydroph_interaction:LEU:125>  (16) 
1

>  <hydroph_interaction:PHE:170>  (16) 
1

>  <hydroph_interaction:HIS:40>  (16) 
0

>  <pication:HIS:40>  (16) 
0

>  <hbond:THR:142>  (16) 
1

>  <hbond:HIS:161>  (16) 
0

>  <hbond:GLY:166>  (16) 
0

>  <hbond:VAL:162>  (16) 
0

>  <hydroph_interaction:ASN:165>  (16) 
0

>  <saltbridge:HIS:161>  (16) 
0

>  <hbond:GLY:145>  (16) 
0

>  <hbond:CYS:147>  (16) 
0

>  <saltbridge:HIS:40>  (16) 
0

>  <hbond:LEU:127>  (16) 
0

>  <hbond:THR:130>  (16) 
0

>  <halogenbond:THR:142>  (16) 
0

>  <halogenbond:CYS:147>  (16) 
0

$$$$
Z1306250840-x1329-0A
     RDKit          3D

 44 45  0  0  0  0  0  0  0  0999 V2000
   -4.1130   -7.3440    1.4400 C   0  0  0  0  0  0  0  0  0  0  0  0
   -5.2710   -7.5710    1.0890 O   0  0  0  0  0  0  0  0  0  0  0  0
   -5.3420   -8.6200    0.1270 C   0  0  0  0  0  0  0  0  0  0  0  0
   -5.2650   -9.8130    0.3790 O   0  0  0  0  0  0  0  0  0  0  0  0
   -5.5230   -8.0330   -1.2720 C   0  0  1  0  0  0  0  0  0  0  0  0
   -6.2630   -9.1250   -2.0200 C   0  0  0  0  0  0  0  0  0  0  0  0
   -6.7320   -8.5700   -3.3340 C   0  0  0  0  0  0  0  0  0  0  0  0
   -7.4490   -7.3540   -3.2810 C   0  0  0  0  0  0  0  0  0  0  0  0
   -6.7450   -6.2990   -2.6210 N   0  0  0  0  0  0  0  0  0  0  0  0
   -7.0090   -4.8940   -3.0460 C   0  0  0  0  0  0  0  0  0  0  0  0
   -6.2860   -4.2670   -3.8200 O   0  0  0  0  0  0  0  0  0  0  0  0
   -8.1100   -4.3660   -2.5350 N   0  0  0  0  0  0  0  0  0  0  0  0
   -9.1900   -4.0320   -3.5080 C   0  0  0  0  0  0  0  0  0  0  0  0
   -9.4850   -5.2140   -4.4420 C   0  0  0  0  0  0  0  0  0  0  0  0
   -8.8100   -5.1310   -5.8080 C   0  0  0  0  0  0  0  0  0  0  0  0
   -7.9480   -6.2490   -6.3440 C   0  0  0  0  0  0  0  0  0  0  0  0
   -7.3670   -5.9300   -7.6910 C   0  0  0  0  0  0  0  0  0  0  0  0
   -7.5450   -4.7760   -8.4310 C   0  0  0  0  0  0  0  0  0  0  0  0
   -6.9660   -4.5640   -9.6400 O   0  0  0  0  0  0  0  0  0  0  0  0
   -8.3650   -3.7960   -7.8840 C   0  0  0  0  0  0  0  0  0  0  0  0
   -8.9750   -3.9810   -6.6050 C   0  0  0  0  0  0  0  0  0  0  0  0
   -6.2590   -6.6720   -1.2710 C   0  0  0  0  0  0  0  0  0  0  0  0
   -3.5910   -6.7100    0.7120 H   0  0  0  0  0  0  0  0  0  0  0  0
   -3.5660   -8.2890    1.5150 H   0  0  0  0  0  0  0  0  0  0  0  0
   -4.0840   -6.8450    2.4140 H   0  0  0  0  0  0  0  0  0  0  0  0
   -4.5330   -7.9050   -1.7290 H   0  0  0  0  0  0  0  0  0  0  0  0
   -7.1150   -9.6220   -1.5480 H   0  0  0  0  0  0  0  0  0  0  0  0
   -5.5590   -9.9360   -2.2370 H   0  0  0  0  0  0  0  0  0  0  0  0
   -5.8610   -8.4450   -3.9910 H   0  0  0  0  0  0  0  0  0  0  0  0
   -7.3550   -9.3260   -3.8140 H   0  0  0  0  0  0  0  0  0  0  0  0
   -8.4180   -7.5330   -2.8020 H   0  0  0  0  0  0  0  0  0  0  0  0
   -7.6750   -7.0100   -4.2950 H   0  0  0  0  0  0  0  0  0  0  0  0
   -8.4130   -4.8570   -1.6880 H   0  0  0  0  0  0  0  0  0  0  0  0
   -8.7800   -3.2310   -4.1310 H   0  0  0  0  0  0  0  0  0  0  0  0
  -10.0160   -3.6170   -2.9250 H   0  0  0  0  0  0  0  0  0  0  0  0
   -9.2720   -6.1150   -3.8560 H   0  0  0  0  0  0  0  0  0  0  0  0
  -10.5500   -5.3260   -4.6710 H   0  0  0  0  0  0  0  0  0  0  0  0
   -7.7700   -7.1700   -5.8080 H   0  0  0  0  0  0  0  0  0  0  0  0
   -6.7390   -6.6910   -8.1200 H   0  0  0  0  0  0  0  0  0  0  0  0
   -6.8080   -3.6170   -9.7760 H   0  0  0  0  0  0  0  0  0  0  0  0
   -8.5820   -2.8520   -8.3810 H   0  0  0  0  0  0  0  0  0  0  0  0
   -9.5980   -3.1720   -6.2320 H   0  0  0  0  0  0  0  0  0  0  0  0
   -5.5890   -5.8690   -0.9430 H   0  0  0  0  0  0  0  0  0  0  0  0
   -7.0780   -6.7030   -0.5470 H   0  0  0  0  0  0  0  0  0  0  0  0
  1  2  1  0
  2  3  1  0
  3  4  2  0
  3  5  1  0
  5  6  1  0
  6  7  1  0
  7  8  1  0
  8  9  1  0
  9 10  1  0
 10 11  2  0
 10 12  1  0
 12 13  1  0
 13 14  1  0
 14 15  1  0
 15 16  2  0
 16 17  1  0
 17 18  2  0
 18 19  1  0
 18 20  1  0
 20 21  2  0
  9 22  1  0
 22  5  1  0
 21 15  1  0
  1 23  1  0
  1 24  1  0
  1 25  1  0
  5 26  1  6
  6 27  1  0
  6 28  1  0
  7 29  1  0
  7 30  1  0
  8 31  1  0
  8 32  1  0
 12 33  1  0
 13 34  1  0
 13 35  1  0
 14 36  1  0
 14 37  1  0
 16 38  1  0
 17 39  1  0
 19 40  1  0
 20 41  1  0
 21 42  1  0
 22 43  1  0
 22 44  1  0
A    1
 C1 
A    2
 O1 
A    3
 C2 
A    4
 O2 
A    5
 C3 
A    6
 C4 
A    7
 C5 
A    8
 C6 
A    9
 N1 
A   10
 C7 
A   11
 O3 
A   12
 N2 
A   13
 C8 
A   14
 C9 
A   15
 C10
A   16
 C11
A   17
 C12
A   18
 C13
A   19
 O4 
A   20
 C14
A   21
 C15
A   22
 C16
A   23
 H1 
A   24
 H2 
A   25
 H3 
A   26
 H4 
A   27
 H5 
A   28
 H6 
A   29
 H7 
A   30
 H8 
A   31
 H9 
A   32
 H10
A   33
 H11
A   34
 H12
A   35
 H13
A   36
 H14
A   37
 H15
A   38
 H16
A   39
 H17
A   40
 H18
A   41
 H19
A   42
 H20
A   43
 H21
A   44
 H22
M  END
>  <ref_pdb>  (17) 
x0147_0A

>  <ref_mols>  (17) 
x1329_0A,x1498_0A

>  <original SMILES>  (17) 
[H]Oc1c([H])c([H])c(C([H])([H])C([H])([H])N([H])C(=O)N2C([H])([H])C([H])([H])C([H])([H])[C@]([H])(C(=O)OC([H])([H])[H])C2([H])[H])c([H])c1[H]

>  <index>  (17) 
9290

>  <∆∆G>  (17) 
-6.35114

>  <comRMSD>  (17) 
0.859387

>  <N_constrained_atoms>  (17) 
22.0

>  <N_unconstrained_atoms>  (17) 
2.0

>  <LE>  (17) 
0.264631

>  <percent_hybrid>  (17) 
32.0

>  <max_hit_Tanimoto>  (17) 
0.241093

>  <largest_ring>  (17) 
6

>  <N_interactions_kept>  (17) 
1.0

>  <N_interactions_lost>  (17) 
1.0

>  <interaction_uniqueness_metric>  (17) 
0.10306

>  <N_HA>  (17) 
22

>  <N_rotatable_bonds>  (17) 
6

>  <N_interactions>  (17) 
3

>  <N_PAINS>  (17) 
0

>  <UFF_Gibbs>  (17) 
243.436121

>  <strain_per_HA>  (17) 
11.065228

>  <ad_hoc_penalty>  (17) 
-20.492769

>  <cluster>  (17) 
829

>  <ranked>  (17) 
396.0

>  <merger_rank>  (17) 
1

>  <hydroph_interaction:LEU:127>  (17) 
0

>  <hbond:GLY:128>  (17) 
0

>  <hydroph_interaction:ALA:144>  (17) 
0

>  <hbond:GLY:164>  (17) 
1

>  <hbond:HIS:40>  (17) 
0

>  <pistack:HIS:40>  (17) 
0

>  <hydroph_interaction:LEU:125>  (17) 
0

>  <hydroph_interaction:PHE:170>  (17) 
0

>  <hydroph_interaction:HIS:40>  (17) 
0

>  <pication:HIS:40>  (17) 
0

>  <hbond:THR:142>  (17) 
1

>  <hbond:HIS:161>  (17) 
0

>  <hbond:GLY:166>  (17) 
0

>  <hbond:VAL:162>  (17) 
0

>  <hydroph_interaction:ASN:165>  (17) 
0

>  <saltbridge:HIS:161>  (17) 
0

>  <hbond:GLY:145>  (17) 
0

>  <hbond:CYS:147>  (17) 
0

>  <saltbridge:HIS:40>  (17) 
1

>  <hbond:LEU:127>  (17) 
0

>  <hbond:THR:130>  (17) 
0

>  <halogenbond:THR:142>  (17) 
0

>  <halogenbond:CYS:147>  (17) 
0

$$$$
PV-003866802774-x0771-1AS1
     RDKit          3D

 36 37  0  0  0  0  0  0  0  0999 V2000
   -8.4100   -3.0440   -8.1380 O   0  0  0  0  0  0  0  0  0  0  0  0
   -7.7160   -4.0340   -8.3180 C   0  0  0  0  0  0  0  0  0  0  0  0
   -6.9180   -4.2190   -9.3840 O   0  0  0  0  0  0  0  0  0  0  0  0
   -7.6790   -5.1840   -7.3880 C   0  0  0  0  0  0  0  0  0  0  0  0
   -7.3270   -6.5730   -7.8030 C   0  0  0  0  0  0  0  0  0  0  0  0
   -7.3560   -7.6980   -6.7560 C   0  0  0  0  0  0  0  0  0  0  0  0
   -7.7120   -7.3030   -5.3510 C   0  0  0  0  0  0  0  0  0  0  0  0
   -7.9960   -5.9550   -5.1140 C   0  0  0  0  0  0  0  0  0  0  0  0
   -8.3070   -5.6810   -3.6410 C   0  0  0  0  0  0  0  0  0  0  0  0
   -6.6940   -5.2910   -3.0190 S   0  0  0  0  0  6  0  0  0  0  0  0
   -6.8490   -5.5150   -1.6270 O   0  0  0  0  0  0  0  0  0  0  0  0
   -6.2730   -4.0160   -3.5880 O   0  0  0  0  0  0  0  0  0  0  0  0
   -5.7140   -6.5160   -3.6860 N   0  0  0  0  0  0  0  0  0  0  0  0
   -5.9650   -7.9660   -3.3470 C   0  0  0  0  0  0  0  0  0  0  0  0
   -5.3430   -8.1520   -1.9710 C   0  0  0  0  0  0  0  0  0  0  0  0
   -5.9470   -8.9470   -0.9870 C   0  0  0  0  0  0  0  0  0  0  0  0
   -5.3710   -9.1710    0.4150 C   0  0  0  0  0  0  0  0  0  0  0  0
   -4.1640   -8.5400    0.7320 C   0  0  0  0  0  0  0  0  0  0  0  0
   -3.4160   -7.6570   -0.2470 C   0  0  0  0  0  0  0  0  0  0  0  0
   -4.0180   -7.4590   -1.6310 C   0  0  0  0  0  0  0  0  0  0  0  0
   -7.9930   -4.9380   -6.0660 C   0  0  0  0  0  0  0  0  0  0  0  0
   -6.6390   -3.3220   -9.6540 H   0  0  0  0  0  0  0  0  0  0  0  0
   -7.0770   -6.7050   -8.8610 H   0  0  0  0  0  0  0  0  0  0  0  0
   -7.1340   -8.7240   -7.0070 H   0  0  0  0  0  0  0  0  0  0  0  0
   -7.7400   -8.0530   -4.5630 H   0  0  0  0  0  0  0  0  0  0  0  0
   -8.7020   -6.5520   -3.1060 H   0  0  0  0  0  0  0  0  0  0  0  0
   -8.9620   -4.8140   -3.5030 H   0  0  0  0  0  0  0  0  0  0  0  0
   -4.7630   -6.2660   -4.0110 H   0  0  0  0  0  0  0  0  0  0  0  0
   -5.4940   -8.6340   -4.0750 H   0  0  0  0  0  0  0  0  0  0  0  0
   -7.0360   -8.1890   -3.3030 H   0  0  0  0  0  0  0  0  0  0  0  0
   -6.8870   -9.4390   -1.2300 H   0  0  0  0  0  0  0  0  0  0  0  0
   -5.8840   -9.8000    1.1380 H   0  0  0  0  0  0  0  0  0  0  0  0
   -3.7430   -8.6890    1.7220 H   0  0  0  0  0  0  0  0  0  0  0  0
   -2.4780   -7.1810    0.0280 H   0  0  0  0  0  0  0  0  0  0  0  0
   -3.5090   -6.8360   -2.3570 H   0  0  0  0  0  0  0  0  0  0  0  0
   -8.2380   -3.9200   -5.7700 H   0  0  0  0  0  0  0  0  0  0  0  0
  1  2  2  0
  2  3  1  0
  2  4  1  0
  4  5  2  0
  5  6  1  0
  6  7  2  0
  7  8  1  0
  8  9  1  0
  9 10  1  0
 10 11  2  0
 10 12  2  0
 10 13  1  0
 13 14  1  0
 14 15  1  0
 15 16  2  0
 16 17  1  0
 17 18  2  0
 18 19  1  0
 19 20  2  0
  8 21  2  0
 21  4  1  0
 20 15  1  0
  3 22  1  0
  5 23  1  0
  6 24  1  0
  7 25  1  0
  9 26  1  0
  9 27  1  0
 13 28  1  0
 14 29  1  0
 14 30  1  0
 16 31  1  0
 17 32  1  0
 18 33  1  0
 19 34  1  0
 20 35  1  0
 21 36  1  0
A    1
 O1 
A    2
 C1 
A    3
 O2 
A    4
 C2 
A    5
 C3 
A    6
 C4 
A    7
 C5 
A    8
 C6 
A    9
 C7 
A   10
 S1 
A   11
 O3 
A   12
 O4 
A   13
 N1 
A   14
 C8 
A   15
 C9 
A   16
 C10
A   17
 C11
A   18
 C12
A   19
 C13
A   20
 C14
A   21
 C15
A   22
 H1 
A   23
 H2 
A   24
 H3 
A   25
 H4 
A   26
 H5 
A   27
 H6 
A   28
 H7 
A   29
 H8 
A   30
 H9 
A   31
 H10
A   32
 H11
A   33
 H12
A   34
 H13
A   35
 H14
A   36
 H15
M  END
>  <ref_pdb>  (18) 
x0147_0A

>  <ref_mols>  (18) 
x0771_1AS1,x1140_0AS5

>  <original SMILES>  (18) 
[H]OC(=O)c1c([H])c([H])c([H])c(C([H])([H])S(=O)(=O)N([H])C([H])([H])c2c([H])c([H])c([H])c([H])c2[H])c1[H]

>  <index>  (18) 
2290

>  <∆∆G>  (18) 
-6.812067

>  <comRMSD>  (18) 
0.937086

>  <N_constrained_atoms>  (18) 
21.0

>  <N_unconstrained_atoms>  (18) 
1.0

>  <LE>  (18) 
0.309639

>  <percent_hybrid>  (18) 
43.0

>  <max_hit_Tanimoto>  (18) 
0.361556

>  <largest_ring>  (18) 
6

>  <N_interactions_kept>  (18) 
2.0

>  <N_interactions_lost>  (18) 
3.0

>  <interaction_uniqueness_metric>  (18) 
0.143681

>  <N_HA>  (18) 
21

>  <N_rotatable_bonds>  (18) 
6

>  <N_interactions>  (18) 
7

>  <N_PAINS>  (18) 
0

>  <UFF_Gibbs>  (18) 
303.822364

>  <strain_per_HA>  (18) 
14.467663

>  <ad_hoc_penalty>  (18) 
-20.077854

>  <cluster>  (18) 
6873

>  <ranked>  (18) 
428.0

>  <merger_rank>  (18) 
1

>  <hydroph_interaction:LEU:127>  (18) 
1

>  <hbond:GLY:128>  (18) 
0

>  <hydroph_interaction:ALA:144>  (18) 
1

>  <hbond:GLY:164>  (18) 
2

>  <hbond:HIS:40>  (18) 
0

>  <pistack:HIS:40>  (18) 
1

>  <hydroph_interaction:LEU:125>  (18) 
0

>  <hydroph_interaction:PHE:170>  (18) 
0

>  <hydroph_interaction:HIS:40>  (18) 
1

>  <pication:HIS:40>  (18) 
0

>  <hbond:THR:142>  (18) 
0

>  <hbond:HIS:161>  (18) 
0

>  <hbond:GLY:166>  (18) 
0

>  <hbond:VAL:162>  (18) 
0

>  <hydroph_interaction:ASN:165>  (18) 
0

>  <saltbridge:HIS:161>  (18) 
1

>  <hbond:GLY:145>  (18) 
0

>  <hbond:CYS:147>  (18) 
0

>  <saltbridge:HIS:40>  (18) 
0

>  <hbond:LEU:127>  (18) 
0

>  <hbond:THR:130>  (18) 
0

>  <halogenbond:THR:142>  (18) 
0

>  <halogenbond:CYS:147>  (18) 
0

$$$$
Z1420984487-x0771-1AS1
     RDKit          3D

 45 47  0  0  0  0  0  0  0  0999 V2000
   -6.2620   -4.8520   -1.1760 C   0  0  0  0  0  0  0  0  0  0  0  0
   -7.4560   -5.7250   -1.4700 C   0  0  0  0  0  0  0  0  0  0  0  0
   -7.4430   -6.1410   -2.7790 N   0  0  0  0  0  0  0  0  0  0  0  0
   -8.5060   -6.0230   -3.6480 C   0  0  0  0  0  0  0  0  0  0  0  0
   -8.1350   -6.1100   -5.1010 C   0  0  0  0  0  0  0  0  0  0  0  0
   -7.7050   -7.4890   -5.5390 C   0  0  0  0  0  0  0  0  0  0  0  0
   -7.3470   -7.5490   -6.9300 C   0  0  0  0  0  0  0  0  0  0  0  0
   -7.3980   -6.3860   -7.7920 C   0  0  0  0  0  0  0  0  0  0  0  0
   -7.8130   -5.1690   -7.3020 C   0  0  0  0  0  0  0  0  0  0  0  0
   -7.8740   -4.0790   -8.1300 C   0  0  0  0  0  0  0  0  0  0  0  0
   -7.0140   -4.1510   -9.1790 N   0  0  0  0  0  0  0  0  0  0  0  0
   -8.6380   -3.1400   -7.9370 O   0  0  0  0  0  0  0  0  0  0  0  0
   -8.1770   -5.0250   -5.9680 C   0  0  0  0  0  0  0  0  0  0  0  0
   -6.2950   -6.4700   -3.2520 C   0  0  0  0  0  0  0  0  0  0  0  0
   -5.5560   -5.6210   -3.7140 O   0  0  0  0  0  0  0  0  0  0  0  0
   -5.9020   -7.9120   -3.1930 C   0  0  0  0  0  0  0  0  0  0  0  0
   -5.2610   -8.1350   -1.8580 C   0  0  0  0  0  0  0  0  0  0  0  0
   -5.9520   -8.9880   -0.8420 C   0  0  0  0  0  0  0  0  0  0  0  0
   -5.3790   -9.1930    0.4070 C   0  0  0  0  0  0  0  0  0  0  0  0
   -4.1520   -8.5830    0.6710 C   0  0  0  0  0  0  0  0  0  0  0  0
   -3.4460   -8.6640    1.8280 O   0  0  0  0  0  0  0  0  0  0  0  0
   -2.4310   -7.6720    1.5670 C   0  0  0  0  0  0  0  0  0  0  0  0
   -2.3470   -7.3090    0.1810 O   0  0  0  0  0  0  0  0  0  0  0  0
   -3.5160   -7.7990   -0.2750 C   0  0  0  0  0  0  0  0  0  0  0  0
   -4.0410   -7.5570   -1.5390 C   0  0  0  0  0  0  0  0  0  0  0  0
   -6.5800   -3.8360   -0.9310 H   0  0  0  0  0  0  0  0  0  0  0  0
   -5.6130   -4.7950   -2.0520 H   0  0  0  0  0  0  0  0  0  0  0  0
   -5.6740   -5.2520   -0.3480 H   0  0  0  0  0  0  0  0  0  0  0  0
   -8.3750   -5.1730   -1.2410 H   0  0  0  0  0  0  0  0  0  0  0  0
   -7.4150   -6.6030   -0.8170 H   0  0  0  0  0  0  0  0  0  0  0  0
   -8.9600   -5.0410   -3.4610 H   0  0  0  0  0  0  0  0  0  0  0  0
   -9.2530   -6.7950   -3.4230 H   0  0  0  0  0  0  0  0  0  0  0  0
   -7.6580   -8.3660   -4.9050 H   0  0  0  0  0  0  0  0  0  0  0  0
   -7.0380   -8.4940   -7.3390 H   0  0  0  0  0  0  0  0  0  0  0  0
   -7.1130   -6.4830   -8.8400 H   0  0  0  0  0  0  0  0  0  0  0  0
   -6.9810   -4.9570   -9.7830 H   0  0  0  0  0  0  0  0  0  0  0  0
   -6.7350   -3.2770   -9.5840 H   0  0  0  0  0  0  0  0  0  0  0  0
   -8.4940   -4.0490   -5.6110 H   0  0  0  0  0  0  0  0  0  0  0  0
   -5.2170   -8.1680   -4.0130 H   0  0  0  0  0  0  0  0  0  0  0  0
   -6.7820   -8.5550   -3.3250 H   0  0  0  0  0  0  0  0  0  0  0  0
   -6.9050   -9.4010   -1.1790 H   0  0  0  0  0  0  0  0  0  0  0  0
   -5.8670   -9.8090    1.1610 H   0  0  0  0  0  0  0  0  0  0  0  0
   -2.6540   -6.7770    2.1420 H   0  0  0  0  0  0  0  0  0  0  0  0
   -1.4580   -8.0640    1.8840 H   0  0  0  0  0  0  0  0  0  0  0  0
   -3.4960   -6.9300   -2.2420 H   0  0  0  0  0  0  0  0  0  0  0  0
  1  2  1  0
  2  3  1  0
  3  4  1  0
  4  5  1  0
  5  6  2  0
  6  7  1  0
  7  8  2  0
  8  9  1  0
  9 10  1  0
 10 11  1  0
 10 12  2  0
  9 13  2  0
  3 14  1  0
 14 15  2  0
 14 16  1  0
 16 17  1  0
 17 18  2  0
 18 19  1  0
 19 20  2  0
 20 21  1  0
 21 22  1  0
 22 23  1  0
 23 24  1  0
 24 25  2  0
 13  5  1  0
 25 17  1  0
 24 20  1  0
  1 26  1  0
  1 27  1  0
  1 28  1  0
  2 29  1  0
  2 30  1  0
  4 31  1  0
  4 32  1  0
  6 33  1  0
  7 34  1  0
  8 35  1  0
 11 36  1  0
 11 37  1  0
 13 38  1  0
 16 39  1  0
 16 40  1  0
 18 41  1  0
 19 42  1  0
 22 43  1  0
 22 44  1  0
 25 45  1  0
A    1
 C1 
A    2
 C2 
A    3
 N1 
A    4
 C3 
A    5
 C4 
A    6
 C5 
A    7
 C6 
A    8
 C7 
A    9
 C8 
A   10
 C9 
A   11
 N2 
A   12
 O1 
A   13
 C10
A   14
 C11
A   15
 O2 
A   16
 C12
A   17
 C13
A   18
 C14
A   19
 C15
A   20
 C16
A   21
 O3 
A   22
 C17
A   23
 O4 
A   24
 C18
A   25
 C19
A   26
 H1 
A   27
 H2 
A   28
 H3 
A   29
 H4 
A   30
 H5 
A   31
 H6 
A   32
 H7 
A   33
 H8 
A   34
 H9 
A   35
 H10
A   36
 H11
A   37
 H12
A   38
 H13
A   39
 H14
A   40
 H15
A   41
 H16
A   42
 H17
A   43
 H18
A   44
 H19
A   45
 H20
M  END
>  <ref_pdb>  (19) 
x0147_0A

>  <ref_mols>  (19) 
x0771_1AS1,x1140_0A

>  <original SMILES>  (19) 
[H]c1c([H])c(C(=O)N([H])[H])c([H])c(C([H])([H])N(C(=O)C([H])([H])c2c([H])c([H])c3c(c2[H])OC([H])([H])O3)C([H])([H])C([H])([H])[H])c1[H]

>  <index>  (19) 
5732

>  <∆∆G>  (19) 
-7.527761

>  <comRMSD>  (19) 
0.361107

>  <N_constrained_atoms>  (19) 
24.0

>  <N_unconstrained_atoms>  (19) 
1.0

>  <LE>  (19) 
0.30111

>  <percent_hybrid>  (19) 
38.0

>  <max_hit_Tanimoto>  (19) 
0.378415

>  <largest_ring>  (19) 
6

>  <N_interactions_kept>  (19) 
0.0

>  <N_interactions_lost>  (19) 
4.5

>  <interaction_uniqueness_metric>  (19) 
0.142553

>  <N_HA>  (19) 
25

>  <N_rotatable_bonds>  (19) 
7

>  <N_interactions>  (19) 
8

>  <N_PAINS>  (19) 
0

>  <UFF_Gibbs>  (19) 
166.528579

>  <strain_per_HA>  (19) 
6.661116

>  <ad_hoc_penalty>  (19) 
-19.957168

>  <cluster>  (19) 
5999

>  <ranked>  (19) 
437.0

>  <merger_rank>  (19) 
3

>  <hydroph_interaction:LEU:127>  (19) 
2

>  <hbond:GLY:128>  (19) 
0

>  <hydroph_interaction:ALA:144>  (19) 
1

>  <hbond:GLY:164>  (19) 
1

>  <hbond:HIS:40>  (19) 
1

>  <pistack:HIS:40>  (19) 
1

>  <hydroph_interaction:LEU:125>  (19) 
0

>  <hydroph_interaction:PHE:170>  (19) 
0

>  <hydroph_interaction:HIS:40>  (19) 
1

>  <pication:HIS:40>  (19) 
0

>  <hbond:THR:142>  (19) 
1

>  <hbond:HIS:161>  (19) 
0

>  <hbond:GLY:166>  (19) 
0

>  <hbond:VAL:162>  (19) 
0

>  <hydroph_interaction:ASN:165>  (19) 
0

>  <saltbridge:HIS:161>  (19) 
0

>  <hbond:GLY:145>  (19) 
0

>  <hbond:CYS:147>  (19) 
0

>  <saltbridge:HIS:40>  (19) 
0

>  <hbond:LEU:127>  (19) 
0

>  <hbond:THR:130>  (19) 
0

>  <halogenbond:THR:142>  (19) 
0

>  <halogenbond:CYS:147>  (19) 
0

$$$$
Z1708209381-x1084-0A
     RDKit          3D

 43 44  0  0  0  0  0  0  0  0999 V2000
   -2.8950   -7.6960    2.7370 C   0  0  0  0  0  0  0  0  0  0  0  0
   -3.6210   -8.6900    1.8810 C   0  0  0  0  0  0  0  0  0  0  0  0
   -4.0340   -8.2660    0.5210 C   0  0  0  0  0  0  0  0  0  0  0  0
   -2.9770   -7.9520   -0.5040 C   0  0  0  0  0  0  0  0  0  0  0  0
   -3.4170   -7.5170   -1.8640 C   0  0  0  0  0  0  0  0  0  0  0  0
   -4.8220   -7.4050   -2.1370 C   0  0  0  0  0  0  0  0  0  0  0  0
   -5.2910   -6.9330   -3.5330 C   0  0  0  0  0  0  0  0  0  0  0  0
   -7.0570   -6.6840   -3.6090 S   0  0  0  0  0  6  0  0  0  0  0  0
   -7.5490   -5.9420   -2.4660 O   0  0  0  0  0  0  0  0  0  0  0  0
   -7.6670   -7.9370   -3.9750 O   0  0  0  0  0  0  0  0  0  0  0  0
   -7.1700   -5.8440   -5.0470 N   0  0  0  0  0  0  0  0  0  0  0  0
   -6.9010   -6.8150   -6.1410 C   0  0  0  0  0  0  0  0  0  0  0  0
   -7.0230   -6.2660   -7.5650 C   0  0  0  0  0  0  0  0  0  0  0  0
   -7.9420   -5.2710   -7.6500 C   0  0  0  0  0  0  0  0  0  0  0  0
   -9.2610   -5.6100   -6.9740 C   0  0  0  0  0  0  0  0  0  0  0  0
  -10.2170   -4.5850   -7.0320 C   0  0  0  0  0  0  0  0  0  0  0  0
   -9.9550   -3.3640   -7.6610 C   0  0  0  0  0  0  0  0  0  0  0  0
   -8.7260   -3.1060   -8.2680 C   0  0  0  0  0  0  0  0  0  0  0  0
   -7.7290   -4.0670   -8.2630 C   0  0  0  0  0  0  0  0  0  0  0  0
   -6.5460   -3.7500   -8.8770 O   0  0  0  0  0  0  0  0  0  0  0  0
   -5.7530   -7.7210   -1.1310 C   0  0  0  0  0  0  0  0  0  0  0  0
   -5.3740   -8.1410    0.1570 C   0  0  0  0  0  0  0  0  0  0  0  0
   -3.5620   -6.8810    3.0390 H   0  0  0  0  0  0  0  0  0  0  0  0
   -2.4800   -8.1520    3.6370 H   0  0  0  0  0  0  0  0  0  0  0  0
   -2.0640   -7.2530    2.1750 H   0  0  0  0  0  0  0  0  0  0  0  0
   -4.5260   -8.9890    2.4210 H   0  0  0  0  0  0  0  0  0  0  0  0
   -3.0190   -9.5960    1.7750 H   0  0  0  0  0  0  0  0  0  0  0  0
   -1.9120   -8.0390   -0.2650 H   0  0  0  0  0  0  0  0  0  0  0  0
   -2.6740   -7.2920   -2.6200 H   0  0  0  0  0  0  0  0  0  0  0  0
   -4.8350   -5.9720   -3.7600 H   0  0  0  0  0  0  0  0  0  0  0  0
   -5.0100   -7.6580   -4.3020 H   0  0  0  0  0  0  0  0  0  0  0  0
   -8.0790   -5.3770   -5.0820 H   0  0  0  0  0  0  0  0  0  0  0  0
   -7.5430   -7.6960   -6.0270 H   0  0  0  0  0  0  0  0  0  0  0  0
   -5.8600   -7.1230   -6.0310 H   0  0  0  0  0  0  0  0  0  0  0  0
   -7.2670   -7.0670   -8.2470 H   0  0  0  0  0  0  0  0  0  0  0  0
   -6.0860   -5.8790   -7.9500 H   0  0  0  0  0  0  0  0  0  0  0  0
   -9.3750   -6.5900   -6.5000 H   0  0  0  0  0  0  0  0  0  0  0  0
  -11.1960   -4.7440   -6.5690 H   0  0  0  0  0  0  0  0  0  0  0  0
  -10.7140   -2.5790   -7.6910 H   0  0  0  0  0  0  0  0  0  0  0  0
   -8.5460   -2.1520   -8.7480 H   0  0  0  0  0  0  0  0  0  0  0  0
   -6.0250   -4.5310   -9.1880 H   0  0  0  0  0  0  0  0  0  0  0  0
   -6.8160   -7.6390   -1.3440 H   0  0  0  0  0  0  0  0  0  0  0  0
   -6.1550   -8.3650    0.8780 H   0  0  0  0  0  0  0  0  0  0  0  0
  1  2  1  0
  2  3  1  0
  3  4  2  0
  4  5  1  0
  5  6  2  0
  6  7  1  0
  7  8  1  0
  8  9  2  0
  8 10  2  0
  8 11  1  0
 11 12  1  0
 12 13  1  0
 13 14  1  0
 14 15  2  0
 15 16  1  0
 16 17  2  0
 17 18  1  0
 18 19  2  0
 19 20  1  0
  6 21  1  0
 21 22  2  0
 22  3  1  0
 19 14  1  0
  1 23  1  0
  1 24  1  0
  1 25  1  0
  2 26  1  0
  2 27  1  0
  4 28  1  0
  5 29  1  0
  7 30  1  0
  7 31  1  0
 11 32  1  0
 12 33  1  0
 12 34  1  0
 13 35  1  0
 13 36  1  0
 15 37  1  0
 16 38  1  0
 17 39  1  0
 18 40  1  0
 20 41  1  0
 21 42  1  0
 22 43  1  0
A    1
 C1 
A    2
 C2 
A    3
 C3 
A    4
 C4 
A    5
 C5 
A    6
 C6 
A    7
 C7 
A    8
 S1 
A    9
 O1 
A   10
 O2 
A   11
 N1 
A   12
 C8 
A   13
 C9 
A   14
 C10
A   15
 C11
A   16
 C12
A   17
 C13
A   18
 C14
A   19
 C15
A   20
 O3 
A   21
 C16
A   22
 C17
A   23
 H1 
A   24
 H2 
A   25
 H3 
A   26
 H4 
A   27
 H5 
A   28
 H6 
A   29
 H7 
A   30
 H8 
A   31
 H9 
A   32
 H10
A   33
 H11
A   34
 H12
A   35
 H13
A   36
 H14
A   37
 H15
A   38
 H16
A   39
 H17
A   40
 H18
A   41
 H19
A   42
 H20
A   43
 H21
M  END
>  <ref_pdb>  (20) 
x0147_0A

>  <ref_mols>  (20) 
x1084_0A,x1604_0AS2

>  <original SMILES>  (20) 
[H]Oc1c([H])c([H])c([H])c([H])c1C([H])([H])C([H])([H])N([H])S(=O)(=O)C([H])([H])c1c([H])c([H])c(C([H])([H])C([H])([H])[H])c([H])c1[H]

>  <index>  (20) 
1821

>  <∆∆G>  (20) 
-7.729645

>  <comRMSD>  (20) 
0.656937

>  <N_constrained_atoms>  (20) 
21.0

>  <N_unconstrained_atoms>  (20) 
1.0

>  <LE>  (20) 
0.351347

>  <percent_hybrid>  (20) 
39.0

>  <max_hit_Tanimoto>  (20) 
0.167315

>  <largest_ring>  (20) 
6

>  <N_interactions_kept>  (20) 
3.0

>  <N_interactions_lost>  (20) 
2.5

>  <interaction_uniqueness_metric>  (20) 
0.098634

>  <N_HA>  (20) 
22

>  <N_rotatable_bonds>  (20) 
9

>  <N_interactions>  (20) 
5

>  <N_PAINS>  (20) 
0

>  <UFF_Gibbs>  (20) 
117.067142

>  <strain_per_HA>  (20) 
5.32121

>  <ad_hoc_penalty>  (20) 
-18.71701

>  <cluster>  (20) 
6940

>  <ranked>  (20) 
525.0

>  <merger_rank>  (20) 
1

>  <hydroph_interaction:LEU:127>  (20) 
1

>  <hbond:GLY:128>  (20) 
0

>  <hydroph_interaction:ALA:144>  (20) 
1

>  <hbond:GLY:164>  (20) 
1

>  <hbond:HIS:40>  (20) 
0

>  <pistack:HIS:40>  (20) 
0

>  <hydroph_interaction:LEU:125>  (20) 
0

>  <hydroph_interaction:PHE:170>  (20) 
0

>  <hydroph_interaction:HIS:40>  (20) 
1

>  <pication:HIS:40>  (20) 
0

>  <hbond:THR:142>  (20) 
1

>  <hbond:HIS:161>  (20) 
0

>  <hbond:GLY:166>  (20) 
0

>  <hbond:VAL:162>  (20) 
0

>  <hydroph_interaction:ASN:165>  (20) 
0

>  <saltbridge:HIS:161>  (20) 
0

>  <hbond:GLY:145>  (20) 
0

>  <hbond:CYS:147>  (20) 
0

>  <saltbridge:HIS:40>  (20) 
0

>  <hbond:LEU:127>  (20) 
0

>  <hbond:THR:130>  (20) 
0

>  <halogenbond:THR:142>  (20) 
0

>  <halogenbond:CYS:147>  (20) 
0

$$$$
Z3529899379-x2099-0A
     RDKit          3D

 45 47  0  0  0  0  0  0  0  0999 V2000
   -9.7630   -5.0200   -6.6590 C   0  0  0  0  0  0  0  0  0  0  0  0
   -9.3910   -3.5470   -6.7470 C   0  0  1  0  0  0  0  0  0  0  0  0
   -8.6950   -3.2750   -8.0040 N   0  0  0  0  0  0  0  0  0  0  0  0
   -7.5870   -4.0630   -8.2310 C   0  0  0  0  0  0  0  0  0  0  0  0
   -6.7570   -3.9400   -9.1290 O   0  0  0  0  0  0  0  0  0  0  0  0
   -7.4240   -5.1740   -7.2790 C   0  0  0  0  0  0  0  0  0  0  0  0
   -7.2650   -6.5060   -7.9190 C   0  0  0  0  0  0  0  0  0  0  0  0
   -7.1370   -7.6080   -7.1310 C   0  0  0  0  0  0  0  0  0  0  0  0
   -7.1100   -7.5230   -5.6320 C   0  0  0  0  0  0  0  0  0  0  0  0
   -7.2390   -6.2760   -5.1150 C   0  0  0  0  0  0  0  0  0  0  0  0
   -7.1820   -6.2250   -3.6910 N   0  0  0  0  0  0  0  0  0  0  0  0
   -7.1100   -4.8460   -3.0860 S   0  0  0  0  0  6  0  0  0  0  0  0
   -6.3980   -3.6900   -3.5960 O   0  0  0  0  0  0  0  0  0  0  0  0
   -6.7100   -5.1170   -1.3830 C   0  0  0  0  0  0  0  0  0  0  0  0
   -7.9840   -4.8410   -0.6370 C   0  0  0  0  0  0  0  0  0  0  0  0
   -9.1500   -5.1320   -1.5720 C   0  0  0  0  0  0  0  0  0  0  0  0
   -8.7980   -4.3600   -2.8220 C   0  0  0  0  0  0  0  0  0  0  0  0
   -7.4080   -5.1060   -5.8800 C   0  0  0  0  0  0  0  0  0  0  0  0
  -10.5960   -2.6890   -6.4690 C   0  0  0  0  0  0  0  0  0  0  0  0
  -11.5690   -2.4560   -7.4450 C   0  0  0  0  0  0  0  0  0  0  0  0
  -12.6750   -1.6650   -7.1310 C   0  0  0  0  0  0  0  0  0  0  0  0
  -12.7730   -1.1270   -5.8470 C   0  0  0  0  0  0  0  0  0  0  0  0
  -11.8520   -1.3320   -4.8880 N   0  0  0  0  0  0  0  0  0  0  0  0
  -10.7910   -2.1040   -5.2220 C   0  0  0  0  0  0  0  0  0  0  0  0
  -10.8420   -5.1600   -6.7620 H   0  0  0  0  0  0  0  0  0  0  0  0
   -9.4790   -5.4470   -5.6910 H   0  0  0  0  0  0  0  0  0  0  0  0
   -9.2850   -5.5980   -7.4560 H   0  0  0  0  0  0  0  0  0  0  0  0
   -8.6730   -3.3140   -5.9530 H   0  0  0  0  0  0  0  0  0  0  0  0
   -9.2170   -2.9100   -8.8100 H   0  0  0  0  0  0  0  0  0  0  0  0
   -7.2640   -6.6000   -9.0020 H   0  0  0  0  0  0  0  0  0  0  0  0
   -7.0480   -8.5760   -7.6050 H   0  0  0  0  0  0  0  0  0  0  0  0
   -6.9930   -8.4020   -5.0050 H   0  0  0  0  0  0  0  0  0  0  0  0
   -6.4030   -6.1600   -1.2580 H   0  0  0  0  0  0  0  0  0  0  0  0
   -5.8970   -4.4520   -1.0880 H   0  0  0  0  0  0  0  0  0  0  0  0
   -8.0490   -5.4330    0.2770 H   0  0  0  0  0  0  0  0  0  0  0  0
   -8.0220   -3.7810   -0.3720 H   0  0  0  0  0  0  0  0  0  0  0  0
  -10.1110   -4.8130   -1.1500 H   0  0  0  0  0  0  0  0  0  0  0  0
   -9.2050   -6.2050   -1.7860 H   0  0  0  0  0  0  0  0  0  0  0  0
   -8.8760   -3.2780   -2.6980 H   0  0  0  0  0  0  0  0  0  0  0  0
   -9.3890   -4.6830   -3.6830 H   0  0  0  0  0  0  0  0  0  0  0  0
   -7.5150   -4.1630   -5.3590 H   0  0  0  0  0  0  0  0  0  0  0  0
  -11.4750   -2.8860   -8.4390 H   0  0  0  0  0  0  0  0  0  0  0  0
  -13.4440   -1.4710   -7.8690 H   0  0  0  0  0  0  0  0  0  0  0  0
  -13.6170   -0.5060   -5.5620 H   0  0  0  0  0  0  0  0  0  0  0  0
  -10.0780   -2.2380   -4.4120 H   0  0  0  0  0  0  0  0  0  0  0  0
  1  2  1  0
  2  3  1  0
  3  4  1  0
  4  5  2  0
  4  6  1  0
  6  7  2  0
  7  8  1  0
  8  9  2  0
  9 10  1  0
 10 11  1  0
 11 12  2  0
 12 13  2  0
 12 14  1  0
 14 15  1  0
 15 16  1  0
 16 17  1  0
 10 18  2  0
  2 19  1  0
 19 20  2  0
 20 21  1  0
 21 22  2  0
 22 23  1  0
 23 24  2  0
 18  6  1  0
 17 12  1  0
 24 19  1  0
  1 25  1  0
  1 26  1  0
  1 27  1  0
  2 28  1  1
  3 29  1  0
  7 30  1  0
  8 31  1  0
  9 32  1  0
 14 33  1  0
 14 34  1  0
 15 35  1  0
 15 36  1  0
 16 37  1  0
 16 38  1  0
 17 39  1  0
 17 40  1  0
 18 41  1  0
 20 42  1  0
 21 43  1  0
 22 44  1  0
 24 45  1  0
A    1
 C1 
A    2
 C2 
A    3
 N1 
A    4
 C3 
A    5
 O1 
A    6
 C4 
A    7
 C5 
A    8
 C6 
A    9
 C7 
A   10
 C8 
A   11
 N2 
A   12
 S1 
A   13
 O2 
A   14
 C9 
A   15
 C10
A   16
 C11
A   17
 C12
A   18
 C13
A   19
 C14
A   20
 C15
A   21
 C16
A   22
 C17
A   23
 N3 
A   24
 C18
A   25
 H1 
A   26
 H2 
A   27
 H3 
A   28
 H4 
A   29
 H5 
A   30
 H6 
A   31
 H7 
A   32
 H8 
A   33
 H9 
A   34
 H10
A   35
 H11
A   36
 H12
A   37
 H13
A   38
 H14
A   39
 H15
A   40
 H16
A   41
 H17
A   42
 H18
A   43
 H19
A   44
 H20
A   45
 H21
M  END
>  <ref_pdb>  (21) 
x0147_0A

>  <ref_mols>  (21) 
x2099_0A,x1140_0AS3

>  <original SMILES>  (21) 
[H]c1nc([H])c([C@]([H])(N([H])C(=O)c2c([H])c([H])c([H])c(N=S3(=O)C([H])([H])C([H])([H])C([H])([H])C3([H])[H])c2[H])C([H])([H])[H])c([H])c1[H]

>  <index>  (21) 
373

>  <∆∆G>  (21) 
-6.417751

>  <comRMSD>  (21) 
0.906849

>  <N_constrained_atoms>  (21) 
24.0

>  <N_unconstrained_atoms>  (21) 
2.0

>  <LE>  (21) 
0.246837

>  <percent_hybrid>  (21) 
30.0

>  <max_hit_Tanimoto>  (21) 
0.206564

>  <largest_ring>  (21) 
6

>  <N_interactions_kept>  (21) 
1.5

>  <N_interactions_lost>  (21) 
2.0

>  <interaction_uniqueness_metric>  (21) 
0.077495

>  <N_HA>  (21) 
24

>  <N_rotatable_bonds>  (21) 
5

>  <N_interactions>  (21) 
4

>  <N_PAINS>  (21) 
0

>  <UFF_Gibbs>  (21) 
290.619532

>  <strain_per_HA>  (21) 
12.109097

>  <ad_hoc_penalty>  (21) 
-18.236127

>  <cluster>  (21) 
317

>  <ranked>  (21) 
557.0

>  <merger_rank>  (21) 
1

>  <hydroph_interaction:LEU:127>  (21) 
0

>  <hbond:GLY:128>  (21) 
0

>  <hydroph_interaction:ALA:144>  (21) 
1

>  <hbond:GLY:164>  (21) 
2

>  <hbond:HIS:40>  (21) 
0

>  <pistack:HIS:40>  (21) 
0

>  <hydroph_interaction:LEU:125>  (21) 
0

>  <hydroph_interaction:PHE:170>  (21) 
0

>  <hydroph_interaction:HIS:40>  (21) 
0

>  <pication:HIS:40>  (21) 
0

>  <hbond:THR:142>  (21) 
1

>  <hbond:HIS:161>  (21) 
0

>  <hbond:GLY:166>  (21) 
0

>  <hbond:VAL:162>  (21) 
0

>  <hydroph_interaction:ASN:165>  (21) 
0

>  <saltbridge:HIS:161>  (21) 
0

>  <hbond:GLY:145>  (21) 
0

>  <hbond:CYS:147>  (21) 
0

>  <saltbridge:HIS:40>  (21) 
0

>  <hbond:LEU:127>  (21) 
0

>  <hbond:THR:130>  (21) 
0

>  <halogenbond:THR:142>  (21) 
0

>  <halogenbond:CYS:147>  (21) 
0

$$$$
Z2927125344-x1919-0AS11
     RDKit          3D

 30 30  0  0  0  0  0  0  0  0999 V2000
   -7.3930   -2.9880   -1.2020 C   0  0  0  0  0  0  0  0  0  0  0  0
   -7.0040   -4.4450   -1.3560 C   0  0  0  0  0  0  0  0  0  0  0  0
   -7.1260   -4.8460   -3.1220 S   0  0  0  0  0  6  0  0  0  0  0  0
   -6.2100   -4.0040   -3.8520 O   0  0  0  0  0  0  0  0  0  0  0  0
   -6.7640   -6.6390   -3.2150 C   0  0  0  0  0  0  0  0  0  0  0  0
   -5.2760   -6.9590   -3.2670 C   0  0  0  0  0  0  0  0  0  0  0  0
   -8.6680   -4.6620   -3.7120 N   0  0  0  0  0  0  0  0  0  0  0  0
   -9.2370   -5.6970   -4.5950 C   0  0  0  0  0  0  0  0  0  0  0  0
   -9.5780   -6.8170   -4.1930 O   0  0  0  0  0  0  0  0  0  0  0  0
   -9.3620   -5.2510   -6.0540 C   0  0  0  0  0  0  0  0  0  0  0  0
   -8.1250   -4.6840   -6.6340 N   0  0  0  0  0  0  0  0  0  0  0  0
   -7.4060   -5.6960   -7.3720 C   0  0  0  0  0  0  0  0  0  0  0  0
   -6.9780   -5.1980   -8.6880 N   0  0  0  0  0  0  0  0  0  0  0  0
   -7.4570   -3.9250   -8.6930 N   0  0  0  0  0  0  0  0  0  0  0  0
   -8.4160   -3.6820   -7.6810 C   0  0  0  0  0  0  0  0  0  0  0  0
   -9.4400   -2.6820   -7.6690 O   0  0  0  0  0  0  0  0  0  0  0  0
   -7.8830   -2.6440   -2.1170 H   0  0  0  0  0  0  0  0  0  0  0  0
   -6.5150   -2.3590   -1.0520 H   0  0  0  0  0  0  0  0  0  0  0  0
   -8.0740   -2.8490   -0.3610 H   0  0  0  0  0  0  0  0  0  0  0  0
   -7.6770   -5.1010   -0.7930 H   0  0  0  0  0  0  0  0  0  0  0  0
   -5.9810   -4.6250   -1.0070 H   0  0  0  0  0  0  0  0  0  0  0  0
   -7.2390   -7.1120   -2.3500 H   0  0  0  0  0  0  0  0  0  0  0  0
   -7.2710   -7.0240   -4.1090 H   0  0  0  0  0  0  0  0  0  0  0  0
   -5.0070   -7.4870   -4.1900 H   0  0  0  0  0  0  0  0  0  0  0  0
   -4.6790   -6.0400   -3.2240 H   0  0  0  0  0  0  0  0  0  0  0  0
   -4.9790   -7.6030   -2.4340 H   0  0  0  0  0  0  0  0  0  0  0  0
  -10.1670   -4.5120   -6.1450 H   0  0  0  0  0  0  0  0  0  0  0  0
   -9.6530   -6.1120   -6.6680 H   0  0  0  0  0  0  0  0  0  0  0  0
   -7.2690   -6.6680   -6.8820 H   0  0  0  0  0  0  0  0  0  0  0  0
   -7.0630   -3.2270   -9.3110 H   0  0  0  0  0  0  0  0  0  0  0  0
  1  2  1  0
  2  3  1  0
  3  4  2  0
  3  5  1  0
  5  6  1  0
  3  7  2  0
  7  8  1  0
  8  9  2  0
  8 10  1  0
 10 11  1  0
 11 12  1  0
 12 13  2  0
 13 14  1  0
 14 15  1  0
 15 16  2  0
 15 11  1  0
  1 17  1  0
  1 18  1  0
  1 19  1  0
  2 20  1  0
  2 21  1  0
  5 22  1  0
  5 23  1  0
  6 24  1  0
  6 25  1  0
  6 26  1  0
 10 27  1  0
 10 28  1  0
 12 29  1  0
 14 30  1  0
A    1
 C1 
A    2
 C2 
A    3
 S1 
A    4
 O1 
A    5
 C3 
A    6
 C4 
A    7
 N1 
A    8
 C5 
A    9
 O2 
A   10
 C6 
A   11
 N2 
A   12
 C7 
A   13
 N3 
A   14
 N4 
A   15
 C8 
A   16
 O3 
A   17
 H1 
A   18
 H2 
A   19
 H3 
A   20
 H4 
A   21
 H5 
A   22
 H6 
A   23
 H7 
A   24
 H8 
A   25
 H9 
A   26
 H10
A   27
 H11
A   28
 H12
A   29
 H13
A   30
 H14
M  END
>  <ref_pdb>  (22) 
x0147_0A

>  <ref_mols>  (22) 
x1919_0AS11,x1537_0A

>  <original SMILES>  (22) 
[H]c1nn([H])c(=O)n1C([H])([H])C(=O)N=S(=O)(C([H])([H])C([H])([H])[H])C([H])([H])C([H])([H])[H]

>  <index>  (22) 
10334

>  <∆∆G>  (22) 
-5.98638

>  <comRMSD>  (22) 
0.448758

>  <N_constrained_atoms>  (22) 
13.0

>  <N_unconstrained_atoms>  (22) 
3.0

>  <LE>  (22) 
0.374149

>  <percent_hybrid>  (22) 
47.0

>  <max_hit_Tanimoto>  (22) 
0.045673

>  <largest_ring>  (22) 
5

>  <N_interactions_kept>  (22) 
0.0

>  <N_interactions_lost>  (22) 
2.0

>  <interaction_uniqueness_metric>  (22) 
0.204898

>  <N_HA>  (22) 
16

>  <N_rotatable_bonds>  (22) 
6

>  <N_interactions>  (22) 
5

>  <N_PAINS>  (22) 
0

>  <UFF_Gibbs>  (22) 
144.607999

>  <strain_per_HA>  (22) 
9.037943

>  <ad_hoc_penalty>  (22) 
-17.78758

>  <cluster>  (22) 
4828

>  <ranked>  (22) 
600.0

>  <merger_rank>  (22) 
2

>  <hydroph_interaction:LEU:127>  (22) 
0

>  <hbond:GLY:128>  (22) 
0

>  <hydroph_interaction:ALA:144>  (22) 
0

>  <hbond:GLY:164>  (22) 
2

>  <hbond:HIS:40>  (22) 
0

>  <pistack:HIS:40>  (22) 
0

>  <hydroph_interaction:LEU:125>  (22) 
0

>  <hydroph_interaction:PHE:170>  (22) 
0

>  <hydroph_interaction:HIS:40>  (22) 
0

>  <pication:HIS:40>  (22) 
0

>  <hbond:THR:142>  (22) 
1

>  <hbond:HIS:161>  (22) 
1

>  <hbond:GLY:166>  (22) 
1

>  <hbond:VAL:162>  (22) 
0

>  <hydroph_interaction:ASN:165>  (22) 
0

>  <saltbridge:HIS:161>  (22) 
0

>  <hbond:GLY:145>  (22) 
0

>  <hbond:CYS:147>  (22) 
0

>  <saltbridge:HIS:40>  (22) 
0

>  <hbond:LEU:127>  (22) 
0

>  <hbond:THR:130>  (22) 
0

>  <halogenbond:THR:142>  (22) 
0

>  <halogenbond:CYS:147>  (22) 
0

$$$$
PV-005426568292-x1084-0A
     RDKit          3D

 40 41  0  0  0  0  0  0  0  0999 V2000
   -2.6360   -7.3630    2.3550 C   0  0  0  0  0  0  0  0  0  0  0  0
   -3.3290   -8.9560    1.9000 S   0  0  0  0  0  0  0  0  0  0  0  0
   -3.9090   -8.4010    0.3360 C   0  0  0  0  0  0  0  0  0  0  0  0
   -3.0500   -7.9530   -0.6610 C   0  0  0  0  0  0  0  0  0  0  0  0
   -3.5080   -7.5140   -1.8900 C   0  0  0  0  0  0  0  0  0  0  0  0
   -4.9990   -7.5180   -2.1330 C   0  0  0  0  0  0  0  0  0  0  0  0
   -5.5100   -7.0330   -3.4150 N   0  0  0  0  0  0  0  0  0  0  0  0
   -6.7510   -6.2810   -3.0620 C   0  0  0  0  0  0  0  0  0  0  0  0
   -7.0270   -5.8620   -1.9570 O   0  0  0  0  0  0  0  0  0  0  0  0
   -7.6300   -6.1060   -4.0960 N   0  0  0  0  0  0  0  0  0  0  0  0
   -7.8590   -7.0440   -5.2120 C   0  0  0  0  0  0  0  0  0  0  0  0
   -6.9810   -6.5340   -6.3190 C   0  0  0  0  0  0  0  0  0  0  0  0
   -7.5670   -6.5070   -7.5990 O   0  0  0  0  0  0  0  0  0  0  0  0
   -8.3680   -5.4160   -7.6240 C   0  0  0  0  0  0  0  0  0  0  0  0
   -9.7190   -5.3870   -6.9920 C   0  0  0  0  0  0  0  0  0  0  0  0
  -10.4860   -4.2360   -7.0370 C   0  0  0  0  0  0  0  0  0  0  0  0
   -9.9980   -3.1010   -7.6690 C   0  0  0  0  0  0  0  0  0  0  0  0
   -8.6180   -3.0910   -8.3280 C   0  0  0  0  0  0  0  0  0  0  0  0
   -7.8810   -4.2740   -8.2640 C   0  0  0  0  0  0  0  0  0  0  0  0
   -6.6390   -4.2830   -8.8590 O   0  0  0  0  0  0  0  0  0  0  0  0
   -5.8790   -7.9650   -1.1550 C   0  0  0  0  0  0  0  0  0  0  0  0
   -5.3910   -8.4100    0.0710 C   0  0  0  0  0  0  0  0  0  0  0  0
   -1.7450   -7.5220    2.9680 H   0  0  0  0  0  0  0  0  0  0  0  0
   -2.3490   -6.7830    1.4680 H   0  0  0  0  0  0  0  0  0  0  0  0
   -3.3620   -6.7630    2.9130 H   0  0  0  0  0  0  0  0  0  0  0  0
   -1.9890   -7.9850   -0.3790 H   0  0  0  0  0  0  0  0  0  0  0  0
   -2.7940   -7.1850   -2.6280 H   0  0  0  0  0  0  0  0  0  0  0  0
   -4.8160   -6.5880   -4.0240 H   0  0  0  0  0  0  0  0  0  0  0  0
   -8.3890   -5.4790   -3.8780 H   0  0  0  0  0  0  0  0  0  0  0  0
   -7.6460   -8.0790   -4.9230 H   0  0  0  0  0  0  0  0  0  0  0  0
   -8.9100   -7.0110   -5.5200 H   0  0  0  0  0  0  0  0  0  0  0  0
   -6.0130   -7.0170   -6.3010 H   0  0  0  0  0  0  0  0  0  0  0  0
   -6.8200   -5.4940   -6.0450 H   0  0  0  0  0  0  0  0  0  0  0  0
  -10.1400   -6.2440   -6.4830 H   0  0  0  0  0  0  0  0  0  0  0  0
  -11.4720   -4.2190   -6.5760 H   0  0  0  0  0  0  0  0  0  0  0  0
  -10.6090   -2.2020   -7.6980 H   0  0  0  0  0  0  0  0  0  0  0  0
   -8.2330   -2.2090   -8.8240 H   0  0  0  0  0  0  0  0  0  0  0  0
   -6.4500   -3.3540   -9.0700 H   0  0  0  0  0  0  0  0  0  0  0  0
   -6.9520   -7.9740   -1.3240 H   0  0  0  0  0  0  0  0  0  0  0  0
   -6.0900   -8.7570    0.8300 H   0  0  0  0  0  0  0  0  0  0  0  0
  1  2  1  0
  2  3  1  0
  3  4  2  0
  4  5  1  0
  5  6  2  0
  6  7  1  0
  7  8  1  0
  8  9  2  0
  8 10  1  0
 10 11  1  0
 11 12  1  0
 12 13  1  0
 13 14  1  0
 14 15  2  0
 15 16  1  0
 16 17  2  0
 17 18  1  0
 18 19  2  0
 19 20  1  0
  6 21  1  0
 21 22  2  0
 22  3  1  0
 19 14  1  0
  1 23  1  0
  1 24  1  0
  1 25  1  0
  4 26  1  0
  5 27  1  0
  7 28  1  0
 10 29  1  0
 11 30  1  0
 11 31  1  0
 12 32  1  0
 12 33  1  0
 15 34  1  0
 16 35  1  0
 17 36  1  0
 18 37  1  0
 20 38  1  0
 21 39  1  0
 22 40  1  0
A    1
 C1 
A    2
 S1 
A    3
 C2 
A    4
 C3 
A    5
 C4 
A    6
 C5 
A    7
 N1 
A    8
 C6 
A    9
 O1 
A   10
 N2 
A   11
 C7 
A   12
 C8 
A   13
 O2 
A   14
 C9 
A   15
 C10
A   16
 C11
A   17
 C12
A   18
 C13
A   19
 C14
A   20
 O3 
A   21
 C15
A   22
 C16
A   23
 H1 
A   24
 H2 
A   25
 H3 
A   26
 H4 
A   27
 H5 
A   28
 H6 
A   29
 H7 
A   30
 H8 
A   31
 H9 
A   32
 H10
A   33
 H11
A   34
 H12
A   35
 H13
A   36
 H14
A   37
 H15
A   38
 H16
A   39
 H17
A   40
 H18
M  END
>  <ref_pdb>  (23) 
x0147_0A

>  <ref_mols>  (23) 
x1084_0A,x1604_0AS2

>  <original SMILES>  (23) 
[H]Oc1c([H])c([H])c([H])c([H])c1OC([H])([H])C([H])([H])N([H])C(=O)N([H])c1c([H])c([H])c(SC([H])([H])[H])c([H])c1[H]

>  <index>  (23) 
1809

>  <∆∆G>  (23) 
-7.959466

>  <comRMSD>  (23) 
0.802341

>  <N_constrained_atoms>  (23) 
21.0

>  <N_unconstrained_atoms>  (23) 
2.0

>  <LE>  (23) 
0.346064

>  <percent_hybrid>  (23) 
39.0

>  <max_hit_Tanimoto>  (23) 
0.147114

>  <largest_ring>  (23) 
6

>  <N_interactions_kept>  (23) 
2.0

>  <N_interactions_lost>  (23) 
3.5

>  <interaction_uniqueness_metric>  (23) 
0.131459

>  <N_HA>  (23) 
22

>  <N_rotatable_bonds>  (23) 
8

>  <N_interactions>  (23) 
6

>  <N_PAINS>  (23) 
0

>  <UFF_Gibbs>  (23) 
141.241608

>  <strain_per_HA>  (23) 
6.420044

>  <ad_hoc_penalty>  (23) 
-17.153575

>  <cluster>  (23) 
87

>  <ranked>  (23) 
664.0

>  <merger_rank>  (23) 
2

>  <hydroph_interaction:LEU:127>  (23) 
1

>  <hbond:GLY:128>  (23) 
0

>  <hydroph_interaction:ALA:144>  (23) 
1

>  <hbond:GLY:164>  (23) 
0

>  <hbond:HIS:40>  (23) 
0

>  <pistack:HIS:40>  (23) 
1

>  <hydroph_interaction:LEU:125>  (23) 
0

>  <hydroph_interaction:PHE:170>  (23) 
0

>  <hydroph_interaction:HIS:40>  (23) 
1

>  <pication:HIS:40>  (23) 
0

>  <hbond:THR:142>  (23) 
1

>  <hbond:HIS:161>  (23) 
0

>  <hbond:GLY:166>  (23) 
0

>  <hbond:VAL:162>  (23) 
1

>  <hydroph_interaction:ASN:165>  (23) 
0

>  <saltbridge:HIS:161>  (23) 
0

>  <hbond:GLY:145>  (23) 
0

>  <hbond:CYS:147>  (23) 
0

>  <saltbridge:HIS:40>  (23) 
0

>  <hbond:LEU:127>  (23) 
0

>  <hbond:THR:130>  (23) 
0

>  <halogenbond:THR:142>  (23) 
0

>  <halogenbond:CYS:147>  (23) 
0

$$$$
Z1888784149-x2149-0AS6
     RDKit          3D

 45 48  0  0  0  0  0  0  0  0999 V2000
   -6.6840   -4.3520   -9.1260 O   0  0  0  0  0  0  0  0  0  0  0  0
   -7.0970   -5.1430   -8.2860 C   0  0  0  0  0  0  0  0  0  0  0  0
   -6.5460   -6.3530   -8.0740 N   0  0  0  0  0  0  0  0  0  0  0  0
   -7.1310   -7.0440   -6.9780 C   0  0  0  0  0  0  0  0  0  0  0  0
   -8.4210   -6.3690   -6.7220 C   0  0  0  0  0  0  0  0  0  0  0  0
   -8.7040   -6.2600   -5.3880 C   0  0  0  0  0  0  0  0  0  0  0  0
   -8.0160   -5.0610   -5.0240 N   0  0  0  0  0  0  0  0  0  0  0  0
   -7.3270   -5.0870   -3.6370 S   0  0  0  0  0  6  0  0  0  0  0  0
   -8.1320   -5.5290   -2.5280 O   0  0  0  0  0  0  0  0  0  0  0  0
   -6.6040   -3.8280   -3.5790 O   0  0  0  0  0  0  0  0  0  0  0  0
   -6.0200   -6.3370   -3.8190 C   0  0  0  0  0  0  0  0  0  0  0  0
   -6.2640   -7.5740   -3.1920 C   0  0  0  0  0  0  0  0  0  0  0  0
   -5.6380   -7.9140   -1.9780 C   0  0  0  0  0  0  0  0  0  0  0  0
   -6.3130   -8.9570   -1.0210 C   0  0  0  0  0  0  0  0  0  0  0  0
   -5.6400   -9.2950    0.2570 C   0  0  0  0  0  0  0  0  0  0  0  0
   -4.3270   -8.6580    0.6540 C   0  0  0  0  0  0  0  0  0  0  0  0
   -3.5850   -8.8580    1.7900 O   0  0  0  0  0  0  0  0  0  0  0  0
   -2.3550   -8.1050    1.5470 C   0  0  0  0  0  0  0  0  0  0  0  0
   -2.4950   -7.2210    0.3120 C   0  0  0  0  0  0  0  0  0  0  0  0
   -3.7830   -7.7640   -0.2090 C   0  0  0  0  0  0  0  0  0  0  0  0
   -4.4070   -7.3530   -1.5610 C   0  0  0  0  0  0  0  0  0  0  0  0
   -8.8170   -4.0050   -5.4000 C   0  0  0  0  0  0  0  0  0  0  0  0
   -8.8010   -3.8680   -6.9200 C   0  0  0  0  0  0  0  0  0  0  0  0
   -8.1450   -5.0680   -7.3730 N   0  0  0  0  0  0  0  0  0  0  0  0
   -6.2880   -6.9200   -8.8600 H   0  0  0  0  0  0  0  0  0  0  0  0
   -6.4890   -7.0110   -6.0910 H   0  0  0  0  0  0  0  0  0  0  0  0
   -7.2640   -8.0940   -7.2460 H   0  0  0  0  0  0  0  0  0  0  0  0
   -9.3470   -6.6330   -7.1750 H   0  0  0  0  0  0  0  0  0  0  0  0
   -9.7860   -6.1510   -5.2220 H   0  0  0  0  0  0  0  0  0  0  0  0
   -8.3350   -7.1340   -4.8420 H   0  0  0  0  0  0  0  0  0  0  0  0
   -5.1020   -5.8690   -3.4500 H   0  0  0  0  0  0  0  0  0  0  0  0
   -5.9100   -6.4930   -4.8900 H   0  0  0  0  0  0  0  0  0  0  0  0
   -7.3420   -7.6320   -3.0010 H   0  0  0  0  0  0  0  0  0  0  0  0
   -6.0780   -8.3960   -3.8940 H   0  0  0  0  0  0  0  0  0  0  0  0
   -7.2620   -9.4890   -1.1840 H   0  0  0  0  0  0  0  0  0  0  0  0
   -6.0820  -10.0190    0.9530 H   0  0  0  0  0  0  0  0  0  0  0  0
   -1.5160   -8.8000    1.4390 H   0  0  0  0  0  0  0  0  0  0  0  0
   -2.1600   -7.4910    2.4370 H   0  0  0  0  0  0  0  0  0  0  0  0
   -2.6070   -6.1880    0.6230 H   0  0  0  0  0  0  0  0  0  0  0  0
   -1.6790   -7.3320   -0.3900 H   0  0  0  0  0  0  0  0  0  0  0  0
   -3.8160   -6.6190   -2.1170 H   0  0  0  0  0  0  0  0  0  0  0  0
   -8.5600   -3.0860   -4.9090 H   0  0  0  0  0  0  0  0  0  0  0  0
   -9.8310   -4.2550   -5.0610 H   0  0  0  0  0  0  0  0  0  0  0  0
   -9.8210   -3.8710   -7.3250 H   0  0  0  0  0  0  0  0  0  0  0  0
   -8.2840   -3.0330   -7.3850 H   0  0  0  0  0  0  0  0  0  0  0  0
  1  2  2  0
  2  3  1  0
  3  4  1  0
  4  5  1  0
  5  6  1  0
  6  7  1  0
  7  8  1  0
  8  9  2  0
  8 10  2  0
  8 11  1  0
 11 12  1  0
 12 13  1  0
 13 14  2  0
 14 15  1  0
 15 16  2  0
 16 17  1  0
 17 18  1  0
 18 19  1  0
 19 20  1  0
 20 21  2  0
  7 22  1  0
 22 23  1  0
 23 24  1  0
 24  2  1  0
 24  5  1  0
 21 13  1  0
 20 16  1  0
  3 25  1  0
  4 26  1  0
  4 27  1  0
  5 28  1  0
  6 29  1  0
  6 30  1  0
 11 31  1  0
 11 32  1  0
 12 33  1  0
 12 34  1  0
 14 35  1  0
 15 36  1  0
 18 37  1  0
 18 38  1  0
 19 39  1  0
 19 40  1  0
 21 41  1  0
 22 42  1  0
 22 43  1  0
 23 44  1  0
 23 45  1  0
A    1
 O1 
A    2
 C1 
A    3
 N1 
A    4
 C2 
A    5
 C3 
A    6
 C4 
A    7
 N2 
A    8
 S1 
A    9
 O2 
A   10
 O3 
A   11
 C5 
A   12
 C6 
A   13
 C7 
A   14
 C8 
A   15
 C9 
A   16
 C10
A   17
 O4 
A   18
 C11
A   19
 C12
A   20
 C13
A   21
 C14
A   22
 C15
A   23
 C16
A   24
 N3 
A   25
 H1 
A   26
 H2 
A   27
 H3 
A   28
 H4 
A   29
 H5 
A   30
 H6 
A   31
 H7 
A   32
 H8 
A   33
 H9 
A   34
 H10
A   35
 H11
A   36
 H12
A   37
 H13
A   38
 H14
A   39
 H15
A   40
 H16
A   41
 H17
A   42
 H18
A   43
 H19
A   44
 H20
A   45
 H21
M  END
>  <ref_pdb>  (24) 
x0147_0A

>  <ref_mols>  (24) 
x2149_0AS6,x1140_0A

>  <original SMILES>  (24) 
[H]c1c([H])c(C([H])([H])C([H])([H])S(=O)(=O)N2C([H])([H])C([H])([H])N3C(=O)N([H])C([H])([H])C3([H])C2([H])[H])c([H])c2c1OC([H])([H])C2([H])[H]

>  <index>  (24) 
1035

>  <∆∆G>  (24) 
-6.226935

>  <comRMSD>  (24) 
0.76117

>  <N_constrained_atoms>  (24) 
22.0

>  <N_unconstrained_atoms>  (24) 
2.0

>  <LE>  (24) 
0.259456

>  <percent_hybrid>  (24) 
37.0

>  <max_hit_Tanimoto>  (24) 
0.246976

>  <largest_ring>  (24) 
6

>  <N_interactions_kept>  (24) 
2.0

>  <N_interactions_lost>  (24) 
2.5

>  <interaction_uniqueness_metric>  (24) 
0.127194

>  <N_HA>  (24) 
24

>  <N_rotatable_bonds>  (24) 
4

>  <N_interactions>  (24) 
5

>  <N_PAINS>  (24) 
0

>  <UFF_Gibbs>  (24) 
389.059184

>  <strain_per_HA>  (24) 
16.210732

>  <ad_hoc_penalty>  (24) 
-16.214797

>  <cluster>  (24) 
7093

>  <ranked>  (24) 
744.0

>  <merger_rank>  (24) 
4

>  <hydroph_interaction:LEU:127>  (24) 
2

>  <hbond:GLY:128>  (24) 
0

>  <hydroph_interaction:ALA:144>  (24) 
0

>  <hbond:GLY:164>  (24) 
1

>  <hbond:HIS:40>  (24) 
0

>  <pistack:HIS:40>  (24) 
1

>  <hydroph_interaction:LEU:125>  (24) 
0

>  <hydroph_interaction:PHE:170>  (24) 
0

>  <hydroph_interaction:HIS:40>  (24) 
0

>  <pication:HIS:40>  (24) 
0

>  <hbond:THR:142>  (24) 
0

>  <hbond:HIS:161>  (24) 
1

>  <hbond:GLY:166>  (24) 
0

>  <hbond:VAL:162>  (24) 
0

>  <hydroph_interaction:ASN:165>  (24) 
0

>  <saltbridge:HIS:161>  (24) 
0

>  <hbond:GLY:145>  (24) 
0

>  <hbond:CYS:147>  (24) 
0

>  <saltbridge:HIS:40>  (24) 
0

>  <hbond:LEU:127>  (24) 
0

>  <hbond:THR:130>  (24) 
0

>  <halogenbond:THR:142>  (24) 
0

>  <halogenbond:CYS:147>  (24) 
0

$$$$
Z3841595893-x1919-0AS6
     RDKit          3D

 43 43  0  0  0  0  0  0  0  0999 V2000
   -5.4590    0.3290   -1.9380 C   0  0  0  0  0  0  0  0  0  0  0  0
   -6.1660    0.2150   -0.6150 C   0  0  0  0  0  0  0  0  0  0  0  0
   -7.2310   -0.8110   -0.5760 C   0  0  0  0  0  0  0  0  0  0  0  0
   -6.7120   -2.1310   -0.6600 O   0  0  0  0  0  0  0  0  0  0  0  0
   -7.6860   -3.0470   -1.1450 C   0  0  0  0  0  0  0  0  0  0  0  0
   -7.0860   -4.1830   -1.7010 C   0  0  0  0  0  0  0  0  0  0  0  0
   -7.2260   -4.3130   -3.0800 C   0  0  0  0  0  0  0  0  0  0  0  0
   -6.2840   -4.1020   -3.8460 O   0  0  0  0  0  0  0  0  0  0  0  0
   -8.4970   -4.6720   -3.5000 N   0  0  0  0  0  0  0  0  0  0  0  0
   -9.2250   -3.8860   -4.5370 C   0  0  0  0  0  0  0  0  0  0  0  0
  -10.5400   -4.5110   -4.9020 C   0  0  0  0  0  0  0  0  0  0  0  0
  -11.4230   -4.1180   -6.0990 C   0  0  0  0  0  0  0  0  0  0  0  0
  -10.5950   -3.7480   -7.2020 N   0  0  0  0  0  0  0  0  0  0  0  0
   -9.3860   -4.2120   -7.5630 C   0  0  0  0  0  0  0  0  0  0  0  0
   -8.3760   -3.4080   -8.3880 C   0  0  0  0  0  0  0  0  0  0  0  0
   -7.0620   -4.0740   -8.7280 C   0  0  0  0  0  0  0  0  0  0  0  0
   -6.8080   -5.3430   -8.3050 C   0  0  0  0  0  0  0  0  0  0  0  0
   -7.7740   -5.9730   -7.5610 C   0  0  0  0  0  0  0  0  0  0  0  0
   -9.0160   -5.5050   -7.1700 C   0  0  0  0  0  0  0  0  0  0  0  0
   -5.3030    1.3830   -2.1770 H   0  0  0  0  0  0  0  0  0  0  0  0
   -6.0410   -0.1170   -2.7500 H   0  0  0  0  0  0  0  0  0  0  0  0
   -4.4890   -0.1620   -1.9140 H   0  0  0  0  0  0  0  0  0  0  0  0
   -6.5740    1.1890   -0.3380 H   0  0  0  0  0  0  0  0  0  0  0  0
   -5.4300   -0.0420    0.1510 H   0  0  0  0  0  0  0  0  0  0  0  0
   -7.8820   -0.6690   -1.4430 H   0  0  0  0  0  0  0  0  0  0  0  0
   -7.8700   -0.6980    0.3090 H   0  0  0  0  0  0  0  0  0  0  0  0
   -8.3820   -3.3140   -0.3460 H   0  0  0  0  0  0  0  0  0  0  0  0
   -8.2870   -2.5680   -1.9260 H   0  0  0  0  0  0  0  0  0  0  0  0
   -6.0150   -4.1530   -1.4750 H   0  0  0  0  0  0  0  0  0  0  0  0
   -7.5280   -5.0730   -1.2390 H   0  0  0  0  0  0  0  0  0  0  0  0
   -9.1590   -5.0010   -2.7990 H   0  0  0  0  0  0  0  0  0  0  0  0
   -9.4160   -2.8710   -4.1710 H   0  0  0  0  0  0  0  0  0  0  0  0
   -8.6000   -3.7950   -5.4360 H   0  0  0  0  0  0  0  0  0  0  0  0
  -11.1770   -4.4310   -4.0140 H   0  0  0  0  0  0  0  0  0  0  0  0
  -10.3520   -5.5850   -5.0220 H   0  0  0  0  0  0  0  0  0  0  0  0
  -12.1040   -4.8640   -6.5070 H   0  0  0  0  0  0  0  0  0  0  0  0
  -12.0190   -3.2490   -5.7980 H   0  0  0  0  0  0  0  0  0  0  0  0
  -10.9470   -2.9540   -7.7500 H   0  0  0  0  0  0  0  0  0  0  0  0
   -8.6180   -2.3910   -8.7090 H   0  0  0  0  0  0  0  0  0  0  0  0
   -6.3470   -3.5360   -9.2930 H   0  0  0  0  0  0  0  0  0  0  0  0
   -5.8670   -5.8510   -8.5390 H   0  0  0  0  0  0  0  0  0  0  0  0
   -7.5390   -6.9940   -7.2250 H   0  0  0  0  0  0  0  0  0  0  0  0
   -9.6240   -6.1950   -6.5780 H   0  0  0  0  0  0  0  0  0  0  0  0
  1  2  1  0
  2  3  1  0
  3  4  1  0
  4  5  1  0
  5  6  1  0
  6  7  1  0
  7  8  2  0
  7  9  1  0
  9 10  1  0
 10 11  1  0
 11 12  1  0
 12 13  1  0
 13 14  1  0
 14 15  2  0
 15 16  1  0
 16 17  2  0
 17 18  1  0
 18 19  2  0
 19 14  1  0
  1 20  1  0
  1 21  1  0
  1 22  1  0
  2 23  1  0
  2 24  1  0
  3 25  1  0
  3 26  1  0
  5 27  1  0
  5 28  1  0
  6 29  1  0
  6 30  1  0
  9 31  1  0
 10 32  1  0
 10 33  1  0
 11 34  1  0
 11 35  1  0
 12 36  1  0
 12 37  1  0
 13 38  1  0
 15 39  1  0
 16 40  1  0
 17 41  1  0
 18 42  1  0
 19 43  1  0
A    1
 C1 
A    2
 C2 
A    3
 C3 
A    4
 O1 
A    5
 C4 
A    6
 C5 
A    7
 C6 
A    8
 O2 
A    9
 N1 
A   10
 C7 
A   11
 C8 
A   12
 C9 
A   13
 N2 
A   14
 C10
A   15
 C11
A   16
 C12
A   17
 C13
A   18
 C14
A   19
 C15
A   20
 H1 
A   21
 H2 
A   22
 H3 
A   23
 H4 
A   24
 H5 
A   25
 H6 
A   26
 H7 
A   27
 H8 
A   28
 H9 
A   29
 H10
A   30
 H11
A   31
 H12
A   32
 H13
A   33
 H14
A   34
 H15
A   35
 H16
A   36
 H17
A   37
 H18
A   38
 H19
A   39
 H20
A   40
 H21
A   41
 H22
A   42
 H23
A   43
 H24
M  END
>  <ref_pdb>  (25) 
x0147_0A

>  <ref_mols>  (25) 
x1919_0AS6,x0980_0BS1

>  <original SMILES>  (25) 
[H]c1c([H])c([H])c(N([H])C([H])([H])C([H])([H])C([H])([H])N([H])C(=O)C([H])([H])C([H])([H])OC([H])([H])C([H])([H])C([H])([H])[H])c([H])c1[H]

>  <index>  (25) 
13755

>  <∆∆G>  (25) 
-7.548644

>  <comRMSD>  (25) 
0.734683

>  <N_constrained_atoms>  (25) 
17.0

>  <N_unconstrained_atoms>  (25) 
2.0

>  <LE>  (25) 
0.397297

>  <percent_hybrid>  (25) 
48.0

>  <max_hit_Tanimoto>  (25) 
0.116

>  <largest_ring>  (25) 
6

>  <N_interactions_kept>  (25) 
0.5

>  <N_interactions_lost>  (25) 
2.5

>  <interaction_uniqueness_metric>  (25) 
0.139744

>  <N_HA>  (25) 
19

>  <N_rotatable_bonds>  (25) 
11

>  <N_interactions>  (25) 
6

>  <N_PAINS>  (25) 
0

>  <UFF_Gibbs>  (25) 
105.323422

>  <strain_per_HA>  (25) 
5.543309

>  <ad_hoc_penalty>  (25) 
-15.110786

>  <cluster>  (25) 
1156

>  <ranked>  (25) 
866.0

>  <merger_rank>  (25) 
1

>  <hydroph_interaction:LEU:127>  (25) 
0

>  <hbond:GLY:128>  (25) 
1

>  <hydroph_interaction:ALA:144>  (25) 
1

>  <hbond:GLY:164>  (25) 
1

>  <hbond:HIS:40>  (25) 
0

>  <pistack:HIS:40>  (25) 
0

>  <hydroph_interaction:LEU:125>  (25) 
1

>  <hydroph_interaction:PHE:170>  (25) 
1

>  <hydroph_interaction:HIS:40>  (25) 
0

>  <pication:HIS:40>  (25) 
0

>  <hbond:THR:142>  (25) 
1

>  <hbond:HIS:161>  (25) 
0

>  <hbond:GLY:166>  (25) 
0

>  <hbond:VAL:162>  (25) 
0

>  <hydroph_interaction:ASN:165>  (25) 
0

>  <saltbridge:HIS:161>  (25) 
0

>  <hbond:GLY:145>  (25) 
0

>  <hbond:CYS:147>  (25) 
0

>  <saltbridge:HIS:40>  (25) 
0

>  <hbond:LEU:127>  (25) 
0

>  <hbond:THR:130>  (25) 
0

>  <halogenbond:THR:142>  (25) 
0

>  <halogenbond:CYS:147>  (25) 
0

$$$$
Z3342632151-x1084-0A
     RDKit          3D

 43 44  0  0  0  0  0  0  0  0999 V2000
   -2.5610   -7.4680    2.3450 N   0  0  0  0  0  0  0  0  0  0  0  0
   -3.4570   -8.5180    1.8740 C   0  0  0  0  0  0  0  0  0  0  0  0
   -4.0690   -8.0960    0.5580 C   0  0  0  0  0  0  0  0  0  0  0  0
   -3.0600   -7.7840   -0.5190 C   0  0  0  0  0  0  0  0  0  0  0  0
   -3.4970   -7.3890   -1.7230 C   0  0  0  0  0  0  0  0  0  0  0  0
   -4.9860   -7.2550   -1.9730 C   0  0  0  0  0  0  0  0  0  0  0  0
   -5.3590   -6.7810   -3.3540 C   0  0  0  0  0  0  0  0  0  0  0  0
   -6.8390   -6.7380   -3.7210 C   0  0  0  0  0  0  0  0  0  0  0  0
   -7.5700   -7.6620   -3.4320 O   0  0  0  0  0  0  0  0  0  0  0  0
   -7.3370   -5.6510   -4.4120 N   0  0  0  0  0  0  0  0  0  0  0  0
   -8.4280   -6.0310   -5.3080 C   0  0  0  0  0  0  0  0  0  0  0  0
   -8.1500   -7.2680   -5.8380 C   0  0  0  0  0  0  0  0  0  0  0  0
   -7.1470   -7.2100   -6.7610 C   0  0  0  0  0  0  0  0  0  0  0  0
   -7.1910   -6.1720   -7.6880 C   0  0  0  0  0  0  0  0  0  0  0  0
   -7.5560   -4.9600   -7.1000 C   0  0  0  0  0  0  0  0  0  0  0  0
   -7.7970   -4.0360   -8.0770 C   0  0  0  0  0  0  0  0  0  0  0  0
   -8.6090   -3.1370   -7.9210 O   0  0  0  0  0  0  0  0  0  0  0  0
   -7.1290   -4.1040   -9.2730 O   0  0  0  0  0  0  0  0  0  0  0  0
   -8.6910   -5.0840   -6.3040 C   0  0  0  0  0  0  0  0  0  0  0  0
   -5.8690   -7.5640   -0.9500 C   0  0  0  0  0  0  0  0  0  0  0  0
   -5.4400   -7.9790    0.2990 C   0  0  0  0  0  0  0  0  0  0  0  0
   -3.0050   -6.5610    2.1860 H   0  0  0  0  0  0  0  0  0  0  0  0
   -1.7000   -7.4520    1.7690 H   0  0  0  0  0  0  0  0  0  0  0  0
   -4.2360   -8.6980    2.6220 H   0  0  0  0  0  0  0  0  0  0  0  0
   -2.9050   -9.4580    1.7650 H   0  0  0  0  0  0  0  0  0  0  0  0
   -1.9880   -7.8760   -0.3300 H   0  0  0  0  0  0  0  0  0  0  0  0
   -2.8050   -7.1600   -2.5300 H   0  0  0  0  0  0  0  0  0  0  0  0
   -4.9410   -5.7810   -3.4960 H   0  0  0  0  0  0  0  0  0  0  0  0
   -4.8780   -7.4180   -4.1020 H   0  0  0  0  0  0  0  0  0  0  0  0
   -7.4500   -4.7950   -3.8840 H   0  0  0  0  0  0  0  0  0  0  0  0
   -9.3180   -6.0980   -4.6740 H   0  0  0  0  0  0  0  0  0  0  0  0
   -7.8560   -8.0790   -5.1600 H   0  0  0  0  0  0  0  0  0  0  0  0
   -9.0340   -7.6440   -6.3360 H   0  0  0  0  0  0  0  0  0  0  0  0
   -6.2320   -7.2450   -6.1690 H   0  0  0  0  0  0  0  0  0  0  0  0
   -7.1730   -8.1360   -7.3370 H   0  0  0  0  0  0  0  0  0  0  0  0
   -6.3120   -5.8820   -8.2820 H   0  0  0  0  0  0  0  0  0  0  0  0
   -7.8380   -6.4010   -8.5070 H   0  0  0  0  0  0  0  0  0  0  0  0
   -6.8880   -4.6180   -6.3400 H   0  0  0  0  0  0  0  0  0  0  0  0
   -7.0680   -3.1750   -9.5650 H   0  0  0  0  0  0  0  0  0  0  0  0
   -9.0160   -4.0760   -6.0300 H   0  0  0  0  0  0  0  0  0  0  0  0
   -9.5150   -5.4730   -6.9150 H   0  0  0  0  0  0  0  0  0  0  0  0
   -6.9620   -7.5010   -1.0420 H   0  0  0  0  0  0  0  0  0  0  0  0
   -6.1830   -8.2020    1.0560 H   0  0  0  0  0  0  0  0  0  0  0  0
  1  2  1  0
  2  3  1  0
  3  4  2  0
  4  5  1  0
  5  6  2  0
  6  7  1  0
  7  8  1  0
  8  9  2  0
  8 10  1  0
 10 11  1  0
 11 12  1  0
 12 13  1  0
 13 14  1  0
 14 15  1  0
 15 16  1  0
 16 17  2  0
 16 18  1  0
 15 19  1  0
  6 20  1  0
 20 21  2  0
 21  3  1  0
 19 11  1  0
  1 22  1  0
  1 23  1  0
  2 24  1  0
  2 25  1  0
  4 26  1  0
  5 27  1  0
  7 28  1  0
  7 29  1  0
 10 30  1  0
 11 31  1  0
 12 32  1  0
 12 33  1  0
 13 34  1  0
 13 35  1  0
 14 36  1  0
 14 37  1  0
 15 38  1  0
 18 39  1  0
 19 40  1  0
 19 41  1  0
 20 42  1  0
 21 43  1  0
A    1
 N1 
A    2
 C1 
A    3
 C2 
A    4
 C3 
A    5
 C4 
A    6
 C5 
A    7
 C6 
A    8
 C7 
A    9
 O1 
A   10
 N2 
A   11
 C8 
A   12
 C9 
A   13
 C10
A   14
 C11
A   15
 C12
A   16
 C13
A   17
 O2 
A   18
 O3 
A   19
 C14
A   20
 C15
A   21
 C16
A   22
 H1 
A   23
 H2 
A   24
 H3 
A   25
 H4 
A   26
 H5 
A   27
 H6 
A   28
 H7 
A   29
 H8 
A   30
 H9 
A   31
 H10
A   32
 H11
A   33
 H12
A   34
 H13
A   35
 H14
A   36
 H15
A   37
 H16
A   38
 H17
A   39
 H18
A   40
 H19
A   41
 H20
A   42
 H21
A   43
 H22
M  END
>  <ref_pdb>  (26) 
x0147_0A

>  <ref_mols>  (26) 
x1084_0A,x0771_0AS1

>  <original SMILES>  (26) 
[H]OC(=O)C1([H])C([H])([H])C([H])([H])C([H])([H])C([H])(N([H])C(=O)C([H])([H])c2c([H])c([H])c(C([H])([H])N([H])[H])c([H])c2[H])C1([H])[H]

>  <index>  (26) 
7069

>  <∆∆G>  (26) 
-3.882062

>  <comRMSD>  (26) 
0.720297

>  <N_constrained_atoms>  (26) 
21.0

>  <N_unconstrained_atoms>  (26) 
0.0

>  <LE>  (26) 
0.18486

>  <percent_hybrid>  (26) 
43.0

>  <max_hit_Tanimoto>  (26) 
0.168142

>  <largest_ring>  (26) 
6

>  <N_interactions_kept>  (26) 
2.0

>  <N_interactions_lost>  (26) 
2.5

>  <interaction_uniqueness_metric>  (26) 
0.219865

>  <N_HA>  (26) 
21

>  <N_rotatable_bonds>  (26) 
6

>  <N_interactions>  (26) 
7

>  <N_PAINS>  (26) 
0

>  <UFF_Gibbs>  (26) 
240.16331

>  <strain_per_HA>  (26) 
11.436294

>  <ad_hoc_penalty>  (26) 
-15.039453

>  <cluster>  (26) 
870

>  <ranked>  (26) 
874.0

>  <merger_rank>  (26) 
2

>  <hydroph_interaction:LEU:127>  (26) 
1

>  <hbond:GLY:128>  (26) 
0

>  <hydroph_interaction:ALA:144>  (26) 
1

>  <hbond:GLY:164>  (26) 
1

>  <hbond:HIS:40>  (26) 
0

>  <pistack:HIS:40>  (26) 
0

>  <hydroph_interaction:LEU:125>  (26) 
0

>  <hydroph_interaction:PHE:170>  (26) 
0

>  <hydroph_interaction:HIS:40>  (26) 
1

>  <pication:HIS:40>  (26) 
0

>  <hbond:THR:142>  (26) 
0

>  <hbond:HIS:161>  (26) 
0

>  <hbond:GLY:166>  (26) 
0

>  <hbond:VAL:162>  (26) 
0

>  <hydroph_interaction:ASN:165>  (26) 
0

>  <saltbridge:HIS:161>  (26) 
1

>  <hbond:GLY:145>  (26) 
0

>  <hbond:CYS:147>  (26) 
0

>  <saltbridge:HIS:40>  (26) 
0

>  <hbond:LEU:127>  (26) 
1

>  <hbond:THR:130>  (26) 
1

>  <halogenbond:THR:142>  (26) 
0

>  <halogenbond:CYS:147>  (26) 
0

$$$$
Z3307868822-x1919-0AS12
     RDKit          3D

 53 54  0  0  0  0  0  0  0  0999 V2000
   -8.6960   -3.4500   -0.7110 O   0  0  0  0  0  0  0  0  0  0  0  0
   -7.5520   -3.3770   -1.1270 C   0  0  0  0  0  0  0  0  0  0  0  0
   -6.7840   -2.2190   -1.1360 N   0  0  0  0  0  0  0  0  0  0  0  0
   -7.3150   -0.9230   -0.7590 C   0  0  0  0  0  0  0  0  0  0  0  0
   -6.3020    0.0070   -0.1400 C   0  0  0  0  0  0  0  0  0  0  0  0
   -5.4600    0.5130   -1.2780 C   0  0  0  0  0  0  0  0  0  0  0  0
   -6.1410    0.0520   -2.5290 C   0  0  0  0  0  0  0  0  0  0  0  0
   -7.5770   -0.1280   -2.0210 C   0  0  0  0  0  0  0  0  0  0  0  0
   -6.7930   -4.6170   -1.6960 C   0  0  0  0  0  0  0  0  0  0  0  0
   -5.9140   -5.0770   -0.9750 O   0  0  0  0  0  0  0  0  0  0  0  0
   -7.1330   -5.1580   -2.9510 N   0  0  0  0  0  0  0  0  0  0  0  0
   -7.9170   -4.4200   -3.9510 C   0  0  0  0  0  0  0  0  0  0  0  0
   -8.3620   -5.2240   -5.0130 C   0  0  0  0  0  0  0  0  0  0  0  0
   -9.0530   -4.3780   -5.9300 O   0  0  0  0  0  0  0  0  0  0  0  0
   -8.8670   -4.7710   -7.2870 C   0  0  0  0  0  0  0  0  0  0  0  0
   -8.4830   -3.6410   -8.0020 C   0  0  0  0  0  0  0  0  0  0  0  0
   -7.2510   -3.9570   -8.6660 O   0  0  0  0  0  0  0  0  0  0  0  0
   -7.1410   -6.6230   -3.0920 C   0  0  0  0  0  0  0  0  0  0  0  0
   -5.7550   -7.2590   -3.2270 C   0  0  0  0  0  0  0  0  0  0  0  0
   -5.2370   -7.7530   -1.9040 C   0  0  0  0  0  0  0  0  0  0  0  0
   -3.9540   -7.3980   -1.5080 C   0  0  0  0  0  0  0  0  0  0  0  0
   -3.4160   -7.8130   -0.2900 C   0  0  0  0  0  0  0  0  0  0  0  0
   -4.1730   -8.6090    0.5590 C   0  0  0  0  0  0  0  0  0  0  0  0
   -5.5340   -9.0000    0.1510 C   0  0  0  0  0  0  0  0  0  0  0  0
   -6.0290   -8.5580   -1.0750 C   0  0  0  0  0  0  0  0  0  0  0  0
   -6.0330   -2.2500   -1.8150 H   0  0  0  0  0  0  0  0  0  0  0  0
   -8.2190   -1.0250   -0.1490 H   0  0  0  0  0  0  0  0  0  0  0  0
   -6.7810    0.8240    0.4060 H   0  0  0  0  0  0  0  0  0  0  0  0
   -5.6660   -0.5070    0.5650 H   0  0  0  0  0  0  0  0  0  0  0  0
   -5.3620    1.6030   -1.2580 H   0  0  0  0  0  0  0  0  0  0  0  0
   -4.4760    0.0350   -1.1980 H   0  0  0  0  0  0  0  0  0  0  0  0
   -5.7180   -0.8880   -2.8980 H   0  0  0  0  0  0  0  0  0  0  0  0
   -6.0900    0.7790   -3.3260 H   0  0  0  0  0  0  0  0  0  0  0  0
   -8.1970   -0.6870   -2.7240 H   0  0  0  0  0  0  0  0  0  0  0  0
   -8.0530    0.8430   -1.8390 H   0  0  0  0  0  0  0  0  0  0  0  0
   -8.7680   -3.9290   -3.4740 H   0  0  0  0  0  0  0  0  0  0  0  0
   -7.2830   -3.6280   -4.3450 H   0  0  0  0  0  0  0  0  0  0  0  0
   -7.6180   -5.7810   -5.5820 H   0  0  0  0  0  0  0  0  0  0  0  0
   -9.0850   -5.9490   -4.6280 H   0  0  0  0  0  0  0  0  0  0  0  0
   -8.0990   -5.5480   -7.3570 H   0  0  0  0  0  0  0  0  0  0  0  0
   -9.8200   -5.1530   -7.6740 H   0  0  0  0  0  0  0  0  0  0  0  0
   -9.2090   -3.4510   -8.7780 H   0  0  0  0  0  0  0  0  0  0  0  0
   -8.3370   -2.7030   -7.4700 H   0  0  0  0  0  0  0  0  0  0  0  0
   -7.0890   -3.2450   -9.3260 H   0  0  0  0  0  0  0  0  0  0  0  0
   -7.6480   -7.0330   -2.2110 H   0  0  0  0  0  0  0  0  0  0  0  0
   -7.7300   -6.9310   -3.9610 H   0  0  0  0  0  0  0  0  0  0  0  0
   -5.0360   -6.5340   -3.6190 H   0  0  0  0  0  0  0  0  0  0  0  0
   -5.7670   -8.0910   -3.9380 H   0  0  0  0  0  0  0  0  0  0  0  0
   -3.3580   -6.7840   -2.1600 H   0  0  0  0  0  0  0  0  0  0  0  0
   -2.4100   -7.5140   -0.0120 H   0  0  0  0  0  0  0  0  0  0  0  0
   -3.7620   -8.9390    1.5110 H   0  0  0  0  0  0  0  0  0  0  0  0
   -6.1470   -9.6230    0.7980 H   0  0  0  0  0  0  0  0  0  0  0  0
   -7.0360   -8.8450   -1.3740 H   0  0  0  0  0  0  0  0  0  0  0  0
  1  2  2  0
  2  3  1  0
  3  4  1  0
  4  5  1  0
  5  6  1  0
  6  7  1  0
  7  8  1  0
  2  9  1  0
  9 10  2  0
  9 11  1  0
 11 12  1  0
 12 13  1  0
 13 14  1  0
 14 15  1  0
 15 16  1  0
 16 17  1  0
 11 18  1  0
 18 19  1  0
 19 20  1  0
 20 21  2  0
 21 22  1  0
 22 23  2  0
 23 24  1  0
 24 25  2  0
  8  4  1  0
 25 20  1  0
  3 26  1  0
  4 27  1  0
  5 28  1  0
  5 29  1  0
  6 30  1  0
  6 31  1  0
  7 32  1  0
  7 33  1  0
  8 34  1  0
  8 35  1  0
 12 36  1  0
 12 37  1  0
 13 38  1  0
 13 39  1  0
 15 40  1  0
 15 41  1  0
 16 42  1  0
 16 43  1  0
 17 44  1  0
 18 45  1  0
 18 46  1  0
 19 47  1  0
 19 48  1  0
 21 49  1  0
 22 50  1  0
 23 51  1  0
 24 52  1  0
 25 53  1  0
A    1
 O1 
A    2
 C1 
A    3
 N1 
A    4
 C2 
A    5
 C3 
A    6
 C4 
A    7
 C5 
A    8
 C6 
A    9
 C7 
A   10
 O2 
A   11
 N2 
A   12
 C8 
A   13
 C9 
A   14
 O3 
A   15
 C10
A   16
 C11
A   17
 O4 
A   18
 C12
A   19
 C13
A   20
 C14
A   21
 C15
A   22
 C16
A   23
 C17
A   24
 C18
A   25
 C19
A   26
 H1 
A   27
 H2 
A   28
 H3 
A   29
 H4 
A   30
 H5 
A   31
 H6 
A   32
 H7 
A   33
 H8 
A   34
 H9 
A   35
 H10
A   36
 H11
A   37
 H12
A   38
 H13
A   39
 H14
A   40
 H15
A   41
 H16
A   42
 H17
A   43
 H18
A   44
 H19
A   45
 H20
A   46
 H21
A   47
 H22
A   48
 H23
A   49
 H24
A   50
 H25
A   51
 H26
A   52
 H27
A   53
 H28
M  END
>  <ref_pdb>  (27) 
x0147_0A

>  <ref_mols>  (27) 
x1919_0AS12,x0789_0AS4

>  <original SMILES>  (27) 
[H]OC([H])([H])C([H])([H])OC([H])([H])C([H])([H])N(C(=O)C(=O)N([H])C1([H])C([H])([H])C([H])([H])C([H])([H])C1([H])[H])C([H])([H])C([H])([H])c1c([H])c([H])c([H])c([H])c1[H]

>  <index>  (27) 
1417

>  <∆∆G>  (27) 
-5.066817

>  <comRMSD>  (27) 
0.919583

>  <N_constrained_atoms>  (27) 
23.0

>  <N_unconstrained_atoms>  (27) 
7.0

>  <LE>  (27) 
0.168894

>  <percent_hybrid>  (27) 
27.0

>  <max_hit_Tanimoto>  (27) 
0.147651

>  <largest_ring>  (27) 
6

>  <N_interactions_kept>  (27) 
0.0

>  <N_interactions_lost>  (27) 
3.5

>  <interaction_uniqueness_metric>  (27) 
0.244955

>  <N_HA>  (27) 
25

>  <N_rotatable_bonds>  (27) 
10

>  <N_interactions>  (27) 
9

>  <N_PAINS>  (27) 
0

>  <UFF_Gibbs>  (27) 
132.652107

>  <strain_per_HA>  (27) 
5.306063

>  <ad_hoc_penalty>  (27) 
-14.82478

>  <cluster>  (27) 
447

>  <ranked>  (27) 
902.0

>  <merger_rank>  (27) 
3

>  <hydroph_interaction:LEU:127>  (27) 
1

>  <hbond:GLY:128>  (27) 
1

>  <hydroph_interaction:ALA:144>  (27) 
0

>  <hbond:GLY:164>  (27) 
1

>  <hbond:HIS:40>  (27) 
0

>  <pistack:HIS:40>  (27) 
0

>  <hydroph_interaction:LEU:125>  (27) 
1

>  <hydroph_interaction:PHE:170>  (27) 
1

>  <hydroph_interaction:HIS:40>  (27) 
1

>  <pication:HIS:40>  (27) 
1

>  <hbond:THR:142>  (27) 
1

>  <hbond:HIS:161>  (27) 
0

>  <hbond:GLY:166>  (27) 
0

>  <hbond:VAL:162>  (27) 
0

>  <hydroph_interaction:ASN:165>  (27) 
1

>  <saltbridge:HIS:161>  (27) 
0

>  <hbond:GLY:145>  (27) 
0

>  <hbond:CYS:147>  (27) 
0

>  <saltbridge:HIS:40>  (27) 
0

>  <hbond:LEU:127>  (27) 
0

>  <hbond:THR:130>  (27) 
0

>  <halogenbond:THR:142>  (27) 
0

>  <halogenbond:CYS:147>  (27) 
0

$$$$
Z2927114314-x2149-0AS3
     RDKit          3D

 30 30  0  0  0  0  0  0  0  0999 V2000
   -6.2740   -4.7920   -1.2200 C   0  0  0  0  0  0  0  0  0  0  0  0
   -7.4930   -5.5350   -1.7410 C   0  0  0  0  0  0  0  0  0  0  0  0
   -7.3240   -6.0050   -3.4510 S   0  0  0  0  0  6  0  0  0  0  0  0
   -8.3080   -7.0160   -3.6950 O   0  0  0  0  0  0  0  0  0  0  0  0
   -5.7000   -6.7540   -3.6060 C   0  0  0  0  0  0  0  0  0  0  0  0
   -5.6360   -8.2150   -3.1730 C   0  0  0  0  0  0  0  0  0  0  0  0
   -7.3310   -4.7340   -4.3030 N   0  0  0  0  0  0  0  0  0  0  0  0
   -8.4220   -4.5870   -5.1510 C   0  0  0  0  0  0  0  0  0  0  0  0
   -9.3220   -3.7800   -4.9030 O   0  0  0  0  0  0  0  0  0  0  0  0
   -8.4880   -5.3760   -6.2990 C   0  0  0  0  0  0  0  0  0  0  0  0
   -7.4460   -6.3790   -6.4300 C   0  0  0  0  0  0  0  0  0  0  0  0
   -6.9050   -6.2410   -7.5350 O   0  0  0  0  0  0  0  0  0  0  0  0
   -7.2280   -5.0650   -8.1410 C   0  0  0  0  0  0  0  0  0  0  0  0
   -6.6160   -4.5600   -9.0910 O   0  0  0  0  0  0  0  0  0  0  0  0
   -8.3390   -4.4930   -7.5420 C   0  0  0  0  0  0  0  0  0  0  0  0
   -5.8460   -5.3080   -0.3580 H   0  0  0  0  0  0  0  0  0  0  0  0
   -5.5110   -4.7630   -1.9950 H   0  0  0  0  0  0  0  0  0  0  0  0
   -6.5280   -3.7570   -0.9730 H   0  0  0  0  0  0  0  0  0  0  0  0
   -8.3630   -4.8760   -1.6280 H   0  0  0  0  0  0  0  0  0  0  0  0
   -7.6630   -6.4460   -1.1530 H   0  0  0  0  0  0  0  0  0  0  0  0
   -5.0010   -6.1800   -2.9840 H   0  0  0  0  0  0  0  0  0  0  0  0
   -5.3490   -6.6710   -4.6380 H   0  0  0  0  0  0  0  0  0  0  0  0
   -4.8250   -8.3850   -2.4570 H   0  0  0  0  0  0  0  0  0  0  0  0
   -6.5820   -8.5050   -2.7080 H   0  0  0  0  0  0  0  0  0  0  0  0
   -5.4430   -8.8930   -4.0140 H   0  0  0  0  0  0  0  0  0  0  0  0
   -9.4640   -5.8710   -6.3400 H   0  0  0  0  0  0  0  0  0  0  0  0
   -6.6720   -6.2010   -5.6840 H   0  0  0  0  0  0  0  0  0  0  0  0
   -7.7170   -7.4240   -6.3290 H   0  0  0  0  0  0  0  0  0  0  0  0
   -9.2160   -4.5800   -8.1930 H   0  0  0  0  0  0  0  0  0  0  0  0
   -8.2940   -3.4480   -7.2570 H   0  0  0  0  0  0  0  0  0  0  0  0
  1  2  1  0
  2  3  1  0
  3  4  2  0
  3  5  1  0
  5  6  1  0
  3  7  2  0
  7  8  1  0
  8  9  2  0
  8 10  1  0
 10 11  1  0
 11 12  1  0
 12 13  1  0
 13 14  2  0
 13 15  1  0
 15 10  1  0
  1 16  1  0
  1 17  1  0
  1 18  1  0
  2 19  1  0
  2 20  1  0
  5 21  1  0
  5 22  1  0
  6 23  1  0
  6 24  1  0
  6 25  1  0
 10 26  1  0
 11 27  1  0
 11 28  1  0
 15 29  1  0
 15 30  1  0
A    1
 C1 
A    2
 C2 
A    3
 S1 
A    4
 O1 
A    5
 C3 
A    6
 C4 
A    7
 N1 
A    8
 C5 
A    9
 O2 
A   10
 C6 
A   11
 C7 
A   12
 O3 
A   13
 C8 
A   14
 O4 
A   15
 C9 
A   16
 H1 
A   17
 H2 
A   18
 H3 
A   19
 H4 
A   20
 H5 
A   21
 H6 
A   22
 H7 
A   23
 H8 
A   24
 H9 
A   25
 H10
A   26
 H11
A   27
 H12
A   28
 H13
A   29
 H14
A   30
 H15
M  END
>  <ref_pdb>  (28) 
x0147_0A

>  <ref_mols>  (28) 
x2149_0AS3,x1140_0AS3

>  <original SMILES>  (28) 
[H]C([H])([H])C([H])([H])S(=O)(=NC(=O)C1([H])C([H])([H])OC(=O)C1([H])[H])C([H])([H])C([H])([H])[H]

>  <index>  (28) 
17479

>  <∆∆G>  (28) 
-4.918605

>  <comRMSD>  (28) 
0.555898

>  <N_constrained_atoms>  (28) 
13.0

>  <N_unconstrained_atoms>  (28) 
2.0

>  <LE>  (28) 
0.327907

>  <percent_hybrid>  (28) 
47.0

>  <max_hit_Tanimoto>  (28) 
0.077434

>  <largest_ring>  (28) 
5

>  <N_interactions_kept>  (28) 
1.0

>  <N_interactions_lost>  (28) 
1.5

>  <interaction_uniqueness_metric>  (28) 
0.087861

>  <N_HA>  (28) 
15

>  <N_rotatable_bonds>  (28) 
5

>  <N_interactions>  (28) 
4

>  <N_PAINS>  (28) 
0

>  <UFF_Gibbs>  (28) 
120.536079

>  <strain_per_HA>  (28) 
8.035685

>  <ad_hoc_penalty>  (28) 
-14.391996

>  <cluster>  (28) 
2849

>  <ranked>  (28) 
950.0

>  <merger_rank>  (28) 
1

>  <hydroph_interaction:LEU:127>  (28) 
1

>  <hbond:GLY:128>  (28) 
0

>  <hydroph_interaction:ALA:144>  (28) 
0

>  <hbond:GLY:164>  (28) 
2

>  <hbond:HIS:40>  (28) 
0

>  <pistack:HIS:40>  (28) 
0

>  <hydroph_interaction:LEU:125>  (28) 
0

>  <hydroph_interaction:PHE:170>  (28) 
0

>  <hydroph_interaction:HIS:40>  (28) 
0

>  <pication:HIS:40>  (28) 
0

>  <hbond:THR:142>  (28) 
0

>  <hbond:HIS:161>  (28) 
0

>  <hbond:GLY:166>  (28) 
0

>  <hbond:VAL:162>  (28) 
0

>  <hydroph_interaction:ASN:165>  (28) 
0

>  <saltbridge:HIS:161>  (28) 
1

>  <hbond:GLY:145>  (28) 
0

>  <hbond:CYS:147>  (28) 
0

>  <saltbridge:HIS:40>  (28) 
0

>  <hbond:LEU:127>  (28) 
0

>  <hbond:THR:130>  (28) 
0

>  <halogenbond:THR:142>  (28) 
0

>  <halogenbond:CYS:147>  (28) 
0

$$$$
PV-002953443838-x0771-1AS1
     RDKit          3D

 38 39  0  0  0  0  0  0  0  0999 V2000
   -3.2750   -8.6430    2.0310 C   0  0  0  0  0  0  0  0  0  0  0  0
   -4.0170   -8.4800    0.7100 C   0  0  0  0  0  0  0  0  0  0  0  0
   -5.2340   -9.1350    0.5010 C   0  0  0  0  0  0  0  0  0  0  0  0
   -5.9410   -8.9380   -0.8370 C   0  0  0  0  0  0  0  0  0  0  0  0
   -5.2730   -8.0430   -1.8530 C   0  0  0  0  0  0  0  0  0  0  0  0
   -5.7930   -7.6910   -3.2420 C   0  0  0  0  0  0  0  0  0  0  0  0
   -5.6610   -6.3360   -3.4840 N   0  0  0  0  0  0  0  0  0  0  0  0
   -7.0050   -5.4020   -3.1740 S   0  0  0  0  0  6  0  0  0  0  0  0
   -7.3480   -5.5790   -1.8040 O   0  0  0  0  0  0  0  0  0  0  0  0
   -6.7100   -4.0690   -3.7000 O   0  0  0  0  0  0  0  0  0  0  0  0
   -7.9630   -6.2140   -3.8350 O   0  0  0  0  0  0  0  0  0  0  0  0
   -7.7020   -6.3390   -5.1600 C   0  0  0  0  0  0  0  0  0  0  0  0
   -7.9460   -5.3090   -6.0400 C   0  0  0  0  0  0  0  0  0  0  0  0
   -7.6810   -5.3810   -7.3730 C   0  0  0  0  0  0  0  0  0  0  0  0
   -7.9370   -4.3230   -8.2100 C   0  0  0  0  0  0  0  0  0  0  0  0
   -7.1510   -4.1330   -9.2490 N   0  0  0  0  0  0  0  0  0  0  0  0
   -8.8750   -3.5680   -7.9960 O   0  0  0  0  0  0  0  0  0  0  0  0
   -7.1320   -6.5590   -7.8760 C   0  0  0  0  0  0  0  0  0  0  0  0
   -6.8680   -7.6420   -7.0220 C   0  0  0  0  0  0  0  0  0  0  0  0
   -7.1570   -7.5310   -5.6550 C   0  0  0  0  0  0  0  0  0  0  0  0
   -4.0590   -7.4630   -1.5060 C   0  0  0  0  0  0  0  0  0  0  0  0
   -3.4570   -7.6710   -0.2790 C   0  0  0  0  0  0  0  0  0  0  0  0
   -3.4760   -7.9260    2.8230 H   0  0  0  0  0  0  0  0  0  0  0  0
   -2.1990   -8.5760    1.8430 H   0  0  0  0  0  0  0  0  0  0  0  0
   -3.4790   -9.6380    2.4370 H   0  0  0  0  0  0  0  0  0  0  0  0
   -5.6610   -9.7640    1.2730 H   0  0  0  0  0  0  0  0  0  0  0  0
   -6.8860   -9.4170   -1.0540 H   0  0  0  0  0  0  0  0  0  0  0  0
   -5.2060   -8.2450   -3.9900 H   0  0  0  0  0  0  0  0  0  0  0  0
   -6.8280   -8.0250   -3.3530 H   0  0  0  0  0  0  0  0  0  0  0  0
   -4.8160   -5.9100   -3.1230 H   0  0  0  0  0  0  0  0  0  0  0  0
   -8.3730   -4.3860   -5.6290 H   0  0  0  0  0  0  0  0  0  0  0  0
   -6.6270   -4.9370   -9.5690 H   0  0  0  0  0  0  0  0  0  0  0  0
   -6.8480   -3.2210   -9.5730 H   0  0  0  0  0  0  0  0  0  0  0  0
   -6.9060   -6.6440   -8.9380 H   0  0  0  0  0  0  0  0  0  0  0  0
   -6.4410   -8.5600   -7.4200 H   0  0  0  0  0  0  0  0  0  0  0  0
   -6.9500   -8.3680   -4.9940 H   0  0  0  0  0  0  0  0  0  0  0  0
   -3.5660   -6.8200   -2.2270 H   0  0  0  0  0  0  0  0  0  0  0  0
   -2.5050   -7.1760   -0.0850 H   0  0  0  0  0  0  0  0  0  0  0  0
  1  2  1  0
  2  3  2  0
  3  4  1  0
  4  5  2  0
  5  6  1  0
  6  7  1  0
  7  8  1  0
  8  9  2  0
  8 10  2  0
  8 11  1  0
 11 12  1  0
 12 13  2  0
 13 14  1  0
 14 15  1  0
 15 16  1  0
 15 17  2  0
 14 18  2  0
 18 19  1  0
 19 20  2  0
  5 21  1  0
 21 22  2  0
 22  2  1  0
 20 12  1  0
  1 23  1  0
  1 24  1  0
  1 25  1  0
  3 26  1  0
  4 27  1  0
  6 28  1  0
  6 29  1  0
  7 30  1  0
 13 31  1  0
 16 32  1  0
 16 33  1  0
 18 34  1  0
 19 35  1  0
 20 36  1  0
 21 37  1  0
 22 38  1  0
A    1
 C1 
A    2
 C2 
A    3
 C3 
A    4
 C4 
A    5
 C5 
A    6
 C6 
A    7
 N1 
A    8
 S1 
A    9
 O1 
A   10
 O2 
A   11
 O3 
A   12
 C7 
A   13
 C8 
A   14
 C9 
A   15
 C10
A   16
 N2 
A   17
 O4 
A   18
 C11
A   19
 C12
A   20
 C13
A   21
 C14
A   22
 C15
A   23
 H1 
A   24
 H2 
A   25
 H3 
A   26
 H4 
A   27
 H5 
A   28
 H6 
A   29
 H7 
A   30
 H8 
A   31
 H9 
A   32
 H10
A   33
 H11
A   34
 H12
A   35
 H13
A   36
 H14
A   37
 H15
A   38
 H16
M  END
>  <ref_pdb>  (29) 
x0147_0A

>  <ref_mols>  (29) 
x0771_1AS1,x1140_0AS5

>  <original SMILES>  (29) 
[H]c1c([H])c(OS(=O)(=O)N([H])C([H])([H])c2c([H])c([H])c(C([H])([H])[H])c([H])c2[H])c([H])c(C(=O)N([H])[H])c1[H]

>  <index>  (29) 
2284

>  <∆∆G>  (29) 
-8.198621

>  <comRMSD>  (29) 
0.920909

>  <N_constrained_atoms>  (29) 
21.0

>  <N_unconstrained_atoms>  (29) 
2.0

>  <LE>  (29) 
0.356462

>  <percent_hybrid>  (29) 
43.0

>  <max_hit_Tanimoto>  (29) 
0.260956

>  <largest_ring>  (29) 
6

>  <N_interactions_kept>  (29) 
1.0

>  <N_interactions_lost>  (29) 
4.0

>  <interaction_uniqueness_metric>  (29) 
0.165382

>  <N_HA>  (29) 
22

>  <N_rotatable_bonds>  (29) 
7

>  <N_interactions>  (29) 
6

>  <N_PAINS>  (29) 
0

>  <UFF_Gibbs>  (29) 
203.925667

>  <strain_per_HA>  (29) 
9.269306

>  <ad_hoc_penalty>  (29) 
-14.292392

>  <cluster>  (29) 
942

>  <ranked>  (29) 
965.0

>  <merger_rank>  (29) 
2

>  <hydroph_interaction:LEU:127>  (29) 
1

>  <hbond:GLY:128>  (29) 
0

>  <hydroph_interaction:ALA:144>  (29) 
0

>  <hbond:GLY:164>  (29) 
1

>  <hbond:HIS:40>  (29) 
0

>  <pistack:HIS:40>  (29) 
1

>  <hydroph_interaction:LEU:125>  (29) 
0

>  <hydroph_interaction:PHE:170>  (29) 
0

>  <hydroph_interaction:HIS:40>  (29) 
1

>  <pication:HIS:40>  (29) 
0

>  <hbond:THR:142>  (29) 
0

>  <hbond:HIS:161>  (29) 
1

>  <hbond:GLY:166>  (29) 
0

>  <hbond:VAL:162>  (29) 
1

>  <hydroph_interaction:ASN:165>  (29) 
0

>  <saltbridge:HIS:161>  (29) 
0

>  <hbond:GLY:145>  (29) 
0

>  <hbond:CYS:147>  (29) 
0

>  <saltbridge:HIS:40>  (29) 
0

>  <hbond:LEU:127>  (29) 
0

>  <hbond:THR:130>  (29) 
0

>  <halogenbond:THR:142>  (29) 
0

>  <halogenbond:CYS:147>  (29) 
0

$$$$
Z1250527403-x0771-1AS1
     RDKit          3D

 25 25  0  0  0  0  0  0  0  0999 V2000
   -4.1110   -7.4840   -1.4410 C   0  0  0  0  0  0  0  0  0  0  0  0
   -5.0350   -6.5430   -2.2000 C   0  0  0  0  0  0  0  0  0  0  0  0
   -6.2490   -7.1780   -2.8350 C   0  0  0  0  0  0  0  0  0  0  0  0
   -6.4000   -8.5910   -2.5890 O   0  0  0  0  0  0  0  0  0  0  0  0
   -7.0700   -6.2390   -3.5710 N   0  0  0  0  0  0  0  0  0  0  0  0
   -7.2530   -6.2870   -4.9220 C   0  0  0  0  0  0  0  0  0  0  0  0
   -7.1620   -7.5270   -5.5090 C   0  0  0  0  0  0  0  0  0  0  0  0
   -7.2990   -7.6820   -6.8420 C   0  0  0  0  0  0  0  0  0  0  0  0
   -7.5400   -6.4240   -7.5930 C   0  0  0  0  0  0  0  0  0  0  0  0
   -7.6450   -5.2090   -6.9910 C   0  0  0  0  0  0  0  0  0  0  0  0
   -7.8850   -4.1060   -7.8110 C   0  0  0  0  0  0  0  0  0  0  0  0
   -7.1350   -4.1380   -8.9450 N   0  0  0  0  0  0  0  0  0  0  0  0
   -8.6910   -3.2270   -7.5430 O   0  0  0  0  0  0  0  0  0  0  0  0
   -7.5120   -5.0840   -5.6190 N   0  0  0  0  0  0  0  0  0  0  0  0
   -3.0820   -7.3970   -1.7880 H   0  0  0  0  0  0  0  0  0  0  0  0
   -4.1400   -7.3050   -0.3640 H   0  0  0  0  0  0  0  0  0  0  0  0
   -4.4200   -8.5190   -1.6120 H   0  0  0  0  0  0  0  0  0  0  0  0
   -4.4400   -6.0390   -2.9700 H   0  0  0  0  0  0  0  0  0  0  0  0
   -5.3680   -5.7590   -1.5090 H   0  0  0  0  0  0  0  0  0  0  0  0
   -6.8470   -5.2890   -3.3050 H   0  0  0  0  0  0  0  0  0  0  0  0
   -6.9680   -8.4120   -4.8920 H   0  0  0  0  0  0  0  0  0  0  0  0
   -7.2310   -8.6510   -7.3270 H   0  0  0  0  0  0  0  0  0  0  0  0
   -7.6480   -6.4380   -8.6780 H   0  0  0  0  0  0  0  0  0  0  0  0
   -7.1400   -4.9690   -9.5250 H   0  0  0  0  0  0  0  0  0  0  0  0
   -6.9320   -3.2290   -9.3360 H   0  0  0  0  0  0  0  0  0  0  0  0
  1  2  1  0
  2  3  1  0
  3  4  2  0
  3  5  1  0
  5  6  1  0
  6  7  2  0
  7  8  1  0
  8  9  2  0
  9 10  1  0
 10 11  1  0
 11 12  1  0
 11 13  2  0
 10 14  2  0
 14  6  1  0
  1 15  1  0
  1 16  1  0
  1 17  1  0
  2 18  1  0
  2 19  1  0
  5 20  1  0
  7 21  1  0
  8 22  1  0
  9 23  1  0
 12 24  1  0
 12 25  1  0
A    1
 C1 
A    2
 C2 
A    3
 C3 
A    4
 O1 
A    5
 N1 
A    6
 C4 
A    7
 C5 
A    8
 C6 
A    9
 C7 
A   10
 C8 
A   11
 C9 
A   12
 N2 
A   13
 O2 
A   14
 N3 
A   15
 H1 
A   16
 H2 
A   17
 H3 
A   18
 H4 
A   19
 H5 
A   20
 H6 
A   21
 H7 
A   22
 H8 
A   23
 H9 
A   24
 H10
A   25
 H11
M  END
>  <ref_pdb>  (30) 
x0147_0A

>  <ref_mols>  (30) 
x0771_1AS1,x1140_0AS3

>  <original SMILES>  (30) 
[H]c1c(C(=O)N([H])[H])nc(N([H])C(=O)C([H])([H])C([H])([H])[H])c([H])c1[H]

>  <index>  (30) 
4721

>  <∆∆G>  (30) 
-5.264257

>  <comRMSD>  (30) 
0.62744

>  <N_constrained_atoms>  (30) 
12.0

>  <N_unconstrained_atoms>  (30) 
3.0

>  <LE>  (30) 
0.35095

>  <percent_hybrid>  (30) 
28.0

>  <max_hit_Tanimoto>  (30) 
0.134653

>  <largest_ring>  (30) 
6

>  <N_interactions_kept>  (30) 
1.0

>  <N_interactions_lost>  (30) 
2.5

>  <interaction_uniqueness_metric>  (30) 
0.087096

>  <N_HA>  (30) 
14

>  <N_rotatable_bonds>  (30) 
4

>  <N_interactions>  (30) 
5

>  <N_PAINS>  (30) 
0

>  <UFF_Gibbs>  (30) 
112.317105

>  <strain_per_HA>  (30) 
8.022593

>  <ad_hoc_penalty>  (30) 
-13.425266

>  <cluster>  (30) 
6291

>  <ranked>  (30) 
1077.0

>  <merger_rank>  (30) 
4

>  <hydroph_interaction:LEU:127>  (30) 
2

>  <hbond:GLY:128>  (30) 
0

>  <hydroph_interaction:ALA:144>  (30) 
1

>  <hbond:GLY:164>  (30) 
1

>  <hbond:HIS:40>  (30) 
0

>  <pistack:HIS:40>  (30) 
0

>  <hydroph_interaction:LEU:125>  (30) 
0

>  <hydroph_interaction:PHE:170>  (30) 
0

>  <hydroph_interaction:HIS:40>  (30) 
0

>  <pication:HIS:40>  (30) 
0

>  <hbond:THR:142>  (30) 
1

>  <hbond:HIS:161>  (30) 
0

>  <hbond:GLY:166>  (30) 
0

>  <hbond:VAL:162>  (30) 
0

>  <hydroph_interaction:ASN:165>  (30) 
0

>  <saltbridge:HIS:161>  (30) 
0

>  <hbond:GLY:145>  (30) 
0

>  <hbond:CYS:147>  (30) 
0

>  <saltbridge:HIS:40>  (30) 
0

>  <hbond:LEU:127>  (30) 
0

>  <hbond:THR:130>  (30) 
0

>  <halogenbond:THR:142>  (30) 
0

>  <halogenbond:CYS:147>  (30) 
0

$$$$
Z3843960027-x1919-0AS10
     RDKit          3D

 37 37  0  0  0  0  0  0  0  0999 V2000
   -5.4560    0.2780   -1.9020 C   0  0  0  0  0  0  0  0  0  0  0  0
   -6.2100    0.1330   -0.6200 C   0  0  0  0  0  0  0  0  0  0  0  0
   -7.2600   -0.9650   -0.7520 C   0  0  0  0  0  0  0  0  0  0  0  0
   -6.6480   -2.2510   -0.7520 O   0  0  0  0  0  0  0  0  0  0  0  0
   -7.5290   -3.2640   -1.2770 C   0  0  0  0  0  0  0  0  0  0  0  0
   -6.8470   -4.4670   -1.5110 C   0  0  0  0  0  0  0  0  0  0  0  0
   -6.5620   -4.8280   -2.9540 C   0  0  0  0  0  0  0  0  0  0  0  0
   -6.3300   -3.9430   -3.7750 O   0  0  0  0  0  0  0  0  0  0  0  0
   -6.5680   -6.1850   -3.2360 N   0  0  0  0  0  0  0  0  0  0  0  0
   -7.7710   -6.9920   -3.3320 C   0  0  0  0  0  0  0  0  0  0  0  0
   -8.7900   -6.4330   -4.1840 C   0  0  0  0  0  0  0  0  0  0  0  0
   -8.4210   -5.9630   -5.4670 C   0  0  0  0  0  0  0  0  0  0  0  0
   -7.5760   -6.7830   -6.2290 C   0  0  0  0  0  0  0  0  0  0  0  0
   -7.1860   -6.3270   -7.4430 C   0  0  0  0  0  0  0  0  0  0  0  0
   -7.6830   -5.0090   -7.8600 C   0  0  0  0  0  0  0  0  0  0  0  0
   -7.1530   -4.4650   -9.3190 Cl  0  0  0  0  0  0  0  0  0  0  0  0
   -8.5050   -4.2130   -7.1740 N   0  0  0  0  0  0  0  0  0  0  0  0
   -8.8570   -4.7190   -5.9780 C   0  0  0  0  0  0  0  0  0  0  0  0
   -5.9620   -0.2310   -2.7250 H   0  0  0  0  0  0  0  0  0  0  0  0
   -4.4600   -0.1360   -1.7780 H   0  0  0  0  0  0  0  0  0  0  0  0
   -5.3900    1.3360   -2.1550 H   0  0  0  0  0  0  0  0  0  0  0  0
   -5.5100   -0.1030    0.1870 H   0  0  0  0  0  0  0  0  0  0  0  0
   -6.6820    1.0910   -0.3780 H   0  0  0  0  0  0  0  0  0  0  0  0
   -7.8390   -0.8000   -1.6710 H   0  0  0  0  0  0  0  0  0  0  0  0
   -7.9560   -0.9320    0.0940 H   0  0  0  0  0  0  0  0  0  0  0  0
   -7.9670   -2.9030   -2.2160 H   0  0  0  0  0  0  0  0  0  0  0  0
   -8.3500   -3.4310   -0.5720 H   0  0  0  0  0  0  0  0  0  0  0  0
   -5.8680   -4.3740   -1.0300 H   0  0  0  0  0  0  0  0  0  0  0  0
   -7.3790   -5.2730   -0.9920 H   0  0  0  0  0  0  0  0  0  0  0  0
   -5.6630   -6.6520   -3.1820 H   0  0  0  0  0  0  0  0  0  0  0  0
   -8.1680   -7.0940   -2.3120 H   0  0  0  0  0  0  0  0  0  0  0  0
   -7.5130   -8.0110   -3.6530 H   0  0  0  0  0  0  0  0  0  0  0  0
   -9.6140   -7.1560   -4.2640 H   0  0  0  0  0  0  0  0  0  0  0  0
   -9.2040   -5.5750   -3.6380 H   0  0  0  0  0  0  0  0  0  0  0  0
   -7.2300   -7.7510   -5.8600 H   0  0  0  0  0  0  0  0  0  0  0  0
   -6.5230   -6.9100   -8.0830 H   0  0  0  0  0  0  0  0  0  0  0  0
   -9.5160   -4.0810   -5.4030 H   0  0  0  0  0  0  0  0  0  0  0  0
  1  2  1  0
  2  3  1  0
  3  4  1  0
  4  5  1  0
  5  6  1  0
  6  7  1  0
  7  8  2  0
  7  9  1  0
  9 10  1  0
 10 11  1  0
 11 12  1  0
 12 13  2  0
 13 14  1  0
 14 15  2  0
 15 16  1  0
 15 17  1  0
 17 18  2  0
 18 12  1  0
  1 19  1  0
  1 20  1  0
  1 21  1  0
  2 22  1  0
  2 23  1  0
  3 24  1  0
  3 25  1  0
  5 26  1  0
  5 27  1  0
  6 28  1  0
  6 29  1  0
  9 30  1  0
 10 31  1  0
 10 32  1  0
 11 33  1  0
 11 34  1  0
 13 35  1  0
 14 36  1  0
 18 37  1  0
A    1
 C1 
A    2
 C2 
A    3
 C3 
A    4
 O1 
A    5
 C4 
A    6
 C5 
A    7
 C6 
A    8
 O2 
A    9
 N1 
A   10
 C7 
A   11
 C8 
A   12
 C9 
A   13
 C10
A   14
 C11
A   15
 C12
A   16
CL1 
A   17
 N2 
A   18
 C13
A   19
 H1 
A   20
 H2 
A   21
 H3 
A   22
 H4 
A   23
 H5 
A   24
 H6 
A   25
 H7 
A   26
 H8 
A   27
 H9 
A   28
 H10
A   29
 H11
A   30
 H12
A   31
 H13
A   32
 H14
A   33
 H15
A   34
 H16
A   35
 H17
A   36
 H18
A   37
 H19
M  END
>  <ref_pdb>  (31) 
x0147_0A

>  <ref_mols>  (31) 
x1919_0AS10,x1498_0A

>  <original SMILES>  (31) 
[H]c1nc(Cl)c([H])c([H])c1C([H])([H])C([H])([H])N([H])C(=O)C([H])([H])C([H])([H])OC([H])([H])C([H])([H])C([H])([H])[H]

>  <index>  (31) 
1160

>  <∆∆G>  (31) 
-6.369747

>  <comRMSD>  (31) 
0.835

>  <N_constrained_atoms>  (31) 
17.0

>  <N_unconstrained_atoms>  (31) 
1.0

>  <LE>  (31) 
0.353875

>  <percent_hybrid>  (31) 
42.0

>  <max_hit_Tanimoto>  (31) 
0.106667

>  <largest_ring>  (31) 
6

>  <N_interactions_kept>  (31) 
1.0

>  <N_interactions_lost>  (31) 
2.5

>  <interaction_uniqueness_metric>  (31) 
0.169362

>  <N_HA>  (31) 
18

>  <N_rotatable_bonds>  (31) 
9

>  <N_interactions>  (31) 
5

>  <N_PAINS>  (31) 
0

>  <UFF_Gibbs>  (31) 
62.089863

>  <strain_per_HA>  (31) 
3.449418

>  <ad_hoc_penalty>  (31) 
-13.143217

>  <cluster>  (31) 
449

>  <ranked>  (31) 
1119.0

>  <merger_rank>  (31) 
4

>  <hydroph_interaction:LEU:127>  (31) 
0

>  <hbond:GLY:128>  (31) 
1

>  <hydroph_interaction:ALA:144>  (31) 
0

>  <hbond:GLY:164>  (31) 
1

>  <hbond:HIS:40>  (31) 
0

>  <pistack:HIS:40>  (31) 
0

>  <hydroph_interaction:LEU:125>  (31) 
1

>  <hydroph_interaction:PHE:170>  (31) 
1

>  <hydroph_interaction:HIS:40>  (31) 
0

>  <pication:HIS:40>  (31) 
0

>  <hbond:THR:142>  (31) 
0

>  <hbond:HIS:161>  (31) 
0

>  <hbond:GLY:166>  (31) 
0

>  <hbond:VAL:162>  (31) 
0

>  <hydroph_interaction:ASN:165>  (31) 
0

>  <saltbridge:HIS:161>  (31) 
0

>  <hbond:GLY:145>  (31) 
0

>  <hbond:CYS:147>  (31) 
0

>  <saltbridge:HIS:40>  (31) 
0

>  <hbond:LEU:127>  (31) 
0

>  <hbond:THR:130>  (31) 
0

>  <halogenbond:THR:142>  (31) 
1

>  <halogenbond:CYS:147>  (31) 
0

$$$$
Z4265264864-x1919-0AS4
     RDKit          3D

 37 37  0  0  0  0  0  0  0  0999 V2000
   -5.3540    0.2900   -1.8560 C   0  0  0  0  0  0  0  0  0  0  0  0
   -6.2480    0.1870   -0.6560 C   0  0  0  0  0  0  0  0  0  0  0  0
   -7.3340   -0.8820   -0.5640 C   0  0  0  0  0  0  0  0  0  0  0  0
   -6.7400   -2.1860   -0.6480 O   0  0  0  0  0  0  0  0  0  0  0  0
   -7.7610   -3.1180   -1.0250 C   0  0  0  0  0  0  0  0  0  0  0  0
   -7.1080   -4.4500   -1.4980 C   0  0  0  0  0  0  0  0  0  0  0  0
   -7.4200   -4.5310   -3.2440 S   0  0  0  0  0  6  0  0  0  0  0  0
   -6.2140   -4.0630   -3.8690 O   0  0  0  0  0  0  0  0  0  0  0  0
   -8.6840   -3.8900   -3.4810 O   0  0  0  0  0  0  0  0  0  0  0  0
   -7.7130   -6.1310   -3.6220 N   0  0  0  0  0  0  0  0  0  0  0  0
   -8.8320   -6.3280   -4.5930 C   0  0  0  0  0  0  0  0  0  0  0  0
   -8.4120   -5.7980   -5.9510 C   0  0  0  0  0  0  0  0  0  0  0  0
   -7.4160   -6.5780   -6.7970 C   0  0  0  0  0  0  0  0  0  0  0  0
   -7.0670   -6.0020   -8.0190 C   0  0  0  0  0  0  0  0  0  0  0  0
   -7.5940   -4.7960   -8.4420 C   0  0  0  0  0  0  0  0  0  0  0  0
   -7.1590   -4.3680   -9.6400 O   0  0  0  0  0  0  0  0  0  0  0  0
   -8.5070   -4.0970   -7.6770 C   0  0  0  0  0  0  0  0  0  0  0  0
   -8.9250   -4.5730   -6.4430 C   0  0  0  0  0  0  0  0  0  0  0  0
   -5.2540    1.3370   -2.1430 H   0  0  0  0  0  0  0  0  0  0  0  0
   -4.3780   -0.1010   -1.6010 H   0  0  0  0  0  0  0  0  0  0  0  0
   -5.7790   -0.2700   -2.6940 H   0  0  0  0  0  0  0  0  0  0  0  0
   -5.5930    0.0480    0.2160 H   0  0  0  0  0  0  0  0  0  0  0  0
   -6.7310    1.1610   -0.5350 H   0  0  0  0  0  0  0  0  0  0  0  0
   -8.1030   -0.7480   -1.3380 H   0  0  0  0  0  0  0  0  0  0  0  0
   -7.8350   -0.8200    0.4110 H   0  0  0  0  0  0  0  0  0  0  0  0
   -8.3300   -2.6870   -1.8550 H   0  0  0  0  0  0  0  0  0  0  0  0
   -8.4920   -3.3150   -0.2340 H   0  0  0  0  0  0  0  0  0  0  0  0
   -6.0250   -4.4730   -1.3350 H   0  0  0  0  0  0  0  0  0  0  0  0
   -7.5670   -5.2990   -0.9780 H   0  0  0  0  0  0  0  0  0  0  0  0
   -6.8830   -6.7120   -3.7400 H   0  0  0  0  0  0  0  0  0  0  0  0
   -9.7370   -5.8010   -4.2640 H   0  0  0  0  0  0  0  0  0  0  0  0
   -9.0830   -7.3900   -4.6960 H   0  0  0  0  0  0  0  0  0  0  0  0
   -7.0390   -7.5210   -6.3960 H   0  0  0  0  0  0  0  0  0  0  0  0
   -6.3560   -6.5130   -8.6640 H   0  0  0  0  0  0  0  0  0  0  0  0
   -6.8630   -5.1430  -10.1550 H   0  0  0  0  0  0  0  0  0  0  0  0
   -8.8570   -3.1570   -8.1210 H   0  0  0  0  0  0  0  0  0  0  0  0
   -9.6440   -3.9990   -5.8530 H   0  0  0  0  0  0  0  0  0  0  0  0
  1  2  1  0
  2  3  1  0
  3  4  1  0
  4  5  1  0
  5  6  1  0
  6  7  1  0
  7  8  2  0
  7  9  2  0
  7 10  1  0
 10 11  1  0
 11 12  1  0
 12 13  2  0
 13 14  1  0
 14 15  2  0
 15 16  1  0
 15 17  1  0
 17 18  2  0
 18 12  1  0
  1 19  1  0
  1 20  1  0
  1 21  1  0
  2 22  1  0
  2 23  1  0
  3 24  1  0
  3 25  1  0
  5 26  1  0
  5 27  1  0
  6 28  1  0
  6 29  1  0
 10 30  1  0
 11 31  1  0
 11 32  1  0
 13 33  1  0
 14 34  1  0
 16 35  1  0
 17 36  1  0
 18 37  1  0
A    1
 C1 
A    2
 C2 
A    3
 C3 
A    4
 O1 
A    5
 C4 
A    6
 C5 
A    7
 S1 
A    8
 O2 
A    9
 O3 
A   10
 N1 
A   11
 C6 
A   12
 C7 
A   13
 C8 
A   14
 C9 
A   15
 C10
A   16
 O4 
A   17
 C11
A   18
 C12
A   19
 H1 
A   20
 H2 
A   21
 H3 
A   22
 H4 
A   23
 H5 
A   24
 H6 
A   25
 H7 
A   26
 H8 
A   27
 H9 
A   28
 H10
A   29
 H11
A   30
 H12
A   31
 H13
A   32
 H14
A   33
 H15
A   34
 H16
A   35
 H17
A   36
 H18
A   37
 H19
M  END
>  <ref_pdb>  (32) 
x0147_0A

>  <ref_mols>  (32) 
x1919_0AS4,x1498_0A

>  <original SMILES>  (32) 
[H]Oc1c([H])c([H])c(C([H])([H])N([H])S(=O)(=O)C([H])([H])C([H])([H])OC([H])([H])C([H])([H])C([H])([H])[H])c([H])c1[H]

>  <index>  (32) 
1377

>  <∆∆G>  (32) 
-8.033335

>  <comRMSD>  (32) 
0.582446

>  <N_constrained_atoms>  (32) 
17.0

>  <N_unconstrained_atoms>  (32) 
1.0

>  <LE>  (32) 
0.446296

>  <percent_hybrid>  (32) 
42.0

>  <max_hit_Tanimoto>  (32) 
0.302013

>  <largest_ring>  (32) 
6

>  <N_interactions_kept>  (32) 
0.5

>  <N_interactions_lost>  (32) 
3.5

>  <interaction_uniqueness_metric>  (32) 
0.173124

>  <N_HA>  (32) 
18

>  <N_rotatable_bonds>  (32) 
10

>  <N_interactions>  (32) 
6

>  <N_PAINS>  (32) 
0

>  <UFF_Gibbs>  (32) 
77.950487

>  <strain_per_HA>  (32) 
4.330559

>  <ad_hoc_penalty>  (32) 
-12.850612

>  <cluster>  (32) 
955

>  <ranked>  (32) 
1154.0

>  <merger_rank>  (32) 
1

>  <hydroph_interaction:LEU:127>  (32) 
1

>  <hbond:GLY:128>  (32) 
1

>  <hydroph_interaction:ALA:144>  (32) 
0

>  <hbond:GLY:164>  (32) 
1

>  <hbond:HIS:40>  (32) 
0

>  <pistack:HIS:40>  (32) 
0

>  <hydroph_interaction:LEU:125>  (32) 
1

>  <hydroph_interaction:PHE:170>  (32) 
1

>  <hydroph_interaction:HIS:40>  (32) 
0

>  <pication:HIS:40>  (32) 
0

>  <hbond:THR:142>  (32) 
0

>  <hbond:HIS:161>  (32) 
1

>  <hbond:GLY:166>  (32) 
0

>  <hbond:VAL:162>  (32) 
0

>  <hydroph_interaction:ASN:165>  (32) 
0

>  <saltbridge:HIS:161>  (32) 
0

>  <hbond:GLY:145>  (32) 
0

>  <hbond:CYS:147>  (32) 
0

>  <saltbridge:HIS:40>  (32) 
0

>  <hbond:LEU:127>  (32) 
0

>  <hbond:THR:130>  (32) 
0

>  <halogenbond:THR:142>  (32) 
0

>  <halogenbond:CYS:147>  (32) 
0

$$$$
Z2927107022-x2149-0AS3
     RDKit          3D

 30 30  0  0  0  0  0  0  0  0999 V2000
   -6.2980   -4.4820   -1.2560 C   0  0  0  0  0  0  0  0  0  0  0  0
   -7.6400   -5.0440   -1.5960 C   0  0  0  0  0  0  0  0  0  0  0  0
   -7.4070   -6.1260   -2.9670 S   0  0  0  0  0  6  0  0  0  0  0  0
   -8.5100   -7.0350   -3.1030 O   0  0  0  0  0  0  0  0  0  0  0  0
   -5.8860   -7.0060   -2.6390 C   0  0  0  0  0  0  0  0  0  0  0  0
   -5.7630   -8.3810   -3.2870 C   0  0  0  0  0  0  0  0  0  0  0  0
   -7.1840   -5.3380   -4.3820 N   0  0  0  0  0  0  0  0  0  0  0  0
   -6.8470   -6.3130   -5.3220 C   0  0  0  0  0  0  0  0  0  0  0  0
   -5.9190   -7.0780   -5.1120 O   0  0  0  0  0  0  0  0  0  0  0  0
   -7.6230   -6.4400   -6.5650 C   0  0  1  0  0  0  0  0  0  0  0  0
   -8.6740   -5.5220   -6.6930 C   0  0  0  0  0  0  0  0  0  0  0  0
   -8.3360   -4.5420   -7.5780 C   0  0  0  0  0  0  0  0  0  0  0  0
   -7.2110   -4.9810   -8.2670 C   0  0  0  0  0  0  0  0  0  0  0  0
   -6.6340   -4.4100   -9.1800 O   0  0  0  0  0  0  0  0  0  0  0  0
   -6.8400   -6.1860   -7.7410 O   0  0  0  0  0  0  0  0  0  0  0  0
   -5.6390   -4.6130   -2.1120 H   0  0  0  0  0  0  0  0  0  0  0  0
   -6.3880   -3.4200   -1.0410 H   0  0  0  0  0  0  0  0  0  0  0  0
   -5.8830   -5.0320   -0.4160 H   0  0  0  0  0  0  0  0  0  0  0  0
   -8.3410   -4.2440   -1.8650 H   0  0  0  0  0  0  0  0  0  0  0  0
   -8.0520   -5.6130   -0.7560 H   0  0  0  0  0  0  0  0  0  0  0  0
   -5.7860   -7.0950   -1.5500 H   0  0  0  0  0  0  0  0  0  0  0  0
   -5.0640   -6.3610   -2.9760 H   0  0  0  0  0  0  0  0  0  0  0  0
   -6.6670   -8.6580   -3.8390 H   0  0  0  0  0  0  0  0  0  0  0  0
   -4.9190   -8.4190   -3.9870 H   0  0  0  0  0  0  0  0  0  0  0  0
   -5.5900   -9.1290   -2.5020 H   0  0  0  0  0  0  0  0  0  0  0  0
   -7.9810   -7.4750   -6.6200 H   0  0  0  0  0  0  0  0  0  0  0  0
   -8.8910   -5.0560   -5.7250 H   0  0  0  0  0  0  0  0  0  0  0  0
   -9.5980   -6.0210   -6.9920 H   0  0  0  0  0  0  0  0  0  0  0  0
   -9.0190   -4.2060   -8.3470 H   0  0  0  0  0  0  0  0  0  0  0  0
   -8.0580   -3.6570   -7.0030 H   0  0  0  0  0  0  0  0  0  0  0  0
  1  2  1  0
  2  3  1  0
  3  4  2  0
  3  5  1  0
  5  6  1  0
  3  7  2  0
  7  8  1  0
  8  9  2  0
  8 10  1  0
 10 11  1  0
 11 12  1  0
 12 13  1  0
 13 14  2  0
 13 15  1  0
 15 10  1  0
  1 16  1  0
  1 17  1  0
  1 18  1  0
  2 19  1  0
  2 20  1  0
  5 21  1  0
  5 22  1  0
  6 23  1  0
  6 24  1  0
  6 25  1  0
 10 26  1  6
 11 27  1  0
 11 28  1  0
 12 29  1  0
 12 30  1  0
A    1
 C1 
A    2
 C2 
A    3
 S1 
A    4
 O1 
A    5
 C3 
A    6
 C4 
A    7
 N1 
A    8
 C5 
A    9
 O2 
A   10
 C6 
A   11
 C7 
A   12
 C8 
A   13
 C9 
A   14
 O3 
A   15
 O4 
A   16
 H1 
A   17
 H2 
A   18
 H3 
A   19
 H4 
A   20
 H5 
A   21
 H6 
A   22
 H7 
A   23
 H8 
A   24
 H9 
A   25
 H10
A   26
 H11
A   27
 H12
A   28
 H13
A   29
 H14
A   30
 H15
M  END
>  <ref_pdb>  (33) 
x0147_0A

>  <ref_mols>  (33) 
x2149_0AS3,x1140_0AS3

>  <original SMILES>  (33) 
[H]C([H])([H])C([H])([H])S(=O)(=NC(=O)[C@]1([H])OC(=O)C([H])([H])C1([H])[H])C([H])([H])C([H])([H])[H]

>  <index>  (33) 
17500

>  <∆∆G>  (33) 
-5.748808

>  <comRMSD>  (33) 
0.776162

>  <N_constrained_atoms>  (33) 
13.0

>  <N_unconstrained_atoms>  (33) 
2.0

>  <LE>  (33) 
0.383254

>  <percent_hybrid>  (33) 
47.0

>  <max_hit_Tanimoto>  (33) 
0.074534

>  <largest_ring>  (33) 
5

>  <N_interactions_kept>  (33) 
1.0

>  <N_interactions_lost>  (33) 
1.5

>  <interaction_uniqueness_metric>  (33) 
0.083566

>  <N_HA>  (33) 
15

>  <N_rotatable_bonds>  (33) 
5

>  <N_interactions>  (33) 
3

>  <N_PAINS>  (33) 
0

>  <UFF_Gibbs>  (33) 
130.273158

>  <strain_per_HA>  (33) 
8.684819

>  <ad_hoc_penalty>  (33) 
-12.805084

>  <cluster>  (33) 
1651

>  <ranked>  (33) 
1160.0

>  <merger_rank>  (33) 
3

>  <hydroph_interaction:LEU:127>  (33) 
1

>  <hbond:GLY:128>  (33) 
0

>  <hydroph_interaction:ALA:144>  (33) 
0

>  <hbond:GLY:164>  (33) 
1

>  <hbond:HIS:40>  (33) 
0

>  <pistack:HIS:40>  (33) 
0

>  <hydroph_interaction:LEU:125>  (33) 
0

>  <hydroph_interaction:PHE:170>  (33) 
0

>  <hydroph_interaction:HIS:40>  (33) 
0

>  <pication:HIS:40>  (33) 
0

>  <hbond:THR:142>  (33) 
0

>  <hbond:HIS:161>  (33) 
0

>  <hbond:GLY:166>  (33) 
0

>  <hbond:VAL:162>  (33) 
0

>  <hydroph_interaction:ASN:165>  (33) 
0

>  <saltbridge:HIS:161>  (33) 
1

>  <hbond:GLY:145>  (33) 
0

>  <hbond:CYS:147>  (33) 
0

>  <saltbridge:HIS:40>  (33) 
0

>  <hbond:LEU:127>  (33) 
0

>  <hbond:THR:130>  (33) 
0

>  <halogenbond:THR:142>  (33) 
0

>  <halogenbond:CYS:147>  (33) 
0

$$$$
Z2697772121-x2099-0A
     RDKit          3D

 41 42  0  0  0  0  0  0  0  0999 V2000
   -9.7270   -5.1290   -6.3210 C   0  0  0  0  0  0  0  0  0  0  0  0
   -9.3640   -3.7000   -6.5660 C   0  0  0  0  0  0  0  0  0  0  0  0
   -8.7520   -3.5490   -7.8730 N   0  0  0  0  0  0  0  0  0  0  0  0
   -7.6470   -4.3150   -8.1960 C   0  0  0  0  0  0  0  0  0  0  0  0
   -6.7820   -4.0730   -9.3050 O   0  0  0  0  0  0  0  0  0  0  0  0
   -7.3050   -5.4000   -7.3870 C   0  0  0  0  0  0  0  0  0  0  0  0
   -6.8480   -6.6530   -8.0440 C   0  0  0  0  0  0  0  0  0  0  0  0
   -6.4870   -7.7510   -7.3050 C   0  0  0  0  0  0  0  0  0  0  0  0
   -6.5460   -7.6300   -5.9130 C   0  0  0  0  0  0  0  0  0  0  0  0
   -6.9490   -6.4960   -5.2430 C   0  0  0  0  0  0  0  0  0  0  0  0
   -6.9350   -6.4840   -3.8000 N   0  0  0  0  0  0  0  0  0  0  0  0
   -7.1980   -5.1110   -3.1870 S   0  0  0  0  0  6  0  0  0  0  0  0
   -8.9540   -4.9550   -3.3590 C   0  0  0  0  0  0  0  0  0  0  0  0
   -6.9790   -5.2480   -1.4270 C   0  0  0  0  0  0  0  0  0  0  0  0
   -6.6100   -3.8490   -3.6240 O   0  0  0  0  0  0  0  0  0  0  0  0
   -7.3520   -5.3580   -5.9750 C   0  0  0  0  0  0  0  0  0  0  0  0
  -10.5640   -2.8150   -6.3610 C   0  0  0  0  0  0  0  0  0  0  0  0
  -11.5980   -2.5260   -7.4100 C   0  0  0  0  0  0  0  0  0  0  0  0
  -12.6710   -1.6960   -7.0890 C   0  0  0  0  0  0  0  0  0  0  0  0
  -12.7420   -1.1610   -5.7980 C   0  0  0  0  0  0  0  0  0  0  0  0
  -11.8250   -1.4010   -4.8290 N   0  0  0  0  0  0  0  0  0  0  0  0
  -10.7730   -2.2070   -5.1280 C   0  0  0  0  0  0  0  0  0  0  0  0
   -9.5450   -5.7290   -7.2200 H   0  0  0  0  0  0  0  0  0  0  0  0
  -10.7830   -5.2100   -6.0420 H   0  0  0  0  0  0  0  0  0  0  0  0
   -9.1470   -5.5670   -5.5010 H   0  0  0  0  0  0  0  0  0  0  0  0
   -8.6030   -3.4240   -5.8260 H   0  0  0  0  0  0  0  0  0  0  0  0
   -9.3030   -3.1280   -8.6170 H   0  0  0  0  0  0  0  0  0  0  0  0
   -6.8330   -6.6210   -9.1380 H   0  0  0  0  0  0  0  0  0  0  0  0
   -6.1760   -8.6530   -7.7820 H   0  0  0  0  0  0  0  0  0  0  0  0
   -6.2710   -8.4390   -5.2260 H   0  0  0  0  0  0  0  0  0  0  0  0
   -9.3630   -5.8980   -3.7210 H   0  0  0  0  0  0  0  0  0  0  0  0
   -9.1690   -4.1480   -4.0620 H   0  0  0  0  0  0  0  0  0  0  0  0
   -9.3770   -4.7070   -2.3850 H   0  0  0  0  0  0  0  0  0  0  0  0
   -7.0950   -4.2640   -0.9690 H   0  0  0  0  0  0  0  0  0  0  0  0
   -5.9780   -5.6400   -1.2360 H   0  0  0  0  0  0  0  0  0  0  0  0
   -7.7300   -5.9410   -1.0380 H   0  0  0  0  0  0  0  0  0  0  0  0
   -7.6750   -4.4630   -5.4510 H   0  0  0  0  0  0  0  0  0  0  0  0
  -11.5230   -2.9540   -8.4060 H   0  0  0  0  0  0  0  0  0  0  0  0
  -13.4410   -1.4670   -7.8220 H   0  0  0  0  0  0  0  0  0  0  0  0
  -13.5610   -0.5090   -5.5060 H   0  0  0  0  0  0  0  0  0  0  0  0
  -10.0770   -2.3510   -4.3040 H   0  0  0  0  0  0  0  0  0  0  0  0
  1  2  1  0
  2  3  1  0
  3  4  1  0
  4  5  2  0
  4  6  1  0
  6  7  2  0
  7  8  1  0
  8  9  2  0
  9 10  1  0
 10 11  1  0
 11 12  2  0
 12 13  1  0
 12 14  1  0
 12 15  2  0
 10 16  2  0
  2 17  1  0
 17 18  2  0
 18 19  1  0
 19 20  2  0
 20 21  1  0
 21 22  2  0
 16  6  1  0
 22 17  1  0
  1 23  1  0
  1 24  1  0
  1 25  1  0
  2 26  1  0
  3 27  1  0
  7 28  1  0
  8 29  1  0
  9 30  1  0
 13 31  1  0
 13 32  1  0
 13 33  1  0
 14 34  1  0
 14 35  1  0
 14 36  1  0
 16 37  1  0
 18 38  1  0
 19 39  1  0
 20 40  1  0
 22 41  1  0
A    1
 C1 
A    2
 C2 
A    3
 N1 
A    4
 C3 
A    5
 O1 
A    6
 C4 
A    7
 C5 
A    8
 C6 
A    9
 C7 
A   10
 C8 
A   11
 N2 
A   12
 S1 
A   13
 C9 
A   14
 C10
A   15
 O2 
A   16
 C11
A   17
 C12
A   18
 C13
A   19
 C14
A   20
 C15
A   21
 N3 
A   22
 C16
A   23
 H1 
A   24
 H2 
A   25
 H3 
A   26
 H4 
A   27
 H5 
A   28
 H6 
A   29
 H7 
A   30
 H8 
A   31
 H9 
A   32
 H10
A   33
 H11
A   34
 H12
A   35
 H13
A   36
 H14
A   37
 H15
A   38
 H16
A   39
 H17
A   40
 H18
A   41
 H19
M  END
>  <ref_pdb>  (34) 
x0147_0A

>  <ref_mols>  (34) 
x2099_0A,x1140_0AS3

>  <original SMILES>  (34) 
[H]c1nc([H])c(C([H])(N([H])C(=O)c2c([H])c([H])c([H])c(N=S(=O)(C([H])([H])[H])C([H])([H])[H])c2[H])C([H])([H])[H])c([H])c1[H]

>  <index>  (34) 
367

>  <∆∆G>  (34) 
-8.781396

>  <comRMSD>  (34) 
0.810219

>  <N_constrained_atoms>  (34) 
24.0

>  <N_unconstrained_atoms>  (34) 
0.0

>  <LE>  (34) 
0.365891

>  <percent_hybrid>  (34) 
30.0

>  <max_hit_Tanimoto>  (34) 
0.193217

>  <largest_ring>  (34) 
6

>  <N_interactions_kept>  (34) 
1.5

>  <N_interactions_lost>  (34) 
2.0

>  <interaction_uniqueness_metric>  (34) 
0.053826

>  <N_HA>  (34) 
22

>  <N_rotatable_bonds>  (34) 
7

>  <N_interactions>  (34) 
3

>  <N_PAINS>  (34) 
0

>  <UFF_Gibbs>  (34) 
436.217162

>  <strain_per_HA>  (34) 
19.827963

>  <ad_hoc_penalty>  (34) 
-11.348756

>  <cluster>  (34) 
980

>  <ranked>  (34) 
1390.0

>  <merger_rank>  (34) 
2

>  <hydroph_interaction:LEU:127>  (34) 
0

>  <hbond:GLY:128>  (34) 
0

>  <hydroph_interaction:ALA:144>  (34) 
0

>  <hbond:GLY:164>  (34) 
2

>  <hbond:HIS:40>  (34) 
0

>  <pistack:HIS:40>  (34) 
0

>  <hydroph_interaction:LEU:125>  (34) 
0

>  <hydroph_interaction:PHE:170>  (34) 
0

>  <hydroph_interaction:HIS:40>  (34) 
0

>  <pication:HIS:40>  (34) 
0

>  <hbond:THR:142>  (34) 
1

>  <hbond:HIS:161>  (34) 
0

>  <hbond:GLY:166>  (34) 
0

>  <hbond:VAL:162>  (34) 
0

>  <hydroph_interaction:ASN:165>  (34) 
0

>  <saltbridge:HIS:161>  (34) 
0

>  <hbond:GLY:145>  (34) 
0

>  <hbond:CYS:147>  (34) 
0

>  <saltbridge:HIS:40>  (34) 
0

>  <hbond:LEU:127>  (34) 
0

>  <hbond:THR:130>  (34) 
0

>  <halogenbond:THR:142>  (34) 
0

>  <halogenbond:CYS:147>  (34) 
0

$$$$
Z1696085700-x0771-1A
     RDKit          3D

 38 40  0  0  0  0  0  0  0  0999 V2000
   -7.1080   -5.4380   -1.6010 O   0  0  0  0  0  0  0  0  0  0  0  0
   -6.7810   -5.2570   -2.9730 S   0  0  0  0  0  6  0  0  0  0  0  0
   -6.5570   -3.9500   -3.5980 O   0  0  0  0  0  0  0  0  0  0  0  0
   -5.5210   -6.4220   -3.4810 C   0  0  0  0  0  0  0  0  0  0  0  0
   -5.8410   -7.8510   -3.0780 C   0  0  0  0  0  0  0  0  0  0  0  0
   -5.2440   -8.1050   -1.7290 C   0  0  0  0  0  0  0  0  0  0  0  0
   -5.8800   -8.9300   -0.8060 C   0  0  0  0  0  0  0  0  0  0  0  0
   -5.3050   -9.1450    0.4430 C   0  0  0  0  0  0  0  0  0  0  0  0
   -4.1030   -8.5400    0.7710 C   0  0  0  0  0  0  0  0  0  0  0  0
   -3.4700   -7.7210   -0.1470 C   0  0  0  0  0  0  0  0  0  0  0  0
   -4.0360   -7.5050   -1.3920 C   0  0  0  0  0  0  0  0  0  0  0  0
   -8.0840   -5.9420   -3.6830 N   0  0  0  0  0  0  0  0  0  0  0  0
   -7.7980   -6.2670   -5.0540 C   0  0  0  0  0  0  0  0  0  0  0  0
   -7.8790   -5.1810   -5.8960 C   0  0  0  0  0  0  0  0  0  0  0  0
   -7.6070   -5.3130   -7.3640 C   0  0  0  0  0  0  0  0  0  0  0  0
   -7.7080   -3.9830   -8.4260 Cl  0  0  0  0  0  0  0  0  0  0  0  0
   -7.2770   -6.5710   -7.8100 C   0  0  0  0  0  0  0  0  0  0  0  0
   -7.2240   -7.6660   -6.9260 C   0  0  0  0  0  0  0  0  0  0  0  0
   -7.4660   -7.5260   -5.5810 C   0  0  0  0  0  0  0  0  0  0  0  0
   -7.3250   -8.7380   -4.9500 O   0  0  0  0  0  0  0  0  0  0  0  0
   -6.4080   -9.3790   -5.8880 C   0  0  0  0  0  0  0  0  0  0  0  0
   -6.9590   -9.1010   -7.1430 C   0  0  0  0  0  0  0  0  0  0  0  0
   -5.4210   -6.3810   -4.5630 H   0  0  0  0  0  0  0  0  0  0  0  0
   -4.5680   -6.0970   -3.0570 H   0  0  0  0  0  0  0  0  0  0  0  0
   -6.8820   -8.1510   -3.1580 H   0  0  0  0  0  0  0  0  0  0  0  0
   -5.3170   -8.4770   -3.8100 H   0  0  0  0  0  0  0  0  0  0  0  0
   -6.8240   -9.3940   -1.0810 H   0  0  0  0  0  0  0  0  0  0  0  0
   -5.8010   -9.7890    1.1670 H   0  0  0  0  0  0  0  0  0  0  0  0
   -3.6560   -8.7070    1.7490 H   0  0  0  0  0  0  0  0  0  0  0  0
   -2.5250   -7.2450    0.1070 H   0  0  0  0  0  0  0  0  0  0  0  0
   -3.5280   -6.8610   -2.1010 H   0  0  0  0  0  0  0  0  0  0  0  0
   -8.3230   -6.7690   -3.1400 H   0  0  0  0  0  0  0  0  0  0  0  0
   -8.1450   -4.1990   -5.4900 H   0  0  0  0  0  0  0  0  0  0  0  0
   -7.0510   -6.8180   -8.8530 H   0  0  0  0  0  0  0  0  0  0  0  0
   -6.4010  -10.4560   -5.6970 H   0  0  0  0  0  0  0  0  0  0  0  0
   -5.4080   -9.0100   -5.6630 H   0  0  0  0  0  0  0  0  0  0  0  0
   -6.4790   -9.2800   -8.0770 H   0  0  0  0  0  0  0  0  0  0  0  0
   -7.9190   -9.6190   -7.1860 H   0  0  0  0  0  0  0  0  0  0  0  0
  1  2  2  0
  2  3  2  0
  2  4  1  0
  4  5  1  0
  5  6  1  0
  6  7  2  0
  7  8  1  0
  8  9  2  0
  9 10  1  0
 10 11  2  0
  2 12  1  0
 12 13  1  0
 13 14  2  0
 14 15  1  0
 15 16  1  0
 15 17  2  0
 17 18  1  0
 18 19  2  0
 19 20  1  0
 20 21  1  0
 21 22  1  0
 11  6  1  0
 19 13  1  0
 22 18  1  0
  4 23  1  0
  4 24  1  0
  5 25  1  0
  5 26  1  0
  7 27  1  0
  8 28  1  0
  9 29  1  0
 10 30  1  0
 11 31  1  0
 12 32  1  0
 14 33  1  0
 17 34  1  0
 21 35  1  0
 21 36  1  0
 22 37  1  0
 22 38  1  0
A    1
 O1 
A    2
 S1 
A    3
 O2 
A    4
 C1 
A    5
 C2 
A    6
 C3 
A    7
 C4 
A    8
 C5 
A    9
 C6 
A   10
 C7 
A   11
 C8 
A   12
 N1 
A   13
 C9 
A   14
 C10
A   15
 C11
A   16
CL1 
A   17
 C12
A   18
 C13
A   19
 C14
A   20
 O3 
A   21
 C15
A   22
 C16
A   23
 H1 
A   24
 H2 
A   25
 H3 
A   26
 H4 
A   27
 H5 
A   28
 H6 
A   29
 H7 
A   30
 H8 
A   31
 H9 
A   32
 H10
A   33
 H11
A   34
 H12
A   35
 H13
A   36
 H14
A   37
 H15
A   38
 H16
M  END
>  <ref_pdb>  (35) 
x0147_0A

>  <ref_mols>  (35) 
x0771_1A,x1140_0AS5

>  <original SMILES>  (35) 
[H]c1c([H])c([H])c(C([H])([H])C([H])([H])S(=O)(=O)N([H])c2c([H])c(Cl)c([H])c3c2OC([H])([H])C3([H])[H])c([H])c1[H]

>  <index>  (35) 
5799

>  <∆∆G>  (35) 
-5.077088

>  <comRMSD>  (35) 
0.820081

>  <N_constrained_atoms>  (35) 
22.0

>  <N_unconstrained_atoms>  (35) 
0.0

>  <LE>  (35) 
0.230777

>  <percent_hybrid>  (35) 
46.0

>  <max_hit_Tanimoto>  (35) 
0.206398

>  <largest_ring>  (35) 
6

>  <N_interactions_kept>  (35) 
2.0

>  <N_interactions_lost>  (35) 
3.5

>  <interaction_uniqueness_metric>  (35) 
0.168464

>  <N_HA>  (35) 
22

>  <N_rotatable_bonds>  (35) 
5

>  <N_interactions>  (35) 
6

>  <N_PAINS>  (35) 
0

>  <UFF_Gibbs>  (35) 
194.427484

>  <strain_per_HA>  (35) 
8.837573

>  <ad_hoc_penalty>  (35) 
-11.123546

>  <cluster>  (35) 
5979

>  <ranked>  (35) 
1428.0

>  <merger_rank>  (35) 
1

>  <hydroph_interaction:LEU:127>  (35) 
1

>  <hbond:GLY:128>  (35) 
0

>  <hydroph_interaction:ALA:144>  (35) 
1

>  <hbond:GLY:164>  (35) 
1

>  <hbond:HIS:40>  (35) 
0

>  <pistack:HIS:40>  (35) 
1

>  <hydroph_interaction:LEU:125>  (35) 
0

>  <hydroph_interaction:PHE:170>  (35) 
0

>  <hydroph_interaction:HIS:40>  (35) 
1

>  <pication:HIS:40>  (35) 
0

>  <hbond:THR:142>  (35) 
0

>  <hbond:HIS:161>  (35) 
0

>  <hbond:GLY:166>  (35) 
0

>  <hbond:VAL:162>  (35) 
0

>  <hydroph_interaction:ASN:165>  (35) 
0

>  <saltbridge:HIS:161>  (35) 
0

>  <hbond:GLY:145>  (35) 
0

>  <hbond:CYS:147>  (35) 
0

>  <saltbridge:HIS:40>  (35) 
0

>  <hbond:LEU:127>  (35) 
0

>  <hbond:THR:130>  (35) 
0

>  <halogenbond:THR:142>  (35) 
1

>  <halogenbond:CYS:147>  (35) 
0

$$$$
Z3584333418-x2099-0A
     RDKit          3D

 43 45  0  0  0  0  0  0  0  0999 V2000
   -9.7590   -4.9600   -6.6930 C   0  0  0  0  0  0  0  0  0  0  0  0
   -9.4610   -3.5370   -6.8050 N   0  0  0  0  0  0  0  0  0  0  0  0
   -8.6860   -3.1790   -7.9580 N   0  0  0  0  0  0  0  0  0  0  0  0
   -7.6210   -4.0420   -8.1960 C   0  0  0  0  0  0  0  0  0  0  0  0
   -6.7760   -4.0460   -9.0980 O   0  0  0  0  0  0  0  0  0  0  0  0
   -7.4430   -5.1960   -7.2380 C   0  0  0  0  0  0  0  0  0  0  0  0
   -7.2930   -6.4660   -7.9790 C   0  0  0  0  0  0  0  0  0  0  0  0
   -7.1510   -7.6690   -7.1130 C   0  0  0  0  0  0  0  0  0  0  0  0
   -7.1130   -7.6010   -5.6380 C   0  0  0  0  0  0  0  0  0  0  0  0
   -7.2360   -6.3540   -5.1100 C   0  0  0  0  0  0  0  0  0  0  0  0
   -7.1630   -6.3140   -3.6930 N   0  0  0  0  0  0  0  0  0  0  0  0
   -7.1160   -4.8280   -3.0760 S   0  0  0  0  0  6  0  0  0  0  0  0
   -6.3780   -3.6810   -3.5600 O   0  0  0  0  0  0  0  0  0  0  0  0
   -8.8180   -4.3440   -2.9690 C   0  0  0  0  0  0  0  0  0  0  0  0
   -9.0560   -4.6130   -1.6210 C   0  0  0  0  0  0  0  0  0  0  0  0
   -7.9930   -4.3930   -0.7440 C   0  0  0  0  0  0  0  0  0  0  0  0
   -6.8930   -5.0400   -1.3330 C   0  0  0  0  0  0  0  0  0  0  0  0
   -7.4130   -5.1630   -5.8430 C   0  0  0  0  0  0  0  0  0  0  0  0
  -10.5630   -2.7120   -6.4660 C   0  0  0  0  0  0  0  0  0  0  0  0
  -11.6900   -2.3660   -7.4540 C   0  0  0  0  0  0  0  0  0  0  0  0
  -12.7520   -1.5840   -7.1080 N   0  0  0  0  0  0  0  0  0  0  0  0
  -12.7140   -1.1490   -5.8340 C   0  0  0  0  0  0  0  0  0  0  0  0
  -11.7190   -1.4440   -4.9330 C   0  0  0  0  0  0  0  0  0  0  0  0
  -10.6390   -2.2120   -5.1960 N   0  0  0  0  0  0  0  0  0  0  0  0
  -10.8360   -5.1200   -6.7950 H   0  0  0  0  0  0  0  0  0  0  0  0
   -9.4690   -5.3500   -5.7140 H   0  0  0  0  0  0  0  0  0  0  0  0
   -9.2480   -5.5300   -7.4730 H   0  0  0  0  0  0  0  0  0  0  0  0
   -9.2210   -2.7640   -8.7390 H   0  0  0  0  0  0  0  0  0  0  0  0
   -7.2990   -6.5400   -9.0590 H   0  0  0  0  0  0  0  0  0  0  0  0
   -7.0670   -8.6400   -7.5860 H   0  0  0  0  0  0  0  0  0  0  0  0
   -6.9930   -8.4850   -5.0180 H   0  0  0  0  0  0  0  0  0  0  0  0
   -8.9350   -3.2900   -3.2330 H   0  0  0  0  0  0  0  0  0  0  0  0
   -9.4180   -4.9810   -3.6230 H   0  0  0  0  0  0  0  0  0  0  0  0
   -9.3420   -5.6690   -1.5340 H   0  0  0  0  0  0  0  0  0  0  0  0
   -9.9260   -4.0390   -1.2910 H   0  0  0  0  0  0  0  0  0  0  0  0
   -8.2380   -4.9540    0.1640 H   0  0  0  0  0  0  0  0  0  0  0  0
   -7.8400   -3.3730   -0.4160 H   0  0  0  0  0  0  0  0  0  0  0  0
   -6.8430   -6.0990   -1.0710 H   0  0  0  0  0  0  0  0  0  0  0  0
   -5.9500   -4.5570   -1.0580 H   0  0  0  0  0  0  0  0  0  0  0  0
   -7.5180   -4.2180   -5.3210 H   0  0  0  0  0  0  0  0  0  0  0  0
  -11.6950   -2.7300   -8.4740 H   0  0  0  0  0  0  0  0  0  0  0  0
  -13.5110   -0.5100   -5.4340 H   0  0  0  0  0  0  0  0  0  0  0  0
  -11.8560   -1.0020   -3.9400 H   0  0  0  0  0  0  0  0  0  0  0  0
  1  2  1  0
  2  3  1  0
  3  4  1  0
  4  5  2  0
  4  6  1  0
  6  7  2  0
  7  8  1  0
  8  9  2  0
  9 10  1  0
 10 11  1  0
 11 12  2  0
 12 13  2  0
 12 14  1  0
 14 15  1  0
 15 16  1  0
 16 17  1  0
 10 18  2  0
  2 19  1  0
 19 20  2  0
 20 21  1  0
 21 22  2  0
 22 23  1  0
 23 24  2  0
 18  6  1  0
 17 12  1  0
 24 19  1  0
  1 25  1  0
  1 26  1  0
  1 27  1  0
  3 28  1  0
  7 29  1  0
  8 30  1  0
  9 31  1  0
 14 32  1  0
 14 33  1  0
 15 34  1  0
 15 35  1  0
 16 36  1  0
 16 37  1  0
 17 38  1  0
 17 39  1  0
 18 40  1  0
 20 41  1  0
 22 42  1  0
 23 43  1  0
A    1
 C1 
A    2
 N1 
A    3
 N2 
A    4
 C2 
A    5
 O1 
A    6
 C3 
A    7
 C4 
A    8
 C5 
A    9
 C6 
A   10
 C7 
A   11
 N3 
A   12
 S1 
A   13
 O2 
A   14
 C8 
A   15
 C9 
A   16
 C10
A   17
 C11
A   18
 C12
A   19
 C13
A   20
 C14
A   21
 N4 
A   22
 C15
A   23
 C16
A   24
 N5 
A   25
 H1 
A   26
 H2 
A   27
 H3 
A   28
 H4 
A   29
 H5 
A   30
 H6 
A   31
 H7 
A   32
 H8 
A   33
 H9 
A   34
 H10
A   35
 H11
A   36
 H12
A   37
 H13
A   38
 H14
A   39
 H15
A   40
 H16
A   41
 H17
A   42
 H18
A   43
 H19
M  END
>  <ref_pdb>  (36) 
x0147_0A

>  <ref_mols>  (36) 
x2099_0A,x1140_0AS3

>  <original SMILES>  (36) 
[H]c1nc([H])c(N(N([H])C(=O)c2c([H])c([H])c([H])c(N=S3(=O)C([H])([H])C([H])([H])C([H])([H])C3([H])[H])c2[H])C([H])([H])[H])nc1[H]

>  <index>  (36) 
406

>  <∆∆G>  (36) 
-4.987396

>  <comRMSD>  (36) 
0.895347

>  <N_constrained_atoms>  (36) 
24.0

>  <N_unconstrained_atoms>  (36) 
2.0

>  <LE>  (36) 
0.191823

>  <percent_hybrid>  (36) 
30.0

>  <max_hit_Tanimoto>  (36) 
0.19615

>  <largest_ring>  (36) 
6

>  <N_interactions_kept>  (36) 
1.5

>  <N_interactions_lost>  (36) 
2.0

>  <interaction_uniqueness_metric>  (36) 
0.077495

>  <N_HA>  (36) 
24

>  <N_rotatable_bonds>  (36) 
5

>  <N_interactions>  (36) 
4

>  <N_PAINS>  (36) 
0

>  <UFF_Gibbs>  (36) 
297.671793

>  <strain_per_HA>  (36) 
12.40294

>  <ad_hoc_penalty>  (36) 
-10.780094

>  <cluster>  (36) 
7269

>  <ranked>  (36) 
1497.0

>  <merger_rank>  (36) 
3

>  <hydroph_interaction:LEU:127>  (36) 
0

>  <hbond:GLY:128>  (36) 
0

>  <hydroph_interaction:ALA:144>  (36) 
1

>  <hbond:GLY:164>  (36) 
2

>  <hbond:HIS:40>  (36) 
0

>  <pistack:HIS:40>  (36) 
0

>  <hydroph_interaction:LEU:125>  (36) 
0

>  <hydroph_interaction:PHE:170>  (36) 
0

>  <hydroph_interaction:HIS:40>  (36) 
0

>  <pication:HIS:40>  (36) 
0

>  <hbond:THR:142>  (36) 
1

>  <hbond:HIS:161>  (36) 
0

>  <hbond:GLY:166>  (36) 
0

>  <hbond:VAL:162>  (36) 
0

>  <hydroph_interaction:ASN:165>  (36) 
0

>  <saltbridge:HIS:161>  (36) 
0

>  <hbond:GLY:145>  (36) 
0

>  <hbond:CYS:147>  (36) 
0

>  <saltbridge:HIS:40>  (36) 
0

>  <hbond:LEU:127>  (36) 
0

>  <hbond:THR:130>  (36) 
0

>  <halogenbond:THR:142>  (36) 
0

>  <halogenbond:CYS:147>  (36) 
0

$$$$
Z1183931965-x0771-1AS1
     RDKit          3D

 47 48  0  0  0  0  0  0  0  0999 V2000
   -6.1330    1.3530   -1.4400 C   0  0  0  0  0  0  0  0  0  0  0  0
   -7.2520    0.4780   -1.5440 O   0  0  0  0  0  0  0  0  0  0  0  0
   -6.9790   -0.7810   -0.9410 C   0  0  0  0  0  0  0  0  0  0  0  0
   -5.9210   -1.0270   -0.4090 O   0  0  0  0  0  0  0  0  0  0  0  0
   -8.1530   -1.7560   -1.0150 C   0  0  0  0  0  0  0  0  0  0  0  0
   -7.8810   -3.0360   -1.7550 N   0  0  0  0  0  0  0  0  0  0  0  0
   -8.3280   -3.0720   -3.0320 C   0  0  0  0  0  0  0  0  0  0  0  0
   -9.0580   -4.1390   -3.5200 C   0  0  0  0  0  0  0  0  0  0  0  0
   -9.7150   -4.9450   -2.5380 O   0  0  0  0  0  0  0  0  0  0  0  0
   -9.0000   -4.1890   -4.9130 N   0  0  0  0  0  0  0  0  0  0  0  0
   -8.4130   -5.2950   -5.6570 C   0  0  0  0  0  0  0  0  0  0  0  0
   -8.2900   -6.5670   -4.8230 C   0  0  0  0  0  0  0  0  0  0  0  0
   -7.7740   -7.7130   -5.3930 C   0  0  0  0  0  0  0  0  0  0  0  0
   -7.3740   -7.5720   -6.8190 C   0  0  0  0  0  0  0  0  0  0  0  0
   -7.4680   -6.4190   -7.5680 C   0  0  0  0  0  0  0  0  0  0  0  0
   -7.9860   -5.2630   -7.0180 C   0  0  0  0  0  0  0  0  0  0  0  0
   -8.0770   -4.0350   -7.8980 C   0  0  0  0  0  0  0  0  0  0  0  0
   -7.0660   -4.1870   -8.8930 N   0  0  0  0  0  0  0  0  0  0  0  0
   -8.9360   -2.9780   -7.8010 O   0  0  0  0  0  0  0  0  0  0  0  0
   -6.5160   -3.5580   -1.8200 C   0  0  0  0  0  0  0  0  0  0  0  0
   -6.3800   -5.0410   -1.4640 C   0  0  0  0  0  0  0  0  0  0  0  0
   -5.4260   -6.0430   -1.9550 C   0  0  0  0  0  0  0  0  0  0  0  0
   -5.6900   -7.2210   -1.3350 N   0  0  0  0  0  0  0  0  0  0  0  0
   -4.9820   -8.4910   -1.5140 C   0  0  0  0  0  0  0  0  0  0  0  0
   -6.7370   -7.1320   -0.4730 N   0  0  0  0  0  0  0  0  0  0  0  0
   -7.1970   -5.8470   -0.5080 C   0  0  0  0  0  0  0  0  0  0  0  0
   -6.3790    2.3640   -1.7790 H   0  0  0  0  0  0  0  0  0  0  0  0
   -5.2990    0.9800   -2.0430 H   0  0  0  0  0  0  0  0  0  0  0  0
   -5.8260    1.4040   -0.3900 H   0  0  0  0  0  0  0  0  0  0  0  0
   -8.5460   -1.8280   -0.0090 H   0  0  0  0  0  0  0  0  0  0  0  0
   -8.9450   -1.2470   -1.5760 H   0  0  0  0  0  0  0  0  0  0  0  0
   -7.4270   -3.0940   -3.6370 H   0  0  0  0  0  0  0  0  0  0  0  0
   -8.8620   -2.1470   -3.2680 H   0  0  0  0  0  0  0  0  0  0  0  0
   -9.7440   -3.7130   -5.4000 H   0  0  0  0  0  0  0  0  0  0  0  0
   -8.5860   -6.6860   -3.7740 H   0  0  0  0  0  0  0  0  0  0  0  0
   -7.6620   -8.6610   -4.8730 H   0  0  0  0  0  0  0  0  0  0  0  0
   -6.9850   -8.4460   -7.3160 H   0  0  0  0  0  0  0  0  0  0  0  0
   -7.1130   -6.5130   -8.6010 H   0  0  0  0  0  0  0  0  0  0  0  0
   -6.7480   -5.1320   -9.0850 H   0  0  0  0  0  0  0  0  0  0  0  0
   -6.7750   -3.4450   -9.5130 H   0  0  0  0  0  0  0  0  0  0  0  0
   -5.9090   -2.9850   -1.1310 H   0  0  0  0  0  0  0  0  0  0  0  0
   -6.1080   -3.4160   -2.8270 H   0  0  0  0  0  0  0  0  0  0  0  0
   -4.6210   -5.9520   -2.6730 H   0  0  0  0  0  0  0  0  0  0  0  0
   -4.8500   -8.6560   -2.5870 H   0  0  0  0  0  0  0  0  0  0  0  0
   -4.0160   -8.4150   -1.0240 H   0  0  0  0  0  0  0  0  0  0  0  0
   -5.5550   -9.3200   -1.0800 H   0  0  0  0  0  0  0  0  0  0  0  0
   -8.0390   -5.5490    0.1090 H   0  0  0  0  0  0  0  0  0  0  0  0
  1  2  1  0
  2  3  1  0
  3  4  2  0
  3  5  1  0
  5  6  1  0
  6  7  1  0
  7  8  1  0
  8  9  2  0
  8 10  1  0
 10 11  1  0
 11 12  2  0
 12 13  1  0
 13 14  2  0
 14 15  1  0
 15 16  2  0
 16 17  1  0
 17 18  1  0
 17 19  2  0
  6 20  1  0
 20 21  1  0
 21 22  2  0
 22 23  1  0
 23 24  1  0
 23 25  1  0
 25 26  2  0
 16 11  1  0
 26 21  1  0
  1 27  1  0
  1 28  1  0
  1 29  1  0
  5 30  1  0
  5 31  1  0
  7 32  1  0
  7 33  1  0
 10 34  1  0
 12 35  1  0
 13 36  1  0
 14 37  1  0
 15 38  1  0
 18 39  1  0
 18 40  1  0
 20 41  1  0
 20 42  1  0
 22 43  1  0
 24 44  1  0
 24 45  1  0
 24 46  1  0
 26 47  1  0
A    1
 C1 
A    2
 O1 
A    3
 C2 
A    4
 O2 
A    5
 C3 
A    6
 N1 
A    7
 C4 
A    8
 C5 
A    9
 O3 
A   10
 N2 
A   11
 C6 
A   12
 C7 
A   13
 C8 
A   14
 C9 
A   15
 C10
A   16
 C11
A   17
 C12
A   18
 N3 
A   19
 O4 
A   20
 C13
A   21
 C14
A   22
 C15
A   23
 N4 
A   24
 C16
A   25
 N5 
A   26
 C17
A   27
 H1 
A   28
 H2 
A   29
 H3 
A   30
 H4 
A   31
 H5 
A   32
 H6 
A   33
 H7 
A   34
 H8 
A   35
 H9 
A   36
 H10
A   37
 H11
A   38
 H12
A   39
 H13
A   40
 H14
A   41
 H15
A   42
 H16
A   43
 H17
A   44
 H18
A   45
 H19
A   46
 H20
A   47
 H21
M  END
>  <ref_pdb>  (37) 
x0147_0A

>  <ref_mols>  (37) 
x0771_1AS1,x1052_1A

>  <original SMILES>  (37) 
[H]c1nn(C([H])([H])[H])c([H])c1C([H])([H])N(C([H])([H])C(=O)OC([H])([H])[H])C([H])([H])C(=O)N([H])c1c([H])c([H])c([H])c([H])c1C(=O)N([H])[H]

>  <index>  (37) 
8884

>  <∆∆G>  (37) 
-9.122946

>  <comRMSD>  (37) 
0.680459

>  <N_constrained_atoms>  (37) 
23.0

>  <N_unconstrained_atoms>  (37) 
4.0

>  <LE>  (37) 
0.337887

>  <percent_hybrid>  (37) 
40.0

>  <max_hit_Tanimoto>  (37) 
0.233738

>  <largest_ring>  (37) 
6

>  <N_interactions_kept>  (37) 
0.0

>  <N_interactions_lost>  (37) 
3.5

>  <interaction_uniqueness_metric>  (37) 
0.161181

>  <N_HA>  (37) 
26

>  <N_rotatable_bonds>  (37) 
10

>  <N_interactions>  (37) 
6

>  <N_PAINS>  (37) 
0

>  <UFF_Gibbs>  (37) 
368.043898

>  <strain_per_HA>  (37) 
14.15548

>  <ad_hoc_penalty>  (37) 
-10.416613

>  <cluster>  (37) 
5268

>  <ranked>  (37) 
1565.0

>  <merger_rank>  (37) 
1

>  <hydroph_interaction:LEU:127>  (37) 
1

>  <hbond:GLY:128>  (37) 
1

>  <hydroph_interaction:ALA:144>  (37) 
1

>  <hbond:GLY:164>  (37) 
1

>  <hbond:HIS:40>  (37) 
0

>  <pistack:HIS:40>  (37) 
0

>  <hydroph_interaction:LEU:125>  (37) 
0

>  <hydroph_interaction:PHE:170>  (37) 
0

>  <hydroph_interaction:HIS:40>  (37) 
0

>  <pication:HIS:40>  (37) 
0

>  <hbond:THR:142>  (37) 
1

>  <hbond:HIS:161>  (37) 
0

>  <hbond:GLY:166>  (37) 
1

>  <hbond:VAL:162>  (37) 
0

>  <hydroph_interaction:ASN:165>  (37) 
0

>  <saltbridge:HIS:161>  (37) 
0

>  <hbond:GLY:145>  (37) 
0

>  <hbond:CYS:147>  (37) 
0

>  <saltbridge:HIS:40>  (37) 
0

>  <hbond:LEU:127>  (37) 
0

>  <hbond:THR:130>  (37) 
0

>  <halogenbond:THR:142>  (37) 
0

>  <halogenbond:CYS:147>  (37) 
0

$$$$
Z1140170279-x2099-0A
     RDKit          3D

 40 42  0  0  0  0  0  0  0  0999 V2000
  -12.1430   -1.4080   -4.6380 C   0  0  0  0  0  0  0  0  0  0  0  0
  -12.7570   -1.0230   -5.9220 C   0  0  0  0  0  0  0  0  0  0  0  0
  -12.7030   -2.0030   -6.8460 C   0  0  0  0  0  0  0  0  0  0  0  0
  -11.7120   -3.0870   -6.6940 N   0  0  0  0  0  0  0  0  0  0  0  0
  -12.2970   -4.3260   -6.1550 C   0  0  0  0  0  0  0  0  0  0  0  0
  -11.7390   -4.7290   -4.7900 C   0  0  0  0  0  0  0  0  0  0  0  0
  -11.9000   -6.2390   -4.5380 C   0  0  0  0  0  0  0  0  0  0  0  0
  -13.0930   -6.3560   -3.6160 C   0  0  0  0  0  0  0  0  0  0  0  0
  -13.4620   -4.9040   -3.3800 C   0  0  0  0  0  0  0  0  0  0  0  0
  -12.3520   -4.1270   -3.8850 O   0  0  0  0  0  0  0  0  0  0  0  0
  -10.4500   -2.6820   -6.3460 C   0  0  0  0  0  0  0  0  0  0  0  0
  -10.2480   -1.5960   -5.8210 O   0  0  0  0  0  0  0  0  0  0  0  0
   -9.3050   -3.6800   -6.5840 C   0  0  0  0  0  0  0  0  0  0  0  0
   -8.6300   -3.5730   -7.9230 C   0  0  0  0  0  0  0  0  0  0  0  0
   -7.5840   -4.4200   -8.2880 C   0  0  0  0  0  0  0  0  0  0  0  0
   -6.7470   -4.2470   -9.3500 O   0  0  0  0  0  0  0  0  0  0  0  0
   -7.3950   -5.4900   -7.4340 C   0  0  0  0  0  0  0  0  0  0  0  0
   -6.5460   -6.5380   -7.7610 C   0  0  0  0  0  0  0  0  0  0  0  0
   -6.3480   -7.5720   -6.9070 C   0  0  0  0  0  0  0  0  0  0  0  0
   -6.9930   -7.6150   -5.6930 C   0  0  0  0  0  0  0  0  0  0  0  0
   -7.8600   -6.6090   -5.3060 C   0  0  0  0  0  0  0  0  0  0  0  0
   -8.0590   -5.5360   -6.1930 C   0  0  0  0  0  0  0  0  0  0  0  0
   -8.9540   -4.5150   -5.7660 O   0  0  0  0  0  0  0  0  0  0  0  0
  -11.5820   -0.5650   -4.2230 H   0  0  0  0  0  0  0  0  0  0  0  0
  -13.6980   -2.4610   -6.8710 H   0  0  0  0  0  0  0  0  0  0  0  0
  -12.5580   -1.5700   -7.8380 H   0  0  0  0  0  0  0  0  0  0  0  0
  -12.1100   -5.1220   -6.8890 H   0  0  0  0  0  0  0  0  0  0  0  0
  -13.3870   -4.2220   -6.0880 H   0  0  0  0  0  0  0  0  0  0  0  0
  -10.6710   -4.4910   -4.6980 H   0  0  0  0  0  0  0  0  0  0  0  0
  -10.9510   -6.6780   -4.2130 H   0  0  0  0  0  0  0  0  0  0  0  0
  -12.1650   -6.7140   -5.4900 H   0  0  0  0  0  0  0  0  0  0  0  0
  -12.9190   -6.8140   -2.6360 H   0  0  0  0  0  0  0  0  0  0  0  0
  -13.9830   -6.8620   -4.0100 H   0  0  0  0  0  0  0  0  0  0  0  0
  -13.5960   -4.6810   -2.3160 H   0  0  0  0  0  0  0  0  0  0  0  0
  -14.3880   -4.6410   -3.9000 H   0  0  0  0  0  0  0  0  0  0  0  0
   -8.9770   -2.8080   -8.6210 H   0  0  0  0  0  0  0  0  0  0  0  0
   -6.0120   -6.5440   -8.7170 H   0  0  0  0  0  0  0  0  0  0  0  0
   -5.6900   -8.3820   -7.1460 H   0  0  0  0  0  0  0  0  0  0  0  0
   -6.8280   -8.4520   -5.0100 H   0  0  0  0  0  0  0  0  0  0  0  0
   -8.3700   -6.6440   -4.3460 H   0  0  0  0  0  0  0  0  0  0  0  0
  1  2  3  0
  2  3  1  0
  3  4  1  0
  4  5  1  0
  5  6  1  0
  6  7  1  0
  7  8  1  0
  8  9  1  0
  9 10  1  0
  4 11  1  0
 11 12  2  0
 11 13  1  0
 13 14  2  0
 14 15  1  0
 15 16  2  0
 15 17  1  0
 17 18  2  0
 18 19  1  0
 19 20  2  0
 20 21  1  0
 21 22  2  0
 22 23  1  0
 10  6  1  0
 23 13  1  0
 22 17  1  0
  1 24  1  0
  3 25  1  0
  3 26  1  0
  5 27  1  0
  5 28  1  0
  6 29  1  0
  7 30  1  0
  7 31  1  0
  8 32  1  0
  8 33  1  0
  9 34  1  0
  9 35  1  0
 14 36  1  0
 18 37  1  0
 19 38  1  0
 20 39  1  0
 21 40  1  0
A    1
 C1 
A    2
 C2 
A    3
 C3 
A    4
 N1 
A    5
 C4 
A    6
 C5 
A    7
 C6 
A    8
 C7 
A    9
 C8 
A   10
 O1 
A   11
 C9 
A   12
 O2 
A   13
 C10
A   14
 C11
A   15
 C12
A   16
 O3 
A   17
 C13
A   18
 C14
A   19
 C15
A   20
 C16
A   21
 C17
A   22
 C18
A   23
 O4 
A   24
 H1 
A   25
 H2 
A   26
 H3 
A   27
 H4 
A   28
 H5 
A   29
 H6 
A   30
 H7 
A   31
 H8 
A   32
 H9 
A   33
 H10
A   34
 H11
A   35
 H12
A   36
 H13
A   37
 H14
A   38
 H15
A   39
 H16
A   40
 H17
M  END
>  <ref_pdb>  (38) 
x0147_0A

>  <ref_mols>  (38) 
x2099_0A,x0789_0AS2

>  <original SMILES>  (38) 
[H]C#CC([H])([H])N(C(=O)c1oc2c([H])c([H])c([H])c([H])c2c(=O)c1[H])C([H])([H])C1([H])OC([H])([H])C([H])([H])C1([H])[H]

>  <index>  (38) 
10008

>  <∆∆G>  (38) 
-4.76154

>  <comRMSD>  (38) 
0.502811

>  <N_constrained_atoms>  (38) 
24.0

>  <N_unconstrained_atoms>  (38) 
1.0

>  <LE>  (38) 
0.190462

>  <percent_hybrid>  (38) 
31.0

>  <max_hit_Tanimoto>  (38) 
0.229905

>  <largest_ring>  (38) 
6

>  <N_interactions_kept>  (38) 
0.5

>  <N_interactions_lost>  (38) 
1.0

>  <interaction_uniqueness_metric>  (38) 
0.049531

>  <N_HA>  (38) 
23

>  <N_rotatable_bonds>  (38) 
4

>  <N_interactions>  (38) 
2

>  <N_PAINS>  (38) 
0

>  <UFF_Gibbs>  (38) 
337.251739

>  <strain_per_HA>  (38) 
14.663055

>  <ad_hoc_penalty>  (38) 
-10.11518

>  <cluster>  (38) 
4952

>  <ranked>  (38) 
1620.0

>  <merger_rank>  (38) 
1

>  <hydroph_interaction:LEU:127>  (38) 
0

>  <hbond:GLY:128>  (38) 
0

>  <hydroph_interaction:ALA:144>  (38) 
0

>  <hbond:GLY:164>  (38) 
1

>  <hbond:HIS:40>  (38) 
0

>  <pistack:HIS:40>  (38) 
0

>  <hydroph_interaction:LEU:125>  (38) 
0

>  <hydroph_interaction:PHE:170>  (38) 
0

>  <hydroph_interaction:HIS:40>  (38) 
0

>  <pication:HIS:40>  (38) 
0

>  <hbond:THR:142>  (38) 
1

>  <hbond:HIS:161>  (38) 
0

>  <hbond:GLY:166>  (38) 
0

>  <hbond:VAL:162>  (38) 
0

>  <hydroph_interaction:ASN:165>  (38) 
0

>  <saltbridge:HIS:161>  (38) 
0

>  <hbond:GLY:145>  (38) 
0

>  <hbond:CYS:147>  (38) 
0

>  <saltbridge:HIS:40>  (38) 
0

>  <hbond:LEU:127>  (38) 
0

>  <hbond:THR:130>  (38) 
0

>  <halogenbond:THR:142>  (38) 
0

>  <halogenbond:CYS:147>  (38) 
0

$$$$
Z740170224-x0771-1A
     RDKit          3D

 33 34  0  0  0  0  0  0  0  0999 V2000
   -6.6690   -7.9610   -1.8130 C   0  0  0  0  0  0  0  0  0  0  0  0
   -6.0590   -6.9650   -2.6590 N   0  0  0  0  0  0  0  0  0  0  0  0
   -4.6200   -6.6800   -2.5200 C   0  0  0  0  0  0  0  0  0  0  0  0
   -7.0330   -5.6930   -3.1410 S   0  0  0  0  0  6  0  0  0  0  0  0
   -6.2870   -4.4520   -3.1060 O   0  0  0  0  0  0  0  0  0  0  0  0
   -8.2850   -5.8120   -2.4380 O   0  0  0  0  0  0  0  0  0  0  0  0
   -7.1980   -6.1050   -4.8560 C   0  0  0  0  0  0  0  0  0  0  0  0
   -7.4900   -5.0900   -5.8010 C   0  0  0  0  0  0  0  0  0  0  0  0
   -7.5990   -5.2570   -7.1400 C   0  0  0  0  0  0  0  0  0  0  0  0
   -7.9050   -4.0720   -8.0530 C   0  0  0  0  0  0  0  0  0  0  0  0
   -8.7470   -3.2090   -7.8290 O   0  0  0  0  0  0  0  0  0  0  0  0
   -7.1350   -4.0920   -9.1510 O   0  0  0  0  0  0  0  0  0  0  0  0
   -7.4180   -6.5170   -7.6350 C   0  0  0  0  0  0  0  0  0  0  0  0
   -7.1630   -7.5650   -6.7460 C   0  0  0  0  0  0  0  0  0  0  0  0
   -7.0380   -7.4080   -5.3700 C   0  0  0  0  0  0  0  0  0  0  0  0
   -6.7570   -8.6020   -4.7340 C   0  0  0  0  0  0  0  0  0  0  0  0
   -6.3070   -9.5310   -5.7900 C   0  0  0  0  0  0  0  0  0  0  0  0
   -6.9800   -9.0550   -7.0750 C   0  0  0  0  0  0  0  0  0  0  0  0
   -7.6700   -8.1630   -2.1190 H   0  0  0  0  0  0  0  0  0  0  0  0
   -6.0840   -8.8860   -1.8460 H   0  0  0  0  0  0  0  0  0  0  0  0
   -6.6800   -7.5830   -0.7860 H   0  0  0  0  0  0  0  0  0  0  0  0
   -4.3780   -5.7540   -3.0410 H   0  0  0  0  0  0  0  0  0  0  0  0
   -4.3790   -6.6030   -1.4560 H   0  0  0  0  0  0  0  0  0  0  0  0
   -4.0360   -7.4930   -2.9600 H   0  0  0  0  0  0  0  0  0  0  0  0
   -7.6270   -4.0780   -5.4010 H   0  0  0  0  0  0  0  0  0  0  0  0
   -7.7270   -4.4390   -9.8550 H   0  0  0  0  0  0  0  0  0  0  0  0
   -7.4650   -6.7710   -8.6930 H   0  0  0  0  0  0  0  0  0  0  0  0
   -7.6190   -8.9880   -4.1950 H   0  0  0  0  0  0  0  0  0  0  0  0
   -6.0290   -8.5080   -3.9400 H   0  0  0  0  0  0  0  0  0  0  0  0
   -5.2300   -9.5820   -5.8230 H   0  0  0  0  0  0  0  0  0  0  0  0
   -6.5260  -10.5600   -5.5310 H   0  0  0  0  0  0  0  0  0  0  0  0
   -7.9720   -9.4810   -7.2400 H   0  0  0  0  0  0  0  0  0  0  0  0
   -6.4910   -9.1540   -8.0270 H   0  0  0  0  0  0  0  0  0  0  0  0
  1  2  1  0
  2  3  1  0
  2  4  1  0
  4  5  2  0
  4  6  2  0
  4  7  1  0
  7  8  2  0
  8  9  1  0
  9 10  1  0
 10 11  2  0
 10 12  1  0
  9 13  2  0
 13 14  1  0
 14 15  2  0
 15 16  1  0
 16 17  1  0
 17 18  1  0
 15  7  1  0
 18 14  1  0
  1 19  1  0
  1 20  1  0
  1 21  1  0
  3 22  1  0
  3 23  1  0
  3 24  1  0
  8 25  1  0
 12 26  1  0
 13 27  1  0
 16 28  1  0
 16 29  1  0
 17 30  1  0
 17 31  1  0
 18 32  1  0
 18 33  1  0
A    1
 C1 
A    2
 N1 
A    3
 C2 
A    4
 S1 
A    5
 O1 
A    6
 O2 
A    7
 C3 
A    8
 C4 
A    9
 C5 
A   10
 C6 
A   11
 O3 
A   12
 O4 
A   13
 C7 
A   14
 C8 
A   15
 C9 
A   16
 C10
A   17
 C11
A   18
 C12
A   19
 H1 
A   20
 H2 
A   21
 H3 
A   22
 H4 
A   23
 H5 
A   24
 H6 
A   25
 H7 
A   26
 H8 
A   27
 H9 
A   28
 H10
A   29
 H11
A   30
 H12
A   31
 H13
A   32
 H14
A   33
 H15
M  END
>  <ref_pdb>  (39) 
x0147_0A

>  <ref_mols>  (39) 
x0771_1A,x1140_0AS1

>  <original SMILES>  (39) 
[H]OC(=O)c1c([H])c2c(c(S(=O)(=O)N(C([H])([H])[H])C([H])([H])[H])c1[H])C([H])([H])C([H])([H])C2([H])[H]

>  <index>  (39) 
11814

>  <∆∆G>  (39) 
-3.292719

>  <comRMSD>  (39) 
0.623243

>  <N_constrained_atoms>  (39) 
16.0

>  <N_unconstrained_atoms>  (39) 
2.0

>  <LE>  (39) 
0.182929

>  <percent_hybrid>  (39) 
27.0

>  <max_hit_Tanimoto>  (39) 
0.223014

>  <largest_ring>  (39) 
6

>  <N_interactions_kept>  (39) 
2.5

>  <N_interactions_lost>  (39) 
1.5

>  <interaction_uniqueness_metric>  (39) 
0.101705

>  <N_HA>  (39) 
18

>  <N_rotatable_bonds>  (39) 
5

>  <N_interactions>  (39) 
4

>  <N_PAINS>  (39) 
0

>  <UFF_Gibbs>  (39) 
110.092559

>  <strain_per_HA>  (39) 
6.116219

>  <ad_hoc_penalty>  (39) 
-10.104482

>  <cluster>  (39) 
4437

>  <ranked>  (39) 
1624.0

>  <merger_rank>  (39) 
1

>  <hydroph_interaction:LEU:127>  (39) 
0

>  <hbond:GLY:128>  (39) 
0

>  <hydroph_interaction:ALA:144>  (39) 
1

>  <hbond:GLY:164>  (39) 
2

>  <hbond:HIS:40>  (39) 
0

>  <pistack:HIS:40>  (39) 
0

>  <hydroph_interaction:LEU:125>  (39) 
0

>  <hydroph_interaction:PHE:170>  (39) 
0

>  <hydroph_interaction:HIS:40>  (39) 
0

>  <pication:HIS:40>  (39) 
0

>  <hbond:THR:142>  (39) 
0

>  <hbond:HIS:161>  (39) 
0

>  <hbond:GLY:166>  (39) 
0

>  <hbond:VAL:162>  (39) 
0

>  <hydroph_interaction:ASN:165>  (39) 
0

>  <saltbridge:HIS:161>  (39) 
1

>  <hbond:GLY:145>  (39) 
0

>  <hbond:CYS:147>  (39) 
0

>  <saltbridge:HIS:40>  (39) 
0

>  <hbond:LEU:127>  (39) 
0

>  <hbond:THR:130>  (39) 
0

>  <halogenbond:THR:142>  (39) 
0

>  <halogenbond:CYS:147>  (39) 
0

$$$$
Z1140170911-x2099-0A
     RDKit          3D

 41 43  0  0  0  0  0  0  0  0999 V2000
  -12.4360   -0.6790   -4.5060 C   0  0  0  0  0  0  0  0  0  0  0  0
  -12.5970   -1.4140   -5.7530 C   0  0  0  0  0  0  0  0  0  0  0  0
  -12.6770   -2.0670   -6.7540 C   0  0  0  0  0  0  0  0  0  0  0  0
  -11.5740   -3.0420   -6.8000 N   0  0  0  0  0  0  0  0  0  0  0  0
  -12.0080   -4.3910   -6.3870 C   0  0  0  0  0  0  0  0  0  0  0  0
  -11.7570   -4.7550   -4.9040 C   0  0  0  0  0  0  0  0  0  0  0  0
  -11.9140   -6.1730   -4.5650 C   0  0  0  0  0  0  0  0  0  0  0  0
  -13.0670   -6.3170   -3.5950 C   0  0  0  0  0  0  0  0  0  0  0  0
  -13.4550   -4.9230   -3.4610 C   0  0  0  0  0  0  0  0  0  0  0  0
  -12.3750   -4.1300   -4.0180 O   0  0  0  0  0  0  0  0  0  0  0  0
  -10.3730   -2.6850   -6.3240 C   0  0  0  0  0  0  0  0  0  0  0  0
  -10.1750   -1.7470   -5.5700 O   0  0  0  0  0  0  0  0  0  0  0  0
   -9.3320   -3.5180   -6.7440 C   0  0  0  0  0  0  0  0  0  0  0  0
   -8.6810   -3.4420   -7.9490 C   0  0  0  0  0  0  0  0  0  0  0  0
   -7.5840   -4.4080   -8.2850 C   0  0  0  0  0  0  0  0  0  0  0  0
   -6.7300   -4.2920   -9.3390 O   0  0  0  0  0  0  0  0  0  0  0  0
   -7.4300   -5.4720   -7.3910 C   0  0  0  0  0  0  0  0  0  0  0  0
   -6.5330   -6.4330   -7.8920 C   0  0  0  0  0  0  0  0  0  0  0  0
   -6.3480   -7.5550   -6.9280 C   0  0  0  0  0  0  0  0  0  0  0  0
   -7.0020   -7.6110   -5.7090 C   0  0  0  0  0  0  0  0  0  0  0  0
   -7.9000   -6.6270   -5.2560 C   0  0  0  0  0  0  0  0  0  0  0  0
   -8.0890   -5.5500   -6.1470 C   0  0  0  0  0  0  0  0  0  0  0  0
   -8.9700   -4.5210   -5.7650 N   0  0  0  0  0  0  0  0  0  0  0  0
  -12.3270    0.3940   -4.6940 H   0  0  0  0  0  0  0  0  0  0  0  0
  -12.5990   -1.4130   -7.6240 H   0  0  0  0  0  0  0  0  0  0  0  0
  -13.6440   -2.5770   -6.8270 H   0  0  0  0  0  0  0  0  0  0  0  0
  -11.5070   -5.1130   -7.0420 H   0  0  0  0  0  0  0  0  0  0  0  0
  -13.0830   -4.5020   -6.5820 H   0  0  0  0  0  0  0  0  0  0  0  0
  -10.7110   -4.5070   -4.6910 H   0  0  0  0  0  0  0  0  0  0  0  0
  -12.0370   -6.8190   -5.4310 H   0  0  0  0  0  0  0  0  0  0  0  0
  -10.9360   -6.4950   -4.1810 H   0  0  0  0  0  0  0  0  0  0  0  0
  -13.8480   -6.9830   -3.9550 H   0  0  0  0  0  0  0  0  0  0  0  0
  -12.8080   -6.7680   -2.6420 H   0  0  0  0  0  0  0  0  0  0  0  0
  -14.3740   -4.7380   -4.0270 H   0  0  0  0  0  0  0  0  0  0  0  0
  -13.6600   -4.5370   -2.4560 H   0  0  0  0  0  0  0  0  0  0  0  0
   -8.9670   -2.6700   -8.6660 H   0  0  0  0  0  0  0  0  0  0  0  0
   -5.9930   -6.4300   -8.8450 H   0  0  0  0  0  0  0  0  0  0  0  0
   -5.6810   -8.3380   -7.2030 H   0  0  0  0  0  0  0  0  0  0  0  0
   -6.8120   -8.4660   -5.0620 H   0  0  0  0  0  0  0  0  0  0  0  0
   -8.3610   -6.7760   -4.2770 H   0  0  0  0  0  0  0  0  0  0  0  0
   -8.8800   -4.1610   -4.8210 H   0  0  0  0  0  0  0  0  0  0  0  0
  1  2  3  0
  2  3  1  0
  3  4  1  0
  4  5  1  0
  5  6  1  0
  6  7  1  0
  7  8  1  0
  8  9  1  0
  9 10  1  0
  4 11  1  0
 11 12  2  0
 11 13  1  0
 13 14  2  0
 14 15  1  0
 15 16  2  0
 15 17  1  0
 17 18  2  0
 18 19  1  0
 19 20  2  0
 20 21  1  0
 21 22  2  0
 22 23  1  0
 10  6  1  0
 23 13  1  0
 22 17  1  0
  1 24  1  0
  3 25  1  0
  3 26  1  0
  5 27  1  0
  5 28  1  0
  6 29  1  0
  7 30  1  0
  7 31  1  0
  8 32  1  0
  8 33  1  0
  9 34  1  0
  9 35  1  0
 14 36  1  0
 18 37  1  0
 19 38  1  0
 20 39  1  0
 21 40  1  0
 23 41  1  0
A    1
 C1 
A    2
 C2 
A    3
 C3 
A    4
 N1 
A    5
 C4 
A    6
 C5 
A    7
 C6 
A    8
 C7 
A    9
 C8 
A   10
 O1 
A   11
 C9 
A   12
 O2 
A   13
 C10
A   14
 C11
A   15
 C12
A   16
 O3 
A   17
 C13
A   18
 C14
A   19
 C15
A   20
 C16
A   21
 C17
A   22
 C18
A   23
 N2 
A   24
 H1 
A   25
 H2 
A   26
 H3 
A   27
 H4 
A   28
 H5 
A   29
 H6 
A   30
 H7 
A   31
 H8 
A   32
 H9 
A   33
 H10
A   34
 H11
A   35
 H12
A   36
 H13
A   37
 H14
A   38
 H15
A   39
 H16
A   40
 H17
A   41
 H18
M  END
>  <ref_pdb>  (40) 
x0147_0A

>  <ref_mols>  (40) 
x2099_0A,x0789_0AS2

>  <original SMILES>  (40) 
[H]C#CC([H])([H])N(C(=O)c1c([H])c(=O)c2c([H])c([H])c([H])c([H])c2n1[H])C([H])([H])C1([H])OC([H])([H])C([H])([H])C1([H])[H]

>  <index>  (40) 
9998

>  <∆∆G>  (40) 
-4.251069

>  <comRMSD>  (40) 
0.617231

>  <N_constrained_atoms>  (40) 
24.0

>  <N_unconstrained_atoms>  (40) 
1.0

>  <LE>  (40) 
0.170043

>  <percent_hybrid>  (40) 
31.0

>  <max_hit_Tanimoto>  (40) 
0.333333

>  <largest_ring>  (40) 
6

>  <N_interactions_kept>  (40) 
0.5

>  <N_interactions_lost>  (40) 
1.0

>  <interaction_uniqueness_metric>  (40) 
0.049531

>  <N_HA>  (40) 
23

>  <N_rotatable_bonds>  (40) 
4

>  <N_interactions>  (40) 
2

>  <N_PAINS>  (40) 
0

>  <UFF_Gibbs>  (40) 
287.163667

>  <strain_per_HA>  (40) 
12.485323

>  <ad_hoc_penalty>  (40) 
-9.843985

>  <cluster>  (40) 
4955

>  <ranked>  (40) 
1676.0

>  <merger_rank>  (40) 
2

>  <hydroph_interaction:LEU:127>  (40) 
0

>  <hbond:GLY:128>  (40) 
0

>  <hydroph_interaction:ALA:144>  (40) 
0

>  <hbond:GLY:164>  (40) 
1

>  <hbond:HIS:40>  (40) 
0

>  <pistack:HIS:40>  (40) 
0

>  <hydroph_interaction:LEU:125>  (40) 
0

>  <hydroph_interaction:PHE:170>  (40) 
0

>  <hydroph_interaction:HIS:40>  (40) 
0

>  <pication:HIS:40>  (40) 
0

>  <hbond:THR:142>  (40) 
1

>  <hbond:HIS:161>  (40) 
0

>  <hbond:GLY:166>  (40) 
0

>  <hbond:VAL:162>  (40) 
0

>  <hydroph_interaction:ASN:165>  (40) 
0

>  <saltbridge:HIS:161>  (40) 
0

>  <hbond:GLY:145>  (40) 
0

>  <hbond:CYS:147>  (40) 
0

>  <saltbridge:HIS:40>  (40) 
0

>  <hbond:LEU:127>  (40) 
0

>  <hbond:THR:130>  (40) 
0

>  <halogenbond:THR:142>  (40) 
0

>  <halogenbond:CYS:147>  (40) 
0

$$$$
Z3621745871-x1084-0A
     RDKit          3D

 41 42  0  0  0  0  0  0  0  0999 V2000
   -2.9030   -7.6100    2.6150 C   0  0  0  0  0  0  0  0  0  0  0  0
   -3.6730   -8.7350    1.9960 C   0  0  0  0  0  0  0  0  0  0  0  0
   -4.0670   -8.2980    0.6320 C   0  0  0  0  0  0  0  0  0  0  0  0
   -3.0440   -7.8160   -0.4180 C   0  0  0  0  0  0  0  0  0  0  0  0
   -3.6390   -7.4000   -1.7360 C   0  0  0  0  0  0  0  0  0  0  0  0
   -5.1100   -7.4650   -1.9260 C   0  0  0  0  0  0  0  0  0  0  0  0
   -5.6420   -6.9090   -3.5210 S   0  0  0  0  0  6  0  0  0  0  0  0
   -5.1510   -7.8420   -4.5040 O   0  0  0  0  0  0  0  0  0  0  0  0
   -5.4100   -5.4950   -3.5540 O   0  0  0  0  0  0  0  0  0  0  0  0
   -7.2950   -7.0580   -3.5650 N   0  0  0  0  0  0  0  0  0  0  0  0
   -7.9720   -6.7600   -4.8210 C   0  0  0  0  0  0  0  0  0  0  0  0
   -7.0430   -6.3620   -5.8100 C   0  0  0  0  0  0  0  0  0  0  0  0
   -7.5450   -6.4530   -7.1610 O   0  0  0  0  0  0  0  0  0  0  0  0
   -8.3570   -5.3950   -7.3510 C   0  0  0  0  0  0  0  0  0  0  0  0
   -9.6270   -5.3920   -6.7540 C   0  0  0  0  0  0  0  0  0  0  0  0
  -10.4210   -4.2780   -6.9400 C   0  0  0  0  0  0  0  0  0  0  0  0
   -9.9790   -3.0970   -7.7340 C   0  0  0  0  0  0  0  0  0  0  0  0
   -8.7340   -3.1040   -8.3240 C   0  0  0  0  0  0  0  0  0  0  0  0
   -7.8800   -4.3160   -8.1350 C   0  0  0  0  0  0  0  0  0  0  0  0
   -6.6440   -4.3150   -8.7500 O   0  0  0  0  0  0  0  0  0  0  0  0
   -5.9430   -7.9180   -0.9290 C   0  0  0  0  0  0  0  0  0  0  0  0
   -5.4330   -8.3190    0.3020 C   0  0  0  0  0  0  0  0  0  0  0  0
   -3.6150   -6.8900    3.0330 H   0  0  0  0  0  0  0  0  0  0  0  0
   -2.2650   -8.0090    3.4080 H   0  0  0  0  0  0  0  0  0  0  0  0
   -2.2760   -7.0800    1.8910 H   0  0  0  0  0  0  0  0  0  0  0  0
   -3.0610   -9.6390    1.9150 H   0  0  0  0  0  0  0  0  0  0  0  0
   -4.5360   -8.9690    2.6270 H   0  0  0  0  0  0  0  0  0  0  0  0
   -1.9890   -7.7920   -0.1900 H   0  0  0  0  0  0  0  0  0  0  0  0
   -2.9840   -7.0610   -2.5170 H   0  0  0  0  0  0  0  0  0  0  0  0
   -7.6760   -7.8260   -3.0390 H   0  0  0  0  0  0  0  0  0  0  0  0
   -8.5520   -7.6250   -5.1600 H   0  0  0  0  0  0  0  0  0  0  0  0
   -8.6570   -5.9300   -4.6200 H   0  0  0  0  0  0  0  0  0  0  0  0
   -6.7320   -5.3370   -5.6500 H   0  0  0  0  0  0  0  0  0  0  0  0
   -6.1760   -7.0190   -5.7370 H   0  0  0  0  0  0  0  0  0  0  0  0
   -9.9770   -6.2270   -6.1630 H   0  0  0  0  0  0  0  0  0  0  0  0
  -11.4180   -4.2620   -6.4790 H   0  0  0  0  0  0  0  0  0  0  0  0
  -10.6980   -2.2720   -7.8030 H   0  0  0  0  0  0  0  0  0  0  0  0
   -8.3750   -2.2620   -8.9110 H   0  0  0  0  0  0  0  0  0  0  0  0
   -6.6110   -5.1240   -9.3060 H   0  0  0  0  0  0  0  0  0  0  0  0
   -7.0350   -7.9980   -1.0040 H   0  0  0  0  0  0  0  0  0  0  0  0
   -6.2110   -8.6500    0.9970 H   0  0  0  0  0  0  0  0  0  0  0  0
  1  2  1  0
  2  3  1  0
  3  4  2  0
  4  5  1  0
  5  6  2  0
  6  7  1  0
  7  8  2  0
  7  9  2  0
  7 10  1  0
 10 11  1  0
 11 12  1  0
 12 13  1  0
 13 14  1  0
 14 15  2  0
 15 16  1  0
 16 17  2  0
 17 18  1  0
 18 19  2  0
 19 20  1  0
  6 21  1  0
 21 22  2  0
 22  3  1  0
 19 14  1  0
  1 23  1  0
  1 24  1  0
  1 25  1  0
  2 26  1  0
  2 27  1  0
  4 28  1  0
  5 29  1  0
 10 30  1  0
 11 31  1  0
 11 32  1  0
 12 33  1  0
 12 34  1  0
 15 35  1  0
 16 36  1  0
 17 37  1  0
 18 38  1  0
 20 39  1  0
 21 40  1  0
 22 41  1  0
A    1
 C1 
A    2
 C2 
A    3
 C3 
A    4
 C4 
A    5
 C5 
A    6
 C6 
A    7
 S1 
A    8
 O1 
A    9
 O2 
A   10
 N1 
A   11
 C7 
A   12
 C8 
A   13
 O3 
A   14
 C9 
A   15
 C10
A   16
 C11
A   17
 C12
A   18
 C13
A   19
 C14
A   20
 O4 
A   21
 C15
A   22
 C16
A   23
 H1 
A   24
 H2 
A   25
 H3 
A   26
 H4 
A   27
 H5 
A   28
 H6 
A   29
 H7 
A   30
 H8 
A   31
 H9 
A   32
 H10
A   33
 H11
A   34
 H12
A   35
 H13
A   36
 H14
A   37
 H15
A   38
 H16
A   39
 H17
A   40
 H18
A   41
 H19
M  END
>  <ref_pdb>  (41) 
x0147_0A

>  <ref_mols>  (41) 
x1084_0A,x1604_0AS2

>  <original SMILES>  (41) 
[H]Oc1c([H])c([H])c([H])c([H])c1OC([H])([H])C([H])([H])N([H])S(=O)(=O)c1c([H])c([H])c(C([H])([H])C([H])([H])[H])c([H])c1[H]

>  <index>  (41) 
1787

>  <∆∆G>  (41) 
-6.624328

>  <comRMSD>  (41) 
0.971961

>  <N_constrained_atoms>  (41) 
20.0

>  <N_unconstrained_atoms>  (41) 
3.0

>  <LE>  (41) 
0.288014

>  <percent_hybrid>  (41) 
40.0

>  <max_hit_Tanimoto>  (41) 
0.151986

>  <largest_ring>  (41) 
6

>  <N_interactions_kept>  (41) 
3.0

>  <N_interactions_lost>  (41) 
2.5

>  <interaction_uniqueness_metric>  (41) 
0.098634

>  <N_HA>  (41) 
22

>  <N_rotatable_bonds>  (41) 
9

>  <N_interactions>  (41) 
5

>  <N_PAINS>  (41) 
0

>  <UFF_Gibbs>  (41) 
178.392887

>  <strain_per_HA>  (41) 
8.108731

>  <ad_hoc_penalty>  (41) 
-9.387577

>  <cluster>  (41) 
442

>  <ranked>  (41) 
1763.0

>  <merger_rank>  (41) 
4

>  <hydroph_interaction:LEU:127>  (41) 
1

>  <hbond:GLY:128>  (41) 
0

>  <hydroph_interaction:ALA:144>  (41) 
1

>  <hbond:GLY:164>  (41) 
1

>  <hbond:HIS:40>  (41) 
0

>  <pistack:HIS:40>  (41) 
0

>  <hydroph_interaction:LEU:125>  (41) 
0

>  <hydroph_interaction:PHE:170>  (41) 
0

>  <hydroph_interaction:HIS:40>  (41) 
1

>  <pication:HIS:40>  (41) 
0

>  <hbond:THR:142>  (41) 
1

>  <hbond:HIS:161>  (41) 
0

>  <hbond:GLY:166>  (41) 
0

>  <hbond:VAL:162>  (41) 
0

>  <hydroph_interaction:ASN:165>  (41) 
0

>  <saltbridge:HIS:161>  (41) 
0

>  <hbond:GLY:145>  (41) 
0

>  <hbond:CYS:147>  (41) 
0

>  <saltbridge:HIS:40>  (41) 
0

>  <hbond:LEU:127>  (41) 
0

>  <hbond:THR:130>  (41) 
0

>  <halogenbond:THR:142>  (41) 
0

>  <halogenbond:CYS:147>  (41) 
0

$$$$
Z4263695784-x2021-0AS2
     RDKit          3D

 40 42  0  0  0  0  0  0  0  0999 V2000
   -6.9230   -5.2040   -2.1110 O   0  0  0  0  0  0  0  0  0  0  0  0
   -7.2320   -5.4380   -3.4790 S   0  0  0  0  0  6  0  0  0  0  0  0
   -6.7790   -4.5650   -4.5470 O   0  0  0  0  0  0  0  0  0  0  0  0
   -9.0000   -5.4490   -3.4680 C   0  0  0  0  0  0  0  0  0  0  0  0
   -9.5610   -6.1670   -4.6760 C   0  0  0  0  0  0  0  0  0  0  0  0
   -8.9120   -5.6470   -5.9560 C   0  0  0  0  0  0  0  0  0  0  0  0
   -7.8370   -6.5540   -6.5240 C   0  0  0  0  0  0  0  0  0  0  0  0
   -7.1730   -6.0320   -7.7940 C   0  0  0  0  0  0  0  0  0  0  0  0
   -7.6300   -4.7040   -8.3540 C   0  0  0  0  0  0  0  0  0  0  0  0
   -7.0410   -4.2660   -9.4430 F   0  0  0  0  0  0  0  0  0  0  0  0
   -8.6370   -3.9300   -7.7700 N   0  0  0  0  0  0  0  0  0  0  0  0
   -9.2500   -4.4490   -6.5660 C   0  0  0  0  0  0  0  0  0  0  0  0
   -6.8520   -7.0390   -3.8070 N   0  0  0  0  0  0  0  0  0  0  0  0
   -5.5760   -7.4130   -3.8610 C   0  0  0  0  0  0  0  0  0  0  0  0
   -5.1610   -7.8150   -2.5820 C   0  0  0  0  0  0  0  0  0  0  0  0
   -5.7840   -8.9020   -1.9780 C   0  0  0  0  0  0  0  0  0  0  0  0
   -5.3540   -9.3500   -0.5980 C   0  0  0  0  0  0  0  0  0  0  0  0
   -4.3280   -8.6520    0.0400 C   0  0  0  0  0  0  0  0  0  0  0  0
   -3.8190   -8.9290    1.2960 O   0  0  0  0  0  0  0  0  0  0  0  0
   -2.7970   -7.9070    1.5030 C   0  0  0  0  0  0  0  0  0  0  0  0
   -2.7660   -7.1650    0.3510 C   0  0  0  0  0  0  0  0  0  0  0  0
   -3.7190   -7.5900   -0.5610 C   0  0  0  0  0  0  0  0  0  0  0  0
   -4.1230   -7.1030   -1.9530 C   0  0  0  0  0  0  0  0  0  0  0  0
   -9.3370   -5.9500   -2.5590 H   0  0  0  0  0  0  0  0  0  0  0  0
   -9.3340   -4.4060   -3.4620 H   0  0  0  0  0  0  0  0  0  0  0  0
  -10.6490   -6.0370   -4.7240 H   0  0  0  0  0  0  0  0  0  0  0  0
   -9.4050   -7.2480   -4.5980 H   0  0  0  0  0  0  0  0  0  0  0  0
   -7.6260   -7.4870   -5.9870 H   0  0  0  0  0  0  0  0  0  0  0  0
   -6.3850   -6.5860   -8.2980 H   0  0  0  0  0  0  0  0  0  0  0  0
  -10.0250   -3.7820   -6.1740 H   0  0  0  0  0  0  0  0  0  0  0  0
   -7.5240   -7.7260   -3.4720 H   0  0  0  0  0  0  0  0  0  0  0  0
   -5.0620   -6.5650   -4.2800 H   0  0  0  0  0  0  0  0  0  0  0  0
   -5.4670   -8.1610   -4.6370 H   0  0  0  0  0  0  0  0  0  0  0  0
   -6.5830   -9.4520   -2.4620 H   0  0  0  0  0  0  0  0  0  0  0  0
   -5.8310  -10.1940   -0.1120 H   0  0  0  0  0  0  0  0  0  0  0  0
   -3.1430   -7.2790    2.3330 H   0  0  0  0  0  0  0  0  0  0  0  0
   -1.8960   -8.3970    1.8460 H   0  0  0  0  0  0  0  0  0  0  0  0
   -2.9600   -6.1260    0.6050 H   0  0  0  0  0  0  0  0  0  0  0  0
   -1.7740   -7.2330   -0.0730 H   0  0  0  0  0  0  0  0  0  0  0  0
   -3.7250   -6.2860   -2.5280 H   0  0  0  0  0  0  0  0  0  0  0  0
  1  2  2  0
  2  3  2  0
  2  4  1  0
  4  5  1  0
  5  6  1  0
  6  7  2  0
  7  8  1  0
  8  9  2  0
  9 10  1  0
  9 11  1  0
 11 12  2  0
  2 13  1  0
 13 14  1  0
 14 15  1  0
 15 16  2  0
 16 17  1  0
 17 18  2  0
 18 19  1  0
 19 20  1  0
 20 21  1  0
 21 22  1  0
 22 23  2  0
 12  6  1  0
 23 15  1  0
 22 18  1  0
  4 24  1  0
  4 25  1  0
  5 26  1  0
  5 27  1  0
  7 28  1  0
  8 29  1  0
 12 30  1  0
 13 31  1  0
 14 32  1  0
 14 33  1  0
 16 34  1  0
 17 35  1  0
 20 36  1  0
 20 37  1  0
 21 38  1  0
 21 39  1  0
 23 40  1  0
A    1
 O1 
A    2
 S1 
A    3
 O2 
A    4
 C1 
A    5
 C2 
A    6
 C3 
A    7
 C4 
A    8
 C5 
A    9
 C6 
A   10
 F1 
A   11
 N1 
A   12
 C7 
A   13
 N2 
A   14
 C8 
A   15
 C9 
A   16
 C10
A   17
 C11
A   18
 C12
A   19
 O3 
A   20
 C13
A   21
 C14
A   22
 C15
A   23
 C16
A   24
 H1 
A   25
 H2 
A   26
 H3 
A   27
 H4 
A   28
 H5 
A   29
 H6 
A   30
 H7 
A   31
 H8 
A   32
 H9 
A   33
 H10
A   34
 H11
A   35
 H12
A   36
 H13
A   37
 H14
A   38
 H15
A   39
 H16
A   40
 H17
M  END
>  <ref_pdb>  (42) 
x0147_0A

>  <ref_mols>  (42) 
x2021_0AS2,x1498_0A

>  <original SMILES>  (42) 
[H]c1nc(F)c([H])c([H])c1C([H])([H])C([H])([H])S(=O)(=O)N([H])C([H])([H])c1c([H])c([H])c2c(c1[H])C([H])([H])C([H])([H])O2

>  <index>  (42) 
15232

>  <∆∆G>  (42) 
-4.811122

>  <comRMSD>  (42) 
0.821805

>  <N_constrained_atoms>  (42) 
22.0

>  <N_unconstrained_atoms>  (42) 
1.0

>  <LE>  (42) 
0.209179

>  <percent_hybrid>  (42) 
32.0

>  <max_hit_Tanimoto>  (42) 
0.307398

>  <largest_ring>  (42) 
6

>  <N_interactions_kept>  (42) 
1.5

>  <N_interactions_lost>  (42) 
3.0

>  <interaction_uniqueness_metric>  (42) 
0.144795

>  <N_HA>  (42) 
23

>  <N_rotatable_bonds>  (42) 
6

>  <N_interactions>  (42) 
5

>  <N_PAINS>  (42) 
0

>  <UFF_Gibbs>  (42) 
134.584088

>  <strain_per_HA>  (42) 
5.851457

>  <ad_hoc_penalty>  (42) 
-9.157453

>  <cluster>  (42) 
1098

>  <ranked>  (42) 
1805.0

>  <merger_rank>  (42) 
2

>  <hydroph_interaction:LEU:127>  (42) 
1

>  <hbond:GLY:128>  (42) 
0

>  <hydroph_interaction:ALA:144>  (42) 
0

>  <hbond:GLY:164>  (42) 
1

>  <hbond:HIS:40>  (42) 
0

>  <pistack:HIS:40>  (42) 
1

>  <hydroph_interaction:LEU:125>  (42) 
0

>  <hydroph_interaction:PHE:170>  (42) 
0

>  <hydroph_interaction:HIS:40>  (42) 
1

>  <pication:HIS:40>  (42) 
0

>  <hbond:THR:142>  (42) 
0

>  <hbond:HIS:161>  (42) 
0

>  <hbond:GLY:166>  (42) 
0

>  <hbond:VAL:162>  (42) 
0

>  <hydroph_interaction:ASN:165>  (42) 
0

>  <saltbridge:HIS:161>  (42) 
0

>  <hbond:GLY:145>  (42) 
0

>  <hbond:CYS:147>  (42) 
0

>  <saltbridge:HIS:40>  (42) 
0

>  <hbond:LEU:127>  (42) 
0

>  <hbond:THR:130>  (42) 
0

>  <halogenbond:THR:142>  (42) 
1

>  <halogenbond:CYS:147>  (42) 
0

$$$$
Z3621745512-x1084-0AS3
     RDKit          3D

 30 30  0  0  0  0  0  0  0  0999 V2000
   -6.6680   -3.8240   -2.5020 C   0  0  0  0  0  0  0  0  0  0  0  0
   -6.1710   -4.7210   -3.4200 N   0  0  0  0  0  0  0  0  0  0  0  0
   -6.7830   -6.2680   -3.3460 S   0  0  0  0  0  6  0  0  0  0  0  0
   -8.1030   -6.2860   -3.9060 O   0  0  0  0  0  0  0  0  0  0  0  0
   -6.5150   -6.8610   -2.0610 O   0  0  0  0  0  0  0  0  0  0  0  0
   -5.9080   -7.0900   -4.4880 N   0  0  0  0  0  0  0  0  0  0  0  0
   -6.8210   -7.0610   -5.6770 C   0  0  0  0  0  0  0  0  0  0  0  0
   -6.1960   -7.4520   -6.9970 C   0  0  0  0  0  0  0  0  0  0  0  0
   -6.7240   -6.6180   -8.0780 O   0  0  0  0  0  0  0  0  0  0  0  0
   -7.7170   -5.6720   -7.8020 C   0  0  0  0  0  0  0  0  0  0  0  0
   -8.9610   -5.9390   -6.9230 C   0  0  0  0  0  0  0  0  0  0  0  0
   -9.9030   -4.9560   -6.7090 C   0  0  0  0  0  0  0  0  0  0  0  0
   -9.6980   -3.5900   -7.3520 C   0  0  0  0  0  0  0  0  0  0  0  0
   -8.5690   -3.3580   -8.1410 C   0  0  0  0  0  0  0  0  0  0  0  0
   -7.6090   -4.3810   -8.3550 C   0  0  0  0  0  0  0  0  0  0  0  0
   -6.5270   -4.1310   -9.1260 O   0  0  0  0  0  0  0  0  0  0  0  0
   -6.2540   -3.9770   -1.4990 H   0  0  0  0  0  0  0  0  0  0  0  0
   -7.7580   -3.9240   -2.4270 H   0  0  0  0  0  0  0  0  0  0  0  0
   -6.4220   -2.8080   -2.8260 H   0  0  0  0  0  0  0  0  0  0  0  0
   -5.1550   -4.7830   -3.3730 H   0  0  0  0  0  0  0  0  0  0  0  0
   -4.9930   -6.6190   -4.6740 H   0  0  0  0  0  0  0  0  0  0  0  0
   -7.2120   -6.0420   -5.7650 H   0  0  0  0  0  0  0  0  0  0  0  0
   -7.6680   -7.7260   -5.4810 H   0  0  0  0  0  0  0  0  0  0  0  0
   -6.4820   -8.4820   -7.2380 H   0  0  0  0  0  0  0  0  0  0  0  0
   -5.0970   -7.4260   -6.9540 H   0  0  0  0  0  0  0  0  0  0  0  0
   -9.0720   -6.9360   -6.4780 H   0  0  0  0  0  0  0  0  0  0  0  0
  -10.7860   -5.1500   -6.0840 H   0  0  0  0  0  0  0  0  0  0  0  0
  -10.4440   -2.8040   -7.1820 H   0  0  0  0  0  0  0  0  0  0  0  0
   -8.4120   -2.3840   -8.6070 H   0  0  0  0  0  0  0  0  0  0  0  0
   -6.5480   -4.7730   -9.8710 H   0  0  0  0  0  0  0  0  0  0  0  0
  1  2  1  0
  2  3  1  0
  3  4  2  0
  3  5  2  0
  3  6  1  0
  6  7  1  0
  7  8  1  0
  8  9  1  0
  9 10  1  0
 10 11  2  0
 11 12  1  0
 12 13  2  0
 13 14  1  0
 14 15  2  0
 15 16  1  0
 15 10  1  0
  1 17  1  0
  1 18  1  0
  1 19  1  0
  2 20  1  0
  6 21  1  0
  7 22  1  0
  7 23  1  0
  8 24  1  0
  8 25  1  0
 11 26  1  0
 12 27  1  0
 13 28  1  0
 14 29  1  0
 16 30  1  0
A    1
 C1 
A    2
 N1 
A    3
 S1 
A    4
 O1 
A    5
 O2 
A    6
 N2 
A    7
 C2 
A    8
 C3 
A    9
 O3 
A   10
 C4 
A   11
 C5 
A   12
 C6 
A   13
 C7 
A   14
 C8 
A   15
 C9 
A   16
 O4 
A   17
 H1 
A   18
 H2 
A   19
 H3 
A   20
 H4 
A   21
 H5 
A   22
 H6 
A   23
 H7 
A   24
 H8 
A   25
 H9 
A   26
 H10
A   27
 H11
A   28
 H12
A   29
 H13
A   30
 H14
M  END
>  <ref_pdb>  (43) 
x0147_0A

>  <ref_mols>  (43) 
x1084_0AS3,x1604_0AS2

>  <original SMILES>  (43) 
[H]Oc1c([H])c([H])c([H])c([H])c1OC([H])([H])C([H])([H])N([H])S(=O)(=O)N([H])C([H])([H])[H]

>  <index>  (43) 
2576

>  <∆∆G>  (43) 
-6.84536

>  <comRMSD>  (43) 
0.796807

>  <N_constrained_atoms>  (43) 
13.0

>  <N_unconstrained_atoms>  (43) 
3.0

>  <LE>  (43) 
0.427835

>  <percent_hybrid>  (43) 
39.0

>  <max_hit_Tanimoto>  (43) 
0.156794

>  <largest_ring>  (43) 
6

>  <N_interactions_kept>  (43) 
1.0

>  <N_interactions_lost>  (43) 
2.5

>  <interaction_uniqueness_metric>  (43) 
0.104145

>  <N_HA>  (43) 
16

>  <N_rotatable_bonds>  (43) 
8

>  <N_interactions>  (43) 
5

>  <N_PAINS>  (43) 
0

>  <UFF_Gibbs>  (43) 
145.557329

>  <strain_per_HA>  (43) 
9.097276

>  <ad_hoc_penalty>  (43) 
-9.119222

>  <cluster>  (43) 
119

>  <ranked>  (43) 
1812.0

>  <merger_rank>  (43) 
3

>  <hydroph_interaction:LEU:127>  (43) 
0

>  <hbond:GLY:128>  (43) 
0

>  <hydroph_interaction:ALA:144>  (43) 
1

>  <hbond:GLY:164>  (43) 
2

>  <hbond:HIS:40>  (43) 
0

>  <pistack:HIS:40>  (43) 
0

>  <hydroph_interaction:LEU:125>  (43) 
0

>  <hydroph_interaction:PHE:170>  (43) 
0

>  <hydroph_interaction:HIS:40>  (43) 
0

>  <pication:HIS:40>  (43) 
0

>  <hbond:THR:142>  (43) 
1

>  <hbond:HIS:161>  (43) 
0

>  <hbond:GLY:166>  (43) 
0

>  <hbond:VAL:162>  (43) 
1

>  <hydroph_interaction:ASN:165>  (43) 
0

>  <saltbridge:HIS:161>  (43) 
0

>  <hbond:GLY:145>  (43) 
0

>  <hbond:CYS:147>  (43) 
0

>  <saltbridge:HIS:40>  (43) 
0

>  <hbond:LEU:127>  (43) 
0

>  <hbond:THR:130>  (43) 
0

>  <halogenbond:THR:142>  (43) 
0

>  <halogenbond:CYS:147>  (43) 
0

$$$$
Z5286489567-x0771-1A
     RDKit          3D

 35 37  0  0  0  0  0  0  0  0999 V2000
   -8.5360   -3.2420   -7.7680 O   0  0  0  0  0  0  0  0  0  0  0  0
   -7.7700   -4.1540   -8.0240 C   0  0  0  0  0  0  0  0  0  0  0  0
   -6.9930   -4.1310   -9.1210 O   0  0  0  0  0  0  0  0  0  0  0  0
   -7.5840   -5.4090   -7.2060 C   0  0  0  0  0  0  0  0  0  0  0  0
   -7.3210   -6.6320   -7.7770 C   0  0  0  0  0  0  0  0  0  0  0  0
   -7.2030   -7.8200   -6.8140 C   0  0  0  0  0  0  0  0  0  0  0  0
   -7.3090   -7.6290   -5.4830 C   0  0  0  0  0  0  0  0  0  0  0  0
   -7.0810   -9.0260   -4.9110 C   0  0  0  0  0  0  0  0  0  0  0  0
   -6.4340   -9.7210   -5.9370 C   0  0  0  0  0  0  0  0  0  0  0  0
   -7.0120   -9.1870   -7.1290 C   0  0  0  0  0  0  0  0  0  0  0  0
   -7.5570   -6.4190   -4.8590 C   0  0  0  0  0  0  0  0  0  0  0  0
   -7.6410   -6.4040   -3.4800 N   0  0  0  0  0  0  0  0  0  0  0  0
   -7.6960   -5.1350   -2.7810 C   0  0  0  0  0  0  0  0  0  0  0  0
   -7.5010   -5.3260   -1.4020 C   0  0  0  0  0  0  0  0  0  0  0  0
   -6.2060   -5.7640   -1.0720 C   0  0  0  0  0  0  0  0  0  0  0  0
   -5.3140   -5.6700   -2.6500 S   0  0  0  0  0  0  0  0  0  0  0  0
   -6.4580   -4.4030   -3.2090 C   0  0  0  0  0  0  0  0  0  0  0  0
   -7.7100   -5.2840   -5.6990 C   0  0  0  0  0  0  0  0  0  0  0  0
   -6.2570   -4.7570   -8.9310 H   0  0  0  0  0  0  0  0  0  0  0  0
   -7.2250   -6.7440   -8.8540 H   0  0  0  0  0  0  0  0  0  0  0  0
   -6.4540   -8.9690   -4.0130 H   0  0  0  0  0  0  0  0  0  0  0  0
   -8.0440   -9.4960   -4.6760 H   0  0  0  0  0  0  0  0  0  0  0  0
   -5.3830   -9.4310   -5.9280 H   0  0  0  0  0  0  0  0  0  0  0  0
   -6.4440  -10.8060   -5.8700 H   0  0  0  0  0  0  0  0  0  0  0  0
   -7.9950   -9.5770   -7.3360 H   0  0  0  0  0  0  0  0  0  0  0  0
   -6.4850   -9.4760   -8.0080 H   0  0  0  0  0  0  0  0  0  0  0  0
   -6.9960   -7.0770   -3.0620 H   0  0  0  0  0  0  0  0  0  0  0  0
   -8.5870   -4.5450   -3.0220 H   0  0  0  0  0  0  0  0  0  0  0  0
   -8.1480   -6.0820   -0.9670 H   0  0  0  0  0  0  0  0  0  0  0  0
   -7.8000   -4.4550   -0.8180 H   0  0  0  0  0  0  0  0  0  0  0  0
   -5.6480   -5.2030   -0.3420 H   0  0  0  0  0  0  0  0  0  0  0  0
   -6.1320   -6.7980   -0.7450 H   0  0  0  0  0  0  0  0  0  0  0  0
   -6.3890   -4.2550   -4.2850 H   0  0  0  0  0  0  0  0  0  0  0  0
   -6.3140   -3.4330   -2.7150 H   0  0  0  0  0  0  0  0  0  0  0  0
   -7.9190   -4.2940   -5.2720 H   0  0  0  0  0  0  0  0  0  0  0  0
  1  2  2  0
  2  3  1  0
  2  4  1  0
  4  5  2  0
  5  6  1  0
  6  7  2  0
  7  8  1  0
  8  9  1  0
  9 10  1  0
  7 11  1  0
 11 12  1  0
 12 13  1  0
 13 14  1  0
 14 15  1  0
 15 16  1  0
 16 17  1  0
 11 18  2  0
 18  4  1  0
 10  6  1  0
 17 13  1  0
  3 19  1  0
  5 20  1  0
  8 21  1  0
  8 22  1  0
  9 23  1  0
  9 24  1  0
 10 25  1  0
 10 26  1  0
 12 27  1  0
 13 28  1  0
 14 29  1  0
 14 30  1  0
 15 31  1  0
 15 32  1  0
 17 33  1  0
 17 34  1  0
 18 35  1  0
A    1
 O1 
A    2
 C1 
A    3
 O2 
A    4
 C2 
A    5
 C3 
A    6
 C4 
A    7
 C5 
A    8
 C6 
A    9
 C7 
A   10
 C8 
A   11
 C9 
A   12
 N1 
A   13
 C10
A   14
 C11
A   15
 C12
A   16
 S1 
A   17
 C13
A   18
 C14
A   19
 H1 
A   20
 H2 
A   21
 H3 
A   22
 H4 
A   23
 H5 
A   24
 H6 
A   25
 H7 
A   26
 H8 
A   27
 H9 
A   28
 H10
A   29
 H11
A   30
 H12
A   31
 H13
A   32
 H14
A   33
 H15
A   34
 H16
A   35
 H17
M  END
>  <ref_pdb>  (44) 
x0147_0A

>  <ref_mols>  (44) 
x0771_1A,x1140_0AS3

>  <original SMILES>  (44) 
[H]OC(=O)c1c([H])c(N([H])C2([H])C([H])([H])SC([H])([H])C2([H])[H])c2c(c1[H])C([H])([H])C([H])([H])C2([H])[H]

>  <index>  (44) 
14598

>  <∆∆G>  (44) 
-2.948369

>  <comRMSD>  (44) 
0.791203

>  <N_constrained_atoms>  (44) 
19.0

>  <N_unconstrained_atoms>  (44) 
1.0

>  <LE>  (44) 
0.147418

>  <percent_hybrid>  (44) 
37.0

>  <max_hit_Tanimoto>  (44) 
0.343521

>  <largest_ring>  (44) 
6

>  <N_interactions_kept>  (44) 
2.5

>  <N_interactions_lost>  (44) 
1.5

>  <interaction_uniqueness_metric>  (44) 
0.09741

>  <N_HA>  (44) 
18

>  <N_rotatable_bonds>  (44) 
3

>  <N_interactions>  (44) 
3

>  <N_PAINS>  (44) 
0

>  <UFF_Gibbs>  (44) 
157.017161

>  <strain_per_HA>  (44) 
8.723127

>  <ad_hoc_penalty>  (44) 
-8.560436

>  <cluster>  (44) 
1116

>  <ranked>  (44) 
1923.0

>  <merger_rank>  (44) 
3

>  <hydroph_interaction:LEU:127>  (44) 
0

>  <hbond:GLY:128>  (44) 
0

>  <hydroph_interaction:ALA:144>  (44) 
1

>  <hbond:GLY:164>  (44) 
1

>  <hbond:HIS:40>  (44) 
0

>  <pistack:HIS:40>  (44) 
0

>  <hydroph_interaction:LEU:125>  (44) 
0

>  <hydroph_interaction:PHE:170>  (44) 
0

>  <hydroph_interaction:HIS:40>  (44) 
0

>  <pication:HIS:40>  (44) 
0

>  <hbond:THR:142>  (44) 
0

>  <hbond:HIS:161>  (44) 
0

>  <hbond:GLY:166>  (44) 
0

>  <hbond:VAL:162>  (44) 
0

>  <hydroph_interaction:ASN:165>  (44) 
0

>  <saltbridge:HIS:161>  (44) 
1

>  <hbond:GLY:145>  (44) 
0

>  <hbond:CYS:147>  (44) 
0

>  <saltbridge:HIS:40>  (44) 
0

>  <hbond:LEU:127>  (44) 
0

>  <hbond:THR:130>  (44) 
0

>  <halogenbond:THR:142>  (44) 
0

>  <halogenbond:CYS:147>  (44) 
0

$$$$
Z33545321-x0771-1AS1
     RDKit          3D

 24 24  0  0  0  0  0  0  0  0999 V2000
   -4.8880   -6.8850   -3.1030 C   0  0  0  0  0  0  0  0  0  0  0  0
   -6.1610   -6.6420   -2.4790 N   0  0  0  0  0  0  0  0  0  0  0  0
   -7.1800   -5.4370   -3.0280 S   0  0  0  0  0  6  0  0  0  0  0  0
   -6.4300   -4.2050   -3.0120 O   0  0  0  0  0  0  0  0  0  0  0  0
   -8.4020   -5.6050   -2.2880 O   0  0  0  0  0  0  0  0  0  0  0  0
   -7.3470   -5.8680   -4.7310 C   0  0  0  0  0  0  0  0  0  0  0  0
   -7.1890   -7.3270   -5.1680 C   0  0  0  0  0  0  0  0  0  0  0  0
   -7.3060   -7.6170   -6.6480 C   0  0  0  0  0  0  0  0  0  0  0  0
   -7.5560   -6.4390   -7.5720 C   0  0  0  0  0  0  0  0  0  0  0  0
   -7.7080   -5.0800   -6.9660 C   0  0  0  0  0  0  0  0  0  0  0  0
   -7.9750   -3.9930   -7.9790 C   0  0  0  0  0  0  0  0  0  0  0  0
   -7.2470   -4.1200   -9.1090 N   0  0  0  0  0  0  0  0  0  0  0  0
   -8.7850   -3.0960   -7.7930 O   0  0  0  0  0  0  0  0  0  0  0  0
   -7.6080   -4.8330   -5.6160 C   0  0  0  0  0  0  0  0  0  0  0  0
   -4.2980   -5.9660   -3.0980 H   0  0  0  0  0  0  0  0  0  0  0  0
   -5.0000   -7.2310   -4.1350 H   0  0  0  0  0  0  0  0  0  0  0  0
   -4.3390   -7.6470   -2.5430 H   0  0  0  0  0  0  0  0  0  0  0  0
   -6.2890   -6.9040   -1.5110 H   0  0  0  0  0  0  0  0  0  0  0  0
   -6.9940   -8.1210   -4.4440 H   0  0  0  0  0  0  0  0  0  0  0  0
   -7.2210   -8.5980   -7.1230 H   0  0  0  0  0  0  0  0  0  0  0  0
   -7.6280   -6.5740   -8.6410 H   0  0  0  0  0  0  0  0  0  0  0  0
   -6.8430   -3.3410   -9.5920 H   0  0  0  0  0  0  0  0  0  0  0  0
   -6.8550   -5.0380   -9.2750 H   0  0  0  0  0  0  0  0  0  0  0  0
   -7.7230   -3.8060   -5.2420 H   0  0  0  0  0  0  0  0  0  0  0  0
  1  2  1  0
  2  3  1  0
  3  4  2  0
  3  5  2  0
  3  6  1  0
  6  7  2  0
  7  8  1  0
  8  9  2  0
  9 10  1  0
 10 11  1  0
 11 12  1  0
 11 13  2  0
 10 14  2  0
 14  6  1  0
  1 15  1  0
  1 16  1  0
  1 17  1  0
  2 18  1  0
  7 19  1  0
  8 20  1  0
  9 21  1  0
 12 22  1  0
 12 23  1  0
 14 24  1  0
A    1
 C1 
A    2
 N1 
A    3
 S1 
A    4
 O1 
A    5
 O2 
A    6
 C2 
A    7
 C3 
A    8
 C4 
A    9
 C5 
A   10
 C6 
A   11
 C7 
A   12
 N2 
A   13
 O3 
A   14
 C8 
A   15
 H1 
A   16
 H2 
A   17
 H3 
A   18
 H4 
A   19
 H5 
A   20
 H6 
A   21
 H7 
A   22
 H8 
A   23
 H9 
A   24
 H10
M  END
>  <ref_pdb>  (45) 
x0147_0A

>  <ref_mols>  (45) 
x0771_1AS1,x1140_0AS1

>  <original SMILES>  (45) 
[H]c1c([H])c(C(=O)N([H])[H])c([H])c(S(=O)(=O)N([H])C([H])([H])[H])c1[H]

>  <index>  (45) 
16296

>  <∆∆G>  (45) 
-4.82589

>  <comRMSD>  (45) 
0.706612

>  <N_constrained_atoms>  (45) 
13.0

>  <N_unconstrained_atoms>  (45) 
1.0

>  <LE>  (45) 
0.344706

>  <percent_hybrid>  (45) 
34.0

>  <max_hit_Tanimoto>  (45) 
0.273657

>  <largest_ring>  (45) 
6

>  <N_interactions_kept>  (45) 
1.5

>  <N_interactions_lost>  (45) 
2.0

>  <interaction_uniqueness_metric>  (45) 
0.0732

>  <N_HA>  (45) 
14

>  <N_rotatable_bonds>  (45) 
4

>  <N_interactions>  (45) 
3

>  <N_PAINS>  (45) 
0

>  <UFF_Gibbs>  (45) 
96.237935

>  <strain_per_HA>  (45) 
6.874089

>  <ad_hoc_penalty>  (45) 
-8.243025

>  <cluster>  (45) 
3219

>  <ranked>  (45) 
1984.0

>  <merger_rank>  (45) 
2

>  <hydroph_interaction:LEU:127>  (45) 
0

>  <hbond:GLY:128>  (45) 
0

>  <hydroph_interaction:ALA:144>  (45) 
1

>  <hbond:GLY:164>  (45) 
1

>  <hbond:HIS:40>  (45) 
0

>  <pistack:HIS:40>  (45) 
0

>  <hydroph_interaction:LEU:125>  (45) 
0

>  <hydroph_interaction:PHE:170>  (45) 
0

>  <hydroph_interaction:HIS:40>  (45) 
0

>  <pication:HIS:40>  (45) 
0

>  <hbond:THR:142>  (45) 
1

>  <hbond:HIS:161>  (45) 
0

>  <hbond:GLY:166>  (45) 
0

>  <hbond:VAL:162>  (45) 
0

>  <hydroph_interaction:ASN:165>  (45) 
0

>  <saltbridge:HIS:161>  (45) 
0

>  <hbond:GLY:145>  (45) 
0

>  <hbond:CYS:147>  (45) 
0

>  <saltbridge:HIS:40>  (45) 
0

>  <hbond:LEU:127>  (45) 
0

>  <hbond:THR:130>  (45) 
0

>  <halogenbond:THR:142>  (45) 
0

>  <halogenbond:CYS:147>  (45) 
0

$$$$
PV-004877559178-x2021-0AS2
     RDKit          3D

 36 38  0  0  0  0  0  0  0  0999 V2000
   -6.8110   -4.9370   -3.4980 O   0  0  0  0  0  0  0  0  0  0  0  0
   -7.4400   -5.9680   -3.5760 C   0  0  0  0  0  0  0  0  0  0  0  0
   -8.7930   -5.9940   -3.4620 N   0  0  0  0  0  0  0  0  0  0  0  0
   -9.6250   -6.1710   -4.6640 C   0  0  0  0  0  0  0  0  0  0  0  0
   -8.9380   -5.6880   -5.9190 C   0  0  0  0  0  0  0  0  0  0  0  0
   -7.9640   -6.3920   -6.5080 C   0  0  0  0  0  0  0  0  0  0  0  0
   -7.2990   -5.9120   -7.7110 C   0  0  0  0  0  0  0  0  0  0  0  0
   -7.6280   -4.7190   -8.3110 C   0  0  0  0  0  0  0  0  0  0  0  0
   -6.9950   -4.3170   -9.3960 F   0  0  0  0  0  0  0  0  0  0  0  0
   -8.6690   -3.9280   -7.7280 N   0  0  0  0  0  0  0  0  0  0  0  0
   -9.2880   -4.4690   -6.5280 C   0  0  0  0  0  0  0  0  0  0  0  0
   -6.9090   -7.2410   -3.7840 N   0  0  0  0  0  0  0  0  0  0  0  0
   -5.5950   -7.4760   -3.7660 C   0  0  0  0  0  0  0  0  0  0  0  0
   -5.1740   -7.8860   -2.4950 C   0  0  0  0  0  0  0  0  0  0  0  0
   -5.8020   -9.0900   -1.8060 C   0  0  0  0  0  0  0  0  0  0  0  0
   -5.3190   -9.4210   -0.5330 C   0  0  0  0  0  0  0  0  0  0  0  0
   -4.2500   -8.5870    0.0340 C   0  0  0  0  0  0  0  0  0  0  0  0
   -3.7960   -8.8410    1.1540 O   0  0  0  0  0  0  0  0  0  0  0  0
   -2.8040   -7.7840    1.2760 C   0  0  0  0  0  0  0  0  0  0  0  0
   -2.7510   -6.9310    0.1180 O   0  0  0  0  0  0  0  0  0  0  0  0
   -3.7100   -7.5130   -0.6250 C   0  0  0  0  0  0  0  0  0  0  0  0
   -4.1580   -7.1510   -1.8810 C   0  0  0  0  0  0  0  0  0  0  0  0
   -9.1320   -5.3270   -2.7830 H   0  0  0  0  0  0  0  0  0  0  0  0
  -10.5800   -5.7030   -4.3940 H   0  0  0  0  0  0  0  0  0  0  0  0
   -9.8180   -7.2430   -4.7380 H   0  0  0  0  0  0  0  0  0  0  0  0
   -7.7070   -7.3430   -6.0210 H   0  0  0  0  0  0  0  0  0  0  0  0
   -6.5060   -6.5340   -8.1450 H   0  0  0  0  0  0  0  0  0  0  0  0
  -10.0800   -3.8380   -6.1040 H   0  0  0  0  0  0  0  0  0  0  0  0
   -7.4960   -8.0080   -3.4980 H   0  0  0  0  0  0  0  0  0  0  0  0
   -5.1110   -6.5760   -4.1530 H   0  0  0  0  0  0  0  0  0  0  0  0
   -5.4430   -8.2140   -4.5620 H   0  0  0  0  0  0  0  0  0  0  0  0
   -6.5890   -9.6730   -2.2690 H   0  0  0  0  0  0  0  0  0  0  0  0
   -5.5930  -10.2120    0.1510 H   0  0  0  0  0  0  0  0  0  0  0  0
   -3.0390   -7.1620    2.1500 H   0  0  0  0  0  0  0  0  0  0  0  0
   -1.8260   -8.2290    1.4170 H   0  0  0  0  0  0  0  0  0  0  0  0
   -3.7380   -6.3100   -2.3970 H   0  0  0  0  0  0  0  0  0  0  0  0
  1  2  2  0
  2  3  1  0
  3  4  1  0
  4  5  1  0
  5  6  2  0
  6  7  1  0
  7  8  2  0
  8  9  1  0
  8 10  1  0
 10 11  2  0
  2 12  1  0
 12 13  1  0
 13 14  1  0
 14 15  2  0
 15 16  1  0
 16 17  2  0
 17 18  1  0
 18 19  1  0
 19 20  1  0
 20 21  1  0
 21 22  2  0
 11  5  1  0
 22 14  1  0
 21 17  1  0
  3 23  1  0
  4 24  1  0
  4 25  1  0
  6 26  1  0
  7 27  1  0
 11 28  1  0
 12 29  1  0
 13 30  1  0
 13 31  1  0
 15 32  1  0
 16 33  1  0
 19 34  1  0
 19 35  1  0
 22 36  1  0
A    1
 O1 
A    2
 C1 
A    3
 N1 
A    4
 C2 
A    5
 C3 
A    6
 C4 
A    7
 C5 
A    8
 C6 
A    9
 F1 
A   10
 N2 
A   11
 C7 
A   12
 N3 
A   13
 C8 
A   14
 C9 
A   15
 C10
A   16
 C11
A   17
 C12
A   18
 O2 
A   19
 C13
A   20
 O3 
A   21
 C14
A   22
 C15
A   23
 H1 
A   24
 H2 
A   25
 H3 
A   26
 H4 
A   27
 H5 
A   28
 H6 
A   29
 H7 
A   30
 H8 
A   31
 H9 
A   32
 H10
A   33
 H11
A   34
 H12
A   35
 H13
A   36
 H14
M  END
>  <ref_pdb>  (46) 
x0147_0A

>  <ref_mols>  (46) 
x2021_0AS2,x1498_0A

>  <original SMILES>  (46) 
[H]c1nc(F)c([H])c([H])c1C([H])([H])N([H])C(=O)N([H])C([H])([H])c1c([H])c([H])c2c(c1[H])OC([H])([H])O2

>  <index>  (46) 
15212

>  <∆∆G>  (46) 
-4.184113

>  <comRMSD>  (46) 
0.784697

>  <N_constrained_atoms>  (46) 
21.0

>  <N_unconstrained_atoms>  (46) 
1.0

>  <LE>  (46) 
0.190187

>  <percent_hybrid>  (46) 
34.0

>  <max_hit_Tanimoto>  (46) 
0.5

>  <largest_ring>  (46) 
6

>  <N_interactions_kept>  (46) 
0.5

>  <N_interactions_lost>  (46) 
4.0

>  <interaction_uniqueness_metric>  (46) 
0.168101

>  <N_HA>  (46) 
22

>  <N_rotatable_bonds>  (46) 
4

>  <N_interactions>  (46) 
6

>  <N_PAINS>  (46) 
0

>  <UFF_Gibbs>  (46) 
108.047022

>  <strain_per_HA>  (46) 
4.911206

>  <ad_hoc_penalty>  (46) 
-8.121387

>  <cluster>  (46) 
179

>  <ranked>  (46) 
2012.0

>  <merger_rank>  (46) 
3

>  <hydroph_interaction:LEU:127>  (46) 
1

>  <hbond:GLY:128>  (46) 
0

>  <hydroph_interaction:ALA:144>  (46) 
0

>  <hbond:GLY:164>  (46) 
1

>  <hbond:HIS:40>  (46) 
1

>  <pistack:HIS:40>  (46) 
1

>  <hydroph_interaction:LEU:125>  (46) 
0

>  <hydroph_interaction:PHE:170>  (46) 
0

>  <hydroph_interaction:HIS:40>  (46) 
1

>  <pication:HIS:40>  (46) 
0

>  <hbond:THR:142>  (46) 
0

>  <hbond:HIS:161>  (46) 
0

>  <hbond:GLY:166>  (46) 
0

>  <hbond:VAL:162>  (46) 
0

>  <hydroph_interaction:ASN:165>  (46) 
0

>  <saltbridge:HIS:161>  (46) 
0

>  <hbond:GLY:145>  (46) 
0

>  <hbond:CYS:147>  (46) 
0

>  <saltbridge:HIS:40>  (46) 
0

>  <hbond:LEU:127>  (46) 
0

>  <hbond:THR:130>  (46) 
0

>  <halogenbond:THR:142>  (46) 
1

>  <halogenbond:CYS:147>  (46) 
0

$$$$
Z5293204520-x0771-1A
     RDKit          3D

 35 36  0  0  0  0  0  0  0  0999 V2000
   -8.6400   -5.0550   -1.2240 C   0  0  0  0  0  0  0  0  0  0  0  0
   -7.1660   -4.7730   -1.4790 C   0  0  0  0  0  0  0  0  0  0  0  0
   -6.2450   -5.7570   -0.7860 C   0  0  0  0  0  0  0  0  0  0  0  0
   -6.8060   -4.8450   -2.9550 C   0  0  0  0  0  0  0  0  0  0  0  0
   -6.4870   -3.8190   -3.5570 O   0  0  0  0  0  0  0  0  0  0  0  0
   -6.9100   -6.2340   -3.4030 N   0  0  0  0  0  0  0  0  0  0  0  0
   -7.0910   -6.3670   -4.8230 C   0  0  0  0  0  0  0  0  0  0  0  0
   -7.4210   -5.1090   -5.6090 C   0  0  0  0  0  0  0  0  0  0  0  0
   -7.5790   -5.1990   -7.0940 C   0  0  0  0  0  0  0  0  0  0  0  0
   -7.8700   -4.1880   -8.0130 C   0  0  0  0  0  0  0  0  0  0  0  0
   -8.7510   -3.3560   -7.8690 O   0  0  0  0  0  0  0  0  0  0  0  0
   -7.0890   -4.1890   -9.1200 O   0  0  0  0  0  0  0  0  0  0  0  0
   -7.3880   -6.6090   -7.6610 C   0  0  0  0  0  0  0  0  0  0  0  0
   -7.1210   -7.7010   -6.8120 C   0  0  0  0  0  0  0  0  0  0  0  0
   -6.9670   -7.5910   -5.4470 C   0  0  0  0  0  0  0  0  0  0  0  0
   -6.6850   -8.8540   -4.9220 C   0  0  0  0  0  0  0  0  0  0  0  0
   -6.4660   -9.8090   -5.9040 C   0  0  0  0  0  0  0  0  0  0  0  0
   -6.9660   -9.1450   -7.1910 C   0  0  0  0  0  0  0  0  0  0  0  0
   -8.7610   -5.9440   -0.5980 H   0  0  0  0  0  0  0  0  0  0  0  0
   -9.1240   -4.2170   -0.7060 H   0  0  0  0  0  0  0  0  0  0  0  0
   -9.1620   -5.1980   -2.1730 H   0  0  0  0  0  0  0  0  0  0  0  0
   -6.9420   -3.7690   -1.0940 H   0  0  0  0  0  0  0  0  0  0  0  0
   -6.8550   -6.3510   -0.0870 H   0  0  0  0  0  0  0  0  0  0  0  0
   -5.7780   -6.4140   -1.5290 H   0  0  0  0  0  0  0  0  0  0  0  0
   -5.4490   -5.2570   -0.2390 H   0  0  0  0  0  0  0  0  0  0  0  0
   -6.2350   -6.8460   -2.9440 H   0  0  0  0  0  0  0  0  0  0  0  0
   -7.5470   -4.1120   -5.1790 H   0  0  0  0  0  0  0  0  0  0  0  0
   -7.6660   -4.5370   -9.8310 H   0  0  0  0  0  0  0  0  0  0  0  0
   -7.4910   -6.6740   -8.7460 H   0  0  0  0  0  0  0  0  0  0  0  0
   -5.8010   -8.7750   -4.2820 H   0  0  0  0  0  0  0  0  0  0  0  0
   -7.5290   -9.1900   -4.3110 H   0  0  0  0  0  0  0  0  0  0  0  0
   -5.4670  -10.1740   -6.0950 H   0  0  0  0  0  0  0  0  0  0  0  0
   -6.9760  -10.7550   -5.6750 H   0  0  0  0  0  0  0  0  0  0  0  0
   -7.9360   -9.6050   -7.3790 H   0  0  0  0  0  0  0  0  0  0  0  0
   -6.4910   -9.2020   -8.1520 H   0  0  0  0  0  0  0  0  0  0  0  0
  1  2  1  0
  2  3  1  0
  2  4  1  0
  4  5  2  0
  4  6  1  0
  6  7  1  0
  7  8  2  0
  8  9  1  0
  9 10  1  0
 10 11  2  0
 10 12  1  0
  9 13  2  0
 13 14  1  0
 14 15  2  0
 15 16  1  0
 16 17  1  0
 17 18  1  0
 15  7  1  0
 18 14  1  0
  1 19  1  0
  1 20  1  0
  1 21  1  0
  2 22  1  0
  3 23  1  0
  3 24  1  0
  3 25  1  0
  6 26  1  0
  8 27  1  0
 12 28  1  0
 13 29  1  0
 16 30  1  0
 16 31  1  0
 17 32  1  0
 17 33  1  0
 18 34  1  0
 18 35  1  0
A    1
 C1 
A    2
 C2 
A    3
 C3 
A    4
 C4 
A    5
 O1 
A    6
 N1 
A    7
 C5 
A    8
 C6 
A    9
 C7 
A   10
 C8 
A   11
 O2 
A   12
 O3 
A   13
 C9 
A   14
 C10
A   15
 C11
A   16
 C12
A   17
 C13
A   18
 C14
A   19
 H1 
A   20
 H2 
A   21
 H3 
A   22
 H4 
A   23
 H5 
A   24
 H6 
A   25
 H7 
A   26
 H8 
A   27
 H9 
A   28
 H10
A   29
 H11
A   30
 H12
A   31
 H13
A   32
 H14
A   33
 H15
A   34
 H16
A   35
 H17
M  END
>  <ref_pdb>  (47) 
x0147_0A

>  <ref_mols>  (47) 
x0771_1A,x1140_0AS1

>  <original SMILES>  (47) 
[H]OC(=O)c1c([H])c(N([H])C(=O)C([H])(C([H])([H])[H])C([H])([H])[H])c2c(c1[H])C([H])([H])C([H])([H])C2([H])[H]

>  <index>  (47) 
11786

>  <∆∆G>  (47) 
-3.867676

>  <comRMSD>  (47) 
0.612065

>  <N_constrained_atoms>  (47) 
17.0

>  <N_unconstrained_atoms>  (47) 
1.0

>  <LE>  (47) 
0.214871

>  <percent_hybrid>  (47) 
32.0

>  <max_hit_Tanimoto>  (47) 
0.358974

>  <largest_ring>  (47) 
6

>  <N_interactions_kept>  (47) 
2.5

>  <N_interactions_lost>  (47) 
1.5

>  <interaction_uniqueness_metric>  (47) 
0.101705

>  <N_HA>  (47) 
18

>  <N_rotatable_bonds>  (47) 
5

>  <N_interactions>  (47) 
4

>  <N_PAINS>  (47) 
0

>  <UFF_Gibbs>  (47) 
216.032247

>  <strain_per_HA>  (47) 
12.001725

>  <ad_hoc_penalty>  (47) 
-7.979721

>  <cluster>  (47) 
1232

>  <ranked>  (47) 
2040.0

>  <merger_rank>  (47) 
2

>  <hydroph_interaction:LEU:127>  (47) 
0

>  <hbond:GLY:128>  (47) 
0

>  <hydroph_interaction:ALA:144>  (47) 
1

>  <hbond:GLY:164>  (47) 
2

>  <hbond:HIS:40>  (47) 
0

>  <pistack:HIS:40>  (47) 
0

>  <hydroph_interaction:LEU:125>  (47) 
0

>  <hydroph_interaction:PHE:170>  (47) 
0

>  <hydroph_interaction:HIS:40>  (47) 
0

>  <pication:HIS:40>  (47) 
0

>  <hbond:THR:142>  (47) 
0

>  <hbond:HIS:161>  (47) 
0

>  <hbond:GLY:166>  (47) 
0

>  <hbond:VAL:162>  (47) 
0

>  <hydroph_interaction:ASN:165>  (47) 
0

>  <saltbridge:HIS:161>  (47) 
1

>  <hbond:GLY:145>  (47) 
0

>  <hbond:CYS:147>  (47) 
0

>  <saltbridge:HIS:40>  (47) 
0

>  <hbond:LEU:127>  (47) 
0

>  <hbond:THR:130>  (47) 
0

>  <halogenbond:THR:142>  (47) 
0

>  <halogenbond:CYS:147>  (47) 
0

$$$$
Z740172008-x0771-1A
     RDKit          3D

 33 34  0  0  0  0  0  0  0  0999 V2000
   -3.7710   -7.5010   -1.3010 C   0  0  0  0  0  0  0  0  0  0  0  0
   -5.0620   -7.0020   -1.4450 C   0  0  0  0  0  0  0  0  0  0  0  0
   -5.4310   -6.6510   -2.8310 N   0  0  0  0  0  0  0  0  0  0  0  0
   -6.7990   -5.6720   -3.0760 S   0  0  0  0  0  6  0  0  0  0  0  0
   -6.4110   -4.2810   -3.0500 O   0  0  0  0  0  0  0  0  0  0  0  0
   -7.8430   -6.1740   -2.2130 O   0  0  0  0  0  0  0  0  0  0  0  0
   -7.0930   -5.9980   -4.7810 C   0  0  0  0  0  0  0  0  0  0  0  0
   -7.4010   -4.8930   -5.5620 C   0  0  0  0  0  0  0  0  0  0  0  0
   -7.5850   -5.0970   -6.9860 C   0  0  0  0  0  0  0  0  0  0  0  0
   -7.8970   -4.2980   -8.2650 C   0  0  0  0  0  0  0  0  0  0  0  0
   -8.8570   -3.5640   -8.3560 O   0  0  0  0  0  0  0  0  0  0  0  0
   -7.0010   -4.4580   -9.2730 O   0  0  0  0  0  0  0  0  0  0  0  0
   -7.5020   -6.3560   -7.7100 C   0  0  0  0  0  0  0  0  0  0  0  0
   -7.2040   -7.5100   -6.7430 C   0  0  0  0  0  0  0  0  0  0  0  0
   -7.0050   -7.3010   -5.3790 C   0  0  0  0  0  0  0  0  0  0  0  0
   -6.7160   -8.5440   -4.8320 C   0  0  0  0  0  0  0  0  0  0  0  0
   -6.4330   -9.4630   -5.8300 C   0  0  0  0  0  0  0  0  0  0  0  0
   -7.0670   -9.0220   -7.0200 C   0  0  0  0  0  0  0  0  0  0  0  0
   -3.6580   -8.5550   -1.0590 H   0  0  0  0  0  0  0  0  0  0  0  0
   -3.2290   -6.9650   -0.5180 H   0  0  0  0  0  0  0  0  0  0  0  0
   -3.2230   -7.3440   -2.2340 H   0  0  0  0  0  0  0  0  0  0  0  0
   -5.7610   -7.7370   -1.0380 H   0  0  0  0  0  0  0  0  0  0  0  0
   -5.1590   -6.0890   -0.8490 H   0  0  0  0  0  0  0  0  0  0  0  0
   -4.5930   -6.4840   -3.4210 H   0  0  0  0  0  0  0  0  0  0  0  0
   -7.4860   -3.8950   -5.1230 H   0  0  0  0  0  0  0  0  0  0  0  0
   -7.4950   -4.9820   -9.9490 H   0  0  0  0  0  0  0  0  0  0  0  0
   -7.6250   -6.5550   -8.7670 H   0  0  0  0  0  0  0  0  0  0  0  0
   -7.5530   -8.8900   -4.2200 H   0  0  0  0  0  0  0  0  0  0  0  0
   -5.8410   -8.4960   -4.1710 H   0  0  0  0  0  0  0  0  0  0  0  0
   -6.9090  -10.4070   -5.5460 H   0  0  0  0  0  0  0  0  0  0  0  0
   -5.3880   -9.7330   -5.9050 H   0  0  0  0  0  0  0  0  0  0  0  0
   -6.4450   -9.1370   -7.8960 H   0  0  0  0  0  0  0  0  0  0  0  0
   -8.0220   -9.4700   -7.2390 H   0  0  0  0  0  0  0  0  0  0  0  0
  1  2  1  0
  2  3  1  0
  3  4  1  0
  4  5  2  0
  4  6  2  0
  4  7  1  0
  7  8  2  0
  8  9  1  0
  9 10  1  0
 10 11  2  0
 10 12  1  0
  9 13  2  0
 13 14  1  0
 14 15  2  0
 15 16  1  0
 16 17  1  0
 17 18  1  0
 15  7  1  0
 18 14  1  0
  1 19  1  0
  1 20  1  0
  1 21  1  0
  2 22  1  0
  2 23  1  0
  3 24  1  0
  8 25  1  0
 12 26  1  0
 13 27  1  0
 16 28  1  0
 16 29  1  0
 17 30  1  0
 17 31  1  0
 18 32  1  0
 18 33  1  0
A    1
 C1 
A    2
 C2 
A    3
 N1 
A    4
 S1 
A    5
 O1 
A    6
 O2 
A    7
 C3 
A    8
 C4 
A    9
 C5 
A   10
 C6 
A   11
 O3 
A   12
 O4 
A   13
 C7 
A   14
 C8 
A   15
 C9 
A   16
 C10
A   17
 C11
A   18
 C12
A   19
 H1 
A   20
 H2 
A   21
 H3 
A   22
 H4 
A   23
 H5 
A   24
 H6 
A   25
 H7 
A   26
 H8 
A   27
 H9 
A   28
 H10
A   29
 H11
A   30
 H12
A   31
 H13
A   32
 H14
A   33
 H15
M  END
>  <ref_pdb>  (48) 
x0147_0A

>  <ref_mols>  (48) 
x0771_1A,x1140_0AS1

>  <original SMILES>  (48) 
[H]OC(=O)c1c([H])c2c(c(S(=O)(=O)N([H])C([H])([H])C([H])([H])[H])c1[H])C([H])([H])C([H])([H])C2([H])[H]

>  <index>  (48) 
11778

>  <∆∆G>  (48) 
-5.285549

>  <comRMSD>  (48) 
0.653291

>  <N_constrained_atoms>  (48) 
16.0

>  <N_unconstrained_atoms>  (48) 
2.0

>  <LE>  (48) 
0.293642

>  <percent_hybrid>  (48) 
27.0

>  <max_hit_Tanimoto>  (48) 
0.224138

>  <largest_ring>  (48) 
6

>  <N_interactions_kept>  (48) 
1.0

>  <N_interactions_lost>  (48) 
3.0

>  <interaction_uniqueness_metric>  (48) 
0.133886

>  <N_HA>  (48) 
18

>  <N_rotatable_bonds>  (48) 
5

>  <N_interactions>  (48) 
5

>  <N_PAINS>  (48) 
0

>  <UFF_Gibbs>  (48) 
163.22019

>  <strain_per_HA>  (48) 
9.067738

>  <ad_hoc_penalty>  (48) 
-7.761858

>  <cluster>  (48) 
4442

>  <ranked>  (48) 
2080.0

>  <merger_rank>  (48) 
3

>  <hydroph_interaction:LEU:127>  (48) 
1

>  <hbond:GLY:128>  (48) 
0

>  <hydroph_interaction:ALA:144>  (48) 
1

>  <hbond:GLY:164>  (48) 
1

>  <hbond:HIS:40>  (48) 
0

>  <pistack:HIS:40>  (48) 
0

>  <hydroph_interaction:LEU:125>  (48) 
0

>  <hydroph_interaction:PHE:170>  (48) 
0

>  <hydroph_interaction:HIS:40>  (48) 
0

>  <pication:HIS:40>  (48) 
0

>  <hbond:THR:142>  (48) 
0

>  <hbond:HIS:161>  (48) 
0

>  <hbond:GLY:166>  (48) 
0

>  <hbond:VAL:162>  (48) 
1

>  <hydroph_interaction:ASN:165>  (48) 
0

>  <saltbridge:HIS:161>  (48) 
1

>  <hbond:GLY:145>  (48) 
0

>  <hbond:CYS:147>  (48) 
0

>  <saltbridge:HIS:40>  (48) 
0

>  <hbond:LEU:127>  (48) 
0

>  <hbond:THR:130>  (48) 
0

>  <halogenbond:THR:142>  (48) 
0

>  <halogenbond:CYS:147>  (48) 
0

$$$$
PV-003708894745-x1084-0A
     RDKit          3D

 43 44  0  0  0  0  0  0  0  0999 V2000
   -2.9070   -7.5450    2.6520 N   0  0  0  0  0  0  0  0  0  0  0  0
   -3.6580   -8.6170    2.0100 C   0  0  0  0  0  0  0  0  0  0  0  0
   -4.0940   -8.1430    0.6540 C   0  0  0  0  0  0  0  0  0  0  0  0
   -2.9630   -7.8240   -0.2870 C   0  0  0  0  0  0  0  0  0  0  0  0
   -3.3200   -7.3200   -1.6820 C   0  0  0  0  0  0  0  0  0  0  0  0
   -4.7870   -7.1710   -2.0030 C   0  0  0  0  0  0  0  0  0  0  0  0
   -5.0790   -6.7240   -3.1660 N   0  0  0  0  0  0  0  0  0  0  0  0
   -6.4170   -6.9650   -3.6790 C   0  0  0  0  0  0  0  0  0  0  0  0
   -7.0730   -7.9700   -3.5570 O   0  0  0  0  0  0  0  0  0  0  0  0
   -6.9230   -5.9010   -4.3720 N   0  0  0  0  0  0  0  0  0  0  0  0
   -7.9310   -6.2410   -5.3680 C   0  0  2  0  0  0  0  0  0  0  0  0
   -7.5860   -7.4790   -5.9930 C   0  0  0  0  0  0  0  0  0  0  0  0
   -6.8380   -7.3650   -7.1820 C   0  0  0  0  0  0  0  0  0  0  0  0
   -7.0950   -6.2760   -8.0270 C   0  0  0  0  0  0  0  0  0  0  0  0
   -8.1090   -5.4080   -7.5310 C   0  0  2  0  0  0  0  0  0  0  0  0
   -7.9770   -4.1230   -8.2300 C   0  0  0  0  0  0  0  0  0  0  0  0
   -8.9430   -3.2060   -8.0350 N   0  0  0  0  0  0  0  0  0  0  0  0
   -6.8900   -3.9370   -9.0270 O   0  0  0  0  0  0  0  0  0  0  0  0
   -8.0310   -5.1220   -6.1950 C   0  0  0  0  0  0  0  0  0  0  0  0
   -5.7600   -7.5090   -1.0510 C   0  0  0  0  0  0  0  0  0  0  0  0
   -5.4280   -7.9820    0.2370 C   0  0  0  0  0  0  0  0  0  0  0  0
   -3.0290   -7.4080    3.6520 H   0  0  0  0  0  0  0  0  0  0  0  0
   -1.9170   -7.6450    2.4150 H   0  0  0  0  0  0  0  0  0  0  0  0
   -3.0280   -9.5050    1.9010 H   0  0  0  0  0  0  0  0  0  0  0  0
   -4.5360   -8.8630    2.6140 H   0  0  0  0  0  0  0  0  0  0  0  0
   -1.9320   -7.9600    0.0510 H   0  0  0  0  0  0  0  0  0  0  0  0
   -2.5680   -7.0720   -2.4220 H   0  0  0  0  0  0  0  0  0  0  0  0
   -4.3160   -6.6720   -3.8620 H   0  0  0  0  0  0  0  0  0  0  0  0
   -7.1350   -5.1010   -3.7950 H   0  0  0  0  0  0  0  0  0  0  0  0
   -8.8570   -6.2190   -4.8010 H   0  0  0  0  0  0  0  0  0  0  0  0
   -7.1040   -8.1630   -5.3040 H   0  0  0  0  0  0  0  0  0  0  0  0
   -8.4880   -8.0580   -6.1930 H   0  0  0  0  0  0  0  0  0  0  0  0
   -6.7270   -8.3100   -7.7180 H   0  0  0  0  0  0  0  0  0  0  0  0
   -5.8180   -7.1890   -6.8190 H   0  0  0  0  0  0  0  0  0  0  0  0
   -7.1960   -6.5380   -9.0700 H   0  0  0  0  0  0  0  0  0  0  0  0
   -6.1860   -5.6800   -8.0290 H   0  0  0  0  0  0  0  0  0  0  0  0
   -9.1060   -5.8000   -7.7260 H   0  0  0  0  0  0  0  0  0  0  0  0
   -9.5790   -3.2700   -7.2510 H   0  0  0  0  0  0  0  0  0  0  0  0
   -9.2790   -2.7360   -8.8820 H   0  0  0  0  0  0  0  0  0  0  0  0
   -7.1710   -4.4890   -6.0320 H   0  0  0  0  0  0  0  0  0  0  0  0
   -8.9080   -4.5550   -5.8920 H   0  0  0  0  0  0  0  0  0  0  0  0
   -6.8240   -7.4060   -1.2900 H   0  0  0  0  0  0  0  0  0  0  0  0
   -6.2290   -8.2220    0.9300 H   0  0  0  0  0  0  0  0  0  0  0  0
  1  2  1  0
  2  3  1  0
  3  4  2  0
  4  5  1  0
  5  6  2  0
  6  7  1  0
  7  8  1  0
  8  9  2  0
  8 10  1  0
 10 11  1  0
 11 12  1  0
 12 13  1  0
 13 14  1  0
 14 15  1  0
 15 16  1  0
 16 17  1  0
 16 18  2  0
 15 19  1  0
  6 20  1  0
 20 21  2  0
 21  3  1  0
 19 11  1  0
  1 22  1  0
  1 23  1  0
  2 24  1  0
  2 25  1  0
  4 26  1  0
  5 27  1  0
  7 28  1  0
 10 29  1  0
 11 30  1  1
 12 31  1  0
 12 32  1  0
 13 33  1  0
 13 34  1  0
 14 35  1  0
 14 36  1  0
 15 37  1  1
 17 38  1  0
 17 39  1  0
 19 40  1  0
 19 41  1  0
 20 42  1  0
 21 43  1  0
A    1
 N1 
A    2
 C1 
A    3
 C2 
A    4
 C3 
A    5
 C4 
A    6
 C5 
A    7
 N2 
A    8
 C6 
A    9
 O1 
A   10
 N3 
A   11
 C7 
A   12
 C8 
A   13
 C9 
A   14
 C10
A   15
 C11
A   16
 C12
A   17
 N4 
A   18
 O2 
A   19
 C13
A   20
 C14
A   21
 C15
A   22
 H1 
A   23
 H2 
A   24
 H3 
A   25
 H4 
A   26
 H5 
A   27
 H6 
A   28
 H7 
A   29
 H8 
A   30
 H9 
A   31
 H10
A   32
 H11
A   33
 H12
A   34
 H13
A   35
 H14
A   36
 H15
A   37
 H16
A   38
 H17
A   39
 H18
A   40
 H19
A   41
 H20
A   42
 H21
A   43
 H22
M  END
>  <ref_pdb>  (49) 
x0147_0A

>  <ref_mols>  (49) 
x1084_0A,x0771_0AS1

>  <original SMILES>  (49) 
[H]c1c([H])c(C([H])([H])N([H])[H])c([H])c([H])c1N([H])C(=O)N([H])[C@]1([H])C([H])([H])C([H])([H])C([H])([H])[C@]([H])(C(=O)N([H])[H])C1([H])[H]

>  <index>  (49) 
7058

>  <∆∆G>  (49) 
-6.105733

>  <comRMSD>  (49) 
0.625766

>  <N_constrained_atoms>  (49) 
21.0

>  <N_unconstrained_atoms>  (49) 
0.0

>  <LE>  (49) 
0.290749

>  <percent_hybrid>  (49) 
43.0

>  <max_hit_Tanimoto>  (49) 
0.225275

>  <largest_ring>  (49) 
6

>  <N_interactions_kept>  (49) 
0.5

>  <N_interactions_lost>  (49) 
4.0

>  <interaction_uniqueness_metric>  (49) 
0.188268

>  <N_HA>  (49) 
21

>  <N_rotatable_bonds>  (49) 
5

>  <N_interactions>  (49) 
6

>  <N_PAINS>  (49) 
0

>  <UFF_Gibbs>  (49) 
258.935982

>  <strain_per_HA>  (49) 
12.330226

>  <ad_hoc_penalty>  (49) 
-7.689073

>  <cluster>  (49) 
206

>  <ranked>  (49) 
2096.0

>  <merger_rank>  (49) 
3

>  <hydroph_interaction:LEU:127>  (49) 
1

>  <hbond:GLY:128>  (49) 
0

>  <hydroph_interaction:ALA:144>  (49) 
0

>  <hbond:GLY:164>  (49) 
0

>  <hbond:HIS:40>  (49) 
0

>  <pistack:HIS:40>  (49) 
0

>  <hydroph_interaction:LEU:125>  (49) 
0

>  <hydroph_interaction:PHE:170>  (49) 
0

>  <hydroph_interaction:HIS:40>  (49) 
1

>  <pication:HIS:40>  (49) 
0

>  <hbond:THR:142>  (49) 
1

>  <hbond:HIS:161>  (49) 
0

>  <hbond:GLY:166>  (49) 
0

>  <hbond:VAL:162>  (49) 
1

>  <hydroph_interaction:ASN:165>  (49) 
0

>  <saltbridge:HIS:161>  (49) 
0

>  <hbond:GLY:145>  (49) 
0

>  <hbond:CYS:147>  (49) 
0

>  <saltbridge:HIS:40>  (49) 
0

>  <hbond:LEU:127>  (49) 
1

>  <hbond:THR:130>  (49) 
1

>  <halogenbond:THR:142>  (49) 
0

>  <halogenbond:CYS:147>  (49) 
0

$$$$
Z905987250-x2099-0A
     RDKit          3D

 41 42  0  0  0  0  0  0  0  0999 V2000
   -6.2980   -5.7200   -0.8050 C   0  0  0  0  0  0  0  0  0  0  0  0
   -7.2930   -4.8380   -1.5070 C   0  0  0  0  0  0  0  0  0  0  0  0
   -6.9420   -4.8060   -2.9710 C   0  0  0  0  0  0  0  0  0  0  0  0
   -6.4490   -3.5630   -3.4590 O   0  0  0  0  0  0  0  0  0  0  0  0
   -7.1640   -6.0530   -3.6730 N   0  0  0  0  0  0  0  0  0  0  0  0
   -7.2370   -6.1340   -5.0510 C   0  0  0  0  0  0  0  0  0  0  0  0
   -7.1290   -7.4080   -5.5380 C   0  0  0  0  0  0  0  0  0  0  0  0
   -7.1700   -7.6220   -7.0160 C   0  0  0  0  0  0  0  0  0  0  0  0
   -7.3040   -6.4460   -7.8310 C   0  0  0  0  0  0  0  0  0  0  0  0
   -7.4260   -5.2070   -7.3150 C   0  0  0  0  0  0  0  0  0  0  0  0
   -7.5730   -4.1520   -8.2100 C   0  0  0  0  0  0  0  0  0  0  0  0
   -6.7560   -4.0130   -9.1170 O   0  0  0  0  0  0  0  0  0  0  0  0
   -8.6820   -3.3560   -7.9830 N   0  0  0  0  0  0  0  0  0  0  0  0
   -9.3810   -3.5700   -6.7150 C   0  0  2  0  0  0  0  0  0  0  0  0
   -9.7610   -5.0390   -6.5330 C   0  0  0  0  0  0  0  0  0  0  0  0
  -10.5980   -2.7230   -6.4840 C   0  0  0  0  0  0  0  0  0  0  0  0
  -11.5600   -2.4710   -7.4470 C   0  0  0  0  0  0  0  0  0  0  0  0
  -12.7420   -1.6200   -7.0860 C   0  0  0  0  0  0  0  0  0  0  0  0
  -12.7970   -1.1220   -5.7680 C   0  0  0  0  0  0  0  0  0  0  0  0
  -11.8420   -1.3810   -4.8460 N   0  0  0  0  0  0  0  0  0  0  0  0
  -10.7900   -2.1580   -5.2210 C   0  0  0  0  0  0  0  0  0  0  0  0
   -7.4000   -5.0370   -5.9140 C   0  0  0  0  0  0  0  0  0  0  0  0
   -5.5230   -5.1290   -0.3330 H   0  0  0  0  0  0  0  0  0  0  0  0
   -6.7860   -6.3000   -0.0140 H   0  0  0  0  0  0  0  0  0  0  0  0
   -5.8260   -6.4100   -1.5080 H   0  0  0  0  0  0  0  0  0  0  0  0
   -7.2420   -3.8250   -1.0980 H   0  0  0  0  0  0  0  0  0  0  0  0
   -8.3060   -5.2300   -1.3670 H   0  0  0  0  0  0  0  0  0  0  0  0
   -6.8840   -6.9030   -3.1940 H   0  0  0  0  0  0  0  0  0  0  0  0
   -7.0120   -8.2660   -4.8810 H   0  0  0  0  0  0  0  0  0  0  0  0
   -7.0970   -8.6100   -7.4490 H   0  0  0  0  0  0  0  0  0  0  0  0
   -7.3070   -6.6580   -8.9040 H   0  0  0  0  0  0  0  0  0  0  0  0
   -9.1930   -2.9930   -8.7990 H   0  0  0  0  0  0  0  0  0  0  0  0
   -8.6580   -3.3310   -5.9280 H   0  0  0  0  0  0  0  0  0  0  0  0
  -10.8480   -5.1410   -6.5760 H   0  0  0  0  0  0  0  0  0  0  0  0
   -9.3800   -5.7700   -7.2420 H   0  0  0  0  0  0  0  0  0  0  0  0
   -9.4610   -5.3780   -5.5350 H   0  0  0  0  0  0  0  0  0  0  0  0
  -11.5400   -2.8460   -8.4740 H   0  0  0  0  0  0  0  0  0  0  0  0
  -13.5210   -1.3940   -7.8040 H   0  0  0  0  0  0  0  0  0  0  0  0
  -13.6230   -0.4980   -5.4340 H   0  0  0  0  0  0  0  0  0  0  0  0
  -10.0690   -2.3210   -4.4280 H   0  0  0  0  0  0  0  0  0  0  0  0
   -7.4970   -4.0310   -5.5210 H   0  0  0  0  0  0  0  0  0  0  0  0
  1  2  1  0
  2  3  1  0
  3  4  2  0
  3  5  1  0
  5  6  1  0
  6  7  2  0
  7  8  1  0
  8  9  2  0
  9 10  1  0
 10 11  1  0
 11 12  2  0
 11 13  1  0
 13 14  1  0
 14 15  1  0
 14 16  1  0
 16 17  2  0
 17 18  1  0
 18 19  2  0
 19 20  1  0
 20 21  2  0
 10 22  2  0
 22  6  1  0
 21 16  1  0
  1 23  1  0
  1 24  1  0
  1 25  1  0
  2 26  1  0
  2 27  1  0
  5 28  1  0
  7 29  1  0
  8 30  1  0
  9 31  1  0
 13 32  1  0
 14 33  1  1
 15 34  1  0
 15 35  1  0
 15 36  1  0
 17 37  1  0
 18 38  1  0
 19 39  1  0
 21 40  1  0
 22 41  1  0
A    1
 C1 
A    2
 C2 
A    3
 C3 
A    4
 O1 
A    5
 N1 
A    6
 C4 
A    7
 C5 
A    8
 C6 
A    9
 C7 
A   10
 C8 
A   11
 C9 
A   12
 O2 
A   13
 N2 
A   14
 C10
A   15
 C11
A   16
 C12
A   17
 C13
A   18
 C14
A   19
 C15
A   20
 N3 
A   21
 C16
A   22
 C17
A   23
 H1 
A   24
 H2 
A   25
 H3 
A   26
 H4 
A   27
 H5 
A   28
 H6 
A   29
 H7 
A   30
 H8 
A   31
 H9 
A   32
 H10
A   33
 H11
A   34
 H12
A   35
 H13
A   36
 H14
A   37
 H15
A   38
 H16
A   39
 H17
A   40
 H18
A   41
 H19
M  END
>  <ref_pdb>  (50) 
x0147_0A

>  <ref_mols>  (50) 
x2099_0A,x1140_0AS1

>  <original SMILES>  (50) 
[H]c1nc([H])c([C@]([H])(N([H])C(=O)c2c([H])c([H])c([H])c(N([H])C(=O)C([H])([H])C([H])([H])[H])c2[H])C([H])([H])[H])c([H])c1[H]

>  <index>  (50) 
1427

>  <∆∆G>  (50) 
-8.099853

>  <comRMSD>  (50) 
0.710287

>  <N_constrained_atoms>  (50) 
22.0

>  <N_unconstrained_atoms>  (50) 
0.0

>  <LE>  (50) 
0.368175

>  <percent_hybrid>  (50) 
24.0

>  <max_hit_Tanimoto>  (50) 
0.191023

>  <largest_ring>  (50) 
6

>  <N_interactions_kept>  (50) 
1.5

>  <N_interactions_lost>  (50) 
2.0

>  <interaction_uniqueness_metric>  (50) 
0.0732

>  <N_HA>  (50) 
22

>  <N_rotatable_bonds>  (50) 
7

>  <N_interactions>  (50) 
3

>  <N_PAINS>  (50) 
0

>  <UFF_Gibbs>  (50) 
428.634091

>  <strain_per_HA>  (50) 
19.483279

>  <ad_hoc_penalty>  (50) 
-7.671018

>  <cluster>  (50) 
8

>  <ranked>  (50) 
2100.0

>  <merger_rank>  (50) 
1

>  <hydroph_interaction:LEU:127>  (50) 
0

>  <hbond:GLY:128>  (50) 
0

>  <hydroph_interaction:ALA:144>  (50) 
1

>  <hbond:GLY:164>  (50) 
1

>  <hbond:HIS:40>  (50) 
0

>  <pistack:HIS:40>  (50) 
0

>  <hydroph_interaction:LEU:125>  (50) 
0

>  <hydroph_interaction:PHE:170>  (50) 
0

>  <hydroph_interaction:HIS:40>  (50) 
0

>  <pication:HIS:40>  (50) 
0

>  <hbond:THR:142>  (50) 
1

>  <hbond:HIS:161>  (50) 
0

>  <hbond:GLY:166>  (50) 
0

>  <hbond:VAL:162>  (50) 
0

>  <hydroph_interaction:ASN:165>  (50) 
0

>  <saltbridge:HIS:161>  (50) 
0

>  <hbond:GLY:145>  (50) 
0

>  <hbond:CYS:147>  (50) 
0

>  <saltbridge:HIS:40>  (50) 
0

>  <hbond:LEU:127>  (50) 
0

>  <hbond:THR:130>  (50) 
0

>  <halogenbond:THR:142>  (50) 
0

>  <halogenbond:CYS:147>  (50) 
0

$$$$
PV-005950392169-x2099-0A
     RDKit          3D

 48 51  0  0  0  0  0  0  0  0999 V2000
  -12.3420   -6.0130   -6.0580 C   0  0  0  0  0  0  0  0  0  0  0  0
  -12.2090   -6.2350   -4.5470 C   0  0  0  0  0  0  0  0  0  0  0  0
  -13.2070   -5.4250   -3.7640 C   0  0  0  0  0  0  0  0  0  0  0  0
  -12.8210   -4.0690   -3.7500 C   0  0  0  0  0  0  0  0  0  0  0  0
  -11.4060   -3.7650   -3.1820 C   0  0  0  0  0  0  0  0  0  0  0  0
  -10.5600   -3.0660   -4.1400 O   0  0  0  0  0  0  0  0  0  0  0  0
  -11.1920   -2.5780   -5.2290 C   0  0  0  0  0  0  0  0  0  0  0  0
  -12.3850   -1.6880   -4.9730 C   0  0  0  0  0  0  0  0  0  0  0  0
  -13.1620   -1.1520   -6.0920 C   0  0  0  0  0  0  0  0  0  0  0  0
  -12.6380   -1.5800   -7.4550 C   0  0  0  0  0  0  0  0  0  0  0  0
  -11.5040   -2.3970   -7.6180 C   0  0  0  0  0  0  0  0  0  0  0  0
  -10.7650   -2.9040   -6.5530 C   0  0  0  0  0  0  0  0  0  0  0  0
   -9.6580   -3.7320   -6.8470 C   0  0  0  0  0  0  0  0  0  0  0  0
   -8.7860   -3.4350   -7.9830 N   0  0  0  0  0  0  0  0  0  0  0  0
   -7.7310   -4.3440   -8.1840 C   0  0  0  0  0  0  0  0  0  0  0  0
   -6.8930   -4.2400   -9.1010 O   0  0  0  0  0  0  0  0  0  0  0  0
   -7.7120   -5.3530   -7.2270 C   0  0  0  0  0  0  0  0  0  0  0  0
   -7.1670   -6.6150   -7.6300 N   0  0  0  0  0  0  0  0  0  0  0  0
   -7.2340   -7.6170   -6.5460 C   0  0  0  0  0  0  0  0  0  0  0  0
   -7.7190   -7.3330   -5.3020 C   0  0  0  0  0  0  0  0  0  0  0  0
   -8.2020   -6.0790   -5.0270 C   0  0  0  0  0  0  0  0  0  0  0  0
   -8.2220   -5.0860   -5.9700 C   0  0  0  0  0  0  0  0  0  0  0  0
   -8.7480   -3.8450   -5.7310 N   0  0  0  0  0  0  0  0  0  0  0  0
  -10.8090   -5.1080   -2.9090 C   0  0  0  0  0  0  0  0  0  0  0  0
  -10.8030   -5.8610   -4.0710 C   0  0  0  0  0  0  0  0  0  0  0  0
  -11.3650   -5.9140   -6.5440 H   0  0  0  0  0  0  0  0  0  0  0  0
  -12.8560   -6.8540   -6.5370 H   0  0  0  0  0  0  0  0  0  0  0  0
  -12.9170   -5.1060   -6.2720 H   0  0  0  0  0  0  0  0  0  0  0  0
  -12.3580   -7.3050   -4.3510 H   0  0  0  0  0  0  0  0  0  0  0  0
  -14.2030   -5.5370   -4.2080 H   0  0  0  0  0  0  0  0  0  0  0  0
  -13.2530   -5.7770   -2.7260 H   0  0  0  0  0  0  0  0  0  0  0  0
  -12.9020   -3.5340   -4.6960 H   0  0  0  0  0  0  0  0  0  0  0  0
  -13.5300   -3.5680   -3.0820 H   0  0  0  0  0  0  0  0  0  0  0  0
  -11.4910   -3.1640   -2.2700 H   0  0  0  0  0  0  0  0  0  0  0  0
  -12.6920   -1.4420   -3.9600 H   0  0  0  0  0  0  0  0  0  0  0  0
  -14.0320   -0.5150   -5.9730 H   0  0  0  0  0  0  0  0  0  0  0  0
  -13.1750   -1.2250   -8.3410 H   0  0  0  0  0  0  0  0  0  0  0  0
  -11.1690   -2.6650   -8.6230 H   0  0  0  0  0  0  0  0  0  0  0  0
  -10.0970   -4.6830   -7.1250 H   0  0  0  0  0  0  0  0  0  0  0  0
   -9.2000   -3.0870   -8.8570 H   0  0  0  0  0  0  0  0  0  0  0  0
   -6.8950   -8.6000   -6.7540 H   0  0  0  0  0  0  0  0  0  0  0  0
   -7.7330   -8.0980   -4.5300 H   0  0  0  0  0  0  0  0  0  0  0  0
   -8.5790   -5.9520   -4.0040 H   0  0  0  0  0  0  0  0  0  0  0  0
   -9.2340   -3.7820   -4.8420 H   0  0  0  0  0  0  0  0  0  0  0  0
  -11.3410   -5.6390   -2.1130 H   0  0  0  0  0  0  0  0  0  0  0  0
   -9.7820   -4.9820   -2.5400 H   0  0  0  0  0  0  0  0  0  0  0  0
  -10.2660   -5.3030   -4.8460 H   0  0  0  0  0  0  0  0  0  0  0  0
  -10.2360   -6.7830   -3.9060 H   0  0  0  0  0  0  0  0  0  0  0  0
  1  2  1  0
  2  3  1  0
  3  4  1  0
  4  5  1  0
  5  6  1  0
  6  7  1  0
  7  8  2  0
  8  9  1  0
  9 10  2  0
 10 11  1  0
 11 12  2  0
 12 13  1  0
 13 14  1  0
 14 15  1  0
 15 16  2  0
 15 17  1  0
 17 18  2  0
 18 19  1  0
 19 20  2  0
 20 21  1  0
 21 22  2  0
 22 23  1  0
  5 24  1  0
 24 25  1  0
 25  2  1  0
 12  7  1  0
 23 13  1  0
 22 17  1  0
  1 26  1  0
  1 27  1  0
  1 28  1  0
  2 29  1  0
  3 30  1  0
  3 31  1  0
  4 32  1  0
  4 33  1  0
  5 34  1  0
  8 35  1  0
  9 36  1  0
 10 37  1  0
 11 38  1  0
 13 39  1  0
 14 40  1  0
 19 41  1  0
 20 42  1  0
 21 43  1  0
 23 44  1  0
 24 45  1  0
 24 46  1  0
 25 47  1  0
 25 48  1  0
A    1
 C1 
A    2
 C2 
A    3
 C3 
A    4
 C4 
A    5
 C5 
A    6
 O1 
A    7
 C6 
A    8
 C7 
A    9
 C8 
A   10
 C9 
A   11
 C10
A   12
 C11
A   13
 C12
A   14
 N1 
A   15
 C13
A   16
 O2 
A   17
 C14
A   18
 N2 
A   19
 C15
A   20
 C16
A   21
 C17
A   22
 C18
A   23
 N3 
A   24
 C19
A   25
 C20
A   26
 H1 
A   27
 H2 
A   28
 H3 
A   29
 H4 
A   30
 H5 
A   31
 H6 
A   32
 H7 
A   33
 H8 
A   34
 H9 
A   35
 H10
A   36
 H11
A   37
 H12
A   38
 H13
A   39
 H14
A   40
 H15
A   41
 H16
A   42
 H17
A   43
 H18
A   44
 H19
A   45
 H20
A   46
 H21
A   47
 H22
A   48
 H23
M  END
>  <ref_pdb>  (51) 
x0147_0A

>  <ref_mols>  (51) 
x2099_0A,x0789_0AS3

>  <original SMILES>  (51) 
[H]c1nc2c(c([H])c1[H])N([H])C([H])(c1c([H])c([H])c([H])c([H])c1OC1([H])C([H])([H])C([H])([H])C([H])(C([H])([H])[H])C([H])([H])C1([H])[H])N([H])C2=O

>  <index>  (51) 
15053

>  <∆∆G>  (51) 
-3.660084

>  <comRMSD>  (51) 
0.803509

>  <N_constrained_atoms>  (51) 
23.0

>  <N_unconstrained_atoms>  (51) 
2.0

>  <LE>  (51) 
0.146403

>  <percent_hybrid>  (51) 
27.0

>  <max_hit_Tanimoto>  (51) 
0.214396

>  <largest_ring>  (51) 
6

>  <N_interactions_kept>  (51) 
0.0

>  <N_interactions_lost>  (51) 
1.5

>  <interaction_uniqueness_metric>  (51) 
0.077495

>  <N_HA>  (51) 
25

>  <N_rotatable_bonds>  (51) 
4

>  <N_interactions>  (51) 
4

>  <N_PAINS>  (51) 
0

>  <UFF_Gibbs>  (51) 
415.83754

>  <strain_per_HA>  (51) 
16.633435

>  <ad_hoc_penalty>  (51) 
-7.431288

>  <cluster>  (51) 
3557

>  <ranked>  (51) 
2139.0

>  <merger_rank>  (51) 
1

>  <hydroph_interaction:LEU:127>  (51) 
0

>  <hbond:GLY:128>  (51) 
0

>  <hydroph_interaction:ALA:144>  (51) 
1

>  <hbond:GLY:164>  (51) 
2

>  <hbond:HIS:40>  (51) 
0

>  <pistack:HIS:40>  (51) 
0

>  <hydroph_interaction:LEU:125>  (51) 
0

>  <hydroph_interaction:PHE:170>  (51) 
0

>  <hydroph_interaction:HIS:40>  (51) 
0

>  <pication:HIS:40>  (51) 
0

>  <hbond:THR:142>  (51) 
1

>  <hbond:HIS:161>  (51) 
0

>  <hbond:GLY:166>  (51) 
0

>  <hbond:VAL:162>  (51) 
0

>  <hydroph_interaction:ASN:165>  (51) 
0

>  <saltbridge:HIS:161>  (51) 
0

>  <hbond:GLY:145>  (51) 
0

>  <hbond:CYS:147>  (51) 
0

>  <saltbridge:HIS:40>  (51) 
0

>  <hbond:LEU:127>  (51) 
0

>  <hbond:THR:130>  (51) 
0

>  <halogenbond:THR:142>  (51) 
0

>  <halogenbond:CYS:147>  (51) 
0

$$$$
PV-004834005229-x0771-1A
     RDKit          3D

 33 34  0  0  0  0  0  0  0  0999 V2000
   -7.1650   -3.5270   -1.2630 C   0  0  0  0  0  0  0  0  0  0  0  0
   -7.0920   -5.0300   -1.3660 C   0  0  0  0  0  0  0  0  0  0  0  0
   -6.4980   -5.3540   -2.9940 S   0  0  0  0  0  6  0  0  0  0  0  0
   -6.3170   -4.0630   -3.6390 O   0  0  0  0  0  0  0  0  0  0  0  0
   -5.5250   -6.4040   -2.9360 O   0  0  0  0  0  0  0  0  0  0  0  0
   -7.8270   -5.9960   -3.6860 N   0  0  0  0  0  0  0  0  0  0  0  0
   -7.6770   -6.0790   -5.0080 C   0  0  0  0  0  0  0  0  0  0  0  0
   -7.3390   -7.4560   -5.4430 C   0  0  0  0  0  0  0  0  0  0  0  0
   -7.1030   -7.7840   -6.8690 C   0  0  0  0  0  0  0  0  0  0  0  0
   -6.8000   -9.2550   -7.0560 C   0  0  0  0  0  0  0  0  0  0  0  0
   -7.4780  -10.0480   -6.2800 C   0  0  0  0  0  0  0  0  0  0  0  0
   -6.1390   -9.9140   -5.7600 C   0  0  0  0  0  0  0  0  0  0  0  0
   -7.2130   -6.7010   -7.7560 C   0  0  0  0  0  0  0  0  0  0  0  0
   -7.5800   -5.3100   -7.2700 C   0  0  0  0  0  0  0  0  0  0  0  0
   -7.7270   -4.1620   -8.2180 C   0  0  0  0  0  0  0  0  0  0  0  0
   -8.5080   -3.2260   -8.1240 O   0  0  0  0  0  0  0  0  0  0  0  0
   -6.8780   -4.2550   -9.2670 O   0  0  0  0  0  0  0  0  0  0  0  0
   -7.7990   -5.0500   -5.9170 C   0  0  0  0  0  0  0  0  0  0  0  0
   -7.7640   -3.2140   -0.4110 H   0  0  0  0  0  0  0  0  0  0  0  0
   -6.1620   -3.1080   -1.1350 H   0  0  0  0  0  0  0  0  0  0  0  0
   -7.5970   -3.0910   -2.1650 H   0  0  0  0  0  0  0  0  0  0  0  0
   -6.3610   -5.4430   -0.6610 H   0  0  0  0  0  0  0  0  0  0  0  0
   -8.0780   -5.5000   -1.2260 H   0  0  0  0  0  0  0  0  0  0  0  0
   -8.7330   -5.6440   -3.4030 H   0  0  0  0  0  0  0  0  0  0  0  0
   -7.3000   -8.1280   -4.5790 H   0  0  0  0  0  0  0  0  0  0  0  0
   -6.6950   -9.6710   -8.0590 H   0  0  0  0  0  0  0  0  0  0  0  0
   -8.2450   -9.6840   -5.5800 H   0  0  0  0  0  0  0  0  0  0  0  0
   -7.6360  -11.0380   -6.7270 H   0  0  0  0  0  0  0  0  0  0  0  0
   -5.6120  -10.8600   -5.8280 H   0  0  0  0  0  0  0  0  0  0  0  0
   -6.1710   -9.4400   -4.7700 H   0  0  0  0  0  0  0  0  0  0  0  0
   -7.0610   -6.7860   -8.8290 H   0  0  0  0  0  0  0  0  0  0  0  0
   -6.4810   -3.3700   -9.3440 H   0  0  0  0  0  0  0  0  0  0  0  0
   -8.0570   -4.0360   -5.5920 H   0  0  0  0  0  0  0  0  0  0  0  0
  1  2  1  0
  2  3  1  0
  3  4  2  0
  3  5  2  0
  3  6  1  0
  6  7  1  0
  7  8  2  0
  8  9  1  0
  9 10  1  0
 10 11  1  0
 11 12  1  0
  9 13  2  0
 13 14  1  0
 14 15  1  0
 15 16  2  0
 15 17  1  0
 14 18  2  0
 18  7  1  0
 12 10  1  0
  1 19  1  0
  1 20  1  0
  1 21  1  0
  2 22  1  0
  2 23  1  0
  6 24  1  0
  8 25  1  0
 10 26  1  0
 11 27  1  0
 11 28  1  0
 12 29  1  0
 12 30  1  0
 13 31  1  0
 17 32  1  0
 18 33  1  0
A    1
 C1 
A    2
 C2 
A    3
 S1 
A    4
 O1 
A    5
 O2 
A    6
 N1 
A    7
 C3 
A    8
 C4 
A    9
 C5 
A   10
 C6 
A   11
 C7 
A   12
 C8 
A   13
 C9 
A   14
 C10
A   15
 C11
A   16
 O3 
A   17
 O4 
A   18
 C12
A   19
 H1 
A   20
 H2 
A   21
 H3 
A   22
 H4 
A   23
 H5 
A   24
 H6 
A   25
 H7 
A   26
 H8 
A   27
 H9 
A   28
 H10
A   29
 H11
A   30
 H12
A   31
 H13
A   32
 H14
A   33
 H15
M  END
>  <ref_pdb>  (52) 
x0147_0A

>  <ref_mols>  (52) 
x0771_1A,x1140_0AS1

>  <original SMILES>  (52) 
[H]OC(=O)c1c([H])c(N([H])S(=O)(=O)C([H])([H])C([H])([H])[H])c([H])c(C2([H])C([H])([H])C2([H])[H])c1[H]

>  <index>  (52) 
11780

>  <∆∆G>  (52) 
-3.748822

>  <comRMSD>  (52) 
0.843516

>  <N_constrained_atoms>  (52) 
17.0

>  <N_unconstrained_atoms>  (52) 
1.0

>  <LE>  (52) 
0.208268

>  <percent_hybrid>  (52) 
32.0

>  <max_hit_Tanimoto>  (52) 
0.27248

>  <largest_ring>  (52) 
6

>  <N_interactions_kept>  (52) 
2.5

>  <N_interactions_lost>  (52) 
1.5

>  <interaction_uniqueness_metric>  (52) 
0.101705

>  <N_HA>  (52) 
18

>  <N_rotatable_bonds>  (52) 
6

>  <N_interactions>  (52) 
4

>  <N_PAINS>  (52) 
0

>  <UFF_Gibbs>  (52) 
165.267831

>  <strain_per_HA>  (52) 
9.181495

>  <ad_hoc_penalty>  (52) 
-7.119189

>  <cluster>  (52) 
4441

>  <ranked>  (52) 
2193.0

>  <merger_rank>  (52) 
4

>  <hydroph_interaction:LEU:127>  (52) 
0

>  <hbond:GLY:128>  (52) 
0

>  <hydroph_interaction:ALA:144>  (52) 
1

>  <hbond:GLY:164>  (52) 
2

>  <hbond:HIS:40>  (52) 
0

>  <pistack:HIS:40>  (52) 
0

>  <hydroph_interaction:LEU:125>  (52) 
0

>  <hydroph_interaction:PHE:170>  (52) 
0

>  <hydroph_interaction:HIS:40>  (52) 
0

>  <pication:HIS:40>  (52) 
0

>  <hbond:THR:142>  (52) 
0

>  <hbond:HIS:161>  (52) 
0

>  <hbond:GLY:166>  (52) 
0

>  <hbond:VAL:162>  (52) 
0

>  <hydroph_interaction:ASN:165>  (52) 
0

>  <saltbridge:HIS:161>  (52) 
1

>  <hbond:GLY:145>  (52) 
0

>  <hbond:CYS:147>  (52) 
0

>  <saltbridge:HIS:40>  (52) 
0

>  <hbond:LEU:127>  (52) 
0

>  <hbond:THR:130>  (52) 
0

>  <halogenbond:THR:142>  (52) 
0

>  <halogenbond:CYS:147>  (52) 
0

$$$$
Z4278567214-x1919-0AS4
     RDKit          3D

 35 35  0  0  0  0  0  0  0  0999 V2000
   -5.4540    0.3310   -1.8930 C   0  0  0  0  0  0  0  0  0  0  0  0
   -6.1740    0.1700   -0.5790 C   0  0  0  0  0  0  0  0  0  0  0  0
   -7.2780   -0.8850   -0.6940 C   0  0  0  0  0  0  0  0  0  0  0  0
   -6.7400   -2.2010   -0.6900 O   0  0  0  0  0  0  0  0  0  0  0  0
   -7.7240   -3.1800   -1.0450 C   0  0  0  0  0  0  0  0  0  0  0  0
   -7.0810   -4.4960   -1.4960 C   0  0  0  0  0  0  0  0  0  0  0  0
   -7.4150   -4.5610   -3.2420 S   0  0  0  0  0  6  0  0  0  0  0  0
   -6.2380   -4.0560   -3.8950 O   0  0  0  0  0  0  0  0  0  0  0  0
   -8.7060   -3.9620   -3.4300 O   0  0  0  0  0  0  0  0  0  0  0  0
   -7.5890   -6.1810   -3.6540 N   0  0  0  0  0  0  0  0  0  0  0  0
   -8.6850   -6.4460   -4.6300 C   0  0  0  0  0  0  0  0  0  0  0  0
   -8.3790   -5.8350   -5.8630 C   0  0  0  0  0  0  0  0  0  0  0  0
   -7.4940   -6.4580   -6.7220 C   0  0  0  0  0  0  0  0  0  0  0  0
   -7.0620   -6.0100   -7.9370 C   0  0  0  0  0  0  0  0  0  0  0  0
   -7.6070   -4.7680   -8.3140 C   0  0  0  0  0  0  0  0  0  0  0  0
   -7.2230   -4.2560   -9.4650 F   0  0  0  0  0  0  0  0  0  0  0  0
   -8.5920   -4.0090   -7.4700 N   0  0  0  0  0  0  0  0  0  0  0  0
   -8.9140   -4.6030   -6.2900 C   0  0  0  0  0  0  0  0  0  0  0  0
   -6.0180   -0.1360   -2.7060 H   0  0  0  0  0  0  0  0  0  0  0  0
   -5.3250    1.3910   -2.1320 H   0  0  0  0  0  0  0  0  0  0  0  0
   -4.4720   -0.1350   -1.8520 H   0  0  0  0  0  0  0  0  0  0  0  0
   -6.5960    1.1340   -0.2750 H   0  0  0  0  0  0  0  0  0  0  0  0
   -5.4680   -0.1160    0.2050 H   0  0  0  0  0  0  0  0  0  0  0  0
   -8.0260   -0.7780    0.0990 H   0  0  0  0  0  0  0  0  0  0  0  0
   -7.8010   -0.7630   -1.6510 H   0  0  0  0  0  0  0  0  0  0  0  0
   -8.2880   -2.7860   -1.8980 H   0  0  0  0  0  0  0  0  0  0  0  0
   -8.4350   -3.3680   -0.2370 H   0  0  0  0  0  0  0  0  0  0  0  0
   -7.5450   -5.3750   -1.0370 H   0  0  0  0  0  0  0  0  0  0  0  0
   -5.9990   -4.5180   -1.3580 H   0  0  0  0  0  0  0  0  0  0  0  0
   -6.6870   -6.5900   -3.9110 H   0  0  0  0  0  0  0  0  0  0  0  0
   -9.6190   -6.0350   -4.2440 H   0  0  0  0  0  0  0  0  0  0  0  0
   -8.7960   -7.5220   -4.7970 H   0  0  0  0  0  0  0  0  0  0  0  0
   -7.0810   -7.4240   -6.3910 H   0  0  0  0  0  0  0  0  0  0  0  0
   -6.3500   -6.6250   -8.4950 H   0  0  0  0  0  0  0  0  0  0  0  0
   -9.6240   -4.0420   -5.6780 H   0  0  0  0  0  0  0  0  0  0  0  0
  1  2  1  0
  2  3  1  0
  3  4  1  0
  4  5  1  0
  5  6  1  0
  6  7  1  0
  7  8  2  0
  7  9  2  0
  7 10  1  0
 10 11  1  0
 11 12  1  0
 12 13  2  0
 13 14  1  0
 14 15  2  0
 15 16  1  0
 15 17  1  0
 17 18  2  0
 18 12  1  0
  1 19  1  0
  1 20  1  0
  1 21  1  0
  2 22  1  0
  2 23  1  0
  3 24  1  0
  3 25  1  0
  5 26  1  0
  5 27  1  0
  6 28  1  0
  6 29  1  0
 10 30  1  0
 11 31  1  0
 11 32  1  0
 13 33  1  0
 14 34  1  0
 18 35  1  0
A    1
 C1 
A    2
 C2 
A    3
 C3 
A    4
 O1 
A    5
 C4 
A    6
 C5 
A    7
 S1 
A    8
 O2 
A    9
 O3 
A   10
 N1 
A   11
 C6 
A   12
 C7 
A   13
 C8 
A   14
 C9 
A   15
 C10
A   16
 F1 
A   17
 N2 
A   18
 C11
A   19
 H1 
A   20
 H2 
A   21
 H3 
A   22
 H4 
A   23
 H5 
A   24
 H6 
A   25
 H7 
A   26
 H8 
A   27
 H9 
A   28
 H10
A   29
 H11
A   30
 H12
A   31
 H13
A   32
 H14
A   33
 H15
A   34
 H16
A   35
 H17
M  END
>  <ref_pdb>  (53) 
x0147_0A

>  <ref_mols>  (53) 
x1919_0AS4,x1498_0A

>  <original SMILES>  (53) 
[H]c1nc(F)c([H])c([H])c1C([H])([H])N([H])S(=O)(=O)C([H])([H])C([H])([H])OC([H])([H])C([H])([H])C([H])([H])[H]

>  <index>  (53) 
1376

>  <∆∆G>  (53) 
-6.273663

>  <comRMSD>  (53) 
0.56816

>  <N_constrained_atoms>  (53) 
17.0

>  <N_unconstrained_atoms>  (53) 
1.0

>  <LE>  (53) 
0.348537

>  <percent_hybrid>  (53) 
42.0

>  <max_hit_Tanimoto>  (53) 
0.231959

>  <largest_ring>  (53) 
6

>  <N_interactions_kept>  (53) 
0.5

>  <N_interactions_lost>  (53) 
3.5

>  <interaction_uniqueness_metric>  (53) 
0.179187

>  <N_HA>  (53) 
18

>  <N_rotatable_bonds>  (53) 
9

>  <N_interactions>  (53) 
6

>  <N_PAINS>  (53) 
0

>  <UFF_Gibbs>  (53) 
85.457417

>  <strain_per_HA>  (53) 
4.747608

>  <ad_hoc_penalty>  (53) 
-6.686411

>  <cluster>  (53) 
633

>  <ranked>  (53) 
2278.0

>  <merger_rank>  (53) 
2

>  <hydroph_interaction:LEU:127>  (53) 
1

>  <hbond:GLY:128>  (53) 
1

>  <hydroph_interaction:ALA:144>  (53) 
0

>  <hbond:GLY:164>  (53) 
1

>  <hbond:HIS:40>  (53) 
0

>  <pistack:HIS:40>  (53) 
0

>  <hydroph_interaction:LEU:125>  (53) 
1

>  <hydroph_interaction:PHE:170>  (53) 
1

>  <hydroph_interaction:HIS:40>  (53) 
0

>  <pication:HIS:40>  (53) 
0

>  <hbond:THR:142>  (53) 
0

>  <hbond:HIS:161>  (53) 
0

>  <hbond:GLY:166>  (53) 
0

>  <hbond:VAL:162>  (53) 
0

>  <hydroph_interaction:ASN:165>  (53) 
0

>  <saltbridge:HIS:161>  (53) 
0

>  <hbond:GLY:145>  (53) 
0

>  <hbond:CYS:147>  (53) 
0

>  <saltbridge:HIS:40>  (53) 
0

>  <hbond:LEU:127>  (53) 
0

>  <hbond:THR:130>  (53) 
0

>  <halogenbond:THR:142>  (53) 
1

>  <halogenbond:CYS:147>  (53) 
0

$$$$
PV-002745623567-x0771-1AS1
     RDKit          3D

 26 26  0  0  0  0  0  0  0  0999 V2000
   -4.6220   -6.8710   -2.6830 C   0  0  0  0  0  0  0  0  0  0  0  0
   -6.0420   -6.8320   -2.4690 N   0  0  0  0  0  0  0  0  0  0  0  0
   -6.9850   -5.6000   -3.0800 S   0  0  0  0  0  6  0  0  0  0  0  0
   -8.5790   -5.5250   -2.2210 C   0  0  0  0  0  0  0  0  0  0  0  0
   -6.2790   -4.3420   -2.9970 O   0  0  0  0  0  0  0  0  0  0  0  0
   -7.2470   -5.9540   -4.7960 C   0  0  0  0  0  0  0  0  0  0  0  0
   -7.1230   -7.2360   -5.2540 C   0  0  0  0  0  0  0  0  0  0  0  0
   -7.3040   -7.5090   -6.7370 C   0  0  0  0  0  0  0  0  0  0  0  0
   -7.5970   -6.3270   -7.5820 C   0  0  0  0  0  0  0  0  0  0  0  0
   -7.7190   -5.0960   -7.0150 C   0  0  0  0  0  0  0  0  0  0  0  0
   -8.0240   -4.0330   -8.0050 C   0  0  0  0  0  0  0  0  0  0  0  0
   -7.2680   -4.1400   -9.1350 N   0  0  0  0  0  0  0  0  0  0  0  0
   -8.8710   -3.1730   -7.8130 O   0  0  0  0  0  0  0  0  0  0  0  0
   -7.5600   -4.8770   -5.6730 C   0  0  0  0  0  0  0  0  0  0  0  0
   -4.0920   -7.0460   -1.7410 H   0  0  0  0  0  0  0  0  0  0  0  0
   -4.3690   -7.6670   -3.3890 H   0  0  0  0  0  0  0  0  0  0  0  0
   -4.2970   -5.9160   -3.0960 H   0  0  0  0  0  0  0  0  0  0  0  0
   -9.1960   -4.7430   -2.6720 H   0  0  0  0  0  0  0  0  0  0  0  0
   -8.3860   -5.2610   -1.1750 H   0  0  0  0  0  0  0  0  0  0  0  0
   -9.0690   -6.5020   -2.2420 H   0  0  0  0  0  0  0  0  0  0  0  0
   -6.8890   -8.0350   -4.5450 H   0  0  0  0  0  0  0  0  0  0  0  0
   -7.2130   -8.5170   -7.1450 H   0  0  0  0  0  0  0  0  0  0  0  0
   -7.7040   -6.5140   -8.6500 H   0  0  0  0  0  0  0  0  0  0  0  0
   -6.8970   -3.3200   -9.5830 H   0  0  0  0  0  0  0  0  0  0  0  0
   -6.6750   -4.9600   -9.0970 H   0  0  0  0  0  0  0  0  0  0  0  0
   -7.6630   -3.8610   -5.2820 H   0  0  0  0  0  0  0  0  0  0  0  0
  1  2  1  0
  2  3  2  0
  3  4  1  0
  3  5  2  0
  3  6  1  0
  6  7  2  0
  7  8  1  0
  8  9  2  0
  9 10  1  0
 10 11  1  0
 11 12  1  0
 11 13  2  0
 10 14  2  0
 14  6  1  0
  1 15  1  0
  1 16  1  0
  1 17  1  0
  4 18  1  0
  4 19  1  0
  4 20  1  0
  7 21  1  0
  8 22  1  0
  9 23  1  0
 12 24  1  0
 12 25  1  0
 14 26  1  0
A    1
 C1 
A    2
 N1 
A    3
 S1 
A    4
 C2 
A    5
 O1 
A    6
 C3 
A    7
 C4 
A    8
 C5 
A    9
 C6 
A   10
 C7 
A   11
 C8 
A   12
 N2 
A   13
 O2 
A   14
 C9 
A   15
 H1 
A   16
 H2 
A   17
 H3 
A   18
 H4 
A   19
 H5 
A   20
 H6 
A   21
 H7 
A   22
 H8 
A   23
 H9 
A   24
 H10
A   25
 H11
A   26
 H12
M  END
>  <ref_pdb>  (54) 
x0147_0A

>  <ref_mols>  (54) 
x0771_1AS1,x1140_0AS1

>  <original SMILES>  (54) 
[H]c1c([H])c(C(=O)N([H])[H])c([H])c(S(=O)(=NC([H])([H])[H])C([H])([H])[H])c1[H]

>  <index>  (54) 
16295

>  <∆∆G>  (54) 
-4.964508

>  <comRMSD>  (54) 
0.89413

>  <N_constrained_atoms>  (54) 
14.0

>  <N_unconstrained_atoms>  (54) 
1.0

>  <LE>  (54) 
0.330967

>  <percent_hybrid>  (54) 
39.0

>  <max_hit_Tanimoto>  (54) 
0.225738

>  <largest_ring>  (54) 
6

>  <N_interactions_kept>  (54) 
1.5

>  <N_interactions_lost>  (54) 
2.0

>  <interaction_uniqueness_metric>  (54) 
0.049531

>  <N_HA>  (54) 
14

>  <N_rotatable_bonds>  (54) 
4

>  <N_interactions>  (54) 
2

>  <N_PAINS>  (54) 
0

>  <UFF_Gibbs>  (54) 
61.674277

>  <strain_per_HA>  (54) 
4.405274

>  <ad_hoc_penalty>  (54) 
-6.383633

>  <cluster>  (54) 
3220

>  <ranked>  (54) 
2342.0

>  <merger_rank>  (54) 
3

>  <hydroph_interaction:LEU:127>  (54) 
0

>  <hbond:GLY:128>  (54) 
0

>  <hydroph_interaction:ALA:144>  (54) 
0

>  <hbond:GLY:164>  (54) 
1

>  <hbond:HIS:40>  (54) 
0

>  <pistack:HIS:40>  (54) 
0

>  <hydroph_interaction:LEU:125>  (54) 
0

>  <hydroph_interaction:PHE:170>  (54) 
0

>  <hydroph_interaction:HIS:40>  (54) 
0

>  <pication:HIS:40>  (54) 
0

>  <hbond:THR:142>  (54) 
1

>  <hbond:HIS:161>  (54) 
0

>  <hbond:GLY:166>  (54) 
0

>  <hbond:VAL:162>  (54) 
0

>  <hydroph_interaction:ASN:165>  (54) 
0

>  <saltbridge:HIS:161>  (54) 
0

>  <hbond:GLY:145>  (54) 
0

>  <hbond:CYS:147>  (54) 
0

>  <saltbridge:HIS:40>  (54) 
0

>  <hbond:LEU:127>  (54) 
0

>  <hbond:THR:130>  (54) 
0

>  <halogenbond:THR:142>  (54) 
0

>  <halogenbond:CYS:147>  (54) 
0

$$$$
Z4265541692-x1919-0AS4
     RDKit          3D

 43 43  0  0  0  0  0  0  0  0999 V2000
   -5.4260    0.2790   -1.8760 C   0  0  0  0  0  0  0  0  0  0  0  0
   -6.1990    0.1610   -0.5800 C   0  0  0  0  0  0  0  0  0  0  0  0
   -7.2550   -0.8620   -0.6670 C   0  0  0  0  0  0  0  0  0  0  0  0
   -6.6570   -2.1520   -0.6980 O   0  0  0  0  0  0  0  0  0  0  0  0
   -7.6020   -3.1400   -1.1260 C   0  0  0  0  0  0  0  0  0  0  0  0
   -6.9550   -4.3380   -1.4310 C   0  0  0  0  0  0  0  0  0  0  0  0
   -7.2320   -4.6030   -3.1540 S   0  0  0  0  0  6  0  0  0  0  0  0
   -6.1620   -3.9180   -3.8200 O   0  0  0  0  0  0  0  0  0  0  0  0
   -8.6120   -4.2780   -3.4030 O   0  0  0  0  0  0  0  0  0  0  0  0
   -7.0600   -6.2660   -3.3680 N   0  0  0  0  0  0  0  0  0  0  0  0
   -8.1520   -7.0710   -3.1140 C   0  0  0  0  0  0  0  0  0  0  0  0
   -8.9630   -7.3150   -4.3710 C   0  0  0  0  0  0  0  0  0  0  0  0
   -9.5360   -6.2290   -5.0640 C   0  0  0  0  0  0  0  0  0  0  0  0
   -8.8710   -5.7450   -6.1940 C   0  0  0  0  0  0  0  0  0  0  0  0
   -7.8320   -6.5010   -6.7180 C   0  0  0  0  0  0  0  0  0  0  0  0
   -7.0640   -6.0760   -7.9180 C   0  0  0  0  0  0  0  0  0  0  0  0
   -7.4100   -4.8870   -8.5190 C   0  0  0  0  0  0  0  0  0  0  0  0
   -6.7520   -4.4690   -9.6140 O   0  0  0  0  0  0  0  0  0  0  0  0
   -8.5540   -4.0510   -7.9380 C   0  0  0  0  0  0  0  0  0  0  0  0
   -9.2330   -4.5180   -6.8020 C   0  0  0  0  0  0  0  0  0  0  0  0
   -4.4310   -0.1500   -1.7550 H   0  0  0  0  0  0  0  0  0  0  0  0
   -5.9290   -0.2370   -2.7000 H   0  0  0  0  0  0  0  0  0  0  0  0
   -5.3140    1.3260   -2.1570 H   0  0  0  0  0  0  0  0  0  0  0  0
   -6.6350    1.1330   -0.3260 H   0  0  0  0  0  0  0  0  0  0  0  0
   -5.5170   -0.1130    0.2310 H   0  0  0  0  0  0  0  0  0  0  0  0
   -7.9420   -0.7860    0.1840 H   0  0  0  0  0  0  0  0  0  0  0  0
   -7.8340   -0.6880   -1.5800 H   0  0  0  0  0  0  0  0  0  0  0  0
   -8.1220   -2.7600   -2.0080 H   0  0  0  0  0  0  0  0  0  0  0  0
   -8.3670   -3.2890   -0.3600 H   0  0  0  0  0  0  0  0  0  0  0  0
   -5.8830   -4.2920   -1.2260 H   0  0  0  0  0  0  0  0  0  0  0  0
   -7.3530   -5.1820   -0.8560 H   0  0  0  0  0  0  0  0  0  0  0  0
   -6.1360   -6.6240   -3.1210 H   0  0  0  0  0  0  0  0  0  0  0  0
   -7.7780   -8.0330   -2.7320 H   0  0  0  0  0  0  0  0  0  0  0  0
   -8.7910   -6.6330   -2.3450 H   0  0  0  0  0  0  0  0  0  0  0  0
   -8.3520   -7.8950   -5.0690 H   0  0  0  0  0  0  0  0  0  0  0  0
   -9.7830   -7.9900   -4.0840 H   0  0  0  0  0  0  0  0  0  0  0  0
  -10.5500   -6.5120   -5.3730 H   0  0  0  0  0  0  0  0  0  0  0  0
   -9.6850   -5.3910   -4.3760 H   0  0  0  0  0  0  0  0  0  0  0  0
   -7.4880   -7.4590   -6.3050 H   0  0  0  0  0  0  0  0  0  0  0  0
   -6.2600   -6.6930   -8.3000 H   0  0  0  0  0  0  0  0  0  0  0  0
   -7.1740   -4.9130  -10.3800 H   0  0  0  0  0  0  0  0  0  0  0  0
   -8.8300   -3.1110   -8.4090 H   0  0  0  0  0  0  0  0  0  0  0  0
  -10.0450   -3.9240   -6.3940 H   0  0  0  0  0  0  0  0  0  0  0  0
  1  2  1  0
  2  3  1  0
  3  4  1  0
  4  5  1  0
  5  6  1  0
  6  7  1  0
  7  8  2  0
  7  9  2  0
  7 10  1  0
 10 11  1  0
 11 12  1  0
 12 13  1  0
 13 14  1  0
 14 15  2  0
 15 16  1  0
 16 17  2  0
 17 18  1  0
 17 19  1  0
 19 20  2  0
 20 14  1  0
  1 21  1  0
  1 22  1  0
  1 23  1  0
  2 24  1  0
  2 25  1  0
  3 26  1  0
  3 27  1  0
  5 28  1  0
  5 29  1  0
  6 30  1  0
  6 31  1  0
 10 32  1  0
 11 33  1  0
 11 34  1  0
 12 35  1  0
 12 36  1  0
 13 37  1  0
 13 38  1  0
 15 39  1  0
 16 40  1  0
 18 41  1  0
 19 42  1  0
 20 43  1  0
A    1
 C1 
A    2
 C2 
A    3
 C3 
A    4
 O1 
A    5
 C4 
A    6
 C5 
A    7
 S1 
A    8
 O2 
A    9
 O3 
A   10
 N1 
A   11
 C6 
A   12
 C7 
A   13
 C8 
A   14
 C9 
A   15
 C10
A   16
 C11
A   17
 C12
A   18
 O4 
A   19
 C13
A   20
 C14
A   21
 H1 
A   22
 H2 
A   23
 H3 
A   24
 H4 
A   25
 H5 
A   26
 H6 
A   27
 H7 
A   28
 H8 
A   29
 H9 
A   30
 H10
A   31
 H11
A   32
 H12
A   33
 H13
A   34
 H14
A   35
 H15
A   36
 H16
A   37
 H17
A   38
 H18
A   39
 H19
A   40
 H20
A   41
 H21
A   42
 H22
A   43
 H23
M  END
>  <ref_pdb>  (55) 
x0147_0A

>  <ref_mols>  (55) 
x1919_0AS4,x1498_0A

>  <original SMILES>  (55) 
[H]Oc1c([H])c([H])c(C([H])([H])C([H])([H])C([H])([H])N([H])S(=O)(=O)C([H])([H])C([H])([H])OC([H])([H])C([H])([H])C([H])([H])[H])c([H])c1[H]

>  <index>  (55) 
1378

>  <∆∆G>  (55) 
-9.413635

>  <comRMSD>  (55) 
0.39188

>  <N_constrained_atoms>  (55) 
17.0

>  <N_unconstrained_atoms>  (55) 
3.0

>  <LE>  (55) 
0.470682

>  <percent_hybrid>  (55) 
42.0

>  <max_hit_Tanimoto>  (55) 
0.295082

>  <largest_ring>  (55) 
6

>  <N_interactions_kept>  (55) 
0.5

>  <N_interactions_lost>  (55) 
3.5

>  <interaction_uniqueness_metric>  (55) 
0.1259

>  <N_HA>  (55) 
20

>  <N_rotatable_bonds>  (55) 
12

>  <N_interactions>  (55) 
6

>  <N_PAINS>  (55) 
0

>  <UFF_Gibbs>  (55) 
220.335184

>  <strain_per_HA>  (55) 
11.016704

>  <ad_hoc_penalty>  (55) 
-5.614558

>  <cluster>  (55) 
314

>  <ranked>  (55) 
2516.0

>  <merger_rank>  (55) 
3

>  <hydroph_interaction:LEU:127>  (55) 
1

>  <hbond:GLY:128>  (55) 
1

>  <hydroph_interaction:ALA:144>  (55) 
0

>  <hbond:GLY:164>  (55) 
1

>  <hbond:HIS:40>  (55) 
0

>  <pistack:HIS:40>  (55) 
0

>  <hydroph_interaction:LEU:125>  (55) 
1

>  <hydroph_interaction:PHE:170>  (55) 
1

>  <hydroph_interaction:HIS:40>  (55) 
0

>  <pication:HIS:40>  (55) 
0

>  <hbond:THR:142>  (55) 
1

>  <hbond:HIS:161>  (55) 
0

>  <hbond:GLY:166>  (55) 
0

>  <hbond:VAL:162>  (55) 
0

>  <hydroph_interaction:ASN:165>  (55) 
0

>  <saltbridge:HIS:161>  (55) 
0

>  <hbond:GLY:145>  (55) 
0

>  <hbond:CYS:147>  (55) 
0

>  <saltbridge:HIS:40>  (55) 
0

>  <hbond:LEU:127>  (55) 
0

>  <hbond:THR:130>  (55) 
0

>  <halogenbond:THR:142>  (55) 
0

>  <halogenbond:CYS:147>  (55) 
0

$$$$
Z1473691741-x0771-1AS1
     RDKit          3D

 34 35  0  0  0  0  0  0  0  0999 V2000
   -7.1050   -4.2720   -9.2190 N   0  0  0  0  0  0  0  0  0  0  0  0
   -7.9910   -3.9850   -8.1140 C   0  0  0  0  0  0  0  0  0  0  0  0
   -8.8700   -2.8820   -7.9800 O   0  0  0  0  0  0  0  0  0  0  0  0
   -7.8260   -5.0690   -7.1190 C   0  0  0  0  0  0  0  0  0  0  0  0
   -7.4780   -6.4010   -7.7180 C   0  0  0  0  0  0  0  0  0  0  0  0
   -7.3470   -7.5050   -6.7050 C   0  0  0  0  0  0  0  0  0  0  0  0
   -7.5450   -7.1450   -5.2410 C   0  0  0  0  0  0  0  0  0  0  0  0
   -7.8480   -5.7900   -4.9420 C   0  0  0  0  0  0  0  0  0  0  0  0
   -8.0010   -5.4840   -3.6040 N   0  0  0  0  0  0  0  0  0  0  0  0
   -7.4200   -6.2830   -2.7150 C   0  0  0  0  0  0  0  0  0  0  0  0
   -7.9290   -6.6820   -1.7070 O   0  0  0  0  0  0  0  0  0  0  0  0
   -6.1510   -6.6150   -3.1520 N   0  0  0  0  0  0  0  0  0  0  0  0
   -5.7050   -7.9850   -3.0930 C   0  0  0  0  0  0  0  0  0  0  0  0
   -5.1420   -8.1510   -1.8480 C   0  0  0  0  0  0  0  0  0  0  0  0
   -5.8880   -9.0200   -0.8730 C   0  0  0  0  0  0  0  0  0  0  0  0
   -5.3100   -9.1810    0.4030 C   0  0  0  0  0  0  0  0  0  0  0  0
   -4.1050   -8.5690    0.7590 C   0  0  0  0  0  0  0  0  0  0  0  0
   -3.4460   -7.7730   -0.1800 C   0  0  0  0  0  0  0  0  0  0  0  0
   -3.9460   -7.5620   -1.4610 C   0  0  0  0  0  0  0  0  0  0  0  0
   -7.9890   -4.8060   -5.8250 N   0  0  0  0  0  0  0  0  0  0  0  0
   -6.7780   -3.5270   -9.7910 H   0  0  0  0  0  0  0  0  0  0  0  0
   -6.7370   -5.2200   -9.3190 H   0  0  0  0  0  0  0  0  0  0  0  0
   -7.3460   -6.5470   -8.7950 H   0  0  0  0  0  0  0  0  0  0  0  0
   -7.1210   -8.5550   -6.8900 H   0  0  0  0  0  0  0  0  0  0  0  0
   -7.4540   -7.9030   -4.4720 H   0  0  0  0  0  0  0  0  0  0  0  0
   -8.8580   -5.0400   -3.3210 H   0  0  0  0  0  0  0  0  0  0  0  0
   -5.4320   -5.9320   -2.9660 H   0  0  0  0  0  0  0  0  0  0  0  0
   -4.9190   -8.0730   -3.8510 H   0  0  0  0  0  0  0  0  0  0  0  0
   -6.4990   -8.6530   -3.4130 H   0  0  0  0  0  0  0  0  0  0  0  0
   -6.8370   -9.5050   -1.1380 H   0  0  0  0  0  0  0  0  0  0  0  0
   -5.8800   -9.8190    1.0870 H   0  0  0  0  0  0  0  0  0  0  0  0
   -3.6840   -8.7100    1.7480 H   0  0  0  0  0  0  0  0  0  0  0  0
   -2.4940   -7.2480   -0.0060 H   0  0  0  0  0  0  0  0  0  0  0  0
   -3.3480   -6.9220   -2.1110 H   0  0  0  0  0  0  0  0  0  0  0  0
  1  2  1  0
  2  3  2  0
  2  4  1  0
  4  5  2  0
  5  6  1  0
  6  7  2  0
  7  8  1  0
  8  9  1  0
  9 10  1  0
 10 11  2  0
 10 12  1  0
 12 13  1  0
 13 14  1  0
 14 15  2  0
 15 16  1  0
 16 17  2  0
 17 18  1  0
 18 19  2  0
  8 20  2  0
 20  4  1  0
 19 14  1  0
  1 21  1  0
  1 22  1  0
  5 23  1  0
  6 24  1  0
  7 25  1  0
  9 26  1  0
 12 27  1  0
 13 28  1  0
 13 29  1  0
 15 30  1  0
 16 31  1  0
 17 32  1  0
 18 33  1  0
 19 34  1  0
A    1
 N1 
A    2
 C1 
A    3
 O1 
A    4
 C2 
A    5
 C3 
A    6
 C4 
A    7
 C5 
A    8
 C6 
A    9
 N2 
A   10
 C7 
A   11
 O2 
A   12
 N3 
A   13
 C8 
A   14
 C9 
A   15
 C10
A   16
 C11
A   17
 C12
A   18
 C13
A   19
 C14
A   20
 N4 
A   21
 H1 
A   22
 H2 
A   23
 H3 
A   24
 H4 
A   25
 H5 
A   26
 H6 
A   27
 H7 
A   28
 H8 
A   29
 H9 
A   30
 H10
A   31
 H11
A   32
 H12
A   33
 H13
A   34
 H14
M  END
>  <ref_pdb>  (56) 
x0147_0A

>  <ref_mols>  (56) 
x0771_1AS1,x1140_0AS5

>  <original SMILES>  (56) 
[H]c1c(C(=O)N([H])[H])nc(N([H])C(=O)N([H])C([H])([H])c2c([H])c([H])c([H])c([H])c2[H])c([H])c1[H]

>  <index>  (56) 
2297

>  <∆∆G>  (56) 
-5.299197

>  <comRMSD>  (56) 
0.904853

>  <N_constrained_atoms>  (56) 
20.0

>  <N_unconstrained_atoms>  (56) 
1.0

>  <LE>  (56) 
0.252343

>  <percent_hybrid>  (56) 
45.0

>  <max_hit_Tanimoto>  (56) 
0.15993

>  <largest_ring>  (56) 
6

>  <N_interactions_kept>  (56) 
0.0

>  <N_interactions_lost>  (56) 
5.0

>  <interaction_uniqueness_metric>  (56) 
0.206512

>  <N_HA>  (56) 
20

>  <N_rotatable_bonds>  (56) 
4

>  <N_interactions>  (56) 
8

>  <N_PAINS>  (56) 
0

>  <UFF_Gibbs>  (56) 
279.719436

>  <strain_per_HA>  (56) 
13.985902

>  <ad_hoc_penalty>  (56) 
-4.550248

>  <cluster>  (56) 
6870

>  <ranked>  (56) 
2737.0

>  <merger_rank>  (56) 
4

>  <hydroph_interaction:LEU:127>  (56) 
1

>  <hbond:GLY:128>  (56) 
0

>  <hydroph_interaction:ALA:144>  (56) 
1

>  <hbond:GLY:164>  (56) 
1

>  <hbond:HIS:40>  (56) 
0

>  <pistack:HIS:40>  (56) 
1

>  <hydroph_interaction:LEU:125>  (56) 
0

>  <hydroph_interaction:PHE:170>  (56) 
0

>  <hydroph_interaction:HIS:40>  (56) 
1

>  <pication:HIS:40>  (56) 
0

>  <hbond:THR:142>  (56) 
1

>  <hbond:HIS:161>  (56) 
0

>  <hbond:GLY:166>  (56) 
1

>  <hbond:VAL:162>  (56) 
1

>  <hydroph_interaction:ASN:165>  (56) 
0

>  <saltbridge:HIS:161>  (56) 
0

>  <hbond:GLY:145>  (56) 
0

>  <hbond:CYS:147>  (56) 
0

>  <saltbridge:HIS:40>  (56) 
0

>  <hbond:LEU:127>  (56) 
0

>  <hbond:THR:130>  (56) 
0

>  <halogenbond:THR:142>  (56) 
0

>  <halogenbond:CYS:147>  (56) 
0

$$$$
Z1438136300-x2021-0AS7
     RDKit          3D

 37 37  0  0  0  0  0  0  0  0999 V2000
   -5.8950   -1.4820   -1.6200 C   0  0  0  0  0  0  0  0  0  0  0  0
   -6.8460   -2.6520   -1.6880 C   0  0  0  0  0  0  0  0  0  0  0  0
   -6.1440   -3.9900   -1.8970 C   0  0  0  0  0  0  0  0  0  0  0  0
   -7.1290   -5.0850   -2.0860 N   0  0  0  0  0  0  0  0  0  0  0  0
   -6.9980   -6.1930   -1.1160 C   0  0  0  0  0  0  0  0  0  0  0  0
   -7.4610   -5.3420   -3.5650 S   0  0  0  0  0  6  0  0  0  0  0  0
   -8.8860   -5.5140   -3.6880 O   0  0  0  0  0  0  0  0  0  0  0  0
   -6.7280   -4.3020   -4.2650 O   0  0  0  0  0  0  0  0  0  0  0  0
   -6.7230   -6.8430   -3.8340 N   0  0  0  0  0  0  0  0  0  0  0  0
   -6.9240   -7.3690   -5.0940 C   0  0  0  0  0  0  0  0  0  0  0  0
   -8.3440   -7.2180   -5.6870 C   0  0  0  0  0  0  0  0  0  0  0  0
   -8.5110   -5.9500   -6.5040 C   0  0  0  0  0  0  0  0  0  0  0  0
   -9.5400   -4.9900   -6.3130 C   0  0  0  0  0  0  0  0  0  0  0  0
   -9.6950   -3.7950   -7.0450 C   0  0  0  0  0  0  0  0  0  0  0  0
   -8.8380   -3.3950   -8.0690 C   0  0  0  0  0  0  0  0  0  0  0  0
   -7.8030   -4.3280   -8.3040 C   0  0  0  0  0  0  0  0  0  0  0  0
   -6.9100   -4.0870   -9.2490 F   0  0  0  0  0  0  0  0  0  0  0  0
   -7.6490   -5.5640   -7.5540 C   0  0  0  0  0  0  0  0  0  0  0  0
   -6.6310   -6.3710   -7.8790 F   0  0  0  0  0  0  0  0  0  0  0  0
   -6.2300   -0.6640   -2.2650 H   0  0  0  0  0  0  0  0  0  0  0  0
   -5.8550   -1.0890   -0.6020 H   0  0  0  0  0  0  0  0  0  0  0  0
   -4.9030   -1.7820   -1.9510 H   0  0  0  0  0  0  0  0  0  0  0  0
   -7.5670   -2.4800   -2.4940 H   0  0  0  0  0  0  0  0  0  0  0  0
   -7.4390   -2.6980   -0.7670 H   0  0  0  0  0  0  0  0  0  0  0  0
   -5.6030   -4.2340   -0.9950 H   0  0  0  0  0  0  0  0  0  0  0  0
   -5.4310   -3.9570   -2.7280 H   0  0  0  0  0  0  0  0  0  0  0  0
   -5.9380   -6.4240   -0.9790 H   0  0  0  0  0  0  0  0  0  0  0  0
   -7.4760   -7.0910   -1.5150 H   0  0  0  0  0  0  0  0  0  0  0  0
   -7.4170   -5.9360   -0.1390 H   0  0  0  0  0  0  0  0  0  0  0  0
   -5.7720   -6.8920   -3.4760 H   0  0  0  0  0  0  0  0  0  0  0  0
   -6.2170   -6.9100   -5.7840 H   0  0  0  0  0  0  0  0  0  0  0  0
   -6.6940   -8.4410   -5.0790 H   0  0  0  0  0  0  0  0  0  0  0  0
   -9.0780   -7.2310   -4.8770 H   0  0  0  0  0  0  0  0  0  0  0  0
   -8.5330   -8.0810   -6.3290 H   0  0  0  0  0  0  0  0  0  0  0  0
  -10.2760   -5.1840   -5.5310 H   0  0  0  0  0  0  0  0  0  0  0  0
  -10.5340   -3.1330   -6.7950 H   0  0  0  0  0  0  0  0  0  0  0  0
   -8.9490   -2.4750   -8.6260 H   0  0  0  0  0  0  0  0  0  0  0  0
  1  2  1  0
  2  3  1  0
  3  4  1  0
  4  5  1  0
  4  6  1  0
  6  7  2  0
  6  8  2  0
  6  9  1  0
  9 10  1  0
 10 11  1  0
 11 12  1  0
 12 13  2  0
 13 14  1  0
 14 15  2  0
 15 16  1  0
 16 17  1  0
 16 18  2  0
 18 19  1  0
 18 12  1  0
  1 20  1  0
  1 21  1  0
  1 22  1  0
  2 23  1  0
  2 24  1  0
  3 25  1  0
  3 26  1  0
  5 27  1  0
  5 28  1  0
  5 29  1  0
  9 30  1  0
 10 31  1  0
 10 32  1  0
 11 33  1  0
 11 34  1  0
 13 35  1  0
 14 36  1  0
 15 37  1  0
A    1
 C1 
A    2
 C2 
A    3
 C3 
A    4
 N1 
A    5
 C4 
A    6
 S1 
A    7
 O1 
A    8
 O2 
A    9
 N2 
A   10
 C5 
A   11
 C6 
A   12
 C7 
A   13
 C8 
A   14
 C9 
A   15
 C10
A   16
 C11
A   17
 F1 
A   18
 C12
A   19
 F2 
A   20
 H1 
A   21
 H2 
A   22
 H3 
A   23
 H4 
A   24
 H5 
A   25
 H6 
A   26
 H7 
A   27
 H8 
A   28
 H9 
A   29
 H10
A   30
 H11
A   31
 H12
A   32
 H13
A   33
 H14
A   34
 H15
A   35
 H16
A   36
 H17
A   37
 H18
M  END
>  <ref_pdb>  (57) 
x0147_0A

>  <ref_mols>  (57) 
x2021_0AS7,x1604_0AS2

>  <original SMILES>  (57) 
[H]c1c([H])c(F)c(F)c(C([H])([H])C([H])([H])N([H])S(=O)(=O)N(C([H])([H])[H])C([H])([H])C([H])([H])C([H])([H])[H])c1[H]

>  <index>  (57) 
9794

>  <∆∆G>  (57) 
-4.396905

>  <comRMSD>  (57) 
0.773752

>  <N_constrained_atoms>  (57) 
19.0

>  <N_unconstrained_atoms>  (57) 
1.0

>  <LE>  (57) 
0.219845

>  <percent_hybrid>  (57) 
43.0

>  <max_hit_Tanimoto>  (57) 
0.234763

>  <largest_ring>  (57) 
6

>  <N_interactions_kept>  (57) 
2.0

>  <N_interactions_lost>  (57) 
2.5

>  <interaction_uniqueness_metric>  (57) 
0.241873

>  <N_HA>  (57) 
19

>  <N_rotatable_bonds>  (57) 
9

>  <N_interactions>  (57) 
5

>  <N_PAINS>  (57) 
0

>  <UFF_Gibbs>  (57) 
112.802428

>  <strain_per_HA>  (57) 
5.936939

>  <ad_hoc_penalty>  (57) 
-3.369812

>  <cluster>  (57) 
541

>  <ranked>  (57) 
2973.0

>  <merger_rank>  (57) 
2

>  <hydroph_interaction:LEU:127>  (57) 
0

>  <hbond:GLY:128>  (57) 
0

>  <hydroph_interaction:ALA:144>  (57) 
1

>  <hbond:GLY:164>  (57) 
1

>  <hbond:HIS:40>  (57) 
0

>  <pistack:HIS:40>  (57) 
0

>  <hydroph_interaction:LEU:125>  (57) 
0

>  <hydroph_interaction:PHE:170>  (57) 
0

>  <hydroph_interaction:HIS:40>  (57) 
0

>  <pication:HIS:40>  (57) 
0

>  <hbond:THR:142>  (57) 
0

>  <hbond:HIS:161>  (57) 
0

>  <hbond:GLY:166>  (57) 
0

>  <hbond:VAL:162>  (57) 
1

>  <hydroph_interaction:ASN:165>  (57) 
0

>  <saltbridge:HIS:161>  (57) 
0

>  <hbond:GLY:145>  (57) 
0

>  <hbond:CYS:147>  (57) 
0

>  <saltbridge:HIS:40>  (57) 
0

>  <hbond:LEU:127>  (57) 
0

>  <hbond:THR:130>  (57) 
0

>  <halogenbond:THR:142>  (57) 
1

>  <halogenbond:CYS:147>  (57) 
1

$$$$
PV-005228696675-x0771-1A
     RDKit          3D

 28 28  0  0  0  0  0  0  0  0999 V2000
   -7.3780  -10.2840   -6.4010 C   0  0  0  0  0  0  0  0  0  0  0  0
   -7.3660   -9.2320   -7.3770 O   0  0  0  0  0  0  0  0  0  0  0  0
   -7.3900   -7.9440   -6.8190 C   0  0  0  0  0  0  0  0  0  0  0  0
   -7.4260   -6.6520   -7.7470 C   0  0  0  0  0  0  0  0  0  0  0  0
   -7.5240   -5.3540   -7.0150 C   0  0  0  0  0  0  0  0  0  0  0  0
   -7.6160   -4.1720   -7.9860 C   0  0  0  0  0  0  0  0  0  0  0  0
   -8.4500   -3.2870   -7.8160 O   0  0  0  0  0  0  0  0  0  0  0  0
   -6.8390   -4.1530   -8.9500 O   0  0  0  0  0  0  0  0  0  0  0  0
   -7.5320   -5.2500   -5.6270 C   0  0  0  0  0  0  0  0  0  0  0  0
   -7.4530   -6.3900   -4.8330 C   0  0  0  0  0  0  0  0  0  0  0  0
   -7.4330   -6.2310   -3.3860 N   0  0  0  0  0  0  0  0  0  0  0  0
   -6.4310   -5.0260   -2.8070 S   0  0  0  0  0  6  0  0  0  0  0  0
   -7.2850   -4.6800   -1.3060 C   0  0  0  0  0  0  0  0  0  0  0  0
   -6.5260   -3.8670   -3.6700 O   0  0  0  0  0  0  0  0  0  0  0  0
   -5.1570   -5.5790   -2.4420 O   0  0  0  0  0  0  0  0  0  0  0  0
   -7.3910   -7.7790   -5.4310 C   0  0  0  0  0  0  0  0  0  0  0  0
   -7.3340   -8.9140   -4.5710 O   0  0  0  0  0  0  0  0  0  0  0  0
   -7.1710  -11.2510   -6.8690 H   0  0  0  0  0  0  0  0  0  0  0  0
   -6.5960  -10.1250   -5.6510 H   0  0  0  0  0  0  0  0  0  0  0  0
   -8.3530  -10.3030   -5.9100 H   0  0  0  0  0  0  0  0  0  0  0  0
   -7.4060   -6.7040   -8.8390 H   0  0  0  0  0  0  0  0  0  0  0  0
   -7.0540   -3.3250   -9.4330 H   0  0  0  0  0  0  0  0  0  0  0  0
   -7.5920   -4.3080   -5.0750 H   0  0  0  0  0  0  0  0  0  0  0  0
   -7.1430   -7.1080   -2.9370 H   0  0  0  0  0  0  0  0  0  0  0  0
   -7.2110   -3.6200   -1.0840 H   0  0  0  0  0  0  0  0  0  0  0  0
   -6.8210   -5.2610   -0.5210 H   0  0  0  0  0  0  0  0  0  0  0  0
   -8.3170   -5.0020   -1.3890 H   0  0  0  0  0  0  0  0  0  0  0  0
   -6.3840   -9.0080   -4.3480 H   0  0  0  0  0  0  0  0  0  0  0  0
  1  2  1  0
  2  3  1  0
  3  4  2  0
  4  5  1  0
  5  6  1  0
  6  7  2  0
  6  8  1  0
  5  9  2  0
  9 10  1  0
 10 11  1  0
 11 12  1  0
 12 13  1  0
 12 14  2  0
 12 15  2  0
 10 16  2  0
 16 17  1  0
 16  3  1  0
  1 18  1  0
  1 19  1  0
  1 20  1  0
  4 21  1  0
  8 22  1  0
  9 23  1  0
 11 24  1  0
 13 25  1  0
 13 26  1  0
 13 27  1  0
 17 28  1  0
A    1
 C1 
A    2
 O1 
A    3
 C2 
A    4
 C3 
A    5
 C4 
A    6
 C5 
A    7
 O2 
A    8
 O3 
A    9
 C6 
A   10
 C7 
A   11
 N1 
A   12
 S1 
A   13
 C8 
A   14
 O4 
A   15
 O5 
A   16
 C9 
A   17
 O6 
A   18
 H1 
A   19
 H2 
A   20
 H3 
A   21
 H4 
A   22
 H5 
A   23
 H6 
A   24
 H7 
A   25
 H8 
A   26
 H9 
A   27
 H10
A   28
 H11
M  END
>  <ref_pdb>  (58) 
x0147_0A

>  <ref_mols>  (58) 
x0771_1A,x1140_0AS3

>  <original SMILES>  (58) 
[H]OC(=O)c1c([H])c(OC([H])([H])[H])c(O[H])c(N([H])S(=O)(=O)C([H])([H])[H])c1[H]

>  <index>  (58) 
14594

>  <∆∆G>  (58) 
-3.13606

>  <comRMSD>  (58) 
0.933236

>  <N_constrained_atoms>  (58) 
18.0

>  <N_unconstrained_atoms>  (58) 
0.0

>  <LE>  (58) 
0.174226

>  <percent_hybrid>  (58) 
36.0

>  <max_hit_Tanimoto>  (58) 
0.207218

>  <largest_ring>  (58) 
6

>  <N_interactions_kept>  (58) 
3.0

>  <N_interactions_lost>  (58) 
1.0

>  <interaction_uniqueness_metric>  (58) 
0.185247

>  <N_HA>  (58) 
17

>  <N_rotatable_bonds>  (58) 
7

>  <N_interactions>  (58) 
4

>  <N_PAINS>  (58) 
0

>  <UFF_Gibbs>  (58) 
248.006124

>  <strain_per_HA>  (58) 
14.58851

>  <ad_hoc_penalty>  (58) 
-3.003946

>  <cluster>  (58) 
3675

>  <ranked>  (58) 
3050.0

>  <merger_rank>  (58) 
4

>  <hydroph_interaction:LEU:127>  (58) 
0

>  <hbond:GLY:128>  (58) 
0

>  <hydroph_interaction:ALA:144>  (58) 
0

>  <hbond:GLY:164>  (58) 
2

>  <hbond:HIS:40>  (58) 
0

>  <pistack:HIS:40>  (58) 
0

>  <hydroph_interaction:LEU:125>  (58) 
0

>  <hydroph_interaction:PHE:170>  (58) 
0

>  <hydroph_interaction:HIS:40>  (58) 
0

>  <pication:HIS:40>  (58) 
0

>  <hbond:THR:142>  (58) 
0

>  <hbond:HIS:161>  (58) 
0

>  <hbond:GLY:166>  (58) 
0

>  <hbond:VAL:162>  (58) 
0

>  <hydroph_interaction:ASN:165>  (58) 
0

>  <saltbridge:HIS:161>  (58) 
1

>  <hbond:GLY:145>  (58) 
1

>  <hbond:CYS:147>  (58) 
0

>  <saltbridge:HIS:40>  (58) 
0

>  <hbond:LEU:127>  (58) 
0

>  <hbond:THR:130>  (58) 
0

>  <halogenbond:THR:142>  (58) 
0

>  <halogenbond:CYS:147>  (58) 
0

$$$$
Z1055857760-x1329-0AS4
     RDKit          3D

 41 42  0  0  0  0  0  0  0  0999 V2000
   -5.7040   -5.9260   -0.7120 C   0  0  0  0  0  0  0  0  0  0  0  0
   -5.7820   -6.9150   -1.8230 C   0  0  0  0  0  0  0  0  0  0  0  0
   -6.1150   -8.2860   -1.2220 C   0  0  0  0  0  0  0  0  0  0  0  0
   -6.3400   -9.3030   -2.3250 C   0  0  0  0  0  0  0  0  0  0  0  0
   -6.8130   -8.7270   -3.6260 C   0  0  0  0  0  0  0  0  0  0  0  0
   -7.5080   -7.5260   -3.5140 C   0  0  0  0  0  0  0  0  0  0  0  0
   -6.7510   -6.4600   -2.8380 N   0  0  0  0  0  0  0  0  0  0  0  0
   -7.0160   -5.0340   -3.1530 C   0  0  0  0  0  0  0  0  0  0  0  0
   -6.2580   -4.3320   -3.8190 O   0  0  0  0  0  0  0  0  0  0  0  0
   -8.1980   -4.5570   -2.6560 N   0  0  0  0  0  0  0  0  0  0  0  0
   -9.1560   -4.2470   -3.7780 C   0  0  0  0  0  0  0  0  0  0  0  0
   -9.4770   -5.3370   -4.6260 C   0  0  0  0  0  0  0  0  0  0  0  0
   -8.8440   -5.1600   -5.8560 C   0  0  0  0  0  0  0  0  0  0  0  0
   -7.9550   -6.1060   -6.3930 C   0  0  0  0  0  0  0  0  0  0  0  0
   -7.2520   -5.9010   -7.7120 C   0  0  0  0  0  0  0  0  0  0  0  0
   -7.5150   -4.6520   -8.4670 C   0  0  0  0  0  0  0  0  0  0  0  0
   -6.8780   -4.4740   -9.6230 O   0  0  0  0  0  0  0  0  0  0  0  0
   -8.4190   -3.7710   -7.8790 C   0  0  0  0  0  0  0  0  0  0  0  0
   -9.0530   -4.0030   -6.6440 C   0  0  0  0  0  0  0  0  0  0  0  0
   -4.8550   -6.1550   -0.0620 H   0  0  0  0  0  0  0  0  0  0  0  0
   -5.5980   -4.9110   -1.1040 H   0  0  0  0  0  0  0  0  0  0  0  0
   -6.6250   -5.9600   -0.1280 H   0  0  0  0  0  0  0  0  0  0  0  0
   -4.8110   -6.9700   -2.3330 H   0  0  0  0  0  0  0  0  0  0  0  0
   -5.3020   -8.6230   -0.5690 H   0  0  0  0  0  0  0  0  0  0  0  0
   -7.0190   -8.2050   -0.6080 H   0  0  0  0  0  0  0  0  0  0  0  0
   -7.1420   -9.9600   -1.9760 H   0  0  0  0  0  0  0  0  0  0  0  0
   -5.4460   -9.9160   -2.4660 H   0  0  0  0  0  0  0  0  0  0  0  0
   -6.0560   -8.5840   -4.4060 H   0  0  0  0  0  0  0  0  0  0  0  0
   -7.5260   -9.4340   -4.0600 H   0  0  0  0  0  0  0  0  0  0  0  0
   -7.8020   -7.1830   -4.5090 H   0  0  0  0  0  0  0  0  0  0  0  0
   -8.4310   -7.6870   -2.9420 H   0  0  0  0  0  0  0  0  0  0  0  0
   -8.6020   -5.1070   -1.9150 H   0  0  0  0  0  0  0  0  0  0  0  0
  -10.0760   -3.7960   -3.3880 H   0  0  0  0  0  0  0  0  0  0  0  0
   -8.6750   -3.5150   -4.4430 H   0  0  0  0  0  0  0  0  0  0  0  0
   -9.2610   -6.2970   -4.1740 H   0  0  0  0  0  0  0  0  0  0  0  0
  -10.5530   -5.4430   -4.7560 H   0  0  0  0  0  0  0  0  0  0  0  0
   -7.7110   -7.0460   -5.8850 H   0  0  0  0  0  0  0  0  0  0  0  0
   -6.5540   -6.6350   -8.1300 H   0  0  0  0  0  0  0  0  0  0  0  0
   -6.6180   -5.3520   -9.9750 H   0  0  0  0  0  0  0  0  0  0  0  0
   -8.6550   -2.8350   -8.3980 H   0  0  0  0  0  0  0  0  0  0  0  0
   -9.7240   -3.1860   -6.3500 H   0  0  0  0  0  0  0  0  0  0  0  0
  1  2  1  0
  2  3  1  0
  3  4  1  0
  4  5  1  0
  5  6  1  0
  6  7  1  0
  7  8  1  0
  8  9  2  0
  8 10  1  0
 10 11  1  0
 11 12  1  0
 12 13  1  0
 13 14  2  0
 14 15  1  0
 15 16  2  0
 16 17  1  0
 16 18  1  0
 18 19  2  0
  7  2  1  0
 19 13  1  0
  1 20  1  0
  1 21  1  0
  1 22  1  0
  2 23  1  0
  3 24  1  0
  3 25  1  0
  4 26  1  0
  4 27  1  0
  5 28  1  0
  5 29  1  0
  6 30  1  0
  6 31  1  0
 10 32  1  0
 11 33  1  0
 11 34  1  0
 12 35  1  0
 12 36  1  0
 14 37  1  0
 15 38  1  0
 17 39  1  0
 18 40  1  0
 19 41  1  0
A    1
 C1 
A    2
 C2 
A    3
 C3 
A    4
 C4 
A    5
 C5 
A    6
 C6 
A    7
 N1 
A    8
 C7 
A    9
 O1 
A   10
 N2 
A   11
 C8 
A   12
 C9 
A   13
 C10
A   14
 C11
A   15
 C12
A   16
 C13
A   17
 O2 
A   18
 C14
A   19
 C15
A   20
 H1 
A   21
 H2 
A   22
 H3 
A   23
 H4 
A   24
 H5 
A   25
 H6 
A   26
 H7 
A   27
 H8 
A   28
 H9 
A   29
 H10
A   30
 H11
A   31
 H12
A   32
 H13
A   33
 H14
A   34
 H15
A   35
 H16
A   36
 H17
A   37
 H18
A   38
 H19
A   39
 H20
A   40
 H21
A   41
 H22
M  END
>  <ref_pdb>  (59) 
x0147_0A

>  <ref_mols>  (59) 
x1329_0AS4,x1498_0A

>  <original SMILES>  (59) 
[H]Oc1c([H])c([H])c(C([H])([H])C([H])([H])N([H])C(=O)N2C([H])([H])C([H])([H])C([H])([H])C([H])([H])C2([H])C([H])([H])[H])c([H])c1[H]

>  <index>  (59) 
16846

>  <∆∆G>  (59) 
-5.73128

>  <comRMSD>  (59) 
0.972249

>  <N_constrained_atoms>  (59) 
18.0

>  <N_unconstrained_atoms>  (59) 
2.0

>  <LE>  (59) 
0.286564

>  <percent_hybrid>  (59) 
39.0

>  <max_hit_Tanimoto>  (59) 
0.148776

>  <largest_ring>  (59) 
6

>  <N_interactions_kept>  (59) 
0.5

>  <N_interactions_lost>  (59) 
1.5

>  <interaction_uniqueness_metric>  (59) 
0.059357

>  <N_HA>  (59) 
19

>  <N_rotatable_bonds>  (59) 
5

>  <N_interactions>  (59) 
3

>  <N_PAINS>  (59) 
0

>  <UFF_Gibbs>  (59) 
426.557817

>  <strain_per_HA>  (59) 
22.450293

>  <ad_hoc_penalty>  (59) 
-1.042027

>  <cluster>  (59) 
1705

>  <ranked>  (59) 
3467.0

>  <merger_rank>  (59) 
2

>  <hydroph_interaction:LEU:127>  (59) 
1

>  <hbond:GLY:128>  (59) 
0

>  <hydroph_interaction:ALA:144>  (59) 
0

>  <hbond:GLY:164>  (59) 
1

>  <hbond:HIS:40>  (59) 
0

>  <pistack:HIS:40>  (59) 
0

>  <hydroph_interaction:LEU:125>  (59) 
0

>  <hydroph_interaction:PHE:170>  (59) 
0

>  <hydroph_interaction:HIS:40>  (59) 
0

>  <pication:HIS:40>  (59) 
0

>  <hbond:THR:142>  (59) 
1

>  <hbond:HIS:161>  (59) 
0

>  <hbond:GLY:166>  (59) 
0

>  <hbond:VAL:162>  (59) 
0

>  <hydroph_interaction:ASN:165>  (59) 
0

>  <saltbridge:HIS:161>  (59) 
0

>  <hbond:GLY:145>  (59) 
0

>  <hbond:CYS:147>  (59) 
0

>  <saltbridge:HIS:40>  (59) 
0

>  <hbond:LEU:127>  (59) 
0

>  <hbond:THR:130>  (59) 
0

>  <halogenbond:THR:142>  (59) 
0

>  <halogenbond:CYS:147>  (59) 
0

$$$$
Z4386782831-x1919-0AS4
     RDKit          3D

 42 42  0  0  0  0  0  0  0  0999 V2000
   -5.7540    0.1410   -0.7940 C   0  0  0  0  0  0  0  0  0  0  0  0
   -6.9940   -0.7020   -0.5620 C   0  0  0  0  0  0  0  0  0  0  0  0
   -6.8790   -2.0090   -1.3300 C   0  0  0  0  0  0  0  0  0  0  0  0
   -7.9010   -3.1220   -1.1000 C   0  0  0  0  0  0  0  0  0  0  0  0
   -7.2340   -4.4650   -1.4570 C   0  0  0  0  0  0  0  0  0  0  0  0
   -7.3040   -4.5840   -3.2230 S   0  0  0  0  0  6  0  0  0  0  0  0
   -6.1320   -3.9110   -3.7180 O   0  0  0  0  0  0  0  0  0  0  0  0
   -8.6360   -4.1620   -3.5750 O   0  0  0  0  0  0  0  0  0  0  0  0
   -7.2040   -6.2370   -3.6200 N   0  0  0  0  0  0  0  0  0  0  0  0
   -8.4040   -6.7360   -4.3530 C   0  0  0  0  0  0  0  0  0  0  0  0
   -8.1880   -7.2010   -5.6650 C   0  0  2  0  0  0  0  0  0  0  0  0
   -6.9130   -7.6790   -5.9790 C   0  0  0  0  0  0  0  0  0  0  0  0
   -6.5320   -7.6560   -7.3200 C   0  0  0  0  0  0  0  0  0  0  0  0
   -6.7350   -6.4590   -7.9970 C   0  0  0  0  0  0  0  0  0  0  0  0
   -7.4820   -5.5360   -7.2680 C   0  0  1  0  0  0  0  0  0  0  0  0
   -7.8520   -4.3310   -8.1300 C   0  0  0  0  0  0  0  0  0  0  0  0
   -8.7040   -3.4850   -7.8850 O   0  0  0  0  0  0  0  0  0  0  0  0
   -7.0950   -4.2710   -9.2660 O   0  0  0  0  0  0  0  0  0  0  0  0
   -8.5830   -6.1560   -6.5990 O   0  0  0  0  0  0  0  0  0  0  0  0
   -5.1330   -0.2890   -1.5850 H   0  0  0  0  0  0  0  0  0  0  0  0
   -6.0230    1.1500   -1.1230 H   0  0  0  0  0  0  0  0  0  0  0  0
   -5.1610    0.2210    0.1190 H   0  0  0  0  0  0  0  0  0  0  0  0
   -7.1270   -0.8910    0.5080 H   0  0  0  0  0  0  0  0  0  0  0  0
   -7.8990   -0.1960   -0.9160 H   0  0  0  0  0  0  0  0  0  0  0  0
   -5.9060   -2.4430   -1.1470 H   0  0  0  0  0  0  0  0  0  0  0  0
   -6.8970   -1.7650   -2.3960 H   0  0  0  0  0  0  0  0  0  0  0  0
   -8.3390   -3.0700   -0.1080 H   0  0  0  0  0  0  0  0  0  0  0  0
   -8.7520   -2.9620   -1.7730 H   0  0  0  0  0  0  0  0  0  0  0  0
   -6.1790   -4.4260   -1.1590 H   0  0  0  0  0  0  0  0  0  0  0  0
   -7.7040   -5.3410   -0.9900 H   0  0  0  0  0  0  0  0  0  0  0  0
   -6.8570   -6.8070   -2.8410 H   0  0  0  0  0  0  0  0  0  0  0  0
   -9.1670   -5.9530   -4.4020 H   0  0  0  0  0  0  0  0  0  0  0  0
   -8.8220   -7.5570   -3.7590 H   0  0  0  0  0  0  0  0  0  0  0  0
   -8.8710   -8.0420   -5.8280 H   0  0  0  0  0  0  0  0  0  0  0  0
   -6.2220   -6.9730   -5.5200 H   0  0  0  0  0  0  0  0  0  0  0  0
   -6.8370   -8.5610   -5.3360 H   0  0  0  0  0  0  0  0  0  0  0  0
   -6.7820   -8.4480   -8.0330 H   0  0  0  0  0  0  0  0  0  0  0  0
   -5.4420   -7.7210   -7.2420 H   0  0  0  0  0  0  0  0  0  0  0  0
   -7.3010   -6.6570   -8.9050 H   0  0  0  0  0  0  0  0  0  0  0  0
   -5.7820   -6.0370   -8.3300 H   0  0  0  0  0  0  0  0  0  0  0  0
   -6.9380   -5.1030   -6.4390 H   0  0  0  0  0  0  0  0  0  0  0  0
   -7.3200   -5.0770   -9.7910 H   0  0  0  0  0  0  0  0  0  0  0  0
  1  2  1  0
  2  3  1  0
  3  4  1  0
  4  5  1  0
  5  6  1  0
  6  7  2  0
  6  8  2  0
  6  9  1  0
  9 10  1  0
 10 11  1  0
 11 12  1  0
 12 13  1  0
 13 14  1  0
 14 15  1  0
 15 16  1  0
 16 17  2  0
 16 18  1  0
 15 19  1  0
 19 11  1  0
  1 20  1  0
  1 21  1  0
  1 22  1  0
  2 23  1  0
  2 24  1  0
  3 25  1  0
  3 26  1  0
  4 27  1  0
  4 28  1  0
  5 29  1  0
  5 30  1  0
  9 31  1  0
 10 32  1  0
 10 33  1  0
 11 34  1  6
 12 35  1  0
 12 36  1  0
 13 37  1  0
 13 38  1  0
 14 39  1  0
 14 40  1  0
 15 41  1  1
 18 42  1  0
A    1
 C1 
A    2
 C2 
A    3
 C3 
A    4
 C4 
A    5
 C5 
A    6
 S1 
A    7
 O1 
A    8
 O2 
A    9
 N1 
A   10
 C6 
A   11
 C7 
A   12
 C8 
A   13
 C9 
A   14
 C10
A   15
 C11
A   16
 C12
A   17
 O3 
A   18
 O4 
A   19
 O5 
A   20
 H1 
A   21
 H2 
A   22
 H3 
A   23
 H4 
A   24
 H5 
A   25
 H6 
A   26
 H7 
A   27
 H8 
A   28
 H9 
A   29
 H10
A   30
 H11
A   31
 H12
A   32
 H13
A   33
 H14
A   34
 H15
A   35
 H16
A   36
 H17
A   37
 H18
A   38
 H19
A   39
 H20
A   40
 H21
A   41
 H22
A   42
 H23
M  END
>  <ref_pdb>  (60) 
x0147_0A

>  <ref_mols>  (60) 
x1919_0AS4,x0771_0AS1

>  <original SMILES>  (60) 
[H]OC(=O)[C@@]1([H])O[C@]([H])(C([H])([H])N([H])S(=O)(=O)C([H])([H])C([H])([H])C([H])([H])C([H])([H])C([H])([H])[H])C([H])([H])C([H])([H])C1([H])[H]

>  <index>  (60) 
8667

>  <∆∆G>  (60) 
-3.957809

>  <comRMSD>  (60) 
0.604432

>  <N_constrained_atoms>  (60) 
19.0

>  <N_unconstrained_atoms>  (60) 
1.0

>  <LE>  (60) 
0.19789

>  <percent_hybrid>  (60) 
48.0

>  <max_hit_Tanimoto>  (60) 
0.133047

>  <largest_ring>  (60) 
6

>  <N_interactions_kept>  (60) 
3.5

>  <N_interactions_lost>  (60) 
1.5

>  <interaction_uniqueness_metric>  (60) 
0.087861

>  <N_HA>  (60) 
19

>  <N_rotatable_bonds>  (60) 
9

>  <N_interactions>  (60) 
4

>  <N_PAINS>  (60) 
0

>  <UFF_Gibbs>  (60) 
168.558172

>  <strain_per_HA>  (60) 
8.871436

>  <ad_hoc_penalty>  (60) 
-0.057883

>  <cluster>  (60) 
2285

>  <ranked>  (60) 
3647.0

>  <merger_rank>  (60) 
1

>  <hydroph_interaction:LEU:127>  (60) 
1

>  <hbond:GLY:128>  (60) 
0

>  <hydroph_interaction:ALA:144>  (60) 
0

>  <hbond:GLY:164>  (60) 
2

>  <hbond:HIS:40>  (60) 
0

>  <pistack:HIS:40>  (60) 
0

>  <hydroph_interaction:LEU:125>  (60) 
0

>  <hydroph_interaction:PHE:170>  (60) 
0

>  <hydroph_interaction:HIS:40>  (60) 
0

>  <pication:HIS:40>  (60) 
0

>  <hbond:THR:142>  (60) 
0

>  <hbond:HIS:161>  (60) 
0

>  <hbond:GLY:166>  (60) 
0

>  <hbond:VAL:162>  (60) 
0

>  <hydroph_interaction:ASN:165>  (60) 
0

>  <saltbridge:HIS:161>  (60) 
1

>  <hbond:GLY:145>  (60) 
0

>  <hbond:CYS:147>  (60) 
0

>  <saltbridge:HIS:40>  (60) 
0

>  <hbond:LEU:127>  (60) 
0

>  <hbond:THR:130>  (60) 
0

>  <halogenbond:THR:142>  (60) 
0

>  <halogenbond:CYS:147>  (60) 
0

$$$$
Z5264911076-x2149-0AS6
     RDKit          3D

 41 41  0  0  0  0  0  0  0  0999 V2000
   -9.3740   -2.7350   -7.5870 C   0  0  0  0  0  0  0  0  0  0  0  0
   -9.5780   -4.1910   -7.2020 C   0  0  0  0  0  0  0  0  0  0  0  0
   -8.3240   -4.8600   -6.6550 C   0  0  0  0  0  0  0  0  0  0  0  0
   -7.8120   -4.0620   -5.6450 N   0  0  0  0  0  0  0  0  0  0  0  0
   -7.2110   -4.7510   -4.6600 C   0  0  0  0  0  0  0  0  0  0  0  0
   -6.9560   -5.9420   -4.6560 O   0  0  0  0  0  0  0  0  0  0  0  0
   -6.7050   -4.1710   -3.3330 C   0  0  0  0  0  0  0  0  0  0  0  0
   -7.8240   -3.6710   -2.4600 C   0  0  0  0  0  0  0  0  0  0  0  0
   -7.3460   -2.7990   -1.3150 C   0  0  0  0  0  0  0  0  0  0  0  0
   -7.6880   -1.3440   -1.4860 C   0  0  0  0  0  0  0  0  0  0  0  0
   -6.8290   -0.4260   -0.8950 C   0  0  0  0  0  0  0  0  0  0  0  0
   -5.9740   -0.7080   -0.0780 O   0  0  0  0  0  0  0  0  0  0  0  0
   -7.1020    0.8840   -1.3780 O   0  0  0  0  0  0  0  0  0  0  0  0
   -6.0780    1.7770   -1.2660 C   0  0  0  0  0  0  0  0  0  0  0  0
   -8.5830   -6.2940   -6.1230 C   0  0  0  0  0  0  0  0  0  0  0  0
   -7.3610   -7.0080   -6.5660 C   0  0  0  0  0  0  0  0  0  0  0  0
   -6.8310   -6.3380   -7.7510 N   0  0  0  0  0  0  0  0  0  0  0  0
   -7.3220   -5.0610   -7.8330 C   0  0  0  0  0  0  0  0  0  0  0  0
   -7.0040   -4.2610   -8.7160 O   0  0  0  0  0  0  0  0  0  0  0  0
   -8.4310   -2.5970   -8.1220 H   0  0  0  0  0  0  0  0  0  0  0  0
  -10.1850   -2.3730   -8.2250 H   0  0  0  0  0  0  0  0  0  0  0  0
   -9.3610   -2.1100   -6.6900 H   0  0  0  0  0  0  0  0  0  0  0  0
   -9.9480   -4.7500   -8.0640 H   0  0  0  0  0  0  0  0  0  0  0  0
  -10.3590   -4.2410   -6.4350 H   0  0  0  0  0  0  0  0  0  0  0  0
   -8.4250   -3.3110   -5.3140 H   0  0  0  0  0  0  0  0  0  0  0  0
   -5.9840   -4.8130   -2.8320 H   0  0  0  0  0  0  0  0  0  0  0  0
   -6.1250   -3.2820   -3.5870 H   0  0  0  0  0  0  0  0  0  0  0  0
   -8.5200   -3.1090   -3.0940 H   0  0  0  0  0  0  0  0  0  0  0  0
   -8.3600   -4.5430   -2.0680 H   0  0  0  0  0  0  0  0  0  0  0  0
   -6.2680   -2.9110   -1.1850 H   0  0  0  0  0  0  0  0  0  0  0  0
   -7.7980   -3.1530   -0.3900 H   0  0  0  0  0  0  0  0  0  0  0  0
   -8.6440   -1.2230   -0.9520 H   0  0  0  0  0  0  0  0  0  0  0  0
   -7.8790   -0.9580   -2.4770 H   0  0  0  0  0  0  0  0  0  0  0  0
   -5.3410    1.6190   -2.0570 H   0  0  0  0  0  0  0  0  0  0  0  0
   -6.4850    2.7780   -1.3640 H   0  0  0  0  0  0  0  0  0  0  0  0
   -5.5750    1.6760   -0.2960 H   0  0  0  0  0  0  0  0  0  0  0  0
   -8.7440   -6.2710   -5.0510 H   0  0  0  0  0  0  0  0  0  0  0  0
   -9.5700   -6.5490   -6.4640 H   0  0  0  0  0  0  0  0  0  0  0  0
   -7.5760   -8.0450   -6.8520 H   0  0  0  0  0  0  0  0  0  0  0  0
   -6.5730   -7.0270   -5.8110 H   0  0  0  0  0  0  0  0  0  0  0  0
   -5.9880   -6.5930   -8.2560 H   0  0  0  0  0  0  0  0  0  0  0  0
  1  2  1  0
  2  3  1  0
  3  4  1  0
  4  5  1  0
  5  6  2  0
  5  7  1  0
  7  8  1  0
  8  9  1  0
  9 10  1  0
 10 11  1  0
 11 12  2  0
 11 13  1  0
 13 14  1  0
  3 15  1  0
 15 16  1  0
 16 17  1  0
 17 18  1  0
 18 19  2  0
 18  3  1  0
  1 20  1  0
  1 21  1  0
  1 22  1  0
  2 23  1  0
  2 24  1  0
  4 25  1  0
  7 26  1  0
  7 27  1  0
  8 28  1  0
  8 29  1  0
  9 30  1  0
  9 31  1  0
 10 32  1  0
 10 33  1  0
 14 34  1  0
 14 35  1  0
 14 36  1  0
 15 37  1  0
 15 38  1  0
 16 39  1  0
 16 40  1  0
 17 41  1  0
A    1
 C1 
A    2
 C2 
A    3
 C3 
A    4
 N1 
A    5
 C4 
A    6
 O1 
A    7
 C5 
A    8
 C6 
A    9
 C7 
A   10
 C8 
A   11
 C9 
A   12
 O2 
A   13
 O3 
A   14
 C10
A   15
 C11
A   16
 C12
A   17
 N2 
A   18
 C13
A   19
 O4 
A   20
 H1 
A   21
 H2 
A   22
 H3 
A   23
 H4 
A   24
 H5 
A   25
 H6 
A   26
 H7 
A   27
 H8 
A   28
 H9 
A   29
 H10
A   30
 H11
A   31
 H12
A   32
 H13
A   33
 H14
A   34
 H15
A   35
 H16
A   36
 H17
A   37
 H18
A   38
 H19
A   39
 H20
A   40
 H21
A   41
 H22
M  END
>  <ref_pdb>  (61) 
x0147_0A

>  <ref_mols>  (61) 
x2149_0AS6,x1052_1AS4

>  <original SMILES>  (61) 
[H]N1C(=O)C(N([H])C(=O)C([H])([H])C([H])([H])C([H])([H])C([H])([H])C(=O)OC([H])([H])[H])(C([H])([H])C([H])([H])[H])C([H])([H])C1([H])[H]

>  <index>  (61) 
3236

>  <∆∆G>  (61) 
-4.958664

>  <comRMSD>  (61) 
0.55103

>  <N_constrained_atoms>  (61) 
16.0

>  <N_unconstrained_atoms>  (61) 
3.0

>  <LE>  (61) 
0.260982

>  <percent_hybrid>  (61) 
50.0

>  <max_hit_Tanimoto>  (61) 
0.326241

>  <largest_ring>  (61) 
5

>  <N_interactions_kept>  (61) 
1.0

>  <N_interactions_lost>  (61) 
2.0

>  <interaction_uniqueness_metric>  (61) 
0.148015

>  <N_HA>  (61) 
19

>  <N_rotatable_bonds>  (61) 
9

>  <N_interactions>  (61) 
6

>  <N_PAINS>  (61) 
0

>  <UFF_Gibbs>  (61) 
347.372968

>  <strain_per_HA>  (61) 
18.282692

>  <ad_hoc_penalty>  (61) 
-0.047173

>  <cluster>  (61) 
6621

>  <ranked>  (61) 
3648.0

>  <merger_rank>  (61) 
4

>  <hydroph_interaction:LEU:127>  (61) 
1

>  <hbond:GLY:128>  (61) 
1

>  <hydroph_interaction:ALA:144>  (61) 
1

>  <hbond:GLY:164>  (61) 
2

>  <hbond:HIS:40>  (61) 
0

>  <pistack:HIS:40>  (61) 
0

>  <hydroph_interaction:LEU:125>  (61) 
0

>  <hydroph_interaction:PHE:170>  (61) 
0

>  <hydroph_interaction:HIS:40>  (61) 
0

>  <pication:HIS:40>  (61) 
0

>  <hbond:THR:142>  (61) 
0

>  <hbond:HIS:161>  (61) 
1

>  <hbond:GLY:166>  (61) 
0

>  <hbond:VAL:162>  (61) 
0

>  <hydroph_interaction:ASN:165>  (61) 
0

>  <saltbridge:HIS:161>  (61) 
0

>  <hbond:GLY:145>  (61) 
0

>  <hbond:CYS:147>  (61) 
0

>  <saltbridge:HIS:40>  (61) 
0

>  <hbond:LEU:127>  (61) 
0

>  <hbond:THR:130>  (61) 
0

>  <halogenbond:THR:142>  (61) 
0

>  <halogenbond:CYS:147>  (61) 
0

$$$$
Z4268628690-x1919-0AS10
     RDKit          3D

 41 42  0  0  0  0  0  0  0  0999 V2000
   -5.3900    0.2000   -1.8990 C   0  0  0  0  0  0  0  0  0  0  0  0
   -6.3360    0.0640   -0.7310 C   0  0  0  0  0  0  0  0  0  0  0  0
   -7.6500   -0.6040   -1.1790 C   0  0  0  0  0  0  0  0  0  0  0  0
   -7.6470   -1.6530   -1.8150 O   0  0  0  0  0  0  0  0  0  0  0  0
   -7.1520   -2.6810   -1.0240 C   0  0  0  0  0  0  0  0  0  0  0  0
   -7.5030   -4.1140   -1.3830 C   0  0  0  0  0  0  0  0  0  0  0  0
   -7.3260   -4.4190   -3.0330 S   0  0  0  0  0  6  0  0  0  0  0  0
   -6.1680   -3.7470   -3.5760 O   0  0  0  0  0  0  0  0  0  0  0  0
   -8.6380   -4.2990   -3.6150 O   0  0  0  0  0  0  0  0  0  0  0  0
   -6.9730   -6.0450   -2.9630 N   0  0  0  0  0  0  0  0  0  0  0  0
   -7.9600   -6.7220   -3.5720 C   0  0  0  0  0  0  0  0  0  0  0  0
   -7.7260   -6.7050   -5.0380 C   0  0  0  0  0  0  0  0  0  0  0  0
   -7.7660   -5.5510   -5.8460 C   0  0  0  0  0  0  0  0  0  0  0  0
   -7.5300   -5.5460   -7.2190 C   0  0  0  0  0  0  0  0  0  0  0  0
   -7.6120   -4.1230   -8.1770 Cl  0  0  0  0  0  0  0  0  0  0  0  0
   -7.2340   -6.7430   -7.8070 C   0  0  0  0  0  0  0  0  0  0  0  0
   -7.2220   -7.8930   -7.0200 C   0  0  0  0  0  0  0  0  0  0  0  0
   -7.4500   -7.8640   -5.6820 C   0  0  0  0  0  0  0  0  0  0  0  0
   -7.3460   -9.1340   -5.1810 O   0  0  0  0  0  0  0  0  0  0  0  0
   -6.5690   -9.9100   -6.0890 C   0  0  0  0  0  0  0  0  0  0  0  0
   -7.0230   -9.3140   -7.3800 C   0  0  0  0  0  0  0  0  0  0  0  0
   -5.7170   -0.4220   -2.7350 H   0  0  0  0  0  0  0  0  0  0  0  0
   -4.3960   -0.1280   -1.6090 H   0  0  0  0  0  0  0  0  0  0  0  0
   -5.3200    1.2410   -2.2170 H   0  0  0  0  0  0  0  0  0  0  0  0
   -5.8530   -0.5010    0.0710 H   0  0  0  0  0  0  0  0  0  0  0  0
   -6.5480    1.0580   -0.3230 H   0  0  0  0  0  0  0  0  0  0  0  0
   -8.3100   -0.7080   -0.3080 H   0  0  0  0  0  0  0  0  0  0  0  0
   -8.1540    0.1230   -1.8260 H   0  0  0  0  0  0  0  0  0  0  0  0
   -7.5340   -2.4050   -0.0460 H   0  0  0  0  0  0  0  0  0  0  0  0
   -6.0720   -2.6110   -1.0240 H   0  0  0  0  0  0  0  0  0  0  0  0
   -6.8810   -4.8270   -0.8260 H   0  0  0  0  0  0  0  0  0  0  0  0
   -8.5480   -4.3240   -1.1230 H   0  0  0  0  0  0  0  0  0  0  0  0
   -6.7450   -6.3590   -2.0260 H   0  0  0  0  0  0  0  0  0  0  0  0
   -8.9390   -6.2790   -3.3500 H   0  0  0  0  0  0  0  0  0  0  0  0
   -7.9730   -7.7540   -3.2060 H   0  0  0  0  0  0  0  0  0  0  0  0
   -7.9970   -4.5950   -5.3640 H   0  0  0  0  0  0  0  0  0  0  0  0
   -7.0380   -6.7970   -8.8760 H   0  0  0  0  0  0  0  0  0  0  0  0
   -6.7600  -10.9660   -5.8800 H   0  0  0  0  0  0  0  0  0  0  0  0
   -5.5060   -9.7080   -5.9280 H   0  0  0  0  0  0  0  0  0  0  0  0
   -6.4570   -9.4930   -8.2710 H   0  0  0  0  0  0  0  0  0  0  0  0
   -7.9970   -9.7610   -7.5470 H   0  0  0  0  0  0  0  0  0  0  0  0
  1  2  1  0
  2  3  1  0
  3  4  1  0
  4  5  1  0
  5  6  1  0
  6  7  1  0
  7  8  2  0
  7  9  2  0
  7 10  1  0
 10 11  1  0
 11 12  1  0
 12 13  2  0
 13 14  1  0
 14 15  1  0
 14 16  2  0
 16 17  1  0
 17 18  2  0
 18 19  1  0
 19 20  1  0
 20 21  1  0
 18 12  1  0
 21 17  1  0
  1 22  1  0
  1 23  1  0
  1 24  1  0
  2 25  1  0
  2 26  1  0
  3 27  1  0
  3 28  1  0
  5 29  1  0
  5 30  1  0
  6 31  1  0
  6 32  1  0
 10 33  1  0
 11 34  1  0
 11 35  1  0
 13 36  1  0
 16 37  1  0
 20 38  1  0
 20 39  1  0
 21 40  1  0
 21 41  1  0
A    1
 C1 
A    2
 C2 
A    3
 C3 
A    4
 O1 
A    5
 C4 
A    6
 C5 
A    7
 S1 
A    8
 O2 
A    9
 O3 
A   10
 N1 
A   11
 C6 
A   12
 C7 
A   13
 C8 
A   14
 C9 
A   15
CL1 
A   16
 C10
A   17
 C11
A   18
 C12
A   19
 O4 
A   20
 C13
A   21
 C14
A   22
 H1 
A   23
 H2 
A   24
 H3 
A   25
 H4 
A   26
 H5 
A   27
 H6 
A   28
 H7 
A   29
 H8 
A   30
 H9 
A   31
 H10
A   32
 H11
A   33
 H12
A   34
 H13
A   35
 H14
A   36
 H15
A   37
 H16
A   38
 H17
A   39
 H18
A   40
 H19
A   41
 H20
M  END
>  <ref_pdb>  (62) 
x0147_0A

>  <ref_mols>  (62) 
x1919_0AS10,x0771_0A

>  <original SMILES>  (62) 
[H]c1c(Cl)c([H])c2c(c1C([H])([H])N([H])S(=O)(=O)C([H])([H])C([H])([H])OC([H])([H])C([H])([H])C([H])([H])[H])OC([H])([H])C2([H])[H]

>  <index>  (62) 
6443

>  <∆∆G>  (62) 
-2.117003

>  <comRMSD>  (62) 
0.819502

>  <N_constrained_atoms>  (62) 
21.0

>  <N_unconstrained_atoms>  (62) 
1.0

>  <LE>  (62) 
0.096227

>  <percent_hybrid>  (62) 
48.0

>  <max_hit_Tanimoto>  (62) 
0.180723

>  <largest_ring>  (62) 
6

>  <N_interactions_kept>  (62) 
2.0

>  <N_interactions_lost>  (62) 
2.0

>  <interaction_uniqueness_metric>  (62) 
0.189386

>  <N_HA>  (62) 
21

>  <N_rotatable_bonds>  (62) 
9

>  <N_interactions>  (62) 
6

>  <N_PAINS>  (62) 
0

>  <UFF_Gibbs>  (62) 
166.81686

>  <strain_per_HA>  (62) 
7.943622

>  <ad_hoc_penalty>  (62) 
0.140169

>  <cluster>  (62) 
1417

>  <ranked>  (62) 
3691.0

>  <merger_rank>  (62) 
4

>  <hydroph_interaction:LEU:127>  (62) 
1

>  <hbond:GLY:128>  (62) 
0

>  <hydroph_interaction:ALA:144>  (62) 
1

>  <hbond:GLY:164>  (62) 
1

>  <hbond:HIS:40>  (62) 
0

>  <pistack:HIS:40>  (62) 
0

>  <hydroph_interaction:LEU:125>  (62) 
1

>  <hydroph_interaction:PHE:170>  (62) 
1

>  <hydroph_interaction:HIS:40>  (62) 
0

>  <pication:HIS:40>  (62) 
0

>  <hbond:THR:142>  (62) 
0

>  <hbond:HIS:161>  (62) 
0

>  <hbond:GLY:166>  (62) 
0

>  <hbond:VAL:162>  (62) 
0

>  <hydroph_interaction:ASN:165>  (62) 
0

>  <saltbridge:HIS:161>  (62) 
0

>  <hbond:GLY:145>  (62) 
0

>  <hbond:CYS:147>  (62) 
0

>  <saltbridge:HIS:40>  (62) 
0

>  <hbond:LEU:127>  (62) 
0

>  <hbond:THR:130>  (62) 
0

>  <halogenbond:THR:142>  (62) 
1

>  <halogenbond:CYS:147>  (62) 
0

$$$$
Z738172968-x0771-1A
     RDKit          3D

 41 42  0  0  0  0  0  0  0  0999 V2000
   -6.1120   -9.6920   -5.5510 C   0  0  0  0  0  0  0  0  0  0  0  0
   -7.0470   -8.8160   -4.9330 O   0  0  0  0  0  0  0  0  0  0  0  0
   -7.2460   -7.6430   -5.7160 C   0  0  0  0  0  0  0  0  0  0  0  0
   -6.8280   -7.7590   -7.1540 C   0  0  0  0  0  0  0  0  0  0  0  0
   -7.0180   -6.5680   -8.0250 C   0  0  0  0  0  0  0  0  0  0  0  0
   -7.6240   -5.3470   -7.3880 C   0  0  0  0  0  0  0  0  0  0  0  0
   -7.8160   -4.2470   -8.1840 C   0  0  0  0  0  0  0  0  0  0  0  0
   -6.9930   -4.1170   -9.2800 N   0  0  0  0  0  0  0  0  0  0  0  0
   -8.8550   -3.3500   -7.7890 O   0  0  0  0  0  0  0  0  0  0  0  0
   -7.9710   -5.3300   -6.0420 C   0  0  0  0  0  0  0  0  0  0  0  0
   -7.7900   -6.4340   -5.2100 C   0  0  0  0  0  0  0  0  0  0  0  0
   -8.1160   -6.3450   -3.9500 N   0  0  0  0  0  0  0  0  0  0  0  0
   -7.0050   -5.4550   -3.1360 S   0  0  0  0  0  6  0  0  0  0  0  0
   -6.7650   -4.2040   -3.8560 O   0  0  0  0  0  0  0  0  0  0  0  0
   -7.4530   -5.4810   -1.7810 O   0  0  0  0  0  0  0  0  0  0  0  0
   -5.5810   -6.5040   -3.3840 C   0  0  0  0  0  0  0  0  0  0  0  0
   -5.9400   -7.7960   -3.0770 C   0  0  0  0  0  0  0  0  0  0  0  0
   -5.3290   -8.1010   -1.7500 C   0  0  0  0  0  0  0  0  0  0  0  0
   -3.9720   -7.5290   -1.4110 C   0  0  0  0  0  0  0  0  0  0  0  0
   -3.3010   -7.7880   -0.0830 C   0  0  0  0  0  0  0  0  0  0  0  0
   -4.0190   -8.5910    0.8000 C   0  0  0  0  0  0  0  0  0  0  0  0
   -5.3890   -9.1620    0.4270 C   0  0  0  0  0  0  0  0  0  0  0  0
   -5.9810   -8.8990   -0.8100 C   0  0  0  0  0  0  0  0  0  0  0  0
   -5.1990   -9.1180   -5.7730 H   0  0  0  0  0  0  0  0  0  0  0  0
   -5.8490  -10.5180   -4.8830 H   0  0  0  0  0  0  0  0  0  0  0  0
   -6.5070  -10.1050   -6.4820 H   0  0  0  0  0  0  0  0  0  0  0  0
   -6.4030   -8.6830   -7.5490 H   0  0  0  0  0  0  0  0  0  0  0  0
   -6.7420   -6.5740   -9.0730 H   0  0  0  0  0  0  0  0  0  0  0  0
   -6.4550   -4.8820   -9.6730 H   0  0  0  0  0  0  0  0  0  0  0  0
   -6.7860   -3.1900   -9.5890 H   0  0  0  0  0  0  0  0  0  0  0  0
   -8.3980   -4.4230   -5.6140 H   0  0  0  0  0  0  0  0  0  0  0  0
   -8.2740   -7.2320   -3.4930 H   0  0  0  0  0  0  0  0  0  0  0  0
   -4.8120   -6.0580   -2.7560 H   0  0  0  0  0  0  0  0  0  0  0  0
   -5.2780   -6.2940   -4.3980 H   0  0  0  0  0  0  0  0  0  0  0  0
   -6.9590   -8.1670   -3.0510 H   0  0  0  0  0  0  0  0  0  0  0  0
   -5.4210   -8.4350   -3.8030 H   0  0  0  0  0  0  0  0  0  0  0  0
   -3.4640   -6.9060   -2.1570 H   0  0  0  0  0  0  0  0  0  0  0  0
   -2.3210   -7.3830    0.1880 H   0  0  0  0  0  0  0  0  0  0  0  0
   -3.5940   -8.8190    1.7760 H   0  0  0  0  0  0  0  0  0  0  0  0
   -5.9190   -9.7890    1.1450 H   0  0  0  0  0  0  0  0  0  0  0  0
   -6.9590   -9.3210   -1.0410 H   0  0  0  0  0  0  0  0  0  0  0  0
  1  2  1  0
  2  3  1  0
  3  4  2  0
  4  5  1  0
  5  6  2  0
  6  7  1  0
  7  8  1  0
  7  9  2  0
  6 10  1  0
 10 11  2  0
 11 12  1  0
 12 13  1  0
 13 14  2  0
 13 15  2  0
 13 16  1  0
 16 17  1  0
 17 18  1  0
 18 19  2  0
 19 20  1  0
 20 21  2  0
 21 22  1  0
 22 23  2  0
 11  3  1  0
 23 18  1  0
  1 24  1  0
  1 25  1  0
  1 26  1  0
  4 27  1  0
  5 28  1  0
  8 29  1  0
  8 30  1  0
 10 31  1  0
 12 32  1  0
 16 33  1  0
 16 34  1  0
 17 35  1  0
 17 36  1  0
 19 37  1  0
 20 38  1  0
 21 39  1  0
 22 40  1  0
 23 41  1  0
A    1
 C1 
A    2
 O1 
A    3
 C2 
A    4
 C3 
A    5
 C4 
A    6
 C5 
A    7
 C6 
A    8
 N1 
A    9
 O2 
A   10
 C7 
A   11
 C8 
A   12
 N2 
A   13
 S1 
A   14
 O3 
A   15
 O4 
A   16
 C9 
A   17
 C10
A   18
 C11
A   19
 C12
A   20
 C13
A   21
 C14
A   22
 C15
A   23
 C16
A   24
 H1 
A   25
 H2 
A   26
 H3 
A   27
 H4 
A   28
 H5 
A   29
 H6 
A   30
 H7 
A   31
 H8 
A   32
 H9 
A   33
 H10
A   34
 H11
A   35
 H12
A   36
 H13
A   37
 H14
A   38
 H15
A   39
 H16
A   40
 H17
A   41
 H18
M  END
>  <ref_pdb>  (63) 
x0147_0A

>  <ref_mols>  (63) 
x0771_1A,x1140_0AS5

>  <original SMILES>  (63) 
[H]c1c([H])c([H])c(C([H])([H])C([H])([H])S(=O)(=O)N([H])c2c([H])c(C(=O)N([H])[H])c([H])c([H])c2OC([H])([H])[H])c([H])c1[H]

>  <index>  (63) 
5767

>  <∆∆G>  (63) 
-7.60472

>  <comRMSD>  (63) 
0.782007

>  <N_constrained_atoms>  (63) 
24.0

>  <N_unconstrained_atoms>  (63) 
0.0

>  <LE>  (63) 
0.316863

>  <percent_hybrid>  (63) 
50.0

>  <max_hit_Tanimoto>  (63) 
0.283375

>  <largest_ring>  (63) 
6

>  <N_interactions_kept>  (63) 
1.5

>  <N_interactions_lost>  (63) 
4.0

>  <interaction_uniqueness_metric>  (63) 
0.091508

>  <N_HA>  (63) 
23

>  <N_rotatable_bonds>  (63) 
8

>  <N_interactions>  (63) 
5

>  <N_PAINS>  (63) 
0

>  <UFF_Gibbs>  (63) 
308.739327

>  <strain_per_HA>  (63) 
13.423391

>  <ad_hoc_penalty>  (63) 
0.286256

>  <cluster>  (63) 
888

>  <ranked>  (63) 
3721.0

>  <merger_rank>  (63) 
2

>  <hydroph_interaction:LEU:127>  (63) 
1

>  <hbond:GLY:128>  (63) 
0

>  <hydroph_interaction:ALA:144>  (63) 
0

>  <hbond:GLY:164>  (63) 
1

>  <hbond:HIS:40>  (63) 
0

>  <pistack:HIS:40>  (63) 
1

>  <hydroph_interaction:LEU:125>  (63) 
0

>  <hydroph_interaction:PHE:170>  (63) 
0

>  <hydroph_interaction:HIS:40>  (63) 
1

>  <pication:HIS:40>  (63) 
0

>  <hbond:THR:142>  (63) 
1

>  <hbond:HIS:161>  (63) 
0

>  <hbond:GLY:166>  (63) 
0

>  <hbond:VAL:162>  (63) 
0

>  <hydroph_interaction:ASN:165>  (63) 
0

>  <saltbridge:HIS:161>  (63) 
0

>  <hbond:GLY:145>  (63) 
0

>  <hbond:CYS:147>  (63) 
0

>  <saltbridge:HIS:40>  (63) 
0

>  <hbond:LEU:127>  (63) 
0

>  <hbond:THR:130>  (63) 
0

>  <halogenbond:THR:142>  (63) 
0

>  <halogenbond:CYS:147>  (63) 
0

$$$$
PV-006316790224-x0771-1A
     RDKit          3D

 40 41  0  0  0  0  0  0  0  0999 V2000
   -7.4980   -9.4030   -6.9180 C   0  0  0  0  0  0  0  0  0  0  0  0
   -7.5850   -7.9220   -6.5280 C   0  0  0  0  0  0  0  0  0  0  0  0
   -7.4520   -6.7610   -7.5500 C   0  0  0  0  0  0  0  0  0  0  0  0
   -7.6420   -5.3630   -7.0580 C   0  0  0  0  0  0  0  0  0  0  0  0
   -7.5830   -4.2340   -8.0730 C   0  0  0  0  0  0  0  0  0  0  0  0
   -8.6150   -3.2490   -7.9320 O   0  0  0  0  0  0  0  0  0  0  0  0
   -6.6930   -4.2750   -8.8930 O   0  0  0  0  0  0  0  0  0  0  0  0
   -7.8740   -5.1460   -5.7170 C   0  0  0  0  0  0  0  0  0  0  0  0
   -7.9420   -6.2460   -4.8530 C   0  0  0  0  0  0  0  0  0  0  0  0
   -8.1580   -5.8880   -3.5640 N   0  0  0  0  0  0  0  0  0  0  0  0
   -6.7940   -5.2440   -2.9310 S   0  0  0  0  0  6  0  0  0  0  0  0
   -6.5210   -4.0120   -3.6590 O   0  0  0  0  0  0  0  0  0  0  0  0
   -7.0760   -5.3290   -1.5520 O   0  0  0  0  0  0  0  0  0  0  0  0
   -5.5870   -6.4690   -3.4560 C   0  0  0  0  0  0  0  0  0  0  0  0
   -5.9430   -7.7540   -3.0870 C   0  0  0  0  0  0  0  0  0  0  0  0
   -5.2720   -8.0460   -1.7800 C   0  0  0  0  0  0  0  0  0  0  0  0
   -5.8940   -8.8570   -0.8100 C   0  0  0  0  0  0  0  0  0  0  0  0
   -5.3530   -9.1770    0.4330 C   0  0  0  0  0  0  0  0  0  0  0  0
   -3.9690   -8.6150    0.8010 C   0  0  0  0  0  0  0  0  0  0  0  0
   -3.4280   -7.8280   -0.2150 C   0  0  0  0  0  0  0  0  0  0  0  0
   -4.0050   -7.5370   -1.4430 C   0  0  0  0  0  0  0  0  0  0  0  0
   -7.8090   -7.5970   -5.2370 C   0  0  0  0  0  0  0  0  0  0  0  0
   -7.9130   -8.5900   -4.3040 O   0  0  0  0  0  0  0  0  0  0  0  0
   -6.8370   -9.9520   -6.2450 H   0  0  0  0  0  0  0  0  0  0  0  0
   -7.1530   -9.5240   -7.9460 H   0  0  0  0  0  0  0  0  0  0  0  0
   -8.4740   -9.8660   -6.8070 H   0  0  0  0  0  0  0  0  0  0  0  0
   -7.2520   -6.9440   -8.6100 H   0  0  0  0  0  0  0  0  0  0  0  0
   -6.7640   -3.4150   -9.3330 H   0  0  0  0  0  0  0  0  0  0  0  0
   -8.0040   -4.1270   -5.3340 H   0  0  0  0  0  0  0  0  0  0  0  0
   -8.9780   -5.2880   -3.4540 H   0  0  0  0  0  0  0  0  0  0  0  0
   -5.5920   -6.4160   -4.5500 H   0  0  0  0  0  0  0  0  0  0  0  0
   -4.6200   -6.0840   -3.1540 H   0  0  0  0  0  0  0  0  0  0  0  0
   -5.7220   -8.5710   -3.7620 H   0  0  0  0  0  0  0  0  0  0  0  0
   -7.0130   -7.8160   -2.9210 H   0  0  0  0  0  0  0  0  0  0  0  0
   -6.8820   -9.2800   -1.0250 H   0  0  0  0  0  0  0  0  0  0  0  0
   -5.9020   -9.8160    1.1350 H   0  0  0  0  0  0  0  0  0  0  0  0
   -3.4650   -8.8080    1.7460 H   0  0  0  0  0  0  0  0  0  0  0  0
   -2.4360   -7.3940   -0.0190 H   0  0  0  0  0  0  0  0  0  0  0  0
   -3.3980   -6.8980   -2.0900 H   0  0  0  0  0  0  0  0  0  0  0  0
   -8.7960   -8.5630   -3.9000 H   0  0  0  0  0  0  0  0  0  0  0  0
  1  2  1  0
  2  3  2  0
  3  4  1  0
  4  5  1  0
  5  6  2  0
  5  7  1  0
  4  8  2  0
  8  9  1  0
  9 10  1  0
 10 11  1  0
 11 12  2  0
 11 13  2  0
 11 14  1  0
 14 15  1  0
 15 16  1  0
 16 17  2  0
 17 18  1  0
 18 19  2  0
 19 20  1  0
 20 21  2  0
  9 22  2  0
 22 23  1  0
 22  2  1  0
 21 16  1  0
  1 24  1  0
  1 25  1  0
  1 26  1  0
  3 27  1  0
  7 28  1  0
  8 29  1  0
 10 30  1  0
 14 31  1  0
 14 32  1  0
 15 33  1  0
 15 34  1  0
 17 35  1  0
 18 36  1  0
 19 37  1  0
 20 38  1  0
 21 39  1  0
 23 40  1  0
A    1
 C1 
A    2
 C2 
A    3
 C3 
A    4
 C4 
A    5
 C5 
A    6
 O1 
A    7
 O2 
A    8
 C6 
A    9
 C7 
A   10
 N1 
A   11
 S1 
A   12
 O3 
A   13
 O4 
A   14
 C8 
A   15
 C9 
A   16
 C10
A   17
 C11
A   18
 C12
A   19
 C13
A   20
 C14
A   21
 C15
A   22
 C16
A   23
 O5 
A   24
 H1 
A   25
 H2 
A   26
 H3 
A   27
 H4 
A   28
 H5 
A   29
 H6 
A   30
 H7 
A   31
 H8 
A   32
 H9 
A   33
 H10
A   34
 H11
A   35
 H12
A   36
 H13
A   37
 H14
A   38
 H15
A   39
 H16
A   40
 H17
M  END
>  <ref_pdb>  (64) 
x0147_0A

>  <ref_mols>  (64) 
x0771_1A,x1140_0AS5

>  <original SMILES>  (64) 
[H]OC(=O)c1c([H])c(N([H])S(=O)(=O)C([H])([H])C([H])([H])c2c([H])c([H])c([H])c([H])c2[H])c(O[H])c(C([H])([H])[H])c1[H]

>  <index>  (64) 
5793

>  <∆∆G>  (64) 
-4.041361

>  <comRMSD>  (64) 
0.888323

>  <N_constrained_atoms>  (64) 
24.0

>  <N_unconstrained_atoms>  (64) 
0.0

>  <LE>  (64) 
0.16839

>  <percent_hybrid>  (64) 
50.0

>  <max_hit_Tanimoto>  (64) 
0.252998

>  <largest_ring>  (64) 
6

>  <N_interactions_kept>  (64) 
2.0

>  <N_interactions_lost>  (64) 
3.5

>  <interaction_uniqueness_metric>  (64) 
0.139386

>  <N_HA>  (64) 
23

>  <N_rotatable_bonds>  (64) 
8

>  <N_interactions>  (64) 
6

>  <N_PAINS>  (64) 
0

>  <UFF_Gibbs>  (64) 
256.571503

>  <strain_per_HA>  (64) 
11.155234

>  <ad_hoc_penalty>  (64) 
4.907703

>  <cluster>  (64) 
5983

>  <ranked>  (64) 
4681.0

>  <merger_rank>  (64) 
3

>  <hydroph_interaction:LEU:127>  (64) 
1

>  <hbond:GLY:128>  (64) 
0

>  <hydroph_interaction:ALA:144>  (64) 
1

>  <hbond:GLY:164>  (64) 
1

>  <hbond:HIS:40>  (64) 
0

>  <pistack:HIS:40>  (64) 
1

>  <hydroph_interaction:LEU:125>  (64) 
0

>  <hydroph_interaction:PHE:170>  (64) 
0

>  <hydroph_interaction:HIS:40>  (64) 
1

>  <pication:HIS:40>  (64) 
0

>  <hbond:THR:142>  (64) 
0

>  <hbond:HIS:161>  (64) 
0

>  <hbond:GLY:166>  (64) 
0

>  <hbond:VAL:162>  (64) 
0

>  <hydroph_interaction:ASN:165>  (64) 
0

>  <saltbridge:HIS:161>  (64) 
1

>  <hbond:GLY:145>  (64) 
0

>  <hbond:CYS:147>  (64) 
0

>  <saltbridge:HIS:40>  (64) 
0

>  <hbond:LEU:127>  (64) 
0

>  <hbond:THR:130>  (64) 
0

>  <halogenbond:THR:142>  (64) 
0

>  <halogenbond:CYS:147>  (64) 
0

$$$$
