ver_1.2
     RDKit          3D

 14 15  0  0  0  0  0  0  0  0999 V2000
    3.0286    1.5015   -0.1127 C   0  0  0  0  0  0  0  0  0  0  0  0
    2.2018    0.3256   -0.0699 N   0  0  0  0  0  0  0  0  0  0  0  0
    2.6332   -0.9379   -0.0628 C   0  0  0  0  0  0  0  0  0  0  0  0
    1.5895   -1.7853   -0.0188 N   0  0  0  0  0  0  0  0  0  0  0  0
    0.4586   -1.0283    0.0026 C   0  0  0  0  0  0  0  0  0  0  0  0
    0.8619    0.3129   -0.0303 C   0  0  0  0  0  0  0  0  0  0  0  0
   -0.1366    1.2477   -0.0155 C   0  0  0  0  0  0  0  0  0  0  0  0
    0.2041    2.4631   -0.0446 O   0  0  0  0  0  0  0  0  0  0  0  0
   -1.4590    0.9489    0.0281 N   0  0  0  0  0  0  0  0  0  0  0  0
   -1.8029   -0.3496    0.0585 C   0  0  0  0  0  0  0  0  0  0  0  0
   -3.0094   -0.6985    0.0995 O   0  0  0  0  0  0  0  0  0  0  0  0
   -0.8645   -1.3053    0.0459 N   0  0  0  0  0  0  0  0  0  0  0  0
   -1.2562   -2.7029    0.0793 C   0  0  0  0  0  0  0  0  0  0  0  0
   -2.4490    2.0080    0.0406 C   0  0  0  0  0  0  0  0  0  0  0  0
  1  2  1  0
  2  3  1  0
  3  4  2  0
  4  5  1  0
  5  6  2  0
  6  7  1  0
  7  8  2  0
  7  9  1  0
  9 10  1  0
 10 11  2  0
 10 12  1  0
 12 13  1  0
  9 14  1  0
  6  2  1  0
 12  5  1  0
M  END
>  <ref_url>  (1) 
https://github.com/matteoferla/Fragment-hit-follow-up-chemistry

>  <submitter_name>  (1) 
Matteo Ferla

>  <submitter_email>  (1) 
matteo.ferla@stats.ox.ac.uk

>  <submitter_institution>  (1) 
Nowehere

>  <generation_date>  (1) 
2023-08-20

>  <method>  (1) 
Fragmenstein-no_curation-NSP2B

>  <index>  (1) 
index

>  <∆∆G>  (1) 
∆∆G

>  <∆G_bound>  (1) 
∆G_bound

>  <∆G_unbound>  (1) 
∆G_unbound

>  <comRMSD>  (1) 
comRMSD

>  <N_constrained_atoms>  (1) 
N_constrained_atoms

>  <N_unconstrained_atoms>  (1) 
N_unconstrained_atoms

>  <runtime>  (1) 
runtime

>  <LE>  (1) 
LE

>  <percent_hybrid>  (1) 
percent_hybrid

>  <dist>  (1) 
dist

>  <ecfp4>  (1) 
ecfp4

>  <daylight>  (1) 
daylight

>  <topodist>  (1) 
topodist

>  <mces>  (1) 
mces

>  <tdn>  (1) 
tdn

>  <tup>  (1) 
tup

>  <rdn>  (1) 
rdn

>  <rup>  (1) 
rup

>  <ldn>  (1) 
ldn

>  <lup>  (1) 
lup

>  <mut>  (1) 
mut

>  <maj>  (1) 
maj

>  <min>  (1) 
min

>  <hyb>  (1) 
hyb

>  <sub>  (1) 
sub

>  <query_index>  (1) 
query_index

>  <max_hit_Tanimoto>  (1) 
max_hit_Tanimoto

>  <largest_ring>  (1) 
largest_ring

>  <N_interactions_kept>  (1) 
N_interactions_kept

>  <N_interactions_lost>  (1) 
N_interactions_lost

>  <interaction_uniqueness_metric>  (1) 
interaction_uniqueness_metric

>  <ad_hoc_penalty>  (1) 
ad_hoc_penalty

>  <N_rotatable_bonds>  (1) 
N_rotatable_bonds

>  <N_HA>  (1) 
N_HA

>  <cluster>  (1) 
cluster

>  <N_interactions>  (1) 
N_interactions

>  <Enamine>  (1) 
Enamine

>  <Mcule>  (1) 
Mcule

>  <N_PAINS>  (1) 
N_PAINS

>  <UFF_Gibbs>  (1) 
UFF_Gibbs

>  <strain_per_HA>  (1) 
strain_per_HA

>  <saltbridge:HIS:51>  (1) 
saltbridge:HIS:51

>  <pistack:HIS:51>  (1) 
pistack:HIS:51

>  <hydroph_interaction:HIS:51>  (1) 
hydroph_interaction:HIS:51

>  <hbond:ALA:132>  (1) 
hbond:ALA:132

>  <hbond:SER:135>  (1) 
hbond:SER:135

>  <hydroph_interaction:TYR:150>  (1) 
hydroph_interaction:TYR:150

>  <pistack:TYR:161>  (1) 
pistack:TYR:161

>  <hydroph_interaction:TYR:161>  (1) 
hydroph_interaction:TYR:161

>  <hydroph_interaction:ASP:83>  (1) 
hydroph_interaction:ASP:83

>  <hbond:TYR:130>  (1) 
hbond:TYR:130

>  <hydroph_interaction:ALA:132>  (1) 
hydroph_interaction:ALA:132

>  <hbond:HIS:51>  (1) 
hbond:HIS:51

>  <hbond:ASP:129>  (1) 
hbond:ASP:129

>  <hbond:TYR:150>  (1) 
hbond:TYR:150

>  <hbond:GLY:151>  (1) 
hbond:GLY:151

>  <hbond:TYR:161>  (1) 
hbond:TYR:161

>  <hydroph_interaction:TYR:130>  (1) 
hydroph_interaction:TYR:130

>  <hydroph_interaction:PRO:131>  (1) 
hydroph_interaction:PRO:131

>  <hydroph_interaction:ASP:129>  (1) 
hydroph_interaction:ASP:129

>  <saltbridge:ASP:75>  (1) 
saltbridge:ASP:75

>  <saltbridge:ASP:83>  (1) 
saltbridge:ASP:83

>  <hydroph_interaction:ASN:152>  (1) 
hydroph_interaction:ASN:152

>  <halogenbond:TYR:150>  (1) 
halogenbond:TYR:150

>  <hbond:ASP:83>  (1) 
hbond:ASP:83

>  <hydroph_interaction:VAL:155>  (1) 
hydroph_interaction:VAL:155

>  <pication:TYR:161>  (1) 
pication:TYR:161

>  <hbond:PRO:131>  (1) 
hbond:PRO:131

>  <hbond:LEU:128>  (1) 
hbond:LEU:128

>  <saltbridge:ASP:129>  (1) 
saltbridge:ASP:129

>  <hbond:THR:134>  (1) 
hbond:THR:134

>  <pication:HIS:51>  (1) 
pication:HIS:51

>  <hbond:SER:81>  (1) 
hbond:SER:81

>  <hbond:GLY:159>  (1) 
hbond:GLY:159

>  <hydroph_interaction:PRO:101>  (1) 
hydroph_interaction:PRO:101

>  <hydroph_interaction:THR:134>  (1) 
hydroph_interaction:THR:134

>  <hbond:GLY:82>  (1) 
hbond:GLY:82

>  <hydroph_interaction:GLU:104>  (1) 
hydroph_interaction:GLU:104

>  <hydroph_interaction:VAL:36>  (1) 
hydroph_interaction:VAL:36

>  <hydroph_interaction:MET:49>  (1) 
hydroph_interaction:MET:49

>  <halogenbond:GLU:104>  (1) 
halogenbond:GLU:104

>  <hydroph_interaction:LYS:107>  (1) 
hydroph_interaction:LYS:107

$$$$
MCULE-9781946122
     RDKit          3D

 47 49  0  0  0  0  0  0  0  0999 V2000
   -7.0900    9.2650  -26.6040 C   0  0  0  0  0  0  0  0  0  0  0  0
   -6.0080    9.8520  -25.9500 N   0  0  0  0  0  0  0  0  0  0  0  0
   -6.1520   10.4620  -24.6350 C   0  0  0  0  0  0  0  0  0  0  0  0
   -5.8360    9.4660  -23.6100 C   0  0  0  0  0  0  0  0  0  0  0  0
   -6.1470    8.1080  -23.8060 C   0  0  0  0  0  0  0  0  0  0  0  0
   -5.8520    7.1570  -22.8510 C   0  0  0  0  0  0  0  0  0  0  0  0
   -5.1690    7.6260  -21.5570 C   0  0  0  0  0  0  0  0  0  0  0  0
   -4.9100    6.6290  -20.6560 O   0  0  0  0  0  0  0  0  0  0  0  0
   -5.6140    5.4020  -20.8300 C   0  0  0  0  0  0  0  0  0  0  0  0
   -4.8720    8.9820  -21.3870 C   0  0  0  0  0  0  0  0  0  0  0  0
   -5.2100    9.8880  -22.4200 C   0  0  0  0  0  0  0  0  0  0  0  0
   -7.2000    7.9070  -26.8730 C   0  0  0  0  0  0  0  0  0  0  0  0
   -8.4050    7.3370  -27.5910 C   0  0  0  0  0  0  0  0  0  0  0  0
   -9.4180    8.1860  -27.9880 C   0  0  0  0  0  0  0  0  0  0  0  0
  -10.5520    7.6960  -28.6390 N   0  0  0  0  0  0  0  0  0  0  0  0
  -11.7170    8.4280  -28.5980 C   0  0  0  0  0  0  0  0  0  0  0  0
  -11.9720    9.2020  -27.6820 O   0  0  0  0  0  0  0  0  0  0  0  0
  -12.5160    8.1900  -29.7180 N   0  0  0  0  0  0  0  0  0  0  0  0
  -13.8560    7.7550  -29.6860 C   0  0  0  0  0  0  0  0  0  0  0  0
  -14.9570    8.4810  -30.1370 C   0  0  0  0  0  0  0  0  0  0  0  0
  -16.2440    7.9360  -30.0290 C   0  0  0  0  0  0  0  0  0  0  0  0
  -16.4340    6.6810  -29.4750 C   0  0  0  0  0  0  0  0  0  0  0  0
  -15.3420    5.9430  -29.0320 C   0  0  0  0  0  0  0  0  0  0  0  0
  -14.0590    6.4920  -29.1460 C   0  0  0  0  0  0  0  0  0  0  0  0
   -9.2730    9.5490  -27.7030 C   0  0  0  0  0  0  0  0  0  0  0  0
   -8.1470   10.0690  -27.0350 C   0  0  0  0  0  0  0  0  0  0  0  0
   -5.1550    9.3050  -26.0390 H   0  0  0  0  0  0  0  0  0  0  0  0
   -7.1710   10.8170  -24.4840 H   0  0  0  0  0  0  0  0  0  0  0  0
   -5.4410   11.2860  -24.5270 H   0  0  0  0  0  0  0  0  0  0  0  0
   -6.6300    7.8780  -24.7590 H   0  0  0  0  0  0  0  0  0  0  0  0
   -6.0960    6.1070  -23.0080 H   0  0  0  0  0  0  0  0  0  0  0  0
   -5.5670    4.8570  -19.8840 H   0  0  0  0  0  0  0  0  0  0  0  0
   -5.1480    4.7760  -21.5990 H   0  0  0  0  0  0  0  0  0  0  0  0
   -6.6580    5.5780  -21.0490 H   0  0  0  0  0  0  0  0  0  0  0  0
   -4.3920    9.2380  -20.4540 H   0  0  0  0  0  0  0  0  0  0  0  0
   -5.0080   10.9510  -22.3550 H   0  0  0  0  0  0  0  0  0  0  0  0
   -6.4590    7.1450  -26.6030 H   0  0  0  0  0  0  0  0  0  0  0  0
   -8.4680    6.2600  -27.7890 H   0  0  0  0  0  0  0  0  0  0  0  0
  -10.3770    7.1920  -29.4950 H   0  0  0  0  0  0  0  0  0  0  0  0
  -12.2300    8.6580  -30.5650 H   0  0  0  0  0  0  0  0  0  0  0  0
  -14.8600    9.4690  -30.5720 H   0  0  0  0  0  0  0  0  0  0  0  0
  -17.1000    8.5070  -30.3810 H   0  0  0  0  0  0  0  0  0  0  0  0
  -17.4370    6.2850  -29.3910 H   0  0  0  0  0  0  0  0  0  0  0  0
  -15.4830    4.9580  -28.6020 H   0  0  0  0  0  0  0  0  0  0  0  0
  -13.2120    5.9250  -28.8010 H   0  0  0  0  0  0  0  0  0  0  0  0
  -10.0380   10.2610  -27.9910 H   0  0  0  0  0  0  0  0  0  0  0  0
   -8.1170   11.1420  -26.8550 H   0  0  0  0  0  0  0  0  0  0  0  0
  1  2  1  0
  2  3  1  0
  3  4  1  0
  4  5  2  0
  5  6  1  0
  6  7  2  0
  7  8  1  0
  8  9  1  0
  7 10  1  0
 10 11  2  0
  1 12  2  0
 12 13  1  0
 13 14  2  0
 14 15  1  0
 15 16  1  0
 16 17  2  0
 16 18  1  0
 18 19  1  0
 19 20  2  0
 20 21  1  0
 21 22  2  0
 22 23  1  0
 23 24  2  0
 14 25  1  0
 25 26  2  0
  1 26  1  0
 11  4  1  0
 19 24  1  0
  2 27  1  0
  3 28  1  0
  3 29  1  0
  5 30  1  0
  6 31  1  0
  9 32  1  0
  9 33  1  0
  9 34  1  0
 10 35  1  0
 11 36  1  0
 12 37  1  0
 13 38  1  0
 15 39  1  0
 18 40  1  0
 20 41  1  0
 21 42  1  0
 22 43  1  0
 23 44  1  0
 24 45  1  0
 25 46  1  0
 26 47  1  0
A    1
 C1 
A    2
 N1 
A    3
 C2 
A    4
 C3 
A    5
 C4 
A    6
 C5 
A    7
 C6 
A    8
 O1 
A    9
 C7 
A   10
 C8 
A   11
 C9 
A   12
 C10
A   13
 C11
A   14
 C12
A   15
 N2 
A   16
 C13
A   17
 O2 
A   18
 N3 
A   19
 C14
A   20
 C15
A   21
 C16
A   22
 C17
A   23
 C18
A   24
 C19
A   25
 C20
A   26
 C21
A   27
 H1 
A   28
 H2 
A   29
 H3 
A   30
 H4 
A   31
 H5 
A   32
 H6 
A   33
 H7 
A   34
 H8 
A   35
 H9 
A   36
 H10
A   37
 H11
A   38
 H12
A   39
 H13
A   40
 H14
A   41
 H15
A   42
 H16
A   43
 H17
A   44
 H18
A   45
 H19
A   46
 H20
A   47
 H21
M  END
>  <ref_pdb>  (1) 
x0051_0B

>  <ref_mols>  (1) 
x0846_1B,x0559_0B

>  <original SMILES>  (1) 
[H]c1c([H])c([H])c(N([H])C(=O)N([H])c2c([H])c([H])c(N([H])C([H])([H])c3c([H])c([H])c(OC([H])([H])[H])c([H])c3[H])c([H])c2[H])c([H])c1[H]

>  <index>  (1) 
6

>  <∆∆G>  (1) 
-8.934376

>  <∆G_bound>  (1) 
-8.639333

>  <∆G_unbound>  (1) 
0.295043

>  <comRMSD>  (1) 
0.728285

>  <N_constrained_atoms>  (1) 
19.0

>  <N_unconstrained_atoms>  (1) 
9.0

>  <runtime>  (1) 
87.284451

>  <LE>  (1) 
0.319085

>  <percent_hybrid>  (1) 
6.0

>  <dist>  (1) 
10.0

>  <ecfp4>  (1) 
0.156627

>  <daylight>  (1) 
0.236181

>  <topodist>  (1) 
4.0

>  <mces>  (1) 
27.0

>  <tdn>  (1) 
1.0

>  <tup>  (1) 
0.0

>  <rdn>  (1) 
1.0

>  <rup>  (1) 
0.0

>  <ldn>  (1) 
1.0

>  <lup>  (1) 
1.0

>  <mut>  (1) 
5.0

>  <maj>  (1) 
5.0

>  <min>  (1) 
0.0

>  <hyb>  (1) 
1.0

>  <sub>  (1) 
2.0

>  <query_index>  (1) 
233.0

>  <max_hit_Tanimoto>  (1) 
0.253448

>  <largest_ring>  (1) 
0

>  <N_interactions_kept>  (1) 
2.5

>  <N_interactions_lost>  (1) 
1.0

>  <interaction_uniqueness_metric>  (1) 
2.43847

>  <ad_hoc_penalty>  (1) 
-70.269376

>  <N_rotatable_bonds>  (1) 
7

>  <N_HA>  (1) 
26

>  <cluster>  (1) 
6210

>  <N_interactions>  (1) 
6

>  <Enamine>  (1) 
0

>  <Mcule>  (1) 
1

>  <N_PAINS>  (1) 
0

>  <UFF_Gibbs>  (1) 
100.271818

>  <strain_per_HA>  (1) 
3.856608

>  <saltbridge:HIS:51>  (1) 
0

>  <pistack:HIS:51>  (1) 
0

>  <hydroph_interaction:HIS:51>  (1) 
0

>  <hbond:ALA:132>  (1) 
0

>  <hbond:SER:135>  (1) 
0

>  <hydroph_interaction:TYR:150>  (1) 
0

>  <pistack:TYR:161>  (1) 
0

>  <hydroph_interaction:TYR:161>  (1) 
0

>  <hydroph_interaction:ASP:83>  (1) 
0

>  <hbond:TYR:130>  (1) 
0

>  <hydroph_interaction:ALA:132>  (1) 
0

>  <hbond:HIS:51>  (1) 
0

>  <hbond:ASP:129>  (1) 
0

>  <hbond:TYR:150>  (1) 
0

>  <hbond:GLY:151>  (1) 
0

>  <hbond:TYR:161>  (1) 
0

>  <hydroph_interaction:TYR:130>  (1) 
1

>  <hydroph_interaction:PRO:131>  (1) 
1

>  <hydroph_interaction:ASP:129>  (1) 
0

>  <saltbridge:ASP:75>  (1) 
0

>  <saltbridge:ASP:83>  (1) 
0

>  <hydroph_interaction:ASN:152>  (1) 
0

>  <halogenbond:TYR:150>  (1) 
0

>  <hbond:ASP:83>  (1) 
0

>  <hydroph_interaction:VAL:155>  (1) 
0

>  <pication:TYR:161>  (1) 
0

>  <hbond:PRO:131>  (1) 
0

>  <hbond:LEU:128>  (1) 
0

>  <saltbridge:ASP:129>  (1) 
0

>  <hbond:THR:134>  (1) 
0

>  <pication:HIS:51>  (1) 
0

>  <hbond:SER:81>  (1) 
0

>  <hbond:GLY:159>  (1) 
0

>  <hydroph_interaction:PRO:101>  (1) 
1

>  <hydroph_interaction:THR:134>  (1) 
0

>  <hbond:GLY:82>  (1) 
0

>  <hydroph_interaction:GLU:104>  (1) 
2

>  <hydroph_interaction:VAL:36>  (1) 
0

>  <hydroph_interaction:MET:49>  (1) 
0

>  <halogenbond:GLU:104>  (1) 
0

>  <hydroph_interaction:LYS:107>  (1) 
1

$$$$
PV-004130533012
     RDKit          3D

 49 52  0  0  0  0  0  0  0  0999 V2000
   -3.4970    4.3260  -15.5440 C   0  0  0  0  0  0  0  0  0  0  0  0
   -2.9520    5.1530  -16.6950 C   0  0  0  0  0  0  0  0  0  0  0  0
   -3.9280    5.5100  -17.6190 C   0  0  0  0  0  0  0  0  0  0  0  0
   -3.6240    5.7800  -18.7870 O   0  0  0  0  0  0  0  0  0  0  0  0
   -5.2460    5.5650  -17.1710 N   0  0  0  0  0  0  0  0  0  0  0  0
   -6.1960    5.8620  -18.2080 C   0  0  0  0  0  0  0  0  0  0  0  0
   -7.4830    5.5020  -17.8740 C   0  0  0  0  0  0  0  0  0  0  0  0
   -8.3940    5.1050  -18.9300 C   0  0  0  0  0  0  0  0  0  0  0  0
   -9.6730    4.7460  -18.6130 C   0  0  0  0  0  0  0  0  0  0  0  0
  -10.1090    4.7520  -17.3130 C   0  0  0  0  0  0  0  0  0  0  0  0
   -9.2670    5.1250  -16.2830 C   0  0  0  0  0  0  0  0  0  0  0  0
   -7.9440    5.5080  -16.5340 C   0  0  0  0  0  0  0  0  0  0  0  0
   -7.1230    5.8870  -15.4600 C   0  0  0  0  0  0  0  0  0  0  0  0
   -7.2830    4.9870  -14.2920 N   0  0  0  0  0  0  0  0  0  0  0  0
   -7.3720    5.4810  -12.9860 C   0  0  0  0  0  0  0  0  0  0  0  0
   -6.4210    6.0230  -12.4280 O   0  0  0  0  0  0  0  0  0  0  0  0
   -8.6260    5.3310  -12.3420 C   0  0  0  0  0  0  0  0  0  0  0  0
   -8.7370    5.4580  -10.8570 C   0  0  0  0  0  0  0  0  0  0  0  0
   -8.9420    4.4640   -9.9230 C   0  0  0  0  0  0  0  0  0  0  0  0
   -9.1220    2.9550   -9.9730 C   0  0  0  0  0  0  0  0  0  0  0  0
   -9.3210    2.2900   -8.7730 C   0  0  0  0  0  0  0  0  0  0  0  0
   -9.3670    2.9450   -7.5600 C   0  0  0  0  0  0  0  0  0  0  0  0
   -9.1920    4.3130   -7.4920 C   0  0  0  0  0  0  0  0  0  0  0  0
   -8.9840    5.0580   -8.6560 N   0  0  0  0  0  0  0  0  0  0  0  0
   -8.8060    6.3960   -8.7530 N   0  0  0  0  0  0  0  0  0  0  0  0
   -8.6620    6.6260  -10.0610 C   0  0  0  0  0  0  0  0  0  0  0  0
   -5.6320    6.0900  -15.8540 C   0  0  0  0  0  0  0  0  0  0  0  0
   -2.9770    3.3710  -15.4680 H   0  0  0  0  0  0  0  0  0  0  0  0
   -4.5640    4.1390  -15.6760 H   0  0  0  0  0  0  0  0  0  0  0  0
   -3.3640    4.8640  -14.6050 H   0  0  0  0  0  0  0  0  0  0  0  0
   -2.4980    6.0630  -16.2910 H   0  0  0  0  0  0  0  0  0  0  0  0
   -2.1870    4.5750  -17.2160 H   0  0  0  0  0  0  0  0  0  0  0  0
   -5.8990    5.3410  -19.1280 H   0  0  0  0  0  0  0  0  0  0  0  0
   -6.1590    6.9410  -18.3940 H   0  0  0  0  0  0  0  0  0  0  0  0
   -8.0740    5.0910  -19.9700 H   0  0  0  0  0  0  0  0  0  0  0  0
  -10.3330    4.4620  -19.3890 H   0  0  0  0  0  0  0  0  0  0  0  0
  -11.1160    4.4590  -17.1080 H   0  0  0  0  0  0  0  0  0  0  0  0
   -9.6530    5.1160  -15.2660 H   0  0  0  0  0  0  0  0  0  0  0  0
   -7.4960    6.8690  -15.1470 H   0  0  0  0  0  0  0  0  0  0  0  0
   -7.2560    3.9680  -14.4510 H   0  0  0  0  0  0  0  0  0  0  0  0
   -9.0070    4.3420  -12.6220 H   0  0  0  0  0  0  0  0  0  0  0  0
   -9.3070    6.0500  -12.8160 H   0  0  0  0  0  0  0  0  0  0  0  0
   -9.0890    2.4200  -10.9170 H   0  0  0  0  0  0  0  0  0  0  0  0
   -9.4410    1.2350   -8.7310 H   0  0  0  0  0  0  0  0  0  0  0  0
   -9.5350    2.3560   -6.6800 H   0  0  0  0  0  0  0  0  0  0  0  0
   -9.2120    4.8710   -6.5690 H   0  0  0  0  0  0  0  0  0  0  0  0
   -8.5070    7.6490  -10.3840 H   0  0  0  0  0  0  0  0  0  0  0  0
   -4.9820    5.6040  -15.1190 H   0  0  0  0  0  0  0  0  0  0  0  0
   -5.3990    7.1550  -15.7870 H   0  0  0  0  0  0  0  0  0  0  0  0
  1  2  1  0
  2  3  1  0
  3  4  2  0
  3  5  1  0
  5  6  1  0
  6  7  1  0
  7  8  2  0
  8  9  1  0
  9 10  2  0
 10 11  1  0
 11 12  2  0
 12 13  1  0
 13 14  1  0
 14 15  1  0
 15 16  2  0
 15 17  1  0
 17 18  1  0
 18 19  2  0
 19 20  1  0
 20 21  2  0
 21 22  1  0
 22 23  2  0
 23 24  1  0
 24 25  1  0
 25 26  2  0
 13 27  1  0
 27  5  1  0
 12  7  1  0
 26 18  1  0
 24 19  1  0
  1 28  1  0
  1 29  1  0
  1 30  1  0
  2 31  1  0
  2 32  1  0
  6 33  1  0
  6 34  1  0
  8 35  1  0
  9 36  1  0
 10 37  1  0
 11 38  1  0
 13 39  1  0
 14 40  1  0
 17 41  1  0
 17 42  1  0
 20 43  1  0
 21 44  1  0
 22 45  1  0
 23 46  1  0
 26 47  1  0
 27 48  1  0
 27 49  1  0
A    1
 C1 
A    2
 C2 
A    3
 C3 
A    4
 O1 
A    5
 N1 
A    6
 C4 
A    7
 C5 
A    8
 C6 
A    9
 C7 
A   10
 C8 
A   11
 C9 
A   12
 C10
A   13
 C11
A   14
 N2 
A   15
 C12
A   16
 O2 
A   17
 C13
A   18
 C14
A   19
 C15
A   20
 C16
A   21
 C17
A   22
 C18
A   23
 C19
A   24
 N3 
A   25
 N4 
A   26
 C20
A   27
 C21
A   28
 H1 
A   29
 H2 
A   30
 H3 
A   31
 H4 
A   32
 H5 
A   33
 H6 
A   34
 H7 
A   35
 H8 
A   36
 H9 
A   37
 H10
A   38
 H11
A   39
 H12
A   40
 H13
A   41
 H14
A   42
 H15
A   43
 H16
A   44
 H17
A   45
 H18
A   46
 H19
A   47
 H20
A   48
 H21
A   49
 H22
M  END
>  <ref_pdb>  (2) 
x0051_0B

>  <ref_mols>  (2) 
x0472_0B,x0969_1B

>  <original SMILES>  (2) 
[H]c1nn2c([H])c([H])c([H])c([H])c2c1C([H])([H])C(=O)N([H])C1([H])c2c([H])c([H])c([H])c([H])c2C([H])([H])N(C(=O)C([H])([H])C([H])([H])[H])C1([H])[H]

>  <index>  (2) 
0

>  <∆∆G>  (2) 
-7.998571

>  <∆G_bound>  (2) 
-6.371715

>  <∆G_unbound>  (2) 
1.626856

>  <comRMSD>  (2) 
0.460935

>  <N_constrained_atoms>  (2) 
23.0

>  <N_unconstrained_atoms>  (2) 
4.0

>  <runtime>  (2) 
33.967824

>  <LE>  (2) 
0.296243

>  <percent_hybrid>  (2) 
44.0

>  <dist>  (2) 
12.0

>  <ecfp4>  (2) 
0.132075

>  <daylight>  (2) 
0.255255

>  <topodist>  (2) 
2.0

>  <mces>  (2) 
28.0

>  <tdn>  (2) 
0.0

>  <tup>  (2) 
1.0

>  <rdn>  (2) 
0.0

>  <rup>  (2) 
0.0

>  <ldn>  (2) 
0.0

>  <lup>  (2) 
1.0

>  <mut>  (2) 
5.0

>  <maj>  (2) 
5.0

>  <min>  (2) 
0.0

>  <hyb>  (2) 
5.0

>  <sub>  (2) 
0.0

>  <query_index>  (2) 
24.0

>  <max_hit_Tanimoto>  (2) 
0.301237

>  <largest_ring>  (2) 
0

>  <N_interactions_kept>  (2) 
3.5

>  <N_interactions_lost>  (2) 
0.0

>  <interaction_uniqueness_metric>  (2) 
0.157572

>  <ad_hoc_penalty>  (2) 
-48.798672

>  <N_rotatable_bonds>  (2) 
5

>  <N_HA>  (2) 
27

>  <cluster>  (2) 
6216

>  <N_interactions>  (2) 
8

>  <Enamine>  (2) 
1

>  <Mcule>  (2) 
0

>  <N_PAINS>  (2) 
0

>  <UFF_Gibbs>  (2) 
168.742258

>  <strain_per_HA>  (2) 
6.249713

>  <saltbridge:HIS:51>  (2) 
0

>  <pistack:HIS:51>  (2) 
1

>  <hydroph_interaction:HIS:51>  (2) 
0

>  <hbond:ALA:132>  (2) 
0

>  <hbond:SER:135>  (2) 
0

>  <hydroph_interaction:TYR:150>  (2) 
1

>  <pistack:TYR:161>  (2) 
0

>  <hydroph_interaction:TYR:161>  (2) 
3

>  <hydroph_interaction:ASP:83>  (2) 
0

>  <hbond:TYR:130>  (2) 
0

>  <hydroph_interaction:ALA:132>  (2) 
1

>  <hbond:HIS:51>  (2) 
0

>  <hbond:ASP:129>  (2) 
0

>  <hbond:TYR:150>  (2) 
0

>  <hbond:GLY:151>  (2) 
0

>  <hbond:TYR:161>  (2) 
1

>  <hydroph_interaction:TYR:130>  (2) 
0

>  <hydroph_interaction:PRO:131>  (2) 
0

>  <hydroph_interaction:ASP:129>  (2) 
0

>  <saltbridge:ASP:75>  (2) 
0

>  <saltbridge:ASP:83>  (2) 
0

>  <hydroph_interaction:ASN:152>  (2) 
0

>  <halogenbond:TYR:150>  (2) 
0

>  <hbond:ASP:83>  (2) 
0

>  <hydroph_interaction:VAL:155>  (2) 
1

>  <pication:TYR:161>  (2) 
0

>  <hbond:PRO:131>  (2) 
0

>  <hbond:LEU:128>  (2) 
0

>  <saltbridge:ASP:129>  (2) 
0

>  <hbond:THR:134>  (2) 
0

>  <pication:HIS:51>  (2) 
0

>  <hbond:SER:81>  (2) 
0

>  <hbond:GLY:159>  (2) 
0

>  <hydroph_interaction:PRO:101>  (2) 
0

>  <hydroph_interaction:THR:134>  (2) 
0

>  <hbond:GLY:82>  (2) 
0

>  <hydroph_interaction:GLU:104>  (2) 
0

>  <hydroph_interaction:VAL:36>  (2) 
0

>  <hydroph_interaction:MET:49>  (2) 
0

>  <halogenbond:GLU:104>  (2) 
0

>  <hydroph_interaction:LYS:107>  (2) 
0

$$$$
PV-003491507658
     RDKit          3D

 53 56  0  0  0  0  0  0  0  0999 V2000
   -3.2810    5.1590  -16.3920 C   0  0  0  0  0  0  0  0  0  0  0  0
   -4.1270    5.4550  -17.5990 C   0  0  0  0  0  0  0  0  0  0  0  0
   -3.7140    5.1480  -18.7200 O   0  0  0  0  0  0  0  0  0  0  0  0
   -5.3670    6.0780  -17.4060 N   0  0  0  0  0  0  0  0  0  0  0  0
   -5.8000    6.4630  -16.0430 C   0  0  0  0  0  0  0  0  0  0  0  0
   -6.9680    5.6240  -15.4380 C   0  0  1  0  0  0  0  0  0  0  0  0
   -7.6780    6.3490  -14.3610 N   0  0  0  0  0  0  0  0  0  0  0  0
   -7.5340    5.9890  -13.0080 C   0  0  0  0  0  0  0  0  0  0  0  0
   -6.4550    6.0230  -12.4210 O   0  0  0  0  0  0  0  0  0  0  0  0
   -8.8360    5.5540  -12.3200 C   0  0  0  0  0  0  0  0  0  0  0  0
   -8.8370    5.5290  -10.8140 C   0  0  0  0  0  0  0  0  0  0  0  0
   -8.9400    4.4340   -9.9690 C   0  0  0  0  0  0  0  0  0  0  0  0
   -9.0630    2.9770  -10.2190 C   0  0  0  0  0  0  0  0  0  0  0  0
   -8.6220    2.2360   -8.9720 C   0  0  0  0  0  0  0  0  0  0  0  0
   -9.4210    2.7000   -7.7690 C   0  0  0  0  0  0  0  0  0  0  0  0
   -9.0130    4.1340   -7.4590 C   0  0  0  0  0  0  0  0  0  0  0  0
   -8.9150    4.9270   -8.6810 N   0  0  0  0  0  0  0  0  0  0  0  0
   -8.7920    6.2580   -8.6230 N   0  0  0  0  0  0  0  0  0  0  0  0
   -8.7460    6.6260   -9.9110 C   0  0  0  0  0  0  0  0  0  0  0  0
   -7.9040    5.0320  -16.5330 C   0  0  1  0  0  0  0  0  0  0  0  0
   -9.3910    5.3560  -16.5630 C   0  0  0  0  0  0  0  0  0  0  0  0
   -9.8410    4.8870  -17.9610 C   0  0  0  0  0  0  0  0  0  0  0  0
   -8.6540    4.9980  -18.9010 C   0  0  0  0  0  0  0  0  0  0  0  0
   -7.4270    5.0420  -18.0030 C   0  0  1  0  0  0  0  0  0  0  0  0
   -6.4060    6.0610  -18.4040 C   0  0  0  0  0  0  0  0  0  0  0  0
   -3.8360    4.5630  -15.6640 H   0  0  0  0  0  0  0  0  0  0  0  0
   -2.3710    4.6390  -16.6980 H   0  0  0  0  0  0  0  0  0  0  0  0
   -2.9970    6.0990  -15.9080 H   0  0  0  0  0  0  0  0  0  0  0  0
   -4.9170    6.3680  -15.4010 H   0  0  0  0  0  0  0  0  0  0  0  0
   -6.0710    7.5250  -16.0500 H   0  0  0  0  0  0  0  0  0  0  0  0
   -6.5060    4.7630  -14.9410 H   0  0  0  0  0  0  0  0  0  0  0  0
   -8.5030    6.8770  -14.6080 H   0  0  0  0  0  0  0  0  0  0  0  0
   -9.6540    6.1930  -12.6700 H   0  0  0  0  0  0  0  0  0  0  0  0
   -9.0760    4.5540  -12.7030 H   0  0  0  0  0  0  0  0  0  0  0  0
  -10.0980    2.7210  -10.4580 H   0  0  0  0  0  0  0  0  0  0  0  0
   -8.4440    2.6720  -11.0700 H   0  0  0  0  0  0  0  0  0  0  0  0
   -7.5590    2.4160   -8.8050 H   0  0  0  0  0  0  0  0  0  0  0  0
   -8.7450    1.1730   -9.0960 H   0  0  0  0  0  0  0  0  0  0  0  0
  -10.4950    2.6450   -7.9940 H   0  0  0  0  0  0  0  0  0  0  0  0
   -9.2280    2.0560   -6.9110 H   0  0  0  0  0  0  0  0  0  0  0  0
   -9.7440    4.6110   -6.7980 H   0  0  0  0  0  0  0  0  0  0  0  0
   -8.0260    4.1600   -6.9840 H   0  0  0  0  0  0  0  0  0  0  0  0
   -8.6510    7.6780  -10.1500 H   0  0  0  0  0  0  0  0  0  0  0  0
   -7.9150    3.9770  -16.2770 H   0  0  0  0  0  0  0  0  0  0  0  0
   -9.5940    6.4170  -16.4310 H   0  0  0  0  0  0  0  0  0  0  0  0
   -9.9320    4.8250  -15.7730 H   0  0  0  0  0  0  0  0  0  0  0  0
  -10.7210    5.4270  -18.3260 H   0  0  0  0  0  0  0  0  0  0  0  0
  -10.0860    3.8560  -17.9340 H   0  0  0  0  0  0  0  0  0  0  0  0
   -8.7100    5.8540  -19.5730 H   0  0  0  0  0  0  0  0  0  0  0  0
   -8.6250    4.1030  -19.5350 H   0  0  0  0  0  0  0  0  0  0  0  0
   -6.9100    4.1070  -18.1350 H   0  0  0  0  0  0  0  0  0  0  0  0
   -6.8730    7.0400  -18.5190 H   0  0  0  0  0  0  0  0  0  0  0  0
   -5.9380    5.8120  -19.3640 H   0  0  0  0  0  0  0  0  0  0  0  0
  1  2  1  0
  2  3  2  0
  2  4  1  0
  4  5  1  0
  5  6  1  0
  6  7  1  0
  7  8  1  0
  8  9  2  0
  8 10  1  0
 10 11  1  0
 11 12  2  0
 12 13  1  0
 13 14  1  0
 14 15  1  0
 15 16  1  0
 16 17  1  0
 17 18  1  0
 18 19  2  0
  6 20  1  0
 20 21  1  0
 21 22  1  0
 22 23  1  0
 23 24  1  0
 24 25  1  0
 25  4  1  0
 19 11  1  0
 17 12  1  0
 24 20  1  0
  1 26  1  0
  1 27  1  0
  1 28  1  0
  5 29  1  0
  5 30  1  0
  6 31  1  1
  7 32  1  0
 10 33  1  0
 10 34  1  0
 13 35  1  0
 13 36  1  0
 14 37  1  0
 14 38  1  0
 15 39  1  0
 15 40  1  0
 16 41  1  0
 16 42  1  0
 19 43  1  0
 20 44  1  1
 21 45  1  0
 21 46  1  0
 22 47  1  0
 22 48  1  0
 23 49  1  0
 23 50  1  0
 24 51  1  1
 25 52  1  0
 25 53  1  0
A    1
 C1 
A    2
 C2 
A    3
 O1 
A    4
 N1 
A    5
 C3 
A    6
 C4 
A    7
 N2 
A    8
 C5 
A    9
 O2 
A   10
 C6 
A   11
 C7 
A   12
 C8 
A   13
 C9 
A   14
 C10
A   15
 C11
A   16
 C12
A   17
 N3 
A   18
 N4 
A   19
 C13
A   20
 C14
A   21
 C15
A   22
 C16
A   23
 C17
A   24
 C18
A   25
 C19
A   26
 H1 
A   27
 H2 
A   28
 H3 
A   29
 H4 
A   30
 H5 
A   31
 H6 
A   32
 H7 
A   33
 H8 
A   34
 H9 
A   35
 H10
A   36
 H11
A   37
 H12
A   38
 H13
A   39
 H14
A   40
 H15
A   41
 H16
A   42
 H17
A   43
 H18
A   44
 H19
A   45
 H20
A   46
 H21
A   47
 H22
A   48
 H23
A   49
 H24
A   50
 H25
A   51
 H26
A   52
 H27
A   53
 H28
M  END
>  <ref_pdb>  (3) 
x0051_0B

>  <ref_mols>  (3) 
x0472_0B,x0969_1B

>  <original SMILES>  (3) 
[H]c1nn2c(c1C([H])([H])C(=O)N([H])[C@]1([H])C([H])([H])N(C(=O)C([H])([H])[H])C([H])([H])[C@]3([H])C([H])([H])C([H])([H])C([H])([H])[C@@]31[H])C([H])([H])C([H])([H])C([H])([H])C2([H])[H]

>  <index>  (3) 
3

>  <∆∆G>  (3) 
-6.903683

>  <∆G_bound>  (3) 
-5.448303

>  <∆G_unbound>  (3) 
1.45538

>  <comRMSD>  (3) 
0.450411

>  <N_constrained_atoms>  (3) 
23.0

>  <N_unconstrained_atoms>  (3) 
3.0

>  <runtime>  (3) 
53.790997

>  <LE>  (3) 
0.265526

>  <percent_hybrid>  (3) 
44.0

>  <dist>  (3) 
12.0

>  <ecfp4>  (3) 
0.202128

>  <daylight>  (3) 
0.26513

>  <topodist>  (3) 
2.0

>  <mces>  (3) 
27.0

>  <tdn>  (3) 
1.0

>  <tup>  (3) 
1.0

>  <rdn>  (3) 
0.0

>  <rup>  (3) 
0.0

>  <ldn>  (3) 
0.0

>  <lup>  (3) 
0.0

>  <mut>  (3) 
4.0

>  <maj>  (3) 
4.0

>  <min>  (3) 
0.0

>  <hyb>  (3) 
6.0

>  <sub>  (3) 
0.0

>  <query_index>  (3) 
24.0

>  <max_hit_Tanimoto>  (3) 
0.311277

>  <largest_ring>  (3) 
0

>  <N_interactions_kept>  (3) 
3.5

>  <N_interactions_lost>  (3) 
0.0

>  <interaction_uniqueness_metric>  (3) 
0.184044

>  <ad_hoc_penalty>  (3) 
-48.315507

>  <N_rotatable_bonds>  (3) 
4

>  <N_HA>  (3) 
25

>  <cluster>  (3) 
6213

>  <N_interactions>  (3) 
7

>  <Enamine>  (3) 
1

>  <Mcule>  (3) 
0

>  <N_PAINS>  (3) 
0

>  <UFF_Gibbs>  (3) 
62.192418

>  <strain_per_HA>  (3) 
2.487697

>  <saltbridge:HIS:51>  (3) 
0

>  <pistack:HIS:51>  (3) 
1

>  <hydroph_interaction:HIS:51>  (3) 
0

>  <hbond:ALA:132>  (3) 
0

>  <hbond:SER:135>  (3) 
0

>  <hydroph_interaction:TYR:150>  (3) 
0

>  <pistack:TYR:161>  (3) 
0

>  <hydroph_interaction:TYR:161>  (3) 
3

>  <hydroph_interaction:ASP:83>  (3) 
1

>  <hbond:TYR:130>  (3) 
0

>  <hydroph_interaction:ALA:132>  (3) 
1

>  <hbond:HIS:51>  (3) 
0

>  <hbond:ASP:129>  (3) 
0

>  <hbond:TYR:150>  (3) 
0

>  <hbond:GLY:151>  (3) 
0

>  <hbond:TYR:161>  (3) 
0

>  <hydroph_interaction:TYR:130>  (3) 
0

>  <hydroph_interaction:PRO:131>  (3) 
0

>  <hydroph_interaction:ASP:129>  (3) 
0

>  <saltbridge:ASP:75>  (3) 
0

>  <saltbridge:ASP:83>  (3) 
0

>  <hydroph_interaction:ASN:152>  (3) 
0

>  <halogenbond:TYR:150>  (3) 
0

>  <hbond:ASP:83>  (3) 
0

>  <hydroph_interaction:VAL:155>  (3) 
1

>  <pication:TYR:161>  (3) 
0

>  <hbond:PRO:131>  (3) 
0

>  <hbond:LEU:128>  (3) 
0

>  <saltbridge:ASP:129>  (3) 
0

>  <hbond:THR:134>  (3) 
0

>  <pication:HIS:51>  (3) 
0

>  <hbond:SER:81>  (3) 
0

>  <hbond:GLY:159>  (3) 
0

>  <hydroph_interaction:PRO:101>  (3) 
0

>  <hydroph_interaction:THR:134>  (3) 
0

>  <hbond:GLY:82>  (3) 
0

>  <hydroph_interaction:GLU:104>  (3) 
0

>  <hydroph_interaction:VAL:36>  (3) 
0

>  <hydroph_interaction:MET:49>  (3) 
0

>  <halogenbond:GLU:104>  (3) 
0

>  <hydroph_interaction:LYS:107>  (3) 
0

$$$$
Z2480315080
     RDKit          3D

 45 48  0  0  0  0  0  0  0  0999 V2000
   -9.9450    6.1400  -14.3360 O   0  0  0  0  0  0  0  0  0  0  0  0
   -8.7300    6.0690  -14.1670 C   0  0  0  0  0  0  0  0  0  0  0  0
   -8.1350    6.0670  -12.9420 O   0  0  0  0  0  0  0  0  0  0  0  0
   -8.6780    5.0400  -12.1170 C   0  0  0  0  0  0  0  0  0  0  0  0
   -8.7480    5.3340  -10.6400 C   0  0  0  0  0  0  0  0  0  0  0  0
   -8.9770    4.3290   -9.7300 C   0  0  0  0  0  0  0  0  0  0  0  0
   -9.1640    3.0010  -10.0530 C   0  0  0  0  0  0  0  0  0  0  0  0
   -9.4730    2.1760   -8.9710 C   0  0  0  0  0  0  0  0  0  0  0  0
   -9.6580    2.6780   -7.5340 C   0  0  0  0  0  0  0  0  0  0  0  0
   -9.1980    4.1200   -7.2700 C   0  0  0  0  0  0  0  0  0  0  0  0
   -8.9870    4.8730   -8.4950 N   0  0  0  0  0  0  0  0  0  0  0  0
   -8.7770    6.2100   -8.5060 N   0  0  0  0  0  0  0  0  0  0  0  0
   -8.6300    6.4970   -9.8360 C   0  0  0  0  0  0  0  0  0  0  0  0
   -7.7560    5.9960  -15.3360 C   0  0  0  0  0  0  0  0  0  0  0  0
   -6.5930    5.2960  -15.0520 C   0  0  0  0  0  0  0  0  0  0  0  0
   -5.5630    5.5440  -15.9980 C   0  0  0  0  0  0  0  0  0  0  0  0
   -6.0500    5.6280  -17.4750 C   0  0  0  0  0  0  0  0  0  0  0  0
   -7.4300    5.3000  -17.6530 C   0  0  0  0  0  0  0  0  0  0  0  0
   -7.8380    4.8300  -18.9000 C   0  0  0  0  0  0  0  0  0  0  0  0
   -9.1790    4.5020  -19.0930 C   0  0  0  0  0  0  0  0  0  0  0  0
  -10.0890    4.6380  -18.0470 C   0  0  0  0  0  0  0  0  0  0  0  0
   -9.6490    5.1110  -16.8060 C   0  0  0  0  0  0  0  0  0  0  0  0
   -8.3230    5.4490  -16.6180 C   0  0  0  0  0  0  0  0  0  0  0  0
   -9.6510    4.7250  -12.5060 H   0  0  0  0  0  0  0  0  0  0  0  0
   -8.0320    4.1820  -12.2530 H   0  0  0  0  0  0  0  0  0  0  0  0
   -9.8100    2.8620  -10.9170 H   0  0  0  0  0  0  0  0  0  0  0  0
   -8.1910    2.6570  -10.4240 H   0  0  0  0  0  0  0  0  0  0  0  0
   -8.7600    1.3550   -8.9590 H   0  0  0  0  0  0  0  0  0  0  0  0
  -10.3950    1.7050   -9.2230 H   0  0  0  0  0  0  0  0  0  0  0  0
   -9.0940    2.0240   -6.8680 H   0  0  0  0  0  0  0  0  0  0  0  0
  -10.7090    2.5760   -7.2420 H   0  0  0  0  0  0  0  0  0  0  0  0
   -8.2420    4.0870   -6.7390 H   0  0  0  0  0  0  0  0  0  0  0  0
   -9.9260    4.6260   -6.6280 H   0  0  0  0  0  0  0  0  0  0  0  0
   -8.4450    7.5320  -10.1500 H   0  0  0  0  0  0  0  0  0  0  0  0
   -7.6100    7.0430  -15.5890 H   0  0  0  0  0  0  0  0  0  0  0  0
   -6.7570    4.2480  -14.8220 H   0  0  0  0  0  0  0  0  0  0  0  0
   -6.2570    5.6820  -14.1000 H   0  0  0  0  0  0  0  0  0  0  0  0
   -4.8190    4.7620  -15.9130 H   0  0  0  0  0  0  0  0  0  0  0  0
   -5.0520    6.4750  -15.7260 H   0  0  0  0  0  0  0  0  0  0  0  0
   -5.8710    6.6330  -17.8780 H   0  0  0  0  0  0  0  0  0  0  0  0
   -5.4660    4.9130  -18.0720 H   0  0  0  0  0  0  0  0  0  0  0  0
   -7.1290    4.7160  -19.7190 H   0  0  0  0  0  0  0  0  0  0  0  0
   -9.5010    4.1420  -20.0580 H   0  0  0  0  0  0  0  0  0  0  0  0
  -11.1380    4.3800  -18.1950 H   0  0  0  0  0  0  0  0  0  0  0  0
  -10.3570    5.2160  -15.9950 H   0  0  0  0  0  0  0  0  0  0  0  0
  1  2  2  0
  2  3  1  0
  3  4  1  0
  4  5  1  0
  5  6  2  0
  6  7  1  0
  7  8  1  0
  8  9  1  0
  9 10  1  0
 10 11  1  0
 11 12  1  0
 12 13  2  0
  2 14  1  0
 14 15  1  0
 15 16  1  0
 16 17  1  0
 17 18  1  0
 18 19  2  0
 19 20  1  0
 20 21  2  0
 21 22  1  0
 22 23  2  0
 13  5  1  0
 11  6  1  0
 23 14  1  0
 23 18  1  0
  4 24  1  0
  4 25  1  0
  7 26  1  0
  7 27  1  0
  8 28  1  0
  8 29  1  0
  9 30  1  0
  9 31  1  0
 10 32  1  0
 10 33  1  0
 13 34  1  0
 14 35  1  0
 15 36  1  0
 15 37  1  0
 16 38  1  0
 16 39  1  0
 17 40  1  0
 17 41  1  0
 19 42  1  0
 20 43  1  0
 21 44  1  0
 22 45  1  0
A    1
 O1 
A    2
 C1 
A    3
 O2 
A    4
 C2 
A    5
 C3 
A    6
 C4 
A    7
 C5 
A    8
 C6 
A    9
 C7 
A   10
 C8 
A   11
 N1 
A   12
 N2 
A   13
 C9 
A   14
 C10
A   15
 C11
A   16
 C12
A   17
 C13
A   18
 C14
A   19
 C15
A   20
 C16
A   21
 C17
A   22
 C18
A   23
 C19
A   24
 H1 
A   25
 H2 
A   26
 H3 
A   27
 H4 
A   28
 H5 
A   29
 H6 
A   30
 H7 
A   31
 H8 
A   32
 H9 
A   33
 H10
A   34
 H11
A   35
 H12
A   36
 H13
A   37
 H14
A   38
 H15
A   39
 H16
A   40
 H17
A   41
 H18
A   42
 H19
A   43
 H20
A   44
 H21
A   45
 H22
M  END
>  <ref_pdb>  (4) 
x0051_0B

>  <ref_mols>  (4) 
x0969_1B,x0455_0B

>  <original SMILES>  (4) 
[H]c1nn2c(c1C([H])([H])OC(=O)C1([H])c3c([H])c([H])c([H])c([H])c3C([H])([H])C([H])([H])C1([H])[H])C([H])([H])C([H])([H])C([H])([H])C2([H])[H]

>  <index>  (4) 
2

>  <∆∆G>  (4) 
-6.589362

>  <∆G_bound>  (4) 
-5.524366

>  <∆G_unbound>  (4) 
1.064996

>  <comRMSD>  (4) 
0.442891

>  <N_constrained_atoms>  (4) 
20.0

>  <N_unconstrained_atoms>  (4) 
3.0

>  <runtime>  (4) 
56.713678

>  <LE>  (4) 
0.286494

>  <percent_hybrid>  (4) 
50.0

>  <dist>  (4) 
5.0

>  <ecfp4>  (4) 
0.283951

>  <daylight>  (4) 
0.354354

>  <topodist>  (4) 
1.0

>  <mces>  (4) 
25.0

>  <tdn>  (4) 
0.0

>  <tup>  (4) 
1.0

>  <rdn>  (4) 
0.0

>  <rup>  (4) 
0.0

>  <ldn>  (4) 
0.0

>  <lup>  (4) 
0.0

>  <mut>  (4) 
3.0

>  <maj>  (4) 
3.0

>  <min>  (4) 
0.0

>  <hyb>  (4) 
1.0

>  <sub>  (4) 
0.0

>  <query_index>  (4) 
204.0

>  <max_hit_Tanimoto>  (4) 
0.3049

>  <largest_ring>  (4) 
0

>  <N_interactions_kept>  (4) 
1.5

>  <N_interactions_lost>  (4) 
1.0

>  <interaction_uniqueness_metric>  (4) 
0.22098

>  <ad_hoc_penalty>  (4) 
-47.837751

>  <N_rotatable_bonds>  (4) 
3

>  <N_HA>  (4) 
23

>  <cluster>  (4) 
6214

>  <N_interactions>  (4) 
9

>  <Enamine>  (4) 
1

>  <Mcule>  (4) 
0

>  <N_PAINS>  (4) 
0

>  <UFF_Gibbs>  (4) 
118.561112

>  <strain_per_HA>  (4) 
5.154831

>  <saltbridge:HIS:51>  (4) 
1

>  <pistack:HIS:51>  (4) 
1

>  <hydroph_interaction:HIS:51>  (4) 
0

>  <hbond:ALA:132>  (4) 
0

>  <hbond:SER:135>  (4) 
1

>  <hydroph_interaction:TYR:150>  (4) 
1

>  <pistack:TYR:161>  (4) 
0

>  <hydroph_interaction:TYR:161>  (4) 
4

>  <hydroph_interaction:ASP:83>  (4) 
0

>  <hbond:TYR:130>  (4) 
0

>  <hydroph_interaction:ALA:132>  (4) 
1

>  <hbond:HIS:51>  (4) 
0

>  <hbond:ASP:129>  (4) 
0

>  <hbond:TYR:150>  (4) 
0

>  <hbond:GLY:151>  (4) 
0

>  <hbond:TYR:161>  (4) 
0

>  <hydroph_interaction:TYR:130>  (4) 
0

>  <hydroph_interaction:PRO:131>  (4) 
0

>  <hydroph_interaction:ASP:129>  (4) 
0

>  <saltbridge:ASP:75>  (4) 
0

>  <saltbridge:ASP:83>  (4) 
0

>  <hydroph_interaction:ASN:152>  (4) 
0

>  <halogenbond:TYR:150>  (4) 
0

>  <hbond:ASP:83>  (4) 
0

>  <hydroph_interaction:VAL:155>  (4) 
0

>  <pication:TYR:161>  (4) 
0

>  <hbond:PRO:131>  (4) 
0

>  <hbond:LEU:128>  (4) 
0

>  <saltbridge:ASP:129>  (4) 
0

>  <hbond:THR:134>  (4) 
0

>  <pication:HIS:51>  (4) 
0

>  <hbond:SER:81>  (4) 
0

>  <hbond:GLY:159>  (4) 
0

>  <hydroph_interaction:PRO:101>  (4) 
0

>  <hydroph_interaction:THR:134>  (4) 
0

>  <hbond:GLY:82>  (4) 
0

>  <hydroph_interaction:GLU:104>  (4) 
0

>  <hydroph_interaction:VAL:36>  (4) 
0

>  <hydroph_interaction:MET:49>  (4) 
0

>  <halogenbond:GLU:104>  (4) 
0

>  <hydroph_interaction:LYS:107>  (4) 
0

$$$$
CSSB00010212345
     RDKit          3D

 33 34  0  0  0  0  0  0  0  0999 V2000
   -4.0840    4.2370  -15.1020 C   0  0  0  0  0  0  0  0  0  0  0  0
   -2.8410    4.6400  -15.7980 C   0  0  0  0  0  0  0  0  0  0  0  0
   -1.7570    5.0020  -14.9950 C   0  0  0  0  0  0  0  0  0  0  0  0
   -2.3310    3.5620  -16.7310 C   0  0  0  0  0  0  0  0  0  0  0  0
   -3.0740    5.8050  -16.6120 O   0  0  0  0  0  0  0  0  0  0  0  0
   -3.9790    5.7570  -17.6170 C   0  0  0  0  0  0  0  0  0  0  0  0
   -3.7050    5.6310  -18.8030 O   0  0  0  0  0  0  0  0  0  0  0  0
   -5.2630    5.8820  -17.1220 N   0  0  0  0  0  0  0  0  0  0  0  0
   -5.5350    6.6530  -15.9020 C   0  0  0  0  0  0  0  0  0  0  0  0
   -6.7630    6.1610  -15.2030 C   0  0  0  0  0  0  0  0  0  0  0  0
   -7.8300    5.6800  -16.1100 C   0  0  0  0  0  0  0  0  0  0  0  0
   -7.5900    5.4940  -17.4530 C   0  0  0  0  0  0  0  0  0  0  0  0
   -6.3490    5.7400  -18.0860 C   0  0  0  0  0  0  0  0  0  0  0  0
   -8.7550    5.0350  -18.0590 C   0  0  0  0  0  0  0  0  0  0  0  0
   -8.8590    4.6610  -19.8430 Br  0  0  0  0  0  0  0  0  0  0  0  0
   -9.9070    4.8810  -17.1300 C   0  0  0  0  0  0  0  0  0  0  0  0
   -9.4140    5.3310  -15.5700 S   0  0  0  0  0  0  0  0  0  0  0  0
   -4.3370    4.9530  -14.3140 H   0  0  0  0  0  0  0  0  0  0  0  0
   -4.9140    4.1860  -15.8120 H   0  0  0  0  0  0  0  0  0  0  0  0
   -3.9630    3.2620  -14.6220 H   0  0  0  0  0  0  0  0  0  0  0  0
   -0.8300    5.2890  -15.4860 H   0  0  0  0  0  0  0  0  0  0  0  0
   -1.5190    4.1760  -14.3160 H   0  0  0  0  0  0  0  0  0  0  0  0
   -2.0490    5.8350  -14.3450 H   0  0  0  0  0  0  0  0  0  0  0  0
   -2.3870    2.5800  -16.2510 H   0  0  0  0  0  0  0  0  0  0  0  0
   -2.9000    3.5430  -17.6650 H   0  0  0  0  0  0  0  0  0  0  0  0
   -1.2870    3.7360  -16.9990 H   0  0  0  0  0  0  0  0  0  0  0  0
   -4.6560    6.5510  -15.2580 H   0  0  0  0  0  0  0  0  0  0  0  0
   -5.6550    7.7180  -16.1190 H   0  0  0  0  0  0  0  0  0  0  0  0
   -7.1380    6.9590  -14.5510 H   0  0  0  0  0  0  0  0  0  0  0  0
   -6.4790    5.3230  -14.5540 H   0  0  0  0  0  0  0  0  0  0  0  0
   -6.4110    6.6540  -18.6890 H   0  0  0  0  0  0  0  0  0  0  0  0
   -6.0920    4.9120  -18.7520 H   0  0  0  0  0  0  0  0  0  0  0  0
  -10.9060    4.5480  -17.3450 H   0  0  0  0  0  0  0  0  0  0  0  0
  1  2  1  0
  2  3  1  0
  2  4  1  0
  2  5  1  0
  5  6  1  0
  6  7  2  0
  6  8  1  0
  8  9  1  0
  9 10  1  0
 10 11  1  0
 11 12  2  0
 12 13  1  0
 12 14  1  0
 14 15  1  0
 14 16  2  0
 16 17  1  0
 13  8  1  0
 17 11  1  0
  1 18  1  0
  1 19  1  0
  1 20  1  0
  3 21  1  0
  3 22  1  0
  3 23  1  0
  4 24  1  0
  4 25  1  0
  4 26  1  0
  9 27  1  0
  9 28  1  0
 10 29  1  0
 10 30  1  0
 13 31  1  0
 13 32  1  0
 16 33  1  0
A    1
 C1 
A    2
 C2 
A    3
 C3 
A    4
 C4 
A    5
 O1 
A    6
 C5 
A    7
 O2 
A    8
 N1 
A    9
 C6 
A   10
 C7 
A   11
 C8 
A   12
 C9 
A   13
 C10
A   14
 C11
A   15
BR1 
A   16
 C12
A   17
 S1 
A   18
 H1 
A   19
 H2 
A   20
 H3 
A   21
 H4 
A   22
 H5 
A   23
 H6 
A   24
 H7 
A   25
 H8 
A   26
 H9 
A   27
 H10
A   28
 H11
A   29
 H12
A   30
 H13
A   31
 H14
A   32
 H15
A   33
 H16
M  END
>  <ref_pdb>  (5) 
x0051_0B

>  <ref_mols>  (5) 
x0472_0B,x0089_0B

>  <original SMILES>  (5) 
[H]c1sc2c(c1Br)C([H])([H])N(C(=O)OC(C([H])([H])[H])(C([H])([H])[H])C([H])([H])[H])C([H])([H])C2([H])[H]

>  <index>  (5) 
5

>  <∆∆G>  (5) 
-6.164977

>  <∆G_bound>  (5) 
-6.044918

>  <∆G_unbound>  (5) 
0.120059

>  <comRMSD>  (5) 
0.783577

>  <N_constrained_atoms>  (5) 
15.0

>  <N_unconstrained_atoms>  (5) 
3.0

>  <runtime>  (5) 
22.644285

>  <LE>  (5) 
0.342499

>  <percent_hybrid>  (5) 
29.0

>  <dist>  (5) 
7.0

>  <ecfp4>  (5) 
0.19403

>  <daylight>  (5) 
0.448276

>  <topodist>  (5) 
4.0

>  <mces>  (5) 
16.0

>  <tdn>  (5) 
1.0

>  <tup>  (5) 
1.0

>  <rdn>  (5) 
1.0

>  <rup>  (5) 
0.0

>  <ldn>  (5) 
0.0

>  <lup>  (5) 
1.0

>  <mut>  (5) 
2.0

>  <maj>  (5) 
2.0

>  <min>  (5) 
0.0

>  <hyb>  (5) 
1.0

>  <sub>  (5) 
2.0

>  <query_index>  (5) 
152.0

>  <max_hit_Tanimoto>  (5) 
0.496403

>  <largest_ring>  (5) 
0

>  <N_interactions_kept>  (5) 
3.5

>  <N_interactions_lost>  (5) 
0.5

>  <interaction_uniqueness_metric>  (5) 
0.225711

>  <ad_hoc_penalty>  (5) 
-45.229608

>  <N_rotatable_bonds>  (5) 
0

>  <N_HA>  (5) 
17

>  <cluster>  (5) 
6211

>  <N_interactions>  (5) 
6

>  <Enamine>  (5) 
1

>  <Mcule>  (5) 
0

>  <N_PAINS>  (5) 
0

>  <UFF_Gibbs>  (5) 
81.191063

>  <strain_per_HA>  (5) 
4.775945

>  <saltbridge:HIS:51>  (5) 
0

>  <pistack:HIS:51>  (5) 
0

>  <hydroph_interaction:HIS:51>  (5) 
0

>  <hbond:ALA:132>  (5) 
0

>  <hbond:SER:135>  (5) 
0

>  <hydroph_interaction:TYR:150>  (5) 
0

>  <pistack:TYR:161>  (5) 
0

>  <hydroph_interaction:TYR:161>  (5) 
3

>  <hydroph_interaction:ASP:83>  (5) 
0

>  <hbond:TYR:130>  (5) 
0

>  <hydroph_interaction:ALA:132>  (5) 
1

>  <hbond:HIS:51>  (5) 
0

>  <hbond:ASP:129>  (5) 
0

>  <hbond:TYR:150>  (5) 
0

>  <hbond:GLY:151>  (5) 
0

>  <hbond:TYR:161>  (5) 
0

>  <hydroph_interaction:TYR:130>  (5) 
0

>  <hydroph_interaction:PRO:131>  (5) 
0

>  <hydroph_interaction:ASP:129>  (5) 
0

>  <saltbridge:ASP:75>  (5) 
0

>  <saltbridge:ASP:83>  (5) 
0

>  <hydroph_interaction:ASN:152>  (5) 
0

>  <halogenbond:TYR:150>  (5) 
1

>  <hbond:ASP:83>  (5) 
0

>  <hydroph_interaction:VAL:155>  (5) 
1

>  <pication:TYR:161>  (5) 
0

>  <hbond:PRO:131>  (5) 
0

>  <hbond:LEU:128>  (5) 
0

>  <saltbridge:ASP:129>  (5) 
0

>  <hbond:THR:134>  (5) 
0

>  <pication:HIS:51>  (5) 
0

>  <hbond:SER:81>  (5) 
0

>  <hbond:GLY:159>  (5) 
0

>  <hydroph_interaction:PRO:101>  (5) 
0

>  <hydroph_interaction:THR:134>  (5) 
0

>  <hbond:GLY:82>  (5) 
0

>  <hydroph_interaction:GLU:104>  (5) 
0

>  <hydroph_interaction:VAL:36>  (5) 
0

>  <hydroph_interaction:MET:49>  (5) 
0

>  <halogenbond:GLU:104>  (5) 
0

>  <hydroph_interaction:LYS:107>  (5) 
0

$$$$
MQVIAKBTUWGTSH-UHFFFAOYSA-N
     RDKit          3D

 50 53  0  0  0  0  0  0  0  0999 V2000
   -8.7970    5.6870  -14.6660 C   0  0  0  0  0  0  0  0  0  0  0  0
   -8.4120    5.8260  -13.3080 N   0  0  0  0  0  0  0  0  0  0  0  0
   -8.7370    4.8720  -12.2820 C   0  0  0  0  0  0  0  0  0  0  0  0
   -8.7780    5.2360  -10.9120 C   0  0  0  0  0  0  0  0  0  0  0  0
   -8.9340    4.2930   -9.9220 C   0  0  0  0  0  0  0  0  0  0  0  0
   -8.9390    4.9220   -8.7210 N   0  0  0  0  0  0  0  0  0  0  0  0
   -9.0900    4.2330   -7.4560 C   0  0  0  0  0  0  0  0  0  0  0  0
   -9.3910    2.8200   -7.7050 C   0  0  0  0  0  0  0  0  0  0  0  0
   -8.7330    2.2270   -8.7840 C   0  0  0  0  0  0  0  0  0  0  0  0
   -9.0640    2.9190  -10.0970 C   0  0  0  0  0  0  0  0  0  0  0  0
   -8.7900    6.2580   -8.8340 N   0  0  0  0  0  0  0  0  0  0  0  0
   -8.6940    6.4560  -10.1740 C   0  0  0  0  0  0  0  0  0  0  0  0
   -9.9850    5.6160  -14.9730 O   0  0  0  0  0  0  0  0  0  0  0  0
   -7.7580    5.6510  -15.7330 C   0  0  0  0  0  0  0  0  0  0  0  0
   -8.1260    5.3200  -17.1380 C   0  0  0  0  0  0  0  0  0  0  0  0
   -7.1040    5.3300  -18.0680 C   0  0  0  0  0  0  0  0  0  0  0  0
   -7.4560    5.0280  -19.3900 C   0  0  0  0  0  0  0  0  0  0  0  0
   -8.7810    4.7240  -19.7550 C   0  0  0  0  0  0  0  0  0  0  0  0
   -9.7610    4.7280  -18.7800 C   0  0  0  0  0  0  0  0  0  0  0  0
   -9.4290    5.0160  -17.5090 C   0  0  0  0  0  0  0  0  0  0  0  0
  -11.0340    4.4660  -19.0190 F   0  0  0  0  0  0  0  0  0  0  0  0
   -5.8300    5.6100  -17.7440 N   0  0  0  0  0  0  0  0  0  0  0  0
   -5.5100    5.9000  -16.4540 C   0  0  0  0  0  0  0  0  0  0  0  0
   -4.1620    6.1600  -16.2480 C   0  0  0  0  0  0  0  0  0  0  0  0
   -3.6300    7.3600  -16.7380 C   0  0  0  0  0  0  0  0  0  0  0  0
   -3.3460    4.9680  -16.7630 C   0  0  0  0  0  0  0  0  0  0  0  0
   -6.4420    5.9350  -15.4230 C   0  0  0  0  0  0  0  0  0  0  0  0
   -7.5880    6.3880  -13.1350 H   0  0  0  0  0  0  0  0  0  0  0  0
   -9.7100    4.4500  -12.5610 H   0  0  0  0  0  0  0  0  0  0  0  0
   -8.0220    4.0520  -12.4010 H   0  0  0  0  0  0  0  0  0  0  0  0
   -8.1490    4.2950   -6.8950 H   0  0  0  0  0  0  0  0  0  0  0  0
   -9.8920    4.7270   -6.8980 H   0  0  0  0  0  0  0  0  0  0  0  0
  -10.4700    2.7010   -7.8550 H   0  0  0  0  0  0  0  0  0  0  0  0
   -9.1400    2.2470   -6.8100 H   0  0  0  0  0  0  0  0  0  0  0  0
   -9.0050    1.1760   -8.8280 H   0  0  0  0  0  0  0  0  0  0  0  0
   -7.6520    2.2730   -8.6270 H   0  0  0  0  0  0  0  0  0  0  0  0
   -8.3720    2.5820  -10.8800 H   0  0  0  0  0  0  0  0  0  0  0  0
  -10.0760    2.6480  -10.4160 H   0  0  0  0  0  0  0  0  0  0  0  0
   -8.5670    7.4650  -10.5480 H   0  0  0  0  0  0  0  0  0  0  0  0
   -6.6150    5.0490  -20.0950 H   0  0  0  0  0  0  0  0  0  0  0  0
   -9.0350    4.4920  -20.7800 H   0  0  0  0  0  0  0  0  0  0  0  0
  -10.2630    4.9940  -16.8090 H   0  0  0  0  0  0  0  0  0  0  0  0
   -4.0140    6.1870  -15.1590 H   0  0  0  0  0  0  0  0  0  0  0  0
   -2.8910    7.7920  -16.0530 H   0  0  0  0  0  0  0  0  0  0  0  0
   -4.4240    8.1020  -16.8800 H   0  0  0  0  0  0  0  0  0  0  0  0
   -3.1390    7.2060  -17.7050 H   0  0  0  0  0  0  0  0  0  0  0  0
   -2.2990    5.2480  -16.9240 H   0  0  0  0  0  0  0  0  0  0  0  0
   -3.3600    4.1370  -16.0640 H   0  0  0  0  0  0  0  0  0  0  0  0
   -3.7470    4.6080  -17.7200 H   0  0  0  0  0  0  0  0  0  0  0  0
   -6.1540    6.1770  -14.4020 H   0  0  0  0  0  0  0  0  0  0  0  0
  1  2  1  0
  2  3  1  0
  3  4  1  0
  4  5  2  0
  5  6  1  0
  6  7  1  0
  7  8  1  0
  8  9  1  0
  9 10  1  0
  6 11  1  0
 11 12  2  0
  1 13  2  0
  1 14  1  0
 14 15  1  0
 15 16  1  0
 16 17  2  0
 17 18  1  0
 18 19  2  0
 19 20  1  0
 19 21  1  0
 16 22  1  0
 22 23  2  0
 23 24  1  0
 24 25  1  0
 24 26  1  0
 23 27  1  0
 12  4  1  0
 10  5  1  0
 14 27  2  0
 20 15  2  0
  2 28  1  0
  3 29  1  0
  3 30  1  0
  7 31  1  0
  7 32  1  0
  8 33  1  0
  8 34  1  0
  9 35  1  0
  9 36  1  0
 10 37  1  0
 10 38  1  0
 12 39  1  0
 17 40  1  0
 18 41  1  0
 20 42  1  0
 24 43  1  0
 25 44  1  0
 25 45  1  0
 25 46  1  0
 26 47  1  0
 26 48  1  0
 26 49  1  0
 27 50  1  0
A    1
 C1 
A    2
 N1 
A    3
 C2 
A    4
 C3 
A    5
 C4 
A    6
 N2 
A    7
 C5 
A    8
 C6 
A    9
 C7 
A   10
 C8 
A   11
 N3 
A   12
 C9 
A   13
 O1 
A   14
 C10
A   15
 C11
A   16
 C12
A   17
 C13
A   18
 C14
A   19
 C15
A   20
 C16
A   21
 F1 
A   22
 N4 
A   23
 C17
A   24
 C18
A   25
 C19
A   26
 C20
A   27
 C21
A   28
 H1 
A   29
 H2 
A   30
 H3 
A   31
 H4 
A   32
 H5 
A   33
 H6 
A   34
 H7 
A   35
 H8 
A   36
 H9 
A   37
 H10
A   38
 H11
A   39
 H12
A   40
 H13
A   41
 H14
A   42
 H15
A   43
 H16
A   44
 H17
A   45
 H18
A   46
 H19
A   47
 H20
A   48
 H21
A   49
 H22
A   50
 H23
M  END
>  <ref_pdb>  (6) 
x0051_0B

>  <ref_mols>  (6) 
x0472_0B,x0969_1B

>  <original SMILES>  (6) 
[H]c1nn2c(c1C([H])([H])N([H])C(=O)c1c([H])c(C([H])(C([H])([H])[H])C([H])([H])[H])nc3c([H])c([H])c(F)c([H])c13)C([H])([H])C([H])([H])C([H])([H])C2([H])[H]

>  <index>  (6) 
10

>  <∆∆G>  (6) 
-8.737591

>  <∆G_bound>  (6) 
-8.282005

>  <∆G_unbound>  (6) 
0.455586

>  <comRMSD>  (6) 
0.860108

>  <N_constrained_atoms>  (6) 
20.0

>  <N_unconstrained_atoms>  (6) 
8.0

>  <runtime>  (6) 
57.077947

>  <LE>  (6) 
0.312057

>  <percent_hybrid>  (6) 
50.0

>  <dist>  (6) 
12.0

>  <ecfp4>  (6) 
0.196078

>  <daylight>  (6) 
0.277778

>  <topodist>  (6) 
4.0

>  <mces>  (6) 
27.0

>  <tdn>  (6) 
1.0

>  <tup>  (6) 
2.0

>  <rdn>  (6) 
0.0

>  <rup>  (6) 
0.0

>  <ldn>  (6) 
0.0

>  <lup>  (6) 
1.0

>  <mut>  (6) 
6.0

>  <maj>  (6) 
6.0

>  <min>  (6) 
0.0

>  <hyb>  (6) 
2.0

>  <sub>  (6) 
2.0

>  <query_index>  (6) 
24.0

>  <max_hit_Tanimoto>  (6) 
0.305042

>  <largest_ring>  (6) 
0

>  <N_interactions_kept>  (6) 
2.5

>  <N_interactions_lost>  (6) 
1.0

>  <interaction_uniqueness_metric>  (6) 
0.25908

>  <ad_hoc_penalty>  (6) 
-44.94867

>  <N_rotatable_bonds>  (6) 
6

>  <N_HA>  (6) 
27

>  <cluster>  (6) 
219

>  <N_interactions>  (6) 
9

>  <Enamine>  (6) 
0

>  <Mcule>  (6) 
1

>  <N_PAINS>  (6) 
0

>  <UFF_Gibbs>  (6) 
101.270064

>  <strain_per_HA>  (6) 
3.750743

>  <saltbridge:HIS:51>  (6) 
0

>  <pistack:HIS:51>  (6) 
1

>  <hydroph_interaction:HIS:51>  (6) 
0

>  <hbond:ALA:132>  (6) 
0

>  <hbond:SER:135>  (6) 
1

>  <hydroph_interaction:TYR:150>  (6) 
1

>  <pistack:TYR:161>  (6) 
2

>  <hydroph_interaction:TYR:161>  (6) 
1

>  <hydroph_interaction:ASP:83>  (6) 
1

>  <hbond:TYR:130>  (6) 
0

>  <hydroph_interaction:ALA:132>  (6) 
1

>  <hbond:HIS:51>  (6) 
0

>  <hbond:ASP:129>  (6) 
0

>  <hbond:TYR:150>  (6) 
0

>  <hbond:GLY:151>  (6) 
0

>  <hbond:TYR:161>  (6) 
0

>  <hydroph_interaction:TYR:130>  (6) 
0

>  <hydroph_interaction:PRO:131>  (6) 
0

>  <hydroph_interaction:ASP:129>  (6) 
0

>  <saltbridge:ASP:75>  (6) 
0

>  <saltbridge:ASP:83>  (6) 
0

>  <hydroph_interaction:ASN:152>  (6) 
0

>  <halogenbond:TYR:150>  (6) 
0

>  <hbond:ASP:83>  (6) 
0

>  <hydroph_interaction:VAL:155>  (6) 
1

>  <pication:TYR:161>  (6) 
0

>  <hbond:PRO:131>  (6) 
0

>  <hbond:LEU:128>  (6) 
0

>  <saltbridge:ASP:129>  (6) 
0

>  <hbond:THR:134>  (6) 
0

>  <pication:HIS:51>  (6) 
0

>  <hbond:SER:81>  (6) 
0

>  <hbond:GLY:159>  (6) 
0

>  <hydroph_interaction:PRO:101>  (6) 
0

>  <hydroph_interaction:THR:134>  (6) 
0

>  <hbond:GLY:82>  (6) 
0

>  <hydroph_interaction:GLU:104>  (6) 
0

>  <hydroph_interaction:VAL:36>  (6) 
0

>  <hydroph_interaction:MET:49>  (6) 
0

>  <halogenbond:GLU:104>  (6) 
0

>  <hydroph_interaction:LYS:107>  (6) 
0

$$$$
CSSS00121668744
     RDKit          3D

 43 46  0  0  0  0  0  0  0  0999 V2000
   -9.2720    3.7630  -12.8430 O   0  0  0  0  0  0  0  0  0  0  0  0
   -8.8990    4.9030  -12.6200 C   0  0  0  0  0  0  0  0  0  0  0  0
   -8.5410    5.7790  -13.7720 N   0  0  0  0  0  0  0  0  0  0  0  0
   -7.7070    5.2780  -14.8040 C   0  0  0  0  0  0  0  0  0  0  0  0
   -6.4580    5.9210  -14.9190 C   0  0  0  0  0  0  0  0  0  0  0  0
   -5.6030    5.5010  -15.9570 C   0  0  0  0  0  0  0  0  0  0  0  0
   -6.1450    5.5660  -17.2440 C   0  0  0  0  0  0  0  0  0  0  0  0
   -7.4870    5.2970  -17.3430 C   0  0  0  0  0  0  0  0  0  0  0  0
   -7.9040    5.1860  -18.6860 C   0  0  0  0  0  0  0  0  0  0  0  0
   -9.3350    4.8930  -18.9040 C   0  0  0  0  0  0  0  0  0  0  0  0
  -10.2120    4.7460  -17.8040 C   0  0  0  0  0  0  0  0  0  0  0  0
   -9.6920    4.8760  -16.4960 C   0  0  0  0  0  0  0  0  0  0  0  0
   -8.3340    5.1470  -16.2280 C   0  0  0  0  0  0  0  0  0  0  0  0
   -8.8450    5.3170  -11.1750 C   0  0  0  0  0  0  0  0  0  0  0  0
   -8.7140    6.5820  -10.5710 C   0  0  0  0  0  0  0  0  0  0  0  0
   -8.7040    6.6470   -8.8530 S   0  0  0  0  0  0  0  0  0  0  0  0
   -8.8860    4.9630   -8.7590 C   0  0  0  0  0  0  0  0  0  0  0  0
   -8.9430    4.3500  -10.1000 C   0  0  0  0  0  0  0  0  0  0  0  0
   -9.0900    2.8670  -10.2480 C   0  0  0  0  0  0  0  0  0  0  0  0
   -8.6700    2.2650   -8.9140 C   0  0  0  0  0  0  0  0  0  0  0  0
   -9.3890    2.7810   -7.6990 C   0  0  0  0  0  0  0  0  0  0  0  0
   -8.9800    4.2320   -7.4470 C   0  0  0  0  0  0  0  0  0  0  0  0
   -9.2360    6.4590  -14.0660 H   0  0  0  0  0  0  0  0  0  0  0  0
   -7.5110    4.2380  -14.5250 H   0  0  0  0  0  0  0  0  0  0  0  0
   -6.7030    6.9610  -15.1670 H   0  0  0  0  0  0  0  0  0  0  0  0
   -5.9370    6.0450  -13.9710 H   0  0  0  0  0  0  0  0  0  0  0  0
   -5.0870    4.5690  -15.7520 H   0  0  0  0  0  0  0  0  0  0  0  0
   -4.7810    6.2280  -15.9530 H   0  0  0  0  0  0  0  0  0  0  0  0
   -5.9800    6.5730  -17.6500 H   0  0  0  0  0  0  0  0  0  0  0  0
   -5.5870    4.8700  -17.8790 H   0  0  0  0  0  0  0  0  0  0  0  0
   -7.2180    5.3070  -19.5190 H   0  0  0  0  0  0  0  0  0  0  0  0
   -9.7870    4.7820  -19.8970 H   0  0  0  0  0  0  0  0  0  0  0  0
  -11.2630    4.5370  -17.9660 H   0  0  0  0  0  0  0  0  0  0  0  0
  -10.3100    4.7700  -15.5970 H   0  0  0  0  0  0  0  0  0  0  0  0
   -8.6280    7.4520  -11.2320 H   0  0  0  0  0  0  0  0  0  0  0  0
   -8.6330    2.4470  -11.1440 H   0  0  0  0  0  0  0  0  0  0  0  0
  -10.1560    2.6630  -10.3580 H   0  0  0  0  0  0  0  0  0  0  0  0
   -7.5990    2.4360   -8.7910 H   0  0  0  0  0  0  0  0  0  0  0  0
   -8.8000    1.1910   -8.9460 H   0  0  0  0  0  0  0  0  0  0  0  0
   -9.1150    2.1630   -6.8390 H   0  0  0  0  0  0  0  0  0  0  0  0
  -10.4750    2.7040   -7.8280 H   0  0  0  0  0  0  0  0  0  0  0  0
   -9.7100    4.7040   -6.7780 H   0  0  0  0  0  0  0  0  0  0  0  0
   -8.0020    4.2570   -6.9490 H   0  0  0  0  0  0  0  0  0  0  0  0
  1  2  2  0
  2  3  1  0
  3  4  1  0
  4  5  1  0
  5  6  1  0
  6  7  1  0
  7  8  1  0
  8  9  2  0
  9 10  1  0
 10 11  2  0
 11 12  1  0
 12 13  2  0
  2 14  1  0
 14 15  2  0
 15 16  1  0
 16 17  1  0
 17 18  2  0
 18 19  1  0
 19 20  1  0
 20 21  1  0
 21 22  1  0
 13  4  1  0
 13  8  1  0
 18 14  1  0
 22 17  1  0
  3 23  1  0
  4 24  1  0
  5 25  1  0
  5 26  1  0
  6 27  1  0
  6 28  1  0
  7 29  1  0
  7 30  1  0
  9 31  1  0
 10 32  1  0
 11 33  1  0
 12 34  1  0
 15 35  1  0
 19 36  1  0
 19 37  1  0
 20 38  1  0
 20 39  1  0
 21 40  1  0
 21 41  1  0
 22 42  1  0
 22 43  1  0
A    1
 O1 
A    2
 C1 
A    3
 N1 
A    4
 C2 
A    5
 C3 
A    6
 C4 
A    7
 C5 
A    8
 C6 
A    9
 C7 
A   10
 C8 
A   11
 C9 
A   12
 C10
A   13
 C11
A   14
 C12
A   15
 C13
A   16
 S1 
A   17
 C14
A   18
 C15
A   19
 C16
A   20
 C17
A   21
 C18
A   22
 C19
A   23
 H1 
A   24
 H2 
A   25
 H3 
A   26
 H4 
A   27
 H5 
A   28
 H6 
A   29
 H7 
A   30
 H8 
A   31
 H9 
A   32
 H10
A   33
 H11
A   34
 H12
A   35
 H13
A   36
 H14
A   37
 H15
A   38
 H16
A   39
 H17
A   40
 H18
A   41
 H19
A   42
 H20
A   43
 H21
M  END
>  <ref_pdb>  (7) 
x0051_0B

>  <ref_mols>  (7) 
x0969_1B,x0455_0B

>  <original SMILES>  (7) 
[H]c1sc2c(c1C(=O)N([H])C1([H])c3c([H])c([H])c([H])c([H])c3C([H])([H])C([H])([H])C1([H])[H])C([H])([H])C([H])([H])C([H])([H])C2([H])[H]

>  <index>  (7) 
9

>  <∆∆G>  (7) 
-7.367523

>  <∆G_bound>  (7) 
-6.817839

>  <∆G_unbound>  (7) 
0.549684

>  <comRMSD>  (7) 
0.58065

>  <N_constrained_atoms>  (7) 
20.0

>  <N_unconstrained_atoms>  (7) 
2.0

>  <runtime>  (7) 
65.87245

>  <LE>  (7) 
0.334887

>  <percent_hybrid>  (7) 
50.0

>  <dist>  (7) 
9.0

>  <ecfp4>  (7) 
0.111111

>  <daylight>  (7) 
0.186301

>  <topodist>  (7) 
2.0

>  <mces>  (7) 
24.0

>  <tdn>  (7) 
0.0

>  <tup>  (7) 
1.0

>  <rdn>  (7) 
0.0

>  <rup>  (7) 
0.0

>  <ldn>  (7) 
1.0

>  <lup>  (7) 
0.0

>  <mut>  (7) 
6.0

>  <maj>  (7) 
6.0

>  <min>  (7) 
0.0

>  <hyb>  (7) 
1.0

>  <sub>  (7) 
0.0

>  <query_index>  (7) 
204.0

>  <max_hit_Tanimoto>  (7) 
0.192168

>  <largest_ring>  (7) 
0

>  <N_interactions_kept>  (7) 
1.5

>  <N_interactions_lost>  (7) 
1.0

>  <interaction_uniqueness_metric>  (7) 
0.186645

>  <ad_hoc_penalty>  (7) 
-43.745764

>  <N_rotatable_bonds>  (7) 
2

>  <N_HA>  (7) 
22

>  <cluster>  (7) 
6207

>  <N_interactions>  (7) 
7

>  <Enamine>  (7) 
1

>  <Mcule>  (7) 
0

>  <N_PAINS>  (7) 
0

>  <UFF_Gibbs>  (7) 
94.201181

>  <strain_per_HA>  (7) 
4.281872

>  <saltbridge:HIS:51>  (7) 
0

>  <pistack:HIS:51>  (7) 
1

>  <hydroph_interaction:HIS:51>  (7) 
0

>  <hbond:ALA:132>  (7) 
0

>  <hbond:SER:135>  (7) 
0

>  <hydroph_interaction:TYR:150>  (7) 
1

>  <pistack:TYR:161>  (7) 
0

>  <hydroph_interaction:TYR:161>  (7) 
3

>  <hydroph_interaction:ASP:83>  (7) 
1

>  <hbond:TYR:130>  (7) 
0

>  <hydroph_interaction:ALA:132>  (7) 
0

>  <hbond:HIS:51>  (7) 
0

>  <hbond:ASP:129>  (7) 
0

>  <hbond:TYR:150>  (7) 
0

>  <hbond:GLY:151>  (7) 
0

>  <hbond:TYR:161>  (7) 
1

>  <hydroph_interaction:TYR:130>  (7) 
0

>  <hydroph_interaction:PRO:131>  (7) 
0

>  <hydroph_interaction:ASP:129>  (7) 
0

>  <saltbridge:ASP:75>  (7) 
0

>  <saltbridge:ASP:83>  (7) 
0

>  <hydroph_interaction:ASN:152>  (7) 
0

>  <halogenbond:TYR:150>  (7) 
0

>  <hbond:ASP:83>  (7) 
0

>  <hydroph_interaction:VAL:155>  (7) 
0

>  <pication:TYR:161>  (7) 
0

>  <hbond:PRO:131>  (7) 
0

>  <hbond:LEU:128>  (7) 
0

>  <saltbridge:ASP:129>  (7) 
0

>  <hbond:THR:134>  (7) 
0

>  <pication:HIS:51>  (7) 
0

>  <hbond:SER:81>  (7) 
0

>  <hbond:GLY:159>  (7) 
0

>  <hydroph_interaction:PRO:101>  (7) 
0

>  <hydroph_interaction:THR:134>  (7) 
0

>  <hbond:GLY:82>  (7) 
0

>  <hydroph_interaction:GLU:104>  (7) 
0

>  <hydroph_interaction:VAL:36>  (7) 
0

>  <hydroph_interaction:MET:49>  (7) 
0

>  <halogenbond:GLU:104>  (7) 
0

>  <hydroph_interaction:LYS:107>  (7) 
0

$$$$
PV-006278820633
     RDKit          3D

 53 56  0  0  0  0  0  0  0  0999 V2000
   -3.2680    4.5830  -15.3290 C   0  0  0  0  0  0  0  0  0  0  0  0
   -2.8090    5.3900  -16.5220 C   0  0  0  0  0  0  0  0  0  0  0  0
   -3.8240    5.4000  -17.6440 C   0  0  0  0  0  0  0  0  0  0  0  0
   -3.4500    5.1090  -18.7830 O   0  0  0  0  0  0  0  0  0  0  0  0
   -5.1450    5.7310  -17.3840 N   0  0  0  0  0  0  0  0  0  0  0  0
   -6.1540    5.7310  -18.4160 C   0  0  0  0  0  0  0  0  0  0  0  0
   -7.4950    5.3530  -17.8970 C   0  0  0  0  0  0  0  0  0  0  0  0
   -8.4720    5.0350  -18.8370 C   0  0  0  0  0  0  0  0  0  0  0  0
   -9.7260    4.6830  -18.4170 C   0  0  0  0  0  0  0  0  0  0  0  0
  -10.0010    4.6470  -17.0800 C   0  0  0  0  0  0  0  0  0  0  0  0
   -9.0670    4.9550  -16.1310 C   0  0  0  0  0  0  0  0  0  0  0  0
   -7.7890    5.3130  -16.5130 C   0  0  0  0  0  0  0  0  0  0  0  0
   -6.7530    5.6440  -15.4530 C   0  0  0  0  0  0  0  0  0  0  0  0
   -7.3430    6.3920  -14.3140 N   0  0  0  0  0  0  0  0  0  0  0  0
   -7.3070    5.9390  -12.9840 C   0  0  0  0  0  0  0  0  0  0  0  0
   -6.2520    5.8360  -12.3600 O   0  0  0  0  0  0  0  0  0  0  0  0
   -8.6650    5.5840  -12.3430 C   0  0  0  0  0  0  0  0  0  0  0  0
   -8.7290    5.5400  -10.8240 C   0  0  0  0  0  0  0  0  0  0  0  0
   -8.8970    4.4400   -9.9920 C   0  0  0  0  0  0  0  0  0  0  0  0
   -9.0600    2.9870  -10.2570 C   0  0  0  0  0  0  0  0  0  0  0  0
   -8.6400    2.2160   -9.0210 C   0  0  0  0  0  0  0  0  0  0  0  0
   -9.4400    2.6740   -7.8140 C   0  0  0  0  0  0  0  0  0  0  0  0
   -9.0600    4.1130   -7.4870 C   0  0  0  0  0  0  0  0  0  0  0  0
   -8.9010    4.9140   -8.6980 N   0  0  0  0  0  0  0  0  0  0  0  0
   -8.7420    6.2390   -8.6230 N   0  0  0  0  0  0  0  0  0  0  0  0
   -8.6400    6.6220   -9.9040 C   0  0  0  0  0  0  0  0  0  0  0  0
   -5.5470    6.3610  -16.1080 C   0  0  0  0  0  0  0  0  0  0  0  0
   -2.8610    3.5700  -15.3770 H   0  0  0  0  0  0  0  0  0  0  0  0
   -2.9230    5.0400  -14.3970 H   0  0  0  0  0  0  0  0  0  0  0  0
   -4.3560    4.5130  -15.2770 H   0  0  0  0  0  0  0  0  0  0  0  0
   -1.8910    4.9480  -16.9240 H   0  0  0  0  0  0  0  0  0  0  0  0
   -2.5360    6.4110  -16.2370 H   0  0  0  0  0  0  0  0  0  0  0  0
   -5.8490    4.9970  -19.1760 H   0  0  0  0  0  0  0  0  0  0  0  0
   -6.2200    6.7150  -18.8860 H   0  0  0  0  0  0  0  0  0  0  0  0
   -8.2550    5.0620  -19.9040 H   0  0  0  0  0  0  0  0  0  0  0  0
  -10.4890    4.4370  -19.1260 H   0  0  0  0  0  0  0  0  0  0  0  0
  -10.9710    4.3630  -16.7700 H   0  0  0  0  0  0  0  0  0  0  0  0
   -9.3480    4.9070  -15.0790 H   0  0  0  0  0  0  0  0  0  0  0  0
   -6.3980    4.6760  -15.0690 H   0  0  0  0  0  0  0  0  0  0  0  0
   -7.9290    7.1870  -14.5360 H   0  0  0  0  0  0  0  0  0  0  0  0
   -9.3960    6.3050  -12.7240 H   0  0  0  0  0  0  0  0  0  0  0  0
   -8.9690    4.6030  -12.7270 H   0  0  0  0  0  0  0  0  0  0  0  0
   -8.4320    2.7000  -11.1100 H   0  0  0  0  0  0  0  0  0  0  0  0
  -10.0980    2.7450  -10.5090 H   0  0  0  0  0  0  0  0  0  0  0  0
   -7.5730    2.3870   -8.8320 H   0  0  0  0  0  0  0  0  0  0  0  0
   -8.7700    1.1560   -9.1800 H   0  0  0  0  0  0  0  0  0  0  0  0
   -9.2370    2.0260   -6.9590 H   0  0  0  0  0  0  0  0  0  0  0  0
  -10.5110    2.6030   -8.0350 H   0  0  0  0  0  0  0  0  0  0  0  0
   -8.1200    4.1440   -6.9270 H   0  0  0  0  0  0  0  0  0  0  0  0
   -9.8460    4.5920   -6.8940 H   0  0  0  0  0  0  0  0  0  0  0  0
   -8.5060    7.6740  -10.1190 H   0  0  0  0  0  0  0  0  0  0  0  0
   -5.7940    7.4190  -16.2500 H   0  0  0  0  0  0  0  0  0  0  0  0
   -4.6700    6.3350  -15.4480 H   0  0  0  0  0  0  0  0  0  0  0  0
  1  2  1  0
  2  3  1  0
  3  4  2  0
  3  5  1  0
  5  6  1  0
  6  7  1  0
  7  8  2  0
  8  9  1  0
  9 10  2  0
 10 11  1  0
 11 12  2  0
 12 13  1  0
 13 14  1  0
 14 15  1  0
 15 16  2  0
 15 17  1  0
 17 18  1  0
 18 19  2  0
 19 20  1  0
 20 21  1  0
 21 22  1  0
 22 23  1  0
 23 24  1  0
 24 25  1  0
 25 26  2  0
 13 27  1  0
 27  5  1  0
 12  7  1  0
 26 18  1  0
 24 19  1  0
  1 28  1  0
  1 29  1  0
  1 30  1  0
  2 31  1  0
  2 32  1  0
  6 33  1  0
  6 34  1  0
  8 35  1  0
  9 36  1  0
 10 37  1  0
 11 38  1  0
 13 39  1  0
 14 40  1  0
 17 41  1  0
 17 42  1  0
 20 43  1  0
 20 44  1  0
 21 45  1  0
 21 46  1  0
 22 47  1  0
 22 48  1  0
 23 49  1  0
 23 50  1  0
 26 51  1  0
 27 52  1  0
 27 53  1  0
A    1
 C1 
A    2
 C2 
A    3
 C3 
A    4
 O1 
A    5
 N1 
A    6
 C4 
A    7
 C5 
A    8
 C6 
A    9
 C7 
A   10
 C8 
A   11
 C9 
A   12
 C10
A   13
 C11
A   14
 N2 
A   15
 C12
A   16
 O2 
A   17
 C13
A   18
 C14
A   19
 C15
A   20
 C16
A   21
 C17
A   22
 C18
A   23
 C19
A   24
 N3 
A   25
 N4 
A   26
 C20
A   27
 C21
A   28
 H1 
A   29
 H2 
A   30
 H3 
A   31
 H4 
A   32
 H5 
A   33
 H6 
A   34
 H7 
A   35
 H8 
A   36
 H9 
A   37
 H10
A   38
 H11
A   39
 H12
A   40
 H13
A   41
 H14
A   42
 H15
A   43
 H16
A   44
 H17
A   45
 H18
A   46
 H19
A   47
 H20
A   48
 H21
A   49
 H22
A   50
 H23
A   51
 H24
A   52
 H25
A   53
 H26
M  END
>  <ref_pdb>  (8) 
x0051_0B

>  <ref_mols>  (8) 
x0472_0B,x0969_1B

>  <original SMILES>  (8) 
[H]c1nn2c(c1C([H])([H])C(=O)N([H])C1([H])c3c([H])c([H])c([H])c([H])c3C([H])([H])N(C(=O)C([H])([H])C([H])([H])[H])C1([H])[H])C([H])([H])C([H])([H])C([H])([H])C2([H])[H]

>  <index>  (8) 
15

>  <∆∆G>  (8) 
-9.743874

>  <∆G_bound>  (8) 
-8.5687

>  <∆G_unbound>  (8) 
1.175174

>  <comRMSD>  (8) 
0.437445

>  <N_constrained_atoms>  (8) 
23.0

>  <N_unconstrained_atoms>  (8) 
4.0

>  <runtime>  (8) 
58.316122

>  <LE>  (8) 
0.360884

>  <percent_hybrid>  (8) 
44.0

>  <dist>  (8) 
9.0

>  <ecfp4>  (8) 
0.19

>  <daylight>  (8) 
0.326648

>  <topodist>  (8) 
2.0

>  <mces>  (8) 
28.0

>  <tdn>  (8) 
0.0

>  <tup>  (8) 
1.0

>  <rdn>  (8) 
0.0

>  <rup>  (8) 
0.0

>  <ldn>  (8) 
0.0

>  <lup>  (8) 
1.0

>  <mut>  (8) 
5.0

>  <maj>  (8) 
5.0

>  <min>  (8) 
0.0

>  <hyb>  (8) 
2.0

>  <sub>  (8) 
0.0

>  <query_index>  (8) 
24.0

>  <max_hit_Tanimoto>  (8) 
0.307823

>  <largest_ring>  (8) 
0

>  <N_interactions_kept>  (8) 
2.5

>  <N_interactions_lost>  (8) 
1.0

>  <interaction_uniqueness_metric>  (8) 
0.187687

>  <ad_hoc_penalty>  (8) 
-43.709784

>  <N_rotatable_bonds>  (8) 
5

>  <N_HA>  (8) 
27

>  <cluster>  (8) 
6202

>  <N_interactions>  (8) 
7

>  <Enamine>  (8) 
1

>  <Mcule>  (8) 
0

>  <N_PAINS>  (8) 
0

>  <UFF_Gibbs>  (8) 
58.951797

>  <strain_per_HA>  (8) 
2.1834

>  <saltbridge:HIS:51>  (8) 
0

>  <pistack:HIS:51>  (8) 
1

>  <hydroph_interaction:HIS:51>  (8) 
0

>  <hbond:ALA:132>  (8) 
0

>  <hbond:SER:135>  (8) 
0

>  <hydroph_interaction:TYR:150>  (8) 
1

>  <pistack:TYR:161>  (8) 
1

>  <hydroph_interaction:TYR:161>  (8) 
2

>  <hydroph_interaction:ASP:83>  (8) 
1

>  <hbond:TYR:130>  (8) 
0

>  <hydroph_interaction:ALA:132>  (8) 
0

>  <hbond:HIS:51>  (8) 
0

>  <hbond:ASP:129>  (8) 
0

>  <hbond:TYR:150>  (8) 
0

>  <hbond:GLY:151>  (8) 
0

>  <hbond:TYR:161>  (8) 
0

>  <hydroph_interaction:TYR:130>  (8) 
0

>  <hydroph_interaction:PRO:131>  (8) 
0

>  <hydroph_interaction:ASP:129>  (8) 
0

>  <saltbridge:ASP:75>  (8) 
0

>  <saltbridge:ASP:83>  (8) 
0

>  <hydroph_interaction:ASN:152>  (8) 
0

>  <halogenbond:TYR:150>  (8) 
0

>  <hbond:ASP:83>  (8) 
0

>  <hydroph_interaction:VAL:155>  (8) 
1

>  <pication:TYR:161>  (8) 
0

>  <hbond:PRO:131>  (8) 
0

>  <hbond:LEU:128>  (8) 
0

>  <saltbridge:ASP:129>  (8) 
0

>  <hbond:THR:134>  (8) 
0

>  <pication:HIS:51>  (8) 
0

>  <hbond:SER:81>  (8) 
0

>  <hbond:GLY:159>  (8) 
0

>  <hydroph_interaction:PRO:101>  (8) 
0

>  <hydroph_interaction:THR:134>  (8) 
0

>  <hbond:GLY:82>  (8) 
0

>  <hydroph_interaction:GLU:104>  (8) 
0

>  <hydroph_interaction:VAL:36>  (8) 
0

>  <hydroph_interaction:MET:49>  (8) 
0

>  <halogenbond:GLU:104>  (8) 
0

>  <hydroph_interaction:LYS:107>  (8) 
0

$$$$
ZYDBTWJECBIDRL-UHFFFAOYSA-N
     RDKit          3D

 46 49  0  0  0  0  0  0  0  0999 V2000
   -8.7860    6.1120  -12.8830 N   0  0  0  0  0  0  0  0  0  0  0  0
   -9.1400    5.3360  -14.1140 C   0  0  0  0  0  0  0  0  0  0  0  0
   -8.0930    5.3920  -15.1910 C   0  0  0  0  0  0  0  0  0  0  0  0
   -8.4310    5.1880  -16.5170 C   0  0  0  0  0  0  0  0  0  0  0  0
   -9.7620    4.9070  -16.8210 C   0  0  0  0  0  0  0  0  0  0  0  0
  -10.1640    4.7040  -18.1320 C   0  0  0  0  0  0  0  0  0  0  0  0
   -9.2630    4.7650  -19.2560 C   0  0  0  0  0  0  0  0  0  0  0  0
   -7.9440    5.0370  -18.9500 C   0  0  0  0  0  0  0  0  0  0  0  0
   -7.0720    5.0930  -20.0340 C   0  0  0  0  0  0  0  0  0  0  0  0
   -7.5430    5.2430  -17.5830 C   0  0  0  0  0  0  0  0  0  0  0  0
   -6.2150    5.5130  -17.2460 C   0  0  0  0  0  0  0  0  0  0  0  0
   -5.7790    5.7210  -15.9200 C   0  0  0  0  0  0  0  0  0  0  0  0
   -6.7400    5.6570  -14.9010 C   0  0  0  0  0  0  0  0  0  0  0  0
   -8.1490    5.1870  -11.9680 C   0  0  0  0  0  0  0  0  0  0  0  0
   -8.4480    5.3970  -10.6200 C   0  0  0  0  0  0  0  0  0  0  0  0
   -8.7630    4.3380   -9.7840 C   0  0  0  0  0  0  0  0  0  0  0  0
   -8.9640    4.8770   -8.5490 N   0  0  0  0  0  0  0  0  0  0  0  0
   -9.2980    4.0840   -7.3790 C   0  0  0  0  0  0  0  0  0  0  0  0
   -9.7190    2.6870   -7.8370 C   0  0  0  0  0  0  0  0  0  0  0  0
   -8.7710    2.2420   -8.7650 C   0  0  0  0  0  0  0  0  0  0  0  0
   -8.8920    2.8820   -9.9890 C   0  0  0  0  0  0  0  0  0  0  0  0
   -8.8220    6.2160   -8.5090 N   0  0  0  0  0  0  0  0  0  0  0  0
   -8.5090    6.5390   -9.7800 C   0  0  0  0  0  0  0  0  0  0  0  0
   -8.2150    6.9400  -12.9730 H   0  0  0  0  0  0  0  0  0  0  0  0
  -10.0990    5.6700  -14.5230 H   0  0  0  0  0  0  0  0  0  0  0  0
   -9.3020    4.2910  -13.8290 H   0  0  0  0  0  0  0  0  0  0  0  0
  -10.4350    4.8590  -15.9700 H   0  0  0  0  0  0  0  0  0  0  0  0
  -11.2160    4.4880  -18.3440 H   0  0  0  0  0  0  0  0  0  0  0  0
   -9.6690    4.5960  -20.2600 H   0  0  0  0  0  0  0  0  0  0  0  0
   -6.0760    4.6530  -19.9360 H   0  0  0  0  0  0  0  0  0  0  0  0
   -7.5380    4.5230  -20.8510 H   0  0  0  0  0  0  0  0  0  0  0  0
   -6.8730    6.0780  -20.4490 H   0  0  0  0  0  0  0  0  0  0  0  0
   -5.4690    5.5640  -18.0480 H   0  0  0  0  0  0  0  0  0  0  0  0
   -4.7230    5.9270  -15.7030 H   0  0  0  0  0  0  0  0  0  0  0  0
   -6.4140    5.8220  -13.8650 H   0  0  0  0  0  0  0  0  0  0  0  0
   -8.4350    4.1580  -12.2230 H   0  0  0  0  0  0  0  0  0  0  0  0
   -7.0620    5.2470  -12.0950 H   0  0  0  0  0  0  0  0  0  0  0  0
   -8.3680    4.0070   -6.8060 H   0  0  0  0  0  0  0  0  0  0  0  0
   -9.9980    4.6680   -6.7830 H   0  0  0  0  0  0  0  0  0  0  0  0
  -10.7560    2.5800   -8.1350 H   0  0  0  0  0  0  0  0  0  0  0  0
   -9.6240    2.0270   -6.9750 H   0  0  0  0  0  0  0  0  0  0  0  0
   -7.7700    2.4280   -8.3620 H   0  0  0  0  0  0  0  0  0  0  0  0
   -8.8620    1.1840   -8.9010 H   0  0  0  0  0  0  0  0  0  0  0  0
   -9.8690    2.6570  -10.4340 H   0  0  0  0  0  0  0  0  0  0  0  0
   -8.1200    2.5110  -10.6750 H   0  0  0  0  0  0  0  0  0  0  0  0
   -8.3330    7.5760  -10.0380 H   0  0  0  0  0  0  0  0  0  0  0  0
  1  2  1  0
  2  3  1  0
  3  4  1  0
  4  5  2  0
  5  6  1  0
  6  7  2  0
  7  8  1  0
  8  9  1  0
  8 10  2  0
 10 11  1  0
 11 12  2  0
 12 13  1  0
  1 14  1  0
 14 15  1  0
 15 16  2  0
 16 17  1  0
 17 18  1  0
 18 19  1  0
 19 20  1  0
 20 21  1  0
 17 22  1  0
 22 23  2  0
 13  3  2  0
 10  4  1  0
 23 15  1  0
 21 16  1  0
  1 24  1  0
  2 25  1  0
  2 26  1  0
  5 27  1  0
  6 28  1  0
  7 29  1  0
  9 30  1  0
  9 31  1  0
  9 32  1  0
 11 33  1  0
 12 34  1  0
 13 35  1  0
 14 36  1  0
 14 37  1  0
 18 38  1  0
 18 39  1  0
 19 40  1  0
 19 41  1  0
 20 42  1  0
 20 43  1  0
 21 44  1  0
 21 45  1  0
 23 46  1  0
A    1
 N1 
A    2
 C1 
A    3
 C2 
A    4
 C3 
A    5
 C4 
A    6
 C5 
A    7
 C6 
A    8
 C7 
A    9
 C8 
A   10
 C9 
A   11
 C10
A   12
 C11
A   13
 C12
A   14
 C13
A   15
 C14
A   16
 C15
A   17
 N2 
A   18
 C16
A   19
 C17
A   20
 C18
A   21
 C19
A   22
 N3 
A   23
 C20
A   24
 H1 
A   25
 H2 
A   26
 H3 
A   27
 H4 
A   28
 H5 
A   29
 H6 
A   30
 H7 
A   31
 H8 
A   32
 H9 
A   33
 H10
A   34
 H11
A   35
 H12
A   36
 H13
A   37
 H14
A   38
 H15
A   39
 H16
A   40
 H17
A   41
 H18
A   42
 H19
A   43
 H20
A   44
 H21
A   45
 H22
A   46
 H23
M  END
>  <ref_pdb>  (9) 
x0051_0B

>  <ref_mols>  (9) 
x0969_1B,x0455_0B

>  <original SMILES>  (9) 
[H]c1nn2c(c1C([H])([H])N([H])C([H])([H])c1c([H])c([H])c([H])c3c(C([H])([H])[H])c([H])c([H])c([H])c13)C([H])([H])C([H])([H])C([H])([H])C2([H])[H]

>  <index>  (9) 
13

>  <∆∆G>  (9) 
-9.962425

>  <∆G_bound>  (9) 
-9.672322

>  <∆G_unbound>  (9) 
0.290103

>  <comRMSD>  (9) 
0.383143

>  <N_constrained_atoms>  (9) 
20.0

>  <N_unconstrained_atoms>  (9) 
3.0

>  <runtime>  (9) 
60.71496

>  <LE>  (9) 
0.433149

>  <percent_hybrid>  (9) 
50.0

>  <dist>  (9) 
8.0

>  <ecfp4>  (9) 
0.2625

>  <daylight>  (9) 
0.26935

>  <topodist>  (9) 
1.0

>  <mces>  (9) 
25.0

>  <tdn>  (9) 
0.0

>  <tup>  (9) 
1.0

>  <rdn>  (9) 
0.0

>  <rup>  (9) 
0.0

>  <ldn>  (9) 
0.0

>  <lup>  (9) 
0.0

>  <mut>  (9) 
4.0

>  <maj>  (9) 
4.0

>  <min>  (9) 
0.0

>  <hyb>  (9) 
3.0

>  <sub>  (9) 
1.0

>  <query_index>  (9) 
204.0

>  <max_hit_Tanimoto>  (9) 
0.371692

>  <largest_ring>  (9) 
0

>  <N_interactions_kept>  (9) 
1.0

>  <N_interactions_lost>  (9) 
1.5

>  <interaction_uniqueness_metric>  (9) 
0.265586

>  <ad_hoc_penalty>  (9) 
-43.099162

>  <N_rotatable_bonds>  (9) 
5

>  <N_HA>  (9) 
23

>  <cluster>  (9) 
6204

>  <N_interactions>  (9) 
8

>  <Enamine>  (9) 
0

>  <Mcule>  (9) 
1

>  <N_PAINS>  (9) 
0

>  <UFF_Gibbs>  (9) 
114.344926

>  <strain_per_HA>  (9) 
4.971519

>  <saltbridge:HIS:51>  (9) 
0

>  <pistack:HIS:51>  (9) 
1

>  <hydroph_interaction:HIS:51>  (9) 
1

>  <hbond:ALA:132>  (9) 
0

>  <hbond:SER:135>  (9) 
0

>  <hydroph_interaction:TYR:150>  (9) 
1

>  <pistack:TYR:161>  (9) 
1

>  <hydroph_interaction:TYR:161>  (9) 
2

>  <hydroph_interaction:ASP:83>  (9) 
1

>  <hbond:TYR:130>  (9) 
0

>  <hydroph_interaction:ALA:132>  (9) 
0

>  <hbond:HIS:51>  (9) 
1

>  <hbond:ASP:129>  (9) 
0

>  <hbond:TYR:150>  (9) 
0

>  <hbond:GLY:151>  (9) 
0

>  <hbond:TYR:161>  (9) 
0

>  <hydroph_interaction:TYR:130>  (9) 
0

>  <hydroph_interaction:PRO:131>  (9) 
0

>  <hydroph_interaction:ASP:129>  (9) 
0

>  <saltbridge:ASP:75>  (9) 
0

>  <saltbridge:ASP:83>  (9) 
0

>  <hydroph_interaction:ASN:152>  (9) 
0

>  <halogenbond:TYR:150>  (9) 
0

>  <hbond:ASP:83>  (9) 
0

>  <hydroph_interaction:VAL:155>  (9) 
0

>  <pication:TYR:161>  (9) 
0

>  <hbond:PRO:131>  (9) 
0

>  <hbond:LEU:128>  (9) 
0

>  <saltbridge:ASP:129>  (9) 
0

>  <hbond:THR:134>  (9) 
0

>  <pication:HIS:51>  (9) 
0

>  <hbond:SER:81>  (9) 
0

>  <hbond:GLY:159>  (9) 
0

>  <hydroph_interaction:PRO:101>  (9) 
0

>  <hydroph_interaction:THR:134>  (9) 
0

>  <hbond:GLY:82>  (9) 
0

>  <hydroph_interaction:GLU:104>  (9) 
0

>  <hydroph_interaction:VAL:36>  (9) 
0

>  <hydroph_interaction:MET:49>  (9) 
0

>  <halogenbond:GLU:104>  (9) 
0

>  <hydroph_interaction:LYS:107>  (9) 
0

$$$$
PV-006102668715
     RDKit          3D

 53 56  0  0  0  0  0  0  0  0999 V2000
   -3.3430    4.5310  -15.2480 C   0  0  0  0  0  0  0  0  0  0  0  0
   -3.2350    5.2660  -16.5270 C   0  0  0  0  0  0  0  0  0  0  0  0
   -4.1550    5.2890  -17.5510 C   0  0  0  0  0  0  0  0  0  0  0  0
   -3.7830    5.0990  -18.7140 O   0  0  0  0  0  0  0  0  0  0  0  0
   -5.5040    5.5370  -17.2550 N   0  0  0  0  0  0  0  0  0  0  0  0
   -6.4430    5.5710  -18.3710 C   0  0  0  0  0  0  0  0  0  0  0  0
   -7.7300    5.2220  -17.9770 C   0  0  0  0  0  0  0  0  0  0  0  0
   -8.8740    4.9820  -18.8400 C   0  0  0  0  0  0  0  0  0  0  0  0
   -9.9850    4.6720  -18.1020 C   0  0  0  0  0  0  0  0  0  0  0  0
   -9.6280    4.6870  -16.7980 N   0  0  0  0  0  0  0  0  0  0  0  0
   -8.2830    5.0080  -16.7420 N   0  0  0  0  0  0  0  0  0  0  0  0
   -7.6720    5.0670  -15.4330 C   0  0  0  0  0  0  0  0  0  0  0  0
   -7.0150    6.2500  -15.1830 C   0  0  0  0  0  0  0  0  0  0  0  0
   -6.6570    6.2880  -13.8940 N   0  0  0  0  0  0  0  0  0  0  0  0
   -7.7900    6.5200  -13.1010 C   0  0  0  0  0  0  0  0  0  0  0  0
   -8.2170    7.6740  -13.0750 O   0  0  0  0  0  0  0  0  0  0  0  0
   -8.5420    5.4740  -12.2610 C   0  0  0  0  0  0  0  0  0  0  0  0
   -8.6610    5.6020  -10.8460 C   0  0  0  0  0  0  0  0  0  0  0  0
   -8.8640    4.4840   -9.8610 C   0  0  0  0  0  0  0  0  0  0  0  0
   -8.9750    3.0210  -10.1870 C   0  0  0  0  0  0  0  0  0  0  0  0
   -8.6590    2.1570   -8.9470 C   0  0  0  0  0  0  0  0  0  0  0  0
   -9.3770    2.8550   -7.8250 C   0  0  0  0  0  0  0  0  0  0  0  0
   -9.1230    4.1820   -7.4430 C   0  0  0  0  0  0  0  0  0  0  0  0
   -8.9280    5.0020   -8.6290 N   0  0  0  0  0  0  0  0  0  0  0  0
   -8.7950    6.3460   -8.6300 N   0  0  0  0  0  0  0  0  0  0  0  0
   -8.6380    6.7090   -9.9420 C   0  0  0  0  0  0  0  0  0  0  0  0
   -5.7830    6.4850  -16.1340 C   0  0  0  0  0  0  0  0  0  0  0  0
   -2.8250    5.0700  -14.4500 H   0  0  0  0  0  0  0  0  0  0  0  0
   -4.3920    4.4220  -14.9520 H   0  0  0  0  0  0  0  0  0  0  0  0
   -2.8920    3.5380  -15.3190 H   0  0  0  0  0  0  0  0  0  0  0  0
   -2.3020    4.9240  -16.9740 H   0  0  0  0  0  0  0  0  0  0  0  0
   -3.0790    6.3130  -16.2470 H   0  0  0  0  0  0  0  0  0  0  0  0
   -6.1060    4.8910  -19.1630 H   0  0  0  0  0  0  0  0  0  0  0  0
   -6.4390    6.5740  -18.8080 H   0  0  0  0  0  0  0  0  0  0  0  0
   -8.8370    5.0510  -19.9260 H   0  0  0  0  0  0  0  0  0  0  0  0
  -10.9980    4.4440  -18.4060 H   0  0  0  0  0  0  0  0  0  0  0  0
   -6.9380    4.2630  -15.3980 H   0  0  0  0  0  0  0  0  0  0  0  0
   -8.4680    4.7490  -14.7650 H   0  0  0  0  0  0  0  0  0  0  0  0
   -7.7220    7.0770  -15.3250 H   0  0  0  0  0  0  0  0  0  0  0  0
   -5.9530    5.6440  -13.5550 H   0  0  0  0  0  0  0  0  0  0  0  0
   -9.5450    5.3860  -12.6920 H   0  0  0  0  0  0  0  0  0  0  0  0
   -8.0660    4.5110  -12.4790 H   0  0  0  0  0  0  0  0  0  0  0  0
   -8.2850    2.7540  -10.9960 H   0  0  0  0  0  0  0  0  0  0  0  0
   -9.9880    2.8000  -10.5400 H   0  0  0  0  0  0  0  0  0  0  0  0
   -9.0040    1.1450   -9.0450 H   0  0  0  0  0  0  0  0  0  0  0  0
   -7.5850    2.1380   -8.7730 H   0  0  0  0  0  0  0  0  0  0  0  0
   -9.2510    2.2400   -6.9320 H   0  0  0  0  0  0  0  0  0  0  0  0
  -10.4470    2.7880   -8.0590 H   0  0  0  0  0  0  0  0  0  0  0  0
   -8.2220    4.2440   -6.8230 H   0  0  0  0  0  0  0  0  0  0  0  0
   -9.9710    4.6030   -6.8910 H   0  0  0  0  0  0  0  0  0  0  0  0
   -8.5140    7.7620  -10.1780 H   0  0  0  0  0  0  0  0  0  0  0  0
   -5.8850    7.4700  -16.6030 H   0  0  0  0  0  0  0  0  0  0  0  0
   -4.8880    6.5630  -15.5060 H   0  0  0  0  0  0  0  0  0  0  0  0
  1  2  1  0
  2  3  1  0
  3  4  2  0
  3  5  1  0
  5  6  1  0
  6  7  1  0
  7  8  2  0
  8  9  1  0
  9 10  2  0
 10 11  1  0
 11 12  1  0
 12 13  1  0
 13 14  1  0
 14 15  1  0
 15 16  2  0
 15 17  1  0
 17 18  1  0
 18 19  2  0
 19 20  1  0
 20 21  1  0
 21 22  1  0
 22 23  1  0
 23 24  1  0
 24 25  1  0
 25 26  2  0
 13 27  1  0
 27  5  1  0
 11  7  1  0
 26 18  1  0
 24 19  1  0
  1 28  1  0
  1 29  1  0
  1 30  1  0
  2 31  1  0
  2 32  1  0
  6 33  1  0
  6 34  1  0
  8 35  1  0
  9 36  1  0
 12 37  1  0
 12 38  1  0
 13 39  1  0
 14 40  1  0
 17 41  1  0
 17 42  1  0
 20 43  1  0
 20 44  1  0
 21 45  1  0
 21 46  1  0
 22 47  1  0
 22 48  1  0
 23 49  1  0
 23 50  1  0
 26 51  1  0
 27 52  1  0
 27 53  1  0
A    1
 C1 
A    2
 C2 
A    3
 C3 
A    4
 O1 
A    5
 N1 
A    6
 C4 
A    7
 C5 
A    8
 C6 
A    9
 C7 
A   10
 N2 
A   11
 N3 
A   12
 C8 
A   13
 C9 
A   14
 N4 
A   15
 C10
A   16
 O2 
A   17
 C11
A   18
 C12
A   19
 C13
A   20
 C14
A   21
 C15
A   22
 C16
A   23
 C17
A   24
 N5 
A   25
 N6 
A   26
 C18
A   27
 C19
A   28
 H1 
A   29
 H2 
A   30
 H3 
A   31
 H4 
A   32
 H5 
A   33
 H6 
A   34
 H7 
A   35
 H8 
A   36
 H9 
A   37
 H10
A   38
 H11
A   39
 H12
A   40
 H13
A   41
 H14
A   42
 H15
A   43
 H16
A   44
 H17
A   45
 H18
A   46
 H19
A   47
 H20
A   48
 H21
A   49
 H22
A   50
 H23
A   51
 H24
A   52
 H25
A   53
 H26
M  END
>  <ref_pdb>  (10) 
x0051_0B

>  <ref_mols>  (10) 
x0472_0B,x0969_1B

>  <original SMILES>  (10) 
[H]c1nn2c(c1[H])C([H])([H])N(C(=O)C([H])([H])C([H])([H])[H])C([H])([H])C([H])(N([H])C(=O)C([H])([H])c1c([H])nn3c1C([H])([H])C([H])([H])C([H])([H])C3([H])[H])C2([H])[H]

>  <index>  (10) 
8

>  <∆∆G>  (10) 
-8.845118

>  <∆G_bound>  (10) 
-7.368018

>  <∆G_unbound>  (10) 
1.477099

>  <comRMSD>  (10) 
0.435515

>  <N_constrained_atoms>  (10) 
23.0

>  <N_unconstrained_atoms>  (10) 
4.0

>  <runtime>  (10) 
64.657212

>  <LE>  (10) 
0.327597

>  <percent_hybrid>  (10) 
44.0

>  <dist>  (10) 
10.0

>  <ecfp4>  (10) 
0.206186

>  <daylight>  (10) 
0.372973

>  <topodist>  (10) 
2.0

>  <mces>  (10) 
28.0

>  <tdn>  (10) 
0.0

>  <tup>  (10) 
1.0

>  <rdn>  (10) 
0.0

>  <rup>  (10) 
0.0

>  <ldn>  (10) 
0.0

>  <lup>  (10) 
1.0

>  <mut>  (10) 
6.0

>  <maj>  (10) 
6.0

>  <min>  (10) 
0.0

>  <hyb>  (10) 
2.0

>  <sub>  (10) 
0.0

>  <query_index>  (10) 
24.0

>  <max_hit_Tanimoto>  (10) 
0.377953

>  <largest_ring>  (10) 
0

>  <N_interactions_kept>  (10) 
3.5

>  <N_interactions_lost>  (10) 
0.0

>  <interaction_uniqueness_metric>  (10) 
0.16207

>  <ad_hoc_penalty>  (10) 
-42.295612

>  <N_rotatable_bonds>  (10) 
5

>  <N_HA>  (10) 
27

>  <cluster>  (10) 
6208

>  <N_interactions>  (10) 
6

>  <Enamine>  (10) 
1

>  <Mcule>  (10) 
0

>  <N_PAINS>  (10) 
0

>  <UFF_Gibbs>  (10) 
147.395457

>  <strain_per_HA>  (10) 
5.459091

>  <saltbridge:HIS:51>  (10) 
0

>  <pistack:HIS:51>  (10) 
1

>  <hydroph_interaction:HIS:51>  (10) 
0

>  <hbond:ALA:132>  (10) 
0

>  <hbond:SER:135>  (10) 
0

>  <hydroph_interaction:TYR:150>  (10) 
0

>  <pistack:TYR:161>  (10) 
0

>  <hydroph_interaction:TYR:161>  (10) 
3

>  <hydroph_interaction:ASP:83>  (10) 
1

>  <hbond:TYR:130>  (10) 
0

>  <hydroph_interaction:ALA:132>  (10) 
0

>  <hbond:HIS:51>  (10) 
0

>  <hbond:ASP:129>  (10) 
0

>  <hbond:TYR:150>  (10) 
0

>  <hbond:GLY:151>  (10) 
0

>  <hbond:TYR:161>  (10) 
0

>  <hydroph_interaction:TYR:130>  (10) 
0

>  <hydroph_interaction:PRO:131>  (10) 
0

>  <hydroph_interaction:ASP:129>  (10) 
0

>  <saltbridge:ASP:75>  (10) 
0

>  <saltbridge:ASP:83>  (10) 
0

>  <hydroph_interaction:ASN:152>  (10) 
0

>  <halogenbond:TYR:150>  (10) 
0

>  <hbond:ASP:83>  (10) 
0

>  <hydroph_interaction:VAL:155>  (10) 
1

>  <pication:TYR:161>  (10) 
0

>  <hbond:PRO:131>  (10) 
0

>  <hbond:LEU:128>  (10) 
0

>  <saltbridge:ASP:129>  (10) 
0

>  <hbond:THR:134>  (10) 
0

>  <pication:HIS:51>  (10) 
0

>  <hbond:SER:81>  (10) 
0

>  <hbond:GLY:159>  (10) 
0

>  <hydroph_interaction:PRO:101>  (10) 
0

>  <hydroph_interaction:THR:134>  (10) 
0

>  <hbond:GLY:82>  (10) 
0

>  <hydroph_interaction:GLU:104>  (10) 
0

>  <hydroph_interaction:VAL:36>  (10) 
0

>  <hydroph_interaction:MET:49>  (10) 
0

>  <halogenbond:GLU:104>  (10) 
0

>  <hydroph_interaction:LYS:107>  (10) 
0

$$$$
Z4349352112
     RDKit          3D

 45 48  0  0  0  0  0  0  0  0999 V2000
   -9.7930    4.6520  -18.6650 C   0  0  0  0  0  0  0  0  0  0  0  0
   -9.0940    5.0790  -17.4260 C   0  0  0  0  0  0  0  0  0  0  0  0
   -9.7410    5.0340  -16.2650 N   0  0  0  0  0  0  0  0  0  0  0  0
   -8.8730    5.4880  -15.3490 N   0  0  0  0  0  0  0  0  0  0  0  0
   -9.3690    5.5470  -13.9680 C   0  0  0  0  0  0  0  0  0  0  0  0
   -8.5400    6.1830  -13.0290 C   0  0  0  0  0  0  0  0  0  0  0  0
   -8.0990    7.3240  -13.1240 O   0  0  0  0  0  0  0  0  0  0  0  0
   -8.3330    5.2840  -12.0060 O   0  0  0  0  0  0  0  0  0  0  0  0
   -8.5400    5.4780  -10.6720 C   0  0  0  0  0  0  0  0  0  0  0  0
   -8.8200    4.4020   -9.8690 C   0  0  0  0  0  0  0  0  0  0  0  0
   -8.9700    2.9550  -10.1550 C   0  0  0  0  0  0  0  0  0  0  0  0
   -8.7030    2.2090   -8.8630 C   0  0  0  0  0  0  0  0  0  0  0  0
   -9.6450    2.6930   -7.7780 C   0  0  0  0  0  0  0  0  0  0  0  0
   -9.2460    4.1140   -7.3990 C   0  0  0  0  0  0  0  0  0  0  0  0
   -8.9560    4.9010   -8.5930 N   0  0  0  0  0  0  0  0  0  0  0  0
   -8.7930    6.2320   -8.5190 N   0  0  0  0  0  0  0  0  0  0  0  0
   -8.5400    6.5890   -9.7930 C   0  0  0  0  0  0  0  0  0  0  0  0
   -7.6560    5.8190  -15.9000 C   0  0  0  0  0  0  0  0  0  0  0  0
   -7.7700    5.5660  -17.2680 C   0  0  0  0  0  0  0  0  0  0  0  0
   -6.7190    5.7880  -18.2550 C   0  0  0  0  0  0  0  0  0  0  0  0
   -5.4670    5.1880  -18.1430 C   0  0  0  0  0  0  0  0  0  0  0  0
   -4.4850    5.4240  -19.1100 C   0  0  0  0  0  0  0  0  0  0  0  0
   -4.7410    6.2610  -20.1960 C   0  0  0  0  0  0  0  0  0  0  0  0
   -5.9780    6.8640  -20.3130 C   0  0  0  0  0  0  0  0  0  0  0  0
   -6.9440    6.6220  -19.3540 C   0  0  0  0  0  0  0  0  0  0  0  0
  -10.8660    4.8310  -18.5680 H   0  0  0  0  0  0  0  0  0  0  0  0
   -9.4240    5.2310  -19.5170 H   0  0  0  0  0  0  0  0  0  0  0  0
   -9.6320    3.5900  -18.8550 H   0  0  0  0  0  0  0  0  0  0  0  0
   -9.6560    4.5220  -13.7430 H   0  0  0  0  0  0  0  0  0  0  0  0
  -10.2980    6.1250  -13.9900 H   0  0  0  0  0  0  0  0  0  0  0  0
   -8.2120    2.6530  -10.8860 H   0  0  0  0  0  0  0  0  0  0  0  0
   -9.9190    2.5960  -10.5500 H   0  0  0  0  0  0  0  0  0  0  0  0
   -8.8110    1.1450   -9.0110 H   0  0  0  0  0  0  0  0  0  0  0  0
   -7.6690    2.3910   -8.5490 H   0  0  0  0  0  0  0  0  0  0  0  0
  -10.6740    2.6750   -8.1540 H   0  0  0  0  0  0  0  0  0  0  0  0
   -9.6000    2.0340   -6.9130 H   0  0  0  0  0  0  0  0  0  0  0  0
  -10.0530    4.6230   -6.8610 H   0  0  0  0  0  0  0  0  0  0  0  0
   -8.3490    4.1020   -6.7710 H   0  0  0  0  0  0  0  0  0  0  0  0
   -8.3670    7.6340  -10.0060 H   0  0  0  0  0  0  0  0  0  0  0  0
   -6.8390    6.1970  -15.3040 H   0  0  0  0  0  0  0  0  0  0  0  0
   -5.2420    4.5330  -17.3050 H   0  0  0  0  0  0  0  0  0  0  0  0
   -3.5110    4.9480  -19.0140 H   0  0  0  0  0  0  0  0  0  0  0  0
   -3.9730    6.4390  -20.9430 H   0  0  0  0  0  0  0  0  0  0  0  0
   -6.1950    7.5210  -21.1530 H   0  0  0  0  0  0  0  0  0  0  0  0
   -7.8840    7.0970  -19.4870 H   0  0  0  0  0  0  0  0  0  0  0  0
  1  2  1  0
  2  3  2  0
  3  4  1  0
  4  5  1  0
  5  6  1  0
  6  7  2  0
  6  8  1  0
  8  9  1  0
  9 10  2  0
 10 11  1  0
 11 12  1  0
 12 13  1  0
 13 14  1  0
 14 15  1  0
 15 16  1  0
 16 17  2  0
  4 18  1  0
 18 19  2  0
 19 20  1  0
 20 21  2  0
 21 22  1  0
 22 23  2  0
 23 24  1  0
 24 25  2  0
 19  2  1  0
 17  9  1  0
 15 10  1  0
 25 20  1  0
  1 26  1  0
  1 27  1  0
  1 28  1  0
  5 29  1  0
  5 30  1  0
 11 31  1  0
 11 32  1  0
 12 33  1  0
 12 34  1  0
 13 35  1  0
 13 36  1  0
 14 37  1  0
 14 38  1  0
 17 39  1  0
 18 40  1  0
 21 41  1  0
 22 42  1  0
 23 43  1  0
 24 44  1  0
 25 45  1  0
A    1
 C1 
A    2
 C2 
A    3
 N1 
A    4
 N2 
A    5
 C3 
A    6
 C4 
A    7
 O1 
A    8
 O2 
A    9
 C5 
A   10
 C6 
A   11
 C7 
A   12
 C8 
A   13
 C9 
A   14
 C10
A   15
 N3 
A   16
 N4 
A   17
 C11
A   18
 C12
A   19
 C13
A   20
 C14
A   21
 C15
A   22
 C16
A   23
 C17
A   24
 C18
A   25
 C19
A   26
 H1 
A   27
 H2 
A   28
 H3 
A   29
 H4 
A   30
 H5 
A   31
 H6 
A   32
 H7 
A   33
 H8 
A   34
 H9 
A   35
 H10
A   36
 H11
A   37
 H12
A   38
 H13
A   39
 H14
A   40
 H15
A   41
 H16
A   42
 H17
A   43
 H18
A   44
 H19
A   45
 H20
M  END
>  <ref_pdb>  (11) 
x0051_0B

>  <ref_mols>  (11) 
x0969_1B,x0803_0B

>  <original SMILES>  (11) 
[H]c1nn2c(c1OC(=O)C([H])([H])n1nc(C([H])([H])[H])c(-c3c([H])c([H])c([H])c([H])c3[H])c1[H])C([H])([H])C([H])([H])C([H])([H])C2([H])[H]

>  <index>  (11) 
25

>  <∆∆G>  (11) 
-8.608371

>  <∆G_bound>  (11) 
-8.043291

>  <∆G_unbound>  (11) 
0.565081

>  <comRMSD>  (11) 
0.482132

>  <N_constrained_atoms>  (11) 
22.0

>  <N_unconstrained_atoms>  (11) 
3.0

>  <runtime>  (11) 
66.044672

>  <LE>  (11) 
0.344335

>  <percent_hybrid>  (11) 
46.0

>  <dist>  (11) 
10.0

>  <ecfp4>  (11) 
0.26506

>  <daylight>  (11) 
0.245014

>  <topodist>  (11) 
1.0

>  <mces>  (11) 
27.0

>  <tdn>  (11) 
0.0

>  <tup>  (11) 
1.0

>  <rdn>  (11) 
0.0

>  <rup>  (11) 
0.0

>  <ldn>  (11) 
0.0

>  <lup>  (11) 
0.0

>  <mut>  (11) 
4.0

>  <maj>  (11) 
4.0

>  <min>  (11) 
0.0

>  <hyb>  (11) 
5.0

>  <sub>  (11) 
0.0

>  <query_index>  (11) 
360.0

>  <max_hit_Tanimoto>  (11) 
0.265039

>  <largest_ring>  (11) 
0

>  <N_interactions_kept>  (11) 
5.0

>  <N_interactions_lost>  (11) 
1.0

>  <interaction_uniqueness_metric>  (11) 
0.232813

>  <ad_hoc_penalty>  (11) 
-41.39526

>  <N_rotatable_bonds>  (11) 
5

>  <N_HA>  (11) 
25

>  <cluster>  (11) 
6193

>  <N_interactions>  (11) 
7

>  <Enamine>  (11) 
1

>  <Mcule>  (11) 
0

>  <N_PAINS>  (11) 
0

>  <UFF_Gibbs>  (11) 
56.278974

>  <strain_per_HA>  (11) 
2.251159

>  <saltbridge:HIS:51>  (11) 
1

>  <pistack:HIS:51>  (11) 
1

>  <hydroph_interaction:HIS:51>  (11) 
0

>  <hbond:ALA:132>  (11) 
0

>  <hbond:SER:135>  (11) 
0

>  <hydroph_interaction:TYR:150>  (11) 
1

>  <pistack:TYR:161>  (11) 
0

>  <hydroph_interaction:TYR:161>  (11) 
3

>  <hydroph_interaction:ASP:83>  (11) 
1

>  <hbond:TYR:130>  (11) 
0

>  <hydroph_interaction:ALA:132>  (11) 
0

>  <hbond:HIS:51>  (11) 
0

>  <hbond:ASP:129>  (11) 
0

>  <hbond:TYR:150>  (11) 
0

>  <hbond:GLY:151>  (11) 
0

>  <hbond:TYR:161>  (11) 
0

>  <hydroph_interaction:TYR:130>  (11) 
0

>  <hydroph_interaction:PRO:131>  (11) 
0

>  <hydroph_interaction:ASP:129>  (11) 
0

>  <saltbridge:ASP:75>  (11) 
0

>  <saltbridge:ASP:83>  (11) 
0

>  <hydroph_interaction:ASN:152>  (11) 
0

>  <halogenbond:TYR:150>  (11) 
0

>  <hbond:ASP:83>  (11) 
0

>  <hydroph_interaction:VAL:155>  (11) 
0

>  <pication:TYR:161>  (11) 
0

>  <hbond:PRO:131>  (11) 
0

>  <hbond:LEU:128>  (11) 
0

>  <saltbridge:ASP:129>  (11) 
0

>  <hbond:THR:134>  (11) 
0

>  <pication:HIS:51>  (11) 
0

>  <hbond:SER:81>  (11) 
0

>  <hbond:GLY:159>  (11) 
0

>  <hydroph_interaction:PRO:101>  (11) 
0

>  <hydroph_interaction:THR:134>  (11) 
0

>  <hbond:GLY:82>  (11) 
0

>  <hydroph_interaction:GLU:104>  (11) 
0

>  <hydroph_interaction:VAL:36>  (11) 
0

>  <hydroph_interaction:MET:49>  (11) 
0

>  <halogenbond:GLU:104>  (11) 
0

>  <hydroph_interaction:LYS:107>  (11) 
0

$$$$
Z4349353620
     RDKit          3D

 48 51  0  0  0  0  0  0  0  0999 V2000
   -9.6070    4.5870  -18.4690 C   0  0  0  0  0  0  0  0  0  0  0  0
   -8.7670    5.1430  -17.3430 C   0  0  0  0  0  0  0  0  0  0  0  0
   -9.1710    5.2850  -16.0170 C   0  0  0  0  0  0  0  0  0  0  0  0
   -8.1920    5.8390  -15.2090 C   0  0  0  0  0  0  0  0  0  0  0  0
   -8.2860    6.1520  -13.7830 C   0  0  0  0  0  0  0  0  0  0  0  0
   -8.0330    7.3070  -13.4430 O   0  0  0  0  0  0  0  0  0  0  0  0
   -8.6710    5.1450  -12.8470 O   0  0  0  0  0  0  0  0  0  0  0  0
   -8.7200    5.3550  -11.4410 C   0  0  0  0  0  0  0  0  0  0  0  0
   -8.8940    4.3590  -10.2710 C   0  0  0  0  0  0  0  0  0  0  0  0
   -9.0520    2.9880  -10.3470 C   0  0  0  0  0  0  0  0  0  0  0  0
   -9.4240    2.3400   -9.1440 C   0  0  0  0  0  0  0  0  0  0  0  0
   -9.5100    3.0400   -7.9110 C   0  0  0  0  0  0  0  0  0  0  0  0
   -9.0000    4.3480   -7.8000 C   0  0  0  0  0  0  0  0  0  0  0  0
   -8.8730    5.0010   -9.0820 N   0  0  0  0  0  0  0  0  0  0  0  0
   -8.7160    6.3340   -9.2400 N   0  0  0  0  0  0  0  0  0  0  0  0
   -8.6270    6.5510  -10.6600 C   0  0  0  0  0  0  0  0  0  0  0  0
   -7.1090    6.0540  -16.0600 N   0  0  0  0  0  0  0  0  0  0  0  0
   -7.4750    5.6300  -17.3450 N   0  0  0  0  0  0  0  0  0  0  0  0
   -6.5440    5.7170  -18.5190 C   0  0  0  0  0  0  0  0  0  0  0  0
   -6.6670    6.9730  -19.3860 C   0  0  0  0  0  0  0  0  0  0  0  0
   -5.6950    7.0900  -20.3890 C   0  0  0  0  0  0  0  0  0  0  0  0
   -4.4110    6.7080  -20.0320 C   0  0  0  0  0  0  0  0  0  0  0  0
   -4.3670    5.4440  -19.4610 C   0  0  0  0  0  0  0  0  0  0  0  0
   -5.0640    5.4490  -18.2440 C   0  0  0  0  0  0  0  0  0  0  0  0
   -9.4290    3.5180  -18.6060 H   0  0  0  0  0  0  0  0  0  0  0  0
   -9.3830    5.1130  -19.4040 H   0  0  0  0  0  0  0  0  0  0  0  0
  -10.6780    4.7100  -18.2700 H   0  0  0  0  0  0  0  0  0  0  0  0
  -10.1520    5.0020  -15.6420 H   0  0  0  0  0  0  0  0  0  0  0  0
   -9.6430    2.6590  -11.2020 H   0  0  0  0  0  0  0  0  0  0  0  0
   -8.0680    2.5770  -10.5850 H   0  0  0  0  0  0  0  0  0  0  0  0
   -8.6470    1.5900   -9.0020 H   0  0  0  0  0  0  0  0  0  0  0  0
  -10.2990    1.7510   -9.0390 H   0  0  0  0  0  0  0  0  0  0  0  0
   -8.8820    2.4580   -7.2280 H   0  0  0  0  0  0  0  0  0  0  0  0
  -10.5090    2.9210   -7.5080 H   0  0  0  0  0  0  0  0  0  0  0  0
   -7.9920    4.3310   -7.3670 H   0  0  0  0  0  0  0  0  0  0  0  0
   -9.6340    4.9570   -7.1700 H   0  0  0  0  0  0  0  0  0  0  0  0
   -8.4980    7.5660  -11.0160 H   0  0  0  0  0  0  0  0  0  0  0  0
   -6.8270    4.9030  -19.1970 H   0  0  0  0  0  0  0  0  0  0  0  0
   -6.5370    7.8310  -18.7420 H   0  0  0  0  0  0  0  0  0  0  0  0
   -7.6600    7.0480  -19.8300 H   0  0  0  0  0  0  0  0  0  0  0  0
   -6.0080    6.4820  -21.2490 H   0  0  0  0  0  0  0  0  0  0  0  0
   -5.6870    8.1260  -20.7440 H   0  0  0  0  0  0  0  0  0  0  0  0
   -3.7940    6.6840  -20.9380 H   0  0  0  0  0  0  0  0  0  0  0  0
   -3.9910    7.5160  -19.4360 H   0  0  0  0  0  0  0  0  0  0  0  0
   -3.3730    5.0730  -19.2180 H   0  0  0  0  0  0  0  0  0  0  0  0
   -4.7150    4.7030  -20.1580 H   0  0  0  0  0  0  0  0  0  0  0  0
   -4.9640    4.5800  -17.6060 H   0  0  0  0  0  0  0  0  0  0  0  0
   -4.6550    6.2760  -17.6540 H   0  0  0  0  0  0  0  0  0  0  0  0
  1  2  1  0
  2  3  2  0
  3  4  1  0
  4  5  1  0
  5  6  2  0
  5  7  1  0
  7  8  1  0
  8  9  2  0
  9 10  1  0
 10 11  1  0
 11 12  1  0
 12 13  1  0
 13 14  1  0
 14 15  1  0
 15 16  2  0
  4 17  2  0
 17 18  1  0
 18 19  1  0
 19 20  1  0
 20 21  1  0
 21 22  1  0
 22 23  1  0
 23 24  1  0
 18  2  1  0
 16  8  1  0
 14  9  1  0
 24 19  1  0
  1 25  1  0
  1 26  1  0
  1 27  1  0
  3 28  1  0
 10 29  1  0
 10 30  1  0
 11 31  1  0
 11 32  1  0
 12 33  1  0
 12 34  1  0
 13 35  1  0
 13 36  1  0
 16 37  1  0
 19 38  1  0
 20 39  1  0
 20 40  1  0
 21 41  1  0
 21 42  1  0
 22 43  1  0
 22 44  1  0
 23 45  1  0
 23 46  1  0
 24 47  1  0
 24 48  1  0
A    1
 C1 
A    2
 C2 
A    3
 C3 
A    4
 C4 
A    5
 C5 
A    6
 O1 
A    7
 O2 
A    8
 C6 
A    9
 C7 
A   10
 C8 
A   11
 C9 
A   12
 C10
A   13
 C11
A   14
 N1 
A   15
 N2 
A   16
 C12
A   17
 N3 
A   18
 N4 
A   19
 C13
A   20
 C14
A   21
 C15
A   22
 C16
A   23
 C17
A   24
 C18
A   25
 H1 
A   26
 H2 
A   27
 H3 
A   28
 H4 
A   29
 H5 
A   30
 H6 
A   31
 H7 
A   32
 H8 
A   33
 H9 
A   34
 H10
A   35
 H11
A   36
 H12
A   37
 H13
A   38
 H14
A   39
 H15
A   40
 H16
A   41
 H17
A   42
 H18
A   43
 H19
A   44
 H20
A   45
 H21
A   46
 H22
A   47
 H23
A   48
 H24
M  END
>  <ref_pdb>  (12) 
x0051_0B

>  <ref_mols>  (12) 
x0969_1B,x0917_0B

>  <original SMILES>  (12) 
[H]c1nn2c(c1OC(=O)c1nn(C3([H])C([H])([H])C([H])([H])C([H])([H])C([H])([H])C3([H])[H])c(C([H])([H])[H])c1[H])C([H])([H])C([H])([H])C([H])([H])C2([H])[H]

>  <index>  (12) 
11

>  <∆∆G>  (12) 
-6.879139

>  <∆G_bound>  (12) 
-5.73057

>  <∆G_unbound>  (12) 
1.148568

>  <comRMSD>  (12) 
0.613583

>  <N_constrained_atoms>  (12) 
24.0

>  <N_unconstrained_atoms>  (12) 
0.0

>  <runtime>  (12) 
54.409879

>  <LE>  (12) 
0.286631

>  <percent_hybrid>  (12) 
40.0

>  <dist>  (12) 
8.0

>  <ecfp4>  (12) 
0.177778

>  <daylight>  (12) 
0.218085

>  <topodist>  (12) 
1.0

>  <mces>  (12) 
27.0

>  <tdn>  (12) 
1.0

>  <tup>  (12) 
0.0

>  <rdn>  (12) 
0.0

>  <rup>  (12) 
0.0

>  <ldn>  (12) 
0.0

>  <lup>  (12) 
0.0

>  <mut>  (12) 
6.0

>  <maj>  (12) 
6.0

>  <min>  (12) 
0.0

>  <hyb>  (12) 
1.0

>  <sub>  (12) 
0.0

>  <query_index>  (12) 
70.0

>  <max_hit_Tanimoto>  (12) 
0.259707

>  <largest_ring>  (12) 
0

>  <N_interactions_kept>  (12) 
3.0

>  <N_interactions_lost>  (12) 
1.0

>  <interaction_uniqueness_metric>  (12) 
0.207918

>  <ad_hoc_penalty>  (12) 
-41.314873

>  <N_rotatable_bonds>  (12) 
4

>  <N_HA>  (12) 
24

>  <cluster>  (12) 
6206

>  <N_interactions>  (12) 
8

>  <Enamine>  (12) 
1

>  <Mcule>  (12) 
0

>  <N_PAINS>  (12) 
0

>  <UFF_Gibbs>  (12) 
156.974533

>  <strain_per_HA>  (12) 
6.540606

>  <saltbridge:HIS:51>  (12) 
1

>  <pistack:HIS:51>  (12) 
1

>  <hydroph_interaction:HIS:51>  (12) 
1

>  <hbond:ALA:132>  (12) 
0

>  <hbond:SER:135>  (12) 
0

>  <hydroph_interaction:TYR:150>  (12) 
1

>  <pistack:TYR:161>  (12) 
0

>  <hydroph_interaction:TYR:161>  (12) 
3

>  <hydroph_interaction:ASP:83>  (12) 
0

>  <hbond:TYR:130>  (12) 
0

>  <hydroph_interaction:ALA:132>  (12) 
1

>  <hbond:HIS:51>  (12) 
0

>  <hbond:ASP:129>  (12) 
0

>  <hbond:TYR:150>  (12) 
0

>  <hbond:GLY:151>  (12) 
0

>  <hbond:TYR:161>  (12) 
0

>  <hydroph_interaction:TYR:130>  (12) 
0

>  <hydroph_interaction:PRO:131>  (12) 
0

>  <hydroph_interaction:ASP:129>  (12) 
0

>  <saltbridge:ASP:75>  (12) 
0

>  <saltbridge:ASP:83>  (12) 
0

>  <hydroph_interaction:ASN:152>  (12) 
0

>  <halogenbond:TYR:150>  (12) 
0

>  <hbond:ASP:83>  (12) 
0

>  <hydroph_interaction:VAL:155>  (12) 
0

>  <pication:TYR:161>  (12) 
0

>  <hbond:PRO:131>  (12) 
0

>  <hbond:LEU:128>  (12) 
0

>  <saltbridge:ASP:129>  (12) 
0

>  <hbond:THR:134>  (12) 
0

>  <pication:HIS:51>  (12) 
0

>  <hbond:SER:81>  (12) 
0

>  <hbond:GLY:159>  (12) 
0

>  <hydroph_interaction:PRO:101>  (12) 
0

>  <hydroph_interaction:THR:134>  (12) 
0

>  <hbond:GLY:82>  (12) 
0

>  <hydroph_interaction:GLU:104>  (12) 
0

>  <hydroph_interaction:VAL:36>  (12) 
0

>  <hydroph_interaction:MET:49>  (12) 
0

>  <halogenbond:GLU:104>  (12) 
0

>  <hydroph_interaction:LYS:107>  (12) 
0

$$$$
VATHXGNTTZEGIX-UHFFFAOYSA-N
     RDKit          3D

 42 44  0  0  0  0  0  0  0  0999 V2000
   -7.4720    5.3640  -14.2080 C   0  0  0  0  0  0  0  0  0  0  0  0
   -8.3850    4.9330  -13.2450 N   0  0  0  0  0  0  0  0  0  0  0  0
   -8.9140    5.9040  -12.2830 C   0  0  0  0  0  0  0  0  0  0  0  0
   -8.8900    5.6140  -10.7660 C   0  0  0  0  0  0  0  0  0  0  0  0
   -8.9170    4.4090  -10.0610 C   0  0  0  0  0  0  0  0  0  0  0  0
   -8.8970    4.8450   -8.7450 N   0  0  0  0  0  0  0  0  0  0  0  0
   -8.9330    3.9640   -7.5780 C   0  0  0  0  0  0  0  0  0  0  0  0
   -9.2510    2.6630   -7.9880 C   0  0  0  0  0  0  0  0  0  0  0  0
   -8.6260    2.3200   -9.1870 C   0  0  0  0  0  0  0  0  0  0  0  0
   -8.9590    3.0130  -10.2890 C   0  0  0  0  0  0  0  0  0  0  0  0
   -8.8460    6.1950   -8.5980 N   0  0  0  0  0  0  0  0  0  0  0  0
   -8.8450    6.6680   -9.8580 C   0  0  0  0  0  0  0  0  0  0  0  0
   -6.3830    5.8320  -13.8790 O   0  0  0  0  0  0  0  0  0  0  0  0
   -7.7980    5.2720  -15.7110 C   0  0  0  0  0  0  0  0  0  0  0  0
   -6.6900    5.4850  -16.7150 C   0  0  0  0  0  0  0  0  0  0  0  0
   -6.9080    5.4190  -18.0740 C   0  0  0  0  0  0  0  0  0  0  0  0
   -5.7480    5.6440  -18.9550 C   0  0  0  0  0  0  0  0  0  0  0  0
   -8.1730    5.1490  -18.5530 C   0  0  0  0  0  0  0  0  0  0  0  0
   -9.2330    4.9450  -17.6770 C   0  0  0  0  0  0  0  0  0  0  0  0
  -10.5410    4.6580  -18.3500 C   0  0  0  0  0  0  0  0  0  0  0  0
   -9.0760    5.0020  -16.2590 C   0  0  0  0  0  0  0  0  0  0  0  0
   -8.9810    4.1460  -13.4710 H   0  0  0  0  0  0  0  0  0  0  0  0
   -8.4130    6.8630  -12.4500 H   0  0  0  0  0  0  0  0  0  0  0  0
   -9.9480    6.0620  -12.5930 H   0  0  0  0  0  0  0  0  0  0  0  0
   -9.7470    4.3460   -6.9510 H   0  0  0  0  0  0  0  0  0  0  0  0
   -8.0050    4.1250   -7.0360 H   0  0  0  0  0  0  0  0  0  0  0  0
  -10.3090    2.4180   -7.9450 H   0  0  0  0  0  0  0  0  0  0  0  0
   -8.8230    2.0060   -7.2250 H   0  0  0  0  0  0  0  0  0  0  0  0
   -8.7410    1.2660   -9.3800 H   0  0  0  0  0  0  0  0  0  0  0  0
   -7.5510    2.4590   -9.0320 H   0  0  0  0  0  0  0  0  0  0  0  0
   -8.2810    2.7370  -11.1030 H   0  0  0  0  0  0  0  0  0  0  0  0
   -9.9690    2.7310  -10.5990 H   0  0  0  0  0  0  0  0  0  0  0  0
   -8.8140    7.7340  -10.0380 H   0  0  0  0  0  0  0  0  0  0  0  0
   -5.7140    5.6910  -16.2570 H   0  0  0  0  0  0  0  0  0  0  0  0
   -5.9200    5.1960  -19.9410 H   0  0  0  0  0  0  0  0  0  0  0  0
   -5.5730    6.7130  -19.1060 H   0  0  0  0  0  0  0  0  0  0  0  0
   -4.8510    5.1980  -18.5110 H   0  0  0  0  0  0  0  0  0  0  0  0
   -8.3440    5.0950  -19.6280 H   0  0  0  0  0  0  0  0  0  0  0  0
  -10.3980    3.7500  -18.9070 H   0  0  0  0  0  0  0  0  0  0  0  0
  -11.3270    4.5080  -17.6350 H   0  0  0  0  0  0  0  0  0  0  0  0
  -10.8250    5.4490  -19.0540 H   0  0  0  0  0  0  0  0  0  0  0  0
   -9.9250    4.8380  -15.5980 H   0  0  0  0  0  0  0  0  0  0  0  0
  1  2  1  0
  2  3  1  0
  3  4  1  0
  4  5  2  0
  5  6  1  0
  6  7  1  0
  7  8  1  0
  8  9  1  0
  9 10  1  0
  6 11  1  0
 11 12  2  0
  1 13  2  0
  1 14  1  0
 14 15  2  0
 15 16  1  0
 16 17  1  0
 16 18  2  0
 18 19  1  0
 19 20  1  0
 19 21  2  0
 12  4  1  0
 10  5  1  0
 14 21  1  0
  2 22  1  0
  3 23  1  0
  3 24  1  0
  7 25  1  0
  7 26  1  0
  8 27  1  0
  8 28  1  0
  9 29  1  0
  9 30  1  0
 10 31  1  0
 10 32  1  0
 12 33  1  0
 15 34  1  0
 17 35  1  0
 17 36  1  0
 17 37  1  0
 18 38  1  0
 20 39  1  0
 20 40  1  0
 20 41  1  0
 21 42  1  0
A    1
 C1 
A    2
 N1 
A    3
 C2 
A    4
 C3 
A    5
 C4 
A    6
 N2 
A    7
 C5 
A    8
 C6 
A    9
 C7 
A   10
 C8 
A   11
 N3 
A   12
 C9 
A   13
 O1 
A   14
 C10
A   15
 C11
A   16
 C12
A   17
 C13
A   18
 C14
A   19
 C15
A   20
 C16
A   21
 C17
A   22
 H1 
A   23
 H2 
A   24
 H3 
A   25
 H4 
A   26
 H5 
A   27
 H6 
A   28
 H7 
A   29
 H8 
A   30
 H9 
A   31
 H10
A   32
 H11
A   33
 H12
A   34
 H13
A   35
 H14
A   36
 H15
A   37
 H16
A   38
 H17
A   39
 H18
A   40
 H19
A   41
 H20
A   42
 H21
M  END
>  <ref_pdb>  (13) 
x0051_0B

>  <ref_mols>  (13) 
x0589_0B,x0969_1B

>  <original SMILES>  (13) 
[H]c1nn2c(c1C([H])([H])N([H])C(=O)c1c([H])c(C([H])([H])[H])c([H])c(C([H])([H])[H])c1[H])C([H])([H])C([H])([H])C([H])([H])C2([H])[H]

>  <index>  (13) 
18

>  <∆∆G>  (13) 
-9.224023

>  <∆G_bound>  (13) 
-8.607718

>  <∆G_unbound>  (13) 
0.616305

>  <comRMSD>  (13) 
0.460429

>  <N_constrained_atoms>  (13) 
18.0

>  <N_unconstrained_atoms>  (13) 
3.0

>  <runtime>  (13) 
62.462345

>  <LE>  (13) 
0.439239

>  <percent_hybrid>  (13) 
45.0

>  <dist>  (13) 
5.0

>  <ecfp4>  (13) 
0.367647

>  <daylight>  (13) 
0.313653

>  <topodist>  (13) 
1.0

>  <mces>  (13) 
22.0

>  <tdn>  (13) 
0.0

>  <tup>  (13) 
1.0

>  <rdn>  (13) 
0.0

>  <rup>  (13) 
0.0

>  <ldn>  (13) 
0.0

>  <lup>  (13) 
0.0

>  <mut>  (13) 
4.0

>  <maj>  (13) 
4.0

>  <min>  (13) 
0.0

>  <hyb>  (13) 
0.0

>  <sub>  (13) 
0.0

>  <query_index>  (13) 
379.0

>  <max_hit_Tanimoto>  (13) 
0.358974

>  <largest_ring>  (13) 
0

>  <N_interactions_kept>  (13) 
1.0

>  <N_interactions_lost>  (13) 
1.5

>  <interaction_uniqueness_metric>  (13) 
0.267619

>  <ad_hoc_penalty>  (13) 
-41.262582

>  <N_rotatable_bonds>  (13) 
5

>  <N_HA>  (13) 
21

>  <cluster>  (13) 
505

>  <N_interactions>  (13) 
8

>  <Enamine>  (13) 
0

>  <Mcule>  (13) 
1

>  <N_PAINS>  (13) 
0

>  <UFF_Gibbs>  (13) 
88.63764

>  <strain_per_HA>  (13) 
4.22084

>  <saltbridge:HIS:51>  (13) 
0

>  <pistack:HIS:51>  (13) 
1

>  <hydroph_interaction:HIS:51>  (13) 
1

>  <hbond:ALA:132>  (13) 
0

>  <hbond:SER:135>  (13) 
0

>  <hydroph_interaction:TYR:150>  (13) 
1

>  <pistack:TYR:161>  (13) 
1

>  <hydroph_interaction:TYR:161>  (13) 
1

>  <hydroph_interaction:ASP:83>  (13) 
1

>  <hbond:TYR:130>  (13) 
0

>  <hydroph_interaction:ALA:132>  (13) 
0

>  <hbond:HIS:51>  (13) 
0

>  <hbond:ASP:129>  (13) 
0

>  <hbond:TYR:150>  (13) 
0

>  <hbond:GLY:151>  (13) 
1

>  <hbond:TYR:161>  (13) 
1

>  <hydroph_interaction:TYR:130>  (13) 
0

>  <hydroph_interaction:PRO:131>  (13) 
0

>  <hydroph_interaction:ASP:129>  (13) 
0

>  <saltbridge:ASP:75>  (13) 
0

>  <saltbridge:ASP:83>  (13) 
0

>  <hydroph_interaction:ASN:152>  (13) 
0

>  <halogenbond:TYR:150>  (13) 
0

>  <hbond:ASP:83>  (13) 
0

>  <hydroph_interaction:VAL:155>  (13) 
0

>  <pication:TYR:161>  (13) 
0

>  <hbond:PRO:131>  (13) 
0

>  <hbond:LEU:128>  (13) 
0

>  <saltbridge:ASP:129>  (13) 
0

>  <hbond:THR:134>  (13) 
0

>  <pication:HIS:51>  (13) 
0

>  <hbond:SER:81>  (13) 
0

>  <hbond:GLY:159>  (13) 
0

>  <hydroph_interaction:PRO:101>  (13) 
0

>  <hydroph_interaction:THR:134>  (13) 
0

>  <hbond:GLY:82>  (13) 
0

>  <hydroph_interaction:GLU:104>  (13) 
0

>  <hydroph_interaction:VAL:36>  (13) 
0

>  <hydroph_interaction:MET:49>  (13) 
0

>  <halogenbond:GLU:104>  (13) 
0

>  <hydroph_interaction:LYS:107>  (13) 
0

$$$$
AMHIQTJALDKTAO-UHFFFAOYSA-N
     RDKit          3D

 43 46  0  0  0  0  0  0  0  0999 V2000
   -8.8130    5.9910  -12.5430 C   0  0  0  0  0  0  0  0  0  0  0  0
   -8.3610    5.0960  -13.5410 N   0  0  0  0  0  0  0  0  0  0  0  0
   -7.8280    5.4840  -14.8180 C   0  0  0  0  0  0  0  0  0  0  0  0
   -8.4700    5.2130  -16.1260 C   0  0  0  0  0  0  0  0  0  0  0  0
   -7.5540    5.3290  -17.2300 C   0  0  0  0  0  0  0  0  0  0  0  0
   -7.9420    5.1250  -18.5690 C   0  0  0  0  0  0  0  0  0  0  0  0
   -9.2550    4.8000  -18.8670 C   0  0  0  0  0  0  0  0  0  0  0  0
  -10.1680    4.6780  -17.8420 C   0  0  0  0  0  0  0  0  0  0  0  0
   -9.7830    4.8760  -16.5010 C   0  0  0  0  0  0  0  0  0  0  0  0
   -6.0890    5.6750  -17.1330 C   0  0  0  0  0  0  0  0  0  0  0  0
   -5.5430    5.8380  -15.7360 C   0  0  0  0  0  0  0  0  0  0  0  0
   -6.3740    5.0250  -14.7790 C   0  0  0  0  0  0  0  0  0  0  0  0
   -9.2180    7.1140  -12.8210 O   0  0  0  0  0  0  0  0  0  0  0  0
   -8.8380    5.6520  -11.0790 C   0  0  0  0  0  0  0  0  0  0  0  0
   -8.9410    4.3950  -10.1990 C   0  0  0  0  0  0  0  0  0  0  0  0
   -8.9150    4.8780   -8.8970 N   0  0  0  0  0  0  0  0  0  0  0  0
   -9.0000    4.0870   -7.6700 C   0  0  0  0  0  0  0  0  0  0  0  0
   -9.4160    2.6610   -7.9680 C   0  0  0  0  0  0  0  0  0  0  0  0
   -8.6100    2.1990   -9.1640 C   0  0  0  0  0  0  0  0  0  0  0  0
   -9.0530    2.9330  -10.4210 C   0  0  0  0  0  0  0  0  0  0  0  0
   -8.8060    6.2060   -8.8010 N   0  0  0  0  0  0  0  0  0  0  0  0
   -8.7620    6.6570  -10.0680 C   0  0  0  0  0  0  0  0  0  0  0  0
   -8.7030    4.1470  -13.4970 H   0  0  0  0  0  0  0  0  0  0  0  0
   -7.7670    6.5770  -14.7460 H   0  0  0  0  0  0  0  0  0  0  0  0
   -7.2210    5.2210  -19.3780 H   0  0  0  0  0  0  0  0  0  0  0  0
   -9.5570    4.6450  -19.8980 H   0  0  0  0  0  0  0  0  0  0  0  0
  -11.1980    4.4270  -18.0770 H   0  0  0  0  0  0  0  0  0  0  0  0
  -10.5280    4.7660  -15.7190 H   0  0  0  0  0  0  0  0  0  0  0  0
   -5.5290    4.8840  -17.6470 H   0  0  0  0  0  0  0  0  0  0  0  0
   -5.9040    6.6080  -17.6800 H   0  0  0  0  0  0  0  0  0  0  0  0
   -5.5670    6.8950  -15.4530 H   0  0  0  0  0  0  0  0  0  0  0  0
   -4.4990    5.5110  -15.6820 H   0  0  0  0  0  0  0  0  0  0  0  0
   -5.9680    5.1330  -13.7650 H   0  0  0  0  0  0  0  0  0  0  0  0
   -6.3050    3.9700  -15.0200 H   0  0  0  0  0  0  0  0  0  0  0  0
   -8.0050    4.1130   -7.2090 H   0  0  0  0  0  0  0  0  0  0  0  0
   -9.7180    4.5700   -6.9990 H   0  0  0  0  0  0  0  0  0  0  0  0
   -9.2350    2.0180   -7.1000 H   0  0  0  0  0  0  0  0  0  0  0  0
  -10.4870    2.6120   -8.2000 H   0  0  0  0  0  0  0  0  0  0  0  0
   -8.7180    1.1340   -9.2880 H   0  0  0  0  0  0  0  0  0  0  0  0
   -7.5490    2.3940   -8.9920 H   0  0  0  0  0  0  0  0  0  0  0  0
  -10.0930    2.6700  -10.6450 H   0  0  0  0  0  0  0  0  0  0  0  0
   -8.4340    2.6090  -11.2660 H   0  0  0  0  0  0  0  0  0  0  0  0
   -8.6780    7.7260  -10.2250 H   0  0  0  0  0  0  0  0  0  0  0  0
  1  2  1  0
  2  3  1  0
  3  4  1  0
  4  5  1  0
  5  6  2  0
  6  7  1  0
  7  8  2  0
  8  9  1  0
  5 10  1  0
 10 11  1  0
 11 12  1  0
  1 13  2  0
  1 14  1  0
 14 15  2  0
 15 16  1  0
 16 17  1  0
 17 18  1  0
 18 19  1  0
 19 20  1  0
 16 21  1  0
 21 22  2  0
 12  3  1  0
  9  4  2  0
 22 14  1  0
 20 15  1  0
  2 23  1  0
  3 24  1  0
  6 25  1  0
  7 26  1  0
  8 27  1  0
  9 28  1  0
 10 29  1  0
 10 30  1  0
 11 31  1  0
 11 32  1  0
 12 33  1  0
 12 34  1  0
 17 35  1  0
 17 36  1  0
 18 37  1  0
 18 38  1  0
 19 39  1  0
 19 40  1  0
 20 41  1  0
 20 42  1  0
 22 43  1  0
A    1
 C1 
A    2
 N1 
A    3
 C2 
A    4
 C3 
A    5
 C4 
A    6
 C5 
A    7
 C6 
A    8
 C7 
A    9
 C8 
A   10
 C9 
A   11
 C10
A   12
 C11
A   13
 O1 
A   14
 C12
A   15
 C13
A   16
 N2 
A   17
 C14
A   18
 C15
A   19
 C16
A   20
 C17
A   21
 N3 
A   22
 C18
A   23
 H1 
A   24
 H2 
A   25
 H3 
A   26
 H4 
A   27
 H5 
A   28
 H6 
A   29
 H7 
A   30
 H8 
A   31
 H9 
A   32
 H10
A   33
 H11
A   34
 H12
A   35
 H13
A   36
 H14
A   37
 H15
A   38
 H16
A   39
 H17
A   40
 H18
A   41
 H19
A   42
 H20
A   43
 H21
M  END
>  <ref_pdb>  (14) 
x0051_0B

>  <ref_mols>  (14) 
x0969_1B,x0455_0B

>  <original SMILES>  (14) 
[H]c1nn2c(c1C(=O)N([H])C1([H])c3c([H])c([H])c([H])c([H])c3C([H])([H])C([H])([H])C1([H])[H])C([H])([H])C([H])([H])C([H])([H])C2([H])[H]

>  <index>  (14) 
21

>  <∆∆G>  (14) 
-7.61626

>  <∆G_bound>  (14) 
-6.884062

>  <∆G_unbound>  (14) 
0.732198

>  <comRMSD>  (14) 
0.482566

>  <N_constrained_atoms>  (14) 
20.0

>  <N_unconstrained_atoms>  (14) 
2.0

>  <runtime>  (14) 
47.921671

>  <LE>  (14) 
0.346194

>  <percent_hybrid>  (14) 
50.0

>  <dist>  (14) 
7.0

>  <ecfp4>  (14) 
0.22619

>  <daylight>  (14) 
0.273504

>  <topodist>  (14) 
2.0

>  <mces>  (14) 
24.0

>  <tdn>  (14) 
0.0

>  <tup>  (14) 
1.0

>  <rdn>  (14) 
0.0

>  <rup>  (14) 
0.0

>  <ldn>  (14) 
1.0

>  <lup>  (14) 
0.0

>  <mut>  (14) 
4.0

>  <maj>  (14) 
4.0

>  <min>  (14) 
0.0

>  <hyb>  (14) 
1.0

>  <sub>  (14) 
0.0

>  <query_index>  (14) 
204.0

>  <max_hit_Tanimoto>  (14) 
0.319495

>  <largest_ring>  (14) 
0

>  <N_interactions_kept>  (14) 
1.5

>  <N_interactions_lost>  (14) 
1.0

>  <interaction_uniqueness_metric>  (14) 
0.192849

>  <ad_hoc_penalty>  (14) 
-40.696298

>  <N_rotatable_bonds>  (14) 
2

>  <N_HA>  (14) 
22

>  <cluster>  (14) 
6197

>  <N_interactions>  (14) 
6

>  <Enamine>  (14) 
0

>  <Mcule>  (14) 
1

>  <N_PAINS>  (14) 
0

>  <UFF_Gibbs>  (14) 
73.237115

>  <strain_per_HA>  (14) 
3.32896

>  <saltbridge:HIS:51>  (14) 
0

>  <pistack:HIS:51>  (14) 
1

>  <hydroph_interaction:HIS:51>  (14) 
0

>  <hbond:ALA:132>  (14) 
0

>  <hbond:SER:135>  (14) 
0

>  <hydroph_interaction:TYR:150>  (14) 
1

>  <pistack:TYR:161>  (14) 
1

>  <hydroph_interaction:TYR:161>  (14) 
1

>  <hydroph_interaction:ASP:83>  (14) 
1

>  <hbond:TYR:130>  (14) 
0

>  <hydroph_interaction:ALA:132>  (14) 
0

>  <hbond:HIS:51>  (14) 
0

>  <hbond:ASP:129>  (14) 
0

>  <hbond:TYR:150>  (14) 
0

>  <hbond:GLY:151>  (14) 
0

>  <hbond:TYR:161>  (14) 
1

>  <hydroph_interaction:TYR:130>  (14) 
0

>  <hydroph_interaction:PRO:131>  (14) 
0

>  <hydroph_interaction:ASP:129>  (14) 
0

>  <saltbridge:ASP:75>  (14) 
0

>  <saltbridge:ASP:83>  (14) 
0

>  <hydroph_interaction:ASN:152>  (14) 
0

>  <halogenbond:TYR:150>  (14) 
0

>  <hbond:ASP:83>  (14) 
0

>  <hydroph_interaction:VAL:155>  (14) 
0

>  <pication:TYR:161>  (14) 
0

>  <hbond:PRO:131>  (14) 
0

>  <hbond:LEU:128>  (14) 
0

>  <saltbridge:ASP:129>  (14) 
0

>  <hbond:THR:134>  (14) 
0

>  <pication:HIS:51>  (14) 
0

>  <hbond:SER:81>  (14) 
0

>  <hbond:GLY:159>  (14) 
0

>  <hydroph_interaction:PRO:101>  (14) 
0

>  <hydroph_interaction:THR:134>  (14) 
0

>  <hbond:GLY:82>  (14) 
0

>  <hydroph_interaction:GLU:104>  (14) 
0

>  <hydroph_interaction:VAL:36>  (14) 
0

>  <hydroph_interaction:MET:49>  (14) 
0

>  <halogenbond:GLU:104>  (14) 
0

>  <hydroph_interaction:LYS:107>  (14) 
0

$$$$
ZPEKKWHOKXFCRH-UHFFFAOYSA-N
     RDKit          3D

 46 49  0  0  0  0  0  0  0  0999 V2000
   -8.0440    6.6870  -13.9310 C   0  0  0  0  0  0  0  0  0  0  0  0
   -9.0210    6.0450  -13.1880 N   0  0  0  0  0  0  0  0  0  0  0  0
   -8.7890    5.0610  -12.2120 C   0  0  0  0  0  0  0  0  0  0  0  0
   -8.8160    5.3310  -10.8200 C   0  0  0  0  0  0  0  0  0  0  0  0
   -8.9980    4.2760   -9.8040 C   0  0  0  0  0  0  0  0  0  0  0  0
   -8.9570    4.9240   -8.6330 N   0  0  0  0  0  0  0  0  0  0  0  0
   -9.0860    4.2240   -7.4890 C   0  0  0  0  0  0  0  0  0  0  0  0
   -9.5460    2.9010   -7.4820 C   0  0  0  0  0  0  0  0  0  0  0  0
   -9.5490    2.2570   -8.7120 C   0  0  0  0  0  0  0  0  0  0  0  0
   -9.1760    2.9210   -9.8740 C   0  0  0  0  0  0  0  0  0  0  0  0
   -8.7800    6.2630   -8.7110 N   0  0  0  0  0  0  0  0  0  0  0  0
   -8.6960    6.5110  -10.0390 C   0  0  0  0  0  0  0  0  0  0  0  0
   -7.4810    7.7160  -13.5800 O   0  0  0  0  0  0  0  0  0  0  0  0
   -7.6670    6.0970  -15.2260 C   0  0  0  0  0  0  0  0  0  0  0  0
   -8.3720    5.5440  -16.4690 C   0  0  0  0  0  0  0  0  0  0  0  0
   -7.4200    5.4760  -17.6460 C   0  0  0  0  0  0  0  0  0  0  0  0
   -7.9670    5.0190  -18.8500 C   0  0  0  0  0  0  0  0  0  0  0  0
   -9.3130    4.6400  -18.9680 C   0  0  0  0  0  0  0  0  0  0  0  0
  -10.1970    4.6860  -17.8990 C   0  0  0  0  0  0  0  0  0  0  0  0
   -9.6820    5.1670  -16.5520 C   0  0  0  0  0  0  0  0  0  0  0  0
   -6.0890    5.8600  -17.4940 C   0  0  0  0  0  0  0  0  0  0  0  0
   -5.4290    5.4260  -16.1710 C   0  0  0  0  0  0  0  0  0  0  0  0
   -6.4210    5.2480  -15.0060 C   0  0  0  0  0  0  0  0  0  0  0  0
   -9.9720    6.1330  -13.5140 H   0  0  0  0  0  0  0  0  0  0  0  0
   -7.8190    4.6110  -12.4520 H   0  0  0  0  0  0  0  0  0  0  0  0
   -9.5260    4.2630  -12.3790 H   0  0  0  0  0  0  0  0  0  0  0  0
   -8.0900    4.3640   -7.0570 H   0  0  0  0  0  0  0  0  0  0  0  0
   -9.6970    4.8810   -6.8760 H   0  0  0  0  0  0  0  0  0  0  0  0
  -10.5240    2.8280   -7.0140 H   0  0  0  0  0  0  0  0  0  0  0  0
   -8.9840    2.3230   -6.7610 H   0  0  0  0  0  0  0  0  0  0  0  0
  -10.4510    1.6940   -8.8370 H   0  0  0  0  0  0  0  0  0  0  0  0
   -8.8030    1.4640   -8.5970 H   0  0  0  0  0  0  0  0  0  0  0  0
   -8.2510    2.4810  -10.2550 H   0  0  0  0  0  0  0  0  0  0  0  0
   -9.9340    2.7040  -10.6380 H   0  0  0  0  0  0  0  0  0  0  0  0
   -8.5490    7.5390  -10.3760 H   0  0  0  0  0  0  0  0  0  0  0  0
   -7.2240    7.0030  -15.6570 H   0  0  0  0  0  0  0  0  0  0  0  0
   -7.3340    4.9520  -19.7350 H   0  0  0  0  0  0  0  0  0  0  0  0
   -9.5880    4.3110  -19.9710 H   0  0  0  0  0  0  0  0  0  0  0  0
  -11.2300    4.3870  -18.0260 H   0  0  0  0  0  0  0  0  0  0  0  0
  -10.3950    5.1930  -15.7250 H   0  0  0  0  0  0  0  0  0  0  0  0
   -6.0420    6.9510  -17.5840 H   0  0  0  0  0  0  0  0  0  0  0  0
   -5.4970    5.4520  -18.3210 H   0  0  0  0  0  0  0  0  0  0  0  0
   -4.6880    6.1720  -15.8750 H   0  0  0  0  0  0  0  0  0  0  0  0
   -4.9210    4.4790  -16.3450 H   0  0  0  0  0  0  0  0  0  0  0  0
   -5.9190    5.5050  -14.0660 H   0  0  0  0  0  0  0  0  0  0  0  0
   -6.7140    4.2010  -14.9100 H   0  0  0  0  0  0  0  0  0  0  0  0
  1  2  1  0
  2  3  1  0
  3  4  1  0
  4  5  2  0
  5  6  1  0
  6  7  1  0
  7  8  1  0
  8  9  1  0
  9 10  1  0
  6 11  1  0
 11 12  2  0
  1 13  2  0
  1 14  1  0
 14 15  1  0
 15 16  1  0
 16 17  2  0
 17 18  1  0
 18 19  2  0
 19 20  1  0
 16 21  1  0
 21 22  1  0
 22 23  1  0
 12  4  1  0
 10  5  1  0
 23 14  1  0
 20 15  2  0
  2 24  1  0
  3 25  1  0
  3 26  1  0
  7 27  1  0
  7 28  1  0
  8 29  1  0
  8 30  1  0
  9 31  1  0
  9 32  1  0
 10 33  1  0
 10 34  1  0
 12 35  1  0
 14 36  1  0
 17 37  1  0
 18 38  1  0
 19 39  1  0
 20 40  1  0
 21 41  1  0
 21 42  1  0
 22 43  1  0
 22 44  1  0
 23 45  1  0
 23 46  1  0
A    1
 C1 
A    2
 N1 
A    3
 C2 
A    4
 C3 
A    5
 C4 
A    6
 N2 
A    7
 C5 
A    8
 C6 
A    9
 C7 
A   10
 C8 
A   11
 N3 
A   12
 C9 
A   13
 O1 
A   14
 C10
A   15
 C11
A   16
 C12
A   17
 C13
A   18
 C14
A   19
 C15
A   20
 C16
A   21
 C17
A   22
 C18
A   23
 C19
A   24
 H1 
A   25
 H2 
A   26
 H3 
A   27
 H4 
A   28
 H5 
A   29
 H6 
A   30
 H7 
A   31
 H8 
A   32
 H9 
A   33
 H10
A   34
 H11
A   35
 H12
A   36
 H13
A   37
 H14
A   38
 H15
A   39
 H16
A   40
 H17
A   41
 H18
A   42
 H19
A   43
 H20
A   44
 H21
A   45
 H22
A   46
 H23
M  END
>  <ref_pdb>  (15) 
x0051_0B

>  <ref_mols>  (15) 
x0969_1B,x0455_0B

>  <original SMILES>  (15) 
[H]c1nn2c(c1C([H])([H])N([H])C(=O)C1([H])c3c([H])c([H])c([H])c([H])c3C([H])([H])C([H])([H])C1([H])[H])C([H])([H])C([H])([H])C([H])([H])C2([H])[H]

>  <index>  (15) 
7

>  <∆∆G>  (15) 
-7.004438

>  <∆G_bound>  (15) 
-6.204521

>  <∆G_unbound>  (15) 
0.799917

>  <comRMSD>  (15) 
0.522487

>  <N_constrained_atoms>  (15) 
20.0

>  <N_unconstrained_atoms>  (15) 
3.0

>  <runtime>  (15) 
40.430636

>  <LE>  (15) 
0.304541

>  <percent_hybrid>  (15) 
50.0

>  <dist>  (15) 
6.0

>  <ecfp4>  (15) 
0.26506

>  <daylight>  (15) 
0.261972

>  <topodist>  (15) 
1.0

>  <mces>  (15) 
25.0

>  <tdn>  (15) 
0.0

>  <tup>  (15) 
1.0

>  <rdn>  (15) 
0.0

>  <rup>  (15) 
0.0

>  <ldn>  (15) 
0.0

>  <lup>  (15) 
0.0

>  <mut>  (15) 
4.0

>  <maj>  (15) 
4.0

>  <min>  (15) 
0.0

>  <hyb>  (15) 
1.0

>  <sub>  (15) 
0.0

>  <query_index>  (15) 
204.0

>  <max_hit_Tanimoto>  (15) 
0.328665

>  <largest_ring>  (15) 
0

>  <N_interactions_kept>  (15) 
1.5

>  <N_interactions_lost>  (15) 
1.0

>  <interaction_uniqueness_metric>  (15) 
0.167677

>  <ad_hoc_penalty>  (15) 
-40.459238

>  <N_rotatable_bonds>  (15) 
3

>  <N_HA>  (15) 
23

>  <cluster>  (15) 
6209

>  <N_interactions>  (15) 
8

>  <Enamine>  (15) 
0

>  <Mcule>  (15) 
1

>  <N_PAINS>  (15) 
0

>  <UFF_Gibbs>  (15) 
177.93455

>  <strain_per_HA>  (15) 
7.736285

>  <saltbridge:HIS:51>  (15) 
0

>  <pistack:HIS:51>  (15) 
2

>  <hydroph_interaction:HIS:51>  (15) 
0

>  <hbond:ALA:132>  (15) 
0

>  <hbond:SER:135>  (15) 
0

>  <hydroph_interaction:TYR:150>  (15) 
1

>  <pistack:TYR:161>  (15) 
0

>  <hydroph_interaction:TYR:161>  (15) 
3

>  <hydroph_interaction:ASP:83>  (15) 
0

>  <hbond:TYR:130>  (15) 
0

>  <hydroph_interaction:ALA:132>  (15) 
1

>  <hbond:HIS:51>  (15) 
1

>  <hbond:ASP:129>  (15) 
0

>  <hbond:TYR:150>  (15) 
0

>  <hbond:GLY:151>  (15) 
0

>  <hbond:TYR:161>  (15) 
0

>  <hydroph_interaction:TYR:130>  (15) 
0

>  <hydroph_interaction:PRO:131>  (15) 
0

>  <hydroph_interaction:ASP:129>  (15) 
0

>  <saltbridge:ASP:75>  (15) 
0

>  <saltbridge:ASP:83>  (15) 
0

>  <hydroph_interaction:ASN:152>  (15) 
0

>  <halogenbond:TYR:150>  (15) 
0

>  <hbond:ASP:83>  (15) 
0

>  <hydroph_interaction:VAL:155>  (15) 
0

>  <pication:TYR:161>  (15) 
0

>  <hbond:PRO:131>  (15) 
0

>  <hbond:LEU:128>  (15) 
0

>  <saltbridge:ASP:129>  (15) 
0

>  <hbond:THR:134>  (15) 
0

>  <pication:HIS:51>  (15) 
0

>  <hbond:SER:81>  (15) 
0

>  <hbond:GLY:159>  (15) 
0

>  <hydroph_interaction:PRO:101>  (15) 
0

>  <hydroph_interaction:THR:134>  (15) 
0

>  <hbond:GLY:82>  (15) 
0

>  <hydroph_interaction:GLU:104>  (15) 
0

>  <hydroph_interaction:VAL:36>  (15) 
0

>  <hydroph_interaction:MET:49>  (15) 
0

>  <halogenbond:GLU:104>  (15) 
0

>  <hydroph_interaction:LYS:107>  (15) 
0

$$$$
BKWOTTUWGUNTRM-UHFFFAOYSA-N
     RDKit          3D

 30 31  0  0  0  0  0  0  0  0999 V2000
   -5.6780    6.2310  -17.0590 N   0  0  0  0  0  0  0  0  0  0  0  0
   -4.3270    5.8230  -17.5440 C   0  0  0  0  0  0  0  0  0  0  0  0
   -3.6590    4.7580  -16.7530 C   0  0  0  0  0  0  0  0  0  0  0  0
   -4.3110    5.4850  -19.0330 C   0  0  0  0  0  0  0  0  0  0  0  0
   -5.8870    6.2380  -15.6000 C   0  0  0  0  0  0  0  0  0  0  0  0
   -7.1830    5.8100  -15.2710 C   0  0  0  0  0  0  0  0  0  0  0  0
   -7.2480    4.8380  -14.2590 C   0  0  0  0  0  0  0  0  0  0  0  0
   -7.8690    5.4680  -16.5200 C   0  0  0  0  0  0  0  0  0  0  0  0
   -6.9700    5.7100  -17.5720 C   0  0  0  0  0  0  0  0  0  0  0  0
   -7.4470    5.4300  -18.9980 C   0  0  0  0  0  0  0  0  0  0  0  0
   -8.8550    4.9140  -19.1010 C   0  0  0  0  0  0  0  0  0  0  0  0
   -9.6390    4.7230  -17.9710 C   0  0  0  0  0  0  0  0  0  0  0  0
   -9.1700    4.9900  -16.6920 C   0  0  0  0  0  0  0  0  0  0  0  0
   -3.6720    6.7000  -17.4810 H   0  0  0  0  0  0  0  0  0  0  0  0
   -3.1660    4.0120  -17.3900 H   0  0  0  0  0  0  0  0  0  0  0  0
   -4.3870    4.2330  -16.1300 H   0  0  0  0  0  0  0  0  0  0  0  0
   -2.9030    5.1690  -16.0780 H   0  0  0  0  0  0  0  0  0  0  0  0
   -3.3870    4.9620  -19.3020 H   0  0  0  0  0  0  0  0  0  0  0  0
   -4.3790    6.4000  -19.6210 H   0  0  0  0  0  0  0  0  0  0  0  0
   -5.1580    4.8540  -19.3230 H   0  0  0  0  0  0  0  0  0  0  0  0
   -5.1760    5.5620  -15.1070 H   0  0  0  0  0  0  0  0  0  0  0  0
   -5.7200    7.2320  -15.1780 H   0  0  0  0  0  0  0  0  0  0  0  0
   -7.7120    6.6860  -14.8840 H   0  0  0  0  0  0  0  0  0  0  0  0
   -8.1290    4.1980  -14.3860 H   0  0  0  0  0  0  0  0  0  0  0  0
   -6.3580    4.1980  -14.2830 H   0  0  0  0  0  0  0  0  0  0  0  0
   -7.3140    5.2900  -13.2630 H   0  0  0  0  0  0  0  0  0  0  0  0
   -6.8300    5.5900  -19.8730 H   0  0  0  0  0  0  0  0  0  0  0  0
   -9.2000    4.7130  -20.1190 H   0  0  0  0  0  0  0  0  0  0  0  0
  -10.6350    4.3510  -18.1980 H   0  0  0  0  0  0  0  0  0  0  0  0
   -9.8380    4.8180  -15.8520 H   0  0  0  0  0  0  0  0  0  0  0  0
  1  2  1  0
  2  3  1  0
  2  4  1  0
  1  5  1  0
  5  6  1  0
  6  7  1  0
  6  8  1  0
  8  9  2  0
  9 10  1  0
 10 11  2  0
 11 12  1  0
 12 13  2  0
  9  1  1  0
 13  8  1  0
  2 14  1  0
  3 15  1  0
  3 16  1  0
  3 17  1  0
  4 18  1  0
  4 19  1  0
  4 20  1  0
  5 21  1  0
  5 22  1  0
  6 23  1  0
  7 24  1  0
  7 25  1  0
  7 26  1  0
 10 27  1  0
 11 28  1  0
 12 29  1  0
 13 30  1  0
A    1
 N1 
A    2
 C1 
A    3
 C2 
A    4
 C3 
A    5
 C4 
A    6
 C5 
A    7
 C6 
A    8
 C7 
A    9
 C8 
A   10
 C9 
A   11
 C10
A   12
 C11
A   13
 C12
A   14
 H1 
A   15
 H2 
A   16
 H3 
A   17
 H4 
A   18
 H5 
A   19
 H6 
A   20
 H7 
A   21
 H8 
A   22
 H9 
A   23
 H10
A   24
 H11
A   25
 H12
A   26
 H13
A   27
 H14
A   28
 H15
A   29
 H16
A   30
 H17
M  END
>  <ref_pdb>  (16) 
x0051_0B

>  <ref_mols>  (16) 
x0951_0B,x0472_0B

>  <original SMILES>  (16) 
[H]c1c([H])c([H])c2c(c1[H])N(C([H])(C([H])([H])[H])C([H])([H])[H])C([H])([H])C2([H])C([H])([H])[H]

>  <index>  (16) 
12

>  <∆∆G>  (16) 
-7.96965

>  <∆G_bound>  (16) 
-8.379453

>  <∆G_unbound>  (16) 
-0.409803

>  <comRMSD>  (16) 
0.905391

>  <N_constrained_atoms>  (16) 
16.0

>  <N_unconstrained_atoms>  (16) 
1.0

>  <runtime>  (16) 
20.69987

>  <LE>  (16) 
0.468803

>  <percent_hybrid>  (16) 
34.0

>  <dist>  (16) 
5.0

>  <ecfp4>  (16) 
0.226415

>  <daylight>  (16) 
0.157895

>  <topodist>  (16) 
3.0

>  <mces>  (16) 
14.0

>  <tdn>  (16) 
3.0

>  <tup>  (16) 
0.0

>  <rdn>  (16) 
0.0

>  <rup>  (16) 
0.0

>  <ldn>  (16) 
0.0

>  <lup>  (16) 
0.0

>  <mut>  (16) 
1.0

>  <maj>  (16) 
1.0

>  <min>  (16) 
0.0

>  <hyb>  (16) 
1.0

>  <sub>  (16) 
2.0

>  <query_index>  (16) 
55.0

>  <max_hit_Tanimoto>  (16) 
0.21201

>  <largest_ring>  (16) 
0

>  <N_interactions_kept>  (16) 
3.5

>  <N_interactions_lost>  (16) 
0.0

>  <interaction_uniqueness_metric>  (16) 
0.073924

>  <ad_hoc_penalty>  (16) 
-39.72706

>  <N_rotatable_bonds>  (16) 
4

>  <N_HA>  (16) 
13

>  <cluster>  (16) 
6205

>  <N_interactions>  (16) 
6

>  <Enamine>  (16) 
0

>  <Mcule>  (16) 
1

>  <N_PAINS>  (16) 
0

>  <UFF_Gibbs>  (16) 
85.440934

>  <strain_per_HA>  (16) 
6.57238

>  <saltbridge:HIS:51>  (16) 
0

>  <pistack:HIS:51>  (16) 
0

>  <hydroph_interaction:HIS:51>  (16) 
0

>  <hbond:ALA:132>  (16) 
0

>  <hbond:SER:135>  (16) 
0

>  <hydroph_interaction:TYR:150>  (16) 
0

>  <pistack:TYR:161>  (16) 
0

>  <hydroph_interaction:TYR:161>  (16) 
4

>  <hydroph_interaction:ASP:83>  (16) 
0

>  <hbond:TYR:130>  (16) 
0

>  <hydroph_interaction:ALA:132>  (16) 
1

>  <hbond:HIS:51>  (16) 
0

>  <hbond:ASP:129>  (16) 
0

>  <hbond:TYR:150>  (16) 
0

>  <hbond:GLY:151>  (16) 
0

>  <hbond:TYR:161>  (16) 
0

>  <hydroph_interaction:TYR:130>  (16) 
0

>  <hydroph_interaction:PRO:131>  (16) 
0

>  <hydroph_interaction:ASP:129>  (16) 
0

>  <saltbridge:ASP:75>  (16) 
0

>  <saltbridge:ASP:83>  (16) 
0

>  <hydroph_interaction:ASN:152>  (16) 
0

>  <halogenbond:TYR:150>  (16) 
0

>  <hbond:ASP:83>  (16) 
0

>  <hydroph_interaction:VAL:155>  (16) 
1

>  <pication:TYR:161>  (16) 
0

>  <hbond:PRO:131>  (16) 
0

>  <hbond:LEU:128>  (16) 
0

>  <saltbridge:ASP:129>  (16) 
0

>  <hbond:THR:134>  (16) 
0

>  <pication:HIS:51>  (16) 
0

>  <hbond:SER:81>  (16) 
0

>  <hbond:GLY:159>  (16) 
0

>  <hydroph_interaction:PRO:101>  (16) 
0

>  <hydroph_interaction:THR:134>  (16) 
0

>  <hbond:GLY:82>  (16) 
0

>  <hydroph_interaction:GLU:104>  (16) 
0

>  <hydroph_interaction:VAL:36>  (16) 
0

>  <hydroph_interaction:MET:49>  (16) 
0

>  <halogenbond:GLU:104>  (16) 
0

>  <hydroph_interaction:LYS:107>  (16) 
0

$$$$
Z3205056479
     RDKit          3D

 42 45  0  0  0  0  0  0  0  0999 V2000
   -6.3790    5.1080  -20.5420 C   0  0  0  0  0  0  0  0  0  0  0  0
   -6.4880    5.2560  -19.0690 C   0  0  0  0  0  0  0  0  0  0  0  0
   -5.4180    5.5340  -18.3150 N   0  0  0  0  0  0  0  0  0  0  0  0
   -5.9110    5.5910  -17.0610 N   0  0  0  0  0  0  0  0  0  0  0  0
   -7.2610    5.3600  -16.9730 C   0  0  0  0  0  0  0  0  0  0  0  0
   -8.1770    5.3260  -15.8900 C   0  0  0  0  0  0  0  0  0  0  0  0
   -7.7950    5.5810  -14.4640 C   0  0  0  0  0  0  0  0  0  0  0  0
   -6.7390    6.1530  -14.2210 O   0  0  0  0  0  0  0  0  0  0  0  0
   -8.6950    5.1450  -13.4850 N   0  0  0  0  0  0  0  0  0  0  0  0
   -9.3730    6.0450  -12.5390 C   0  0  0  0  0  0  0  0  0  0  0  0
   -8.9320    5.7380  -11.1390 C   0  0  0  0  0  0  0  0  0  0  0  0
   -8.5720    4.5230  -10.6250 C   0  0  0  0  0  0  0  0  0  0  0  0
   -8.5150    3.1590  -11.2450 C   0  0  0  0  0  0  0  0  0  0  0  0
   -7.7540    2.2010  -10.3540 C   0  0  0  0  0  0  0  0  0  0  0  0
   -8.3240    2.4050   -9.0000 C   0  0  0  0  0  0  0  0  0  0  0  0
   -7.7390    3.7070   -8.4710 C   0  0  0  0  0  0  0  0  0  0  0  0
   -8.2200    4.7540   -9.3230 N   0  0  0  0  0  0  0  0  0  0  0  0
   -8.3490    6.0270   -8.9240 N   0  0  0  0  0  0  0  0  0  0  0  0
   -8.7850    6.6300  -10.0370 C   0  0  0  0  0  0  0  0  0  0  0  0
   -9.5090    5.0450  -16.2060 C   0  0  0  0  0  0  0  0  0  0  0  0
   -9.9150    4.8110  -17.5240 C   0  0  0  0  0  0  0  0  0  0  0  0
   -9.0060    4.8510  -18.5760 C   0  0  0  0  0  0  0  0  0  0  0  0
   -7.6620    5.1310  -18.2930 C   0  0  0  0  0  0  0  0  0  0  0  0
   -7.1850    4.4720  -20.9250 H   0  0  0  0  0  0  0  0  0  0  0  0
   -6.4490    6.0860  -21.0260 H   0  0  0  0  0  0  0  0  0  0  0  0
   -5.4260    4.6600  -20.8350 H   0  0  0  0  0  0  0  0  0  0  0  0
   -5.2660    5.7940  -16.3020 H   0  0  0  0  0  0  0  0  0  0  0  0
   -9.0890    4.2160  -13.5770 H   0  0  0  0  0  0  0  0  0  0  0  0
   -9.0970    7.0670  -12.8150 H   0  0  0  0  0  0  0  0  0  0  0  0
  -10.4600    5.9530  -12.6250 H   0  0  0  0  0  0  0  0  0  0  0  0
   -8.0470    3.1960  -12.2360 H   0  0  0  0  0  0  0  0  0  0  0  0
   -9.5400    2.7900  -11.3820 H   0  0  0  0  0  0  0  0  0  0  0  0
   -6.6930    2.4600  -10.3740 H   0  0  0  0  0  0  0  0  0  0  0  0
   -7.8670    1.1650  -10.6860 H   0  0  0  0  0  0  0  0  0  0  0  0
   -9.3810    2.4580   -9.1760 H   0  0  0  0  0  0  0  0  0  0  0  0
   -8.1390    1.5830   -8.3300 H   0  0  0  0  0  0  0  0  0  0  0  0
   -6.6510    3.6820   -8.5770 H   0  0  0  0  0  0  0  0  0  0  0  0
   -7.9610    3.9370   -7.4400 H   0  0  0  0  0  0  0  0  0  0  0  0
   -8.9740    7.6960  -10.0060 H   0  0  0  0  0  0  0  0  0  0  0  0
  -10.2450    5.0090  -15.4060 H   0  0  0  0  0  0  0  0  0  0  0  0
  -10.9580    4.5970  -17.7390 H   0  0  0  0  0  0  0  0  0  0  0  0
   -9.3340    4.6690  -19.5970 H   0  0  0  0  0  0  0  0  0  0  0  0
  1  2  1  0
  2  3  2  0
  3  4  1  0
  4  5  1  0
  5  6  2  0
  6  7  1  0
  7  8  2  0
  7  9  1  0
  9 10  1  0
 10 11  1  0
 11 12  2  0
 12 13  1  0
 13 14  1  0
 14 15  1  0
 15 16  1  0
 16 17  1  0
 17 18  1  0
 18 19  2  0
  6 20  1  0
 20 21  2  0
 21 22  1  0
 22 23  2  0
 23  2  1  0
 23  5  1  0
 19 11  1  0
 17 12  1  0
  1 24  1  0
  1 25  1  0
  1 26  1  0
  4 27  1  0
  9 28  1  0
 10 29  1  0
 10 30  1  0
 13 31  1  0
 13 32  1  0
 14 33  1  0
 14 34  1  0
 15 35  1  0
 15 36  1  0
 16 37  1  0
 16 38  1  0
 19 39  1  0
 20 40  1  0
 21 41  1  0
 22 42  1  0
A    1
 C1 
A    2
 C2 
A    3
 N1 
A    4
 N2 
A    5
 C3 
A    6
 C4 
A    7
 C5 
A    8
 O1 
A    9
 N3 
A   10
 C6 
A   11
 C7 
A   12
 C8 
A   13
 C9 
A   14
 C10
A   15
 C11
A   16
 C12
A   17
 N4 
A   18
 N5 
A   19
 C13
A   20
 C14
A   21
 C15
A   22
 C16
A   23
 C17
A   24
 H1 
A   25
 H2 
A   26
 H3 
A   27
 H4 
A   28
 H5 
A   29
 H6 
A   30
 H7 
A   31
 H8 
A   32
 H9 
A   33
 H10
A   34
 H11
A   35
 H12
A   36
 H13
A   37
 H14
A   38
 H15
A   39
 H16
A   40
 H17
A   41
 H18
A   42
 H19
M  END
>  <ref_pdb>  (17) 
x0051_0B

>  <ref_mols>  (17) 
x0435_0B,x0969_1B

>  <original SMILES>  (17) 
[H]c1nn2c(c1C([H])([H])N([H])C(=O)c1c([H])c([H])c([H])c3c(C([H])([H])[H])nn([H])c13)C([H])([H])C([H])([H])C([H])([H])C2([H])[H]

>  <index>  (17) 
34

>  <∆∆G>  (17) 
-7.095099

>  <∆G_bound>  (17) 
-5.445786

>  <∆G_unbound>  (17) 
1.649313

>  <comRMSD>  (17) 
0.947262

>  <N_constrained_atoms>  (17) 
20.0

>  <N_unconstrained_atoms>  (17) 
3.0

>  <runtime>  (17) 
33.031139

>  <LE>  (17) 
0.308483

>  <percent_hybrid>  (17) 
50.0

>  <dist>  (17) 
7.0

>  <ecfp4>  (17) 
0.197674

>  <daylight>  (17) 
0.304878

>  <topodist>  (17) 
1.0

>  <mces>  (17) 
25.0

>  <tdn>  (17) 
0.0

>  <tup>  (17) 
1.0

>  <rdn>  (17) 
0.0

>  <rup>  (17) 
0.0

>  <ldn>  (17) 
0.0

>  <lup>  (17) 
0.0

>  <mut>  (17) 
5.0

>  <maj>  (17) 
5.0

>  <min>  (17) 
0.0

>  <hyb>  (17) 
1.0

>  <sub>  (17) 
0.0

>  <query_index>  (17) 
311.0

>  <max_hit_Tanimoto>  (17) 
0.31736

>  <largest_ring>  (17) 
0

>  <N_interactions_kept>  (17) 
2.5

>  <N_interactions_lost>  (17) 
1.0

>  <interaction_uniqueness_metric>  (17) 
0.21864

>  <ad_hoc_penalty>  (17) 
-39.257141

>  <N_rotatable_bonds>  (17) 
4

>  <N_HA>  (17) 
23

>  <cluster>  (17) 
6185

>  <N_interactions>  (17) 
7

>  <Enamine>  (17) 
1

>  <Mcule>  (17) 
0

>  <N_PAINS>  (17) 
0

>  <UFF_Gibbs>  (17) 
51.021346

>  <strain_per_HA>  (17) 
2.218319

>  <saltbridge:HIS:51>  (17) 
0

>  <pistack:HIS:51>  (17) 
1

>  <hydroph_interaction:HIS:51>  (17) 
0

>  <hbond:ALA:132>  (17) 
0

>  <hbond:SER:135>  (17) 
0

>  <hydroph_interaction:TYR:150>  (17) 
0

>  <pistack:TYR:161>  (17) 
1

>  <hydroph_interaction:TYR:161>  (17) 
2

>  <hydroph_interaction:ASP:83>  (17) 
1

>  <hbond:TYR:130>  (17) 
0

>  <hydroph_interaction:ALA:132>  (17) 
0

>  <hbond:HIS:51>  (17) 
0

>  <hbond:ASP:129>  (17) 
0

>  <hbond:TYR:150>  (17) 
0

>  <hbond:GLY:151>  (17) 
1

>  <hbond:TYR:161>  (17) 
1

>  <hydroph_interaction:TYR:130>  (17) 
0

>  <hydroph_interaction:PRO:131>  (17) 
0

>  <hydroph_interaction:ASP:129>  (17) 
0

>  <saltbridge:ASP:75>  (17) 
0

>  <saltbridge:ASP:83>  (17) 
0

>  <hydroph_interaction:ASN:152>  (17) 
0

>  <halogenbond:TYR:150>  (17) 
0

>  <hbond:ASP:83>  (17) 
0

>  <hydroph_interaction:VAL:155>  (17) 
0

>  <pication:TYR:161>  (17) 
0

>  <hbond:PRO:131>  (17) 
0

>  <hbond:LEU:128>  (17) 
0

>  <saltbridge:ASP:129>  (17) 
0

>  <hbond:THR:134>  (17) 
0

>  <pication:HIS:51>  (17) 
0

>  <hbond:SER:81>  (17) 
0

>  <hbond:GLY:159>  (17) 
0

>  <hydroph_interaction:PRO:101>  (17) 
0

>  <hydroph_interaction:THR:134>  (17) 
0

>  <hbond:GLY:82>  (17) 
0

>  <hydroph_interaction:GLU:104>  (17) 
0

>  <hydroph_interaction:VAL:36>  (17) 
0

>  <hydroph_interaction:MET:49>  (17) 
0

>  <halogenbond:GLU:104>  (17) 
0

>  <hydroph_interaction:LYS:107>  (17) 
0

$$$$
CSSB00009826568
     RDKit          3D

 27 28  0  0  0  0  0  0  0  0999 V2000
   -3.3130    4.8180  -16.8640 C   0  0  0  0  0  0  0  0  0  0  0  0
   -4.0950    5.7850  -17.7550 C   0  0  0  0  0  0  0  0  0  0  0  0
   -3.7350    5.5900  -19.2580 C   0  0  0  0  0  0  0  0  0  0  0  0
   -5.5480    5.7080  -17.4900 N   0  0  0  0  0  0  0  0  0  0  0  0
   -6.0490    6.2960  -16.2370 C   0  0  0  0  0  0  0  0  0  0  0  0
   -7.3390    5.6580  -15.7430 C   0  0  0  0  0  0  0  0  0  0  0  0
   -8.1720    5.3470  -16.7770 N   0  0  0  0  0  0  0  0  0  0  0  0
   -9.4890    5.0070  -16.7290 C   0  0  0  0  0  0  0  0  0  0  0  0
   -9.9960    4.7370  -18.1570 C   0  0  0  0  0  0  0  0  0  0  0  0
   -8.8450    4.9650  -18.9040 C   0  0  0  0  0  0  0  0  0  0  0  0
   -7.7590    5.3290  -18.0940 C   0  0  0  0  0  0  0  0  0  0  0  0
   -6.4840    5.6200  -18.5500 C   0  0  0  0  0  0  0  0  0  0  0  0
   -6.2280    5.7830  -19.7410 O   0  0  0  0  0  0  0  0  0  0  0  0
   -2.4510    5.2820  -16.3770 H   0  0  0  0  0  0  0  0  0  0  0  0
   -3.9490    4.4030  -16.0800 H   0  0  0  0  0  0  0  0  0  0  0  0
   -2.9480    4.0050  -17.4980 H   0  0  0  0  0  0  0  0  0  0  0  0
   -3.7830    6.8010  -17.4830 H   0  0  0  0  0  0  0  0  0  0  0  0
   -3.5970    6.5640  -19.7410 H   0  0  0  0  0  0  0  0  0  0  0  0
   -2.8160    4.9990  -19.3710 H   0  0  0  0  0  0  0  0  0  0  0  0
   -4.5370    5.0460  -19.7720 H   0  0  0  0  0  0  0  0  0  0  0  0
   -5.2810    6.1960  -15.4580 H   0  0  0  0  0  0  0  0  0  0  0  0
   -6.1930    7.3630  -16.4350 H   0  0  0  0  0  0  0  0  0  0  0  0
   -7.1530    4.7240  -15.2020 H   0  0  0  0  0  0  0  0  0  0  0  0
   -7.8680    6.3350  -15.0580 H   0  0  0  0  0  0  0  0  0  0  0  0
  -10.1700    4.9070  -15.8760 H   0  0  0  0  0  0  0  0  0  0  0  0
  -10.9870    4.4480  -18.4800 H   0  0  0  0  0  0  0  0  0  0  0  0
   -8.7770    4.8780  -19.9850 H   0  0  0  0  0  0  0  0  0  0  0  0
  1  2  1  0
  2  3  1  0
  2  4  1  0
  4  5  1  0
  5  6  1  0
  6  7  1  0
  7  8  1  0
  8  9  2  0
  9 10  1  0
 10 11  2  0
 11 12  1  0
 12 13  2  0
 12  4  1  0
 11  7  1  0
  1 14  1  0
  1 15  1  0
  1 16  1  0
  2 17  1  0
  3 18  1  0
  3 19  1  0
  3 20  1  0
  5 21  1  0
  5 22  1  0
  6 23  1  0
  6 24  1  0
  8 25  1  0
  9 26  1  0
 10 27  1  0
A    1
 C1 
A    2
 C2 
A    3
 C3 
A    4
 N1 
A    5
 C4 
A    6
 C5 
A    7
 N2 
A    8
 C6 
A    9
 C7 
A   10
 C8 
A   11
 C9 
A   12
 C10
A   13
 O1 
A   14
 H1 
A   15
 H2 
A   16
 H3 
A   17
 H4 
A   18
 H5 
A   19
 H6 
A   20
 H7 
A   21
 H8 
A   22
 H9 
A   23
 H10
A   24
 H11
A   25
 H12
A   26
 H13
A   27
 H14
M  END
>  <ref_pdb>  (18) 
x0051_0B

>  <ref_mols>  (18) 
x0472_0B,x0386_0B

>  <original SMILES>  (18) 
[H]c1c([H])c2n(c1[H])C([H])([H])C([H])([H])N(C([H])(C([H])([H])[H])C([H])([H])[H])C2=O

>  <index>  (18) 
14

>  <∆∆G>  (18) 
-6.791083

>  <∆G_bound>  (18) 
-6.604851

>  <∆G_unbound>  (18) 
0.186232

>  <comRMSD>  (18) 
0.661882

>  <N_constrained_atoms>  (18) 
14.0

>  <N_unconstrained_atoms>  (18) 
0.0

>  <runtime>  (18) 
22.538491

>  <LE>  (18) 
0.485077

>  <percent_hybrid>  (18) 
13.0

>  <dist>  (18) 
5.0

>  <ecfp4>  (18) 
0.137931

>  <daylight>  (18) 
0.170213

>  <topodist>  (18) 
1.0

>  <mces>  (18) 
14.0

>  <tdn>  (18) 
1.0

>  <tup>  (18) 
0.0

>  <rdn>  (18) 
0.0

>  <rup>  (18) 
0.0

>  <ldn>  (18) 
0.0

>  <lup>  (18) 
0.0

>  <mut>  (18) 
3.0

>  <maj>  (18) 
3.0

>  <min>  (18) 
0.0

>  <hyb>  (18) 
1.0

>  <sub>  (18) 
1.0

>  <query_index>  (18) 
75.0

>  <max_hit_Tanimoto>  (18) 
0.213582

>  <largest_ring>  (18) 
0

>  <N_interactions_kept>  (18) 
3.0

>  <N_interactions_lost>  (18) 
0.0

>  <interaction_uniqueness_metric>  (18) 
0.067473

>  <ad_hoc_penalty>  (18) 
-39.119019

>  <N_rotatable_bonds>  (18) 
3

>  <N_HA>  (18) 
13

>  <cluster>  (18) 
6203

>  <N_interactions>  (18) 
6

>  <Enamine>  (18) 
1

>  <Mcule>  (18) 
0

>  <N_PAINS>  (18) 
0

>  <UFF_Gibbs>  (18) 
86.024518

>  <strain_per_HA>  (18) 
6.617271

>  <saltbridge:HIS:51>  (18) 
0

>  <pistack:HIS:51>  (18) 
0

>  <hydroph_interaction:HIS:51>  (18) 
0

>  <hbond:ALA:132>  (18) 
0

>  <hbond:SER:135>  (18) 
0

>  <hydroph_interaction:TYR:150>  (18) 
1

>  <pistack:TYR:161>  (18) 
0

>  <hydroph_interaction:TYR:161>  (18) 
4

>  <hydroph_interaction:ASP:83>  (18) 
0

>  <hbond:TYR:130>  (18) 
0

>  <hydroph_interaction:ALA:132>  (18) 
0

>  <hbond:HIS:51>  (18) 
0

>  <hbond:ASP:129>  (18) 
0

>  <hbond:TYR:150>  (18) 
0

>  <hbond:GLY:151>  (18) 
0

>  <hbond:TYR:161>  (18) 
0

>  <hydroph_interaction:TYR:130>  (18) 
0

>  <hydroph_interaction:PRO:131>  (18) 
0

>  <hydroph_interaction:ASP:129>  (18) 
0

>  <saltbridge:ASP:75>  (18) 
0

>  <saltbridge:ASP:83>  (18) 
0

>  <hydroph_interaction:ASN:152>  (18) 
0

>  <halogenbond:TYR:150>  (18) 
0

>  <hbond:ASP:83>  (18) 
0

>  <hydroph_interaction:VAL:155>  (18) 
1

>  <pication:TYR:161>  (18) 
0

>  <hbond:PRO:131>  (18) 
0

>  <hbond:LEU:128>  (18) 
0

>  <saltbridge:ASP:129>  (18) 
0

>  <hbond:THR:134>  (18) 
0

>  <pication:HIS:51>  (18) 
0

>  <hbond:SER:81>  (18) 
0

>  <hbond:GLY:159>  (18) 
0

>  <hydroph_interaction:PRO:101>  (18) 
0

>  <hydroph_interaction:THR:134>  (18) 
0

>  <hbond:GLY:82>  (18) 
0

>  <hydroph_interaction:GLU:104>  (18) 
0

>  <hydroph_interaction:VAL:36>  (18) 
0

>  <hydroph_interaction:MET:49>  (18) 
0

>  <halogenbond:GLU:104>  (18) 
0

>  <hydroph_interaction:LYS:107>  (18) 
0

$$$$
CSSB00010207089
     RDKit          3D

 41 42  0  0  0  0  0  0  0  0999 V2000
   -2.1430    4.5920  -19.9860 C   0  0  0  0  0  0  0  0  0  0  0  0
   -3.1890    5.3880  -19.1910 C   0  0  0  0  0  0  0  0  0  0  0  0
   -2.7900    6.8710  -19.2030 C   0  0  0  0  0  0  0  0  0  0  0  0
   -3.2710    4.9280  -17.7310 C   0  0  0  0  0  0  0  0  0  0  0  0
   -4.5050    5.3810  -19.8030 O   0  0  0  0  0  0  0  0  0  0  0  0
   -5.5330    5.7460  -19.0110 C   0  0  0  0  0  0  0  0  0  0  0  0
   -5.3740    6.3260  -17.9570 O   0  0  0  0  0  0  0  0  0  0  0  0
   -6.7210    5.3700  -19.5270 N   0  0  0  0  0  0  0  0  0  0  0  0
   -7.8050    5.1600  -18.6790 C   0  0  0  0  0  0  0  0  0  0  0  0
   -9.1010    4.8320  -19.0500 C   0  0  0  0  0  0  0  0  0  0  0  0
  -10.0670    4.6590  -18.0650 C   0  0  0  0  0  0  0  0  0  0  0  0
   -9.7270    4.8110  -16.7130 C   0  0  0  0  0  0  0  0  0  0  0  0
   -8.4350    5.1370  -16.3240 C   0  0  0  0  0  0  0  0  0  0  0  0
   -7.4850    5.3090  -17.3220 C   0  0  0  0  0  0  0  0  0  0  0  0
   -8.0230    5.3120  -14.8730 C   0  0  0  0  0  0  0  0  0  0  0  0
   -7.5780    6.7410  -14.5870 C   0  0  0  0  0  0  0  0  0  0  0  0
   -8.8250    7.3300  -13.9240 C   0  0  0  0  0  0  0  0  0  0  0  0
   -9.1300    6.2850  -12.9750 N   0  0  0  0  0  0  0  0  0  0  0  0
   -9.1020    5.0650  -13.7940 C   0  0  0  0  0  0  0  0  0  0  0  0
   -2.4940    4.3690  -21.0010 H   0  0  0  0  0  0  0  0  0  0  0  0
   -1.1980    5.1320  -20.0830 H   0  0  0  0  0  0  0  0  0  0  0  0
   -1.9070    3.6460  -19.4880 H   0  0  0  0  0  0  0  0  0  0  0  0
   -3.4440    7.4650  -19.8500 H   0  0  0  0  0  0  0  0  0  0  0  0
   -1.7570    6.9930  -19.5490 H   0  0  0  0  0  0  0  0  0  0  0  0
   -2.8280    7.2950  -18.1920 H   0  0  0  0  0  0  0  0  0  0  0  0
   -4.2890    4.6550  -17.4430 H   0  0  0  0  0  0  0  0  0  0  0  0
   -2.6560    4.0410  -17.5770 H   0  0  0  0  0  0  0  0  0  0  0  0
   -2.9340    5.7070  -17.0420 H   0  0  0  0  0  0  0  0  0  0  0  0
   -6.9110    5.7760  -20.4350 H   0  0  0  0  0  0  0  0  0  0  0  0
   -9.3930    4.7060  -20.0890 H   0  0  0  0  0  0  0  0  0  0  0  0
  -11.0860    4.4060  -18.3420 H   0  0  0  0  0  0  0  0  0  0  0  0
  -10.4890    4.6670  -15.9600 H   0  0  0  0  0  0  0  0  0  0  0  0
   -6.4730    5.5620  -17.0310 H   0  0  0  0  0  0  0  0  0  0  0  0
   -7.1840    4.6360  -14.6550 H   0  0  0  0  0  0  0  0  0  0  0  0
   -6.7010    6.7770  -13.9310 H   0  0  0  0  0  0  0  0  0  0  0  0
   -7.3350    7.2950  -15.5010 H   0  0  0  0  0  0  0  0  0  0  0  0
   -9.6470    7.4470  -14.6410 H   0  0  0  0  0  0  0  0  0  0  0  0
   -8.6300    8.2870  -13.4380 H   0  0  0  0  0  0  0  0  0  0  0  0
   -8.4350    6.2390  -12.2350 H   0  0  0  0  0  0  0  0  0  0  0  0
  -10.0810    4.9320  -14.2750 H   0  0  0  0  0  0  0  0  0  0  0  0
   -8.9260    4.1810  -13.1720 H   0  0  0  0  0  0  0  0  0  0  0  0
  1  2  1  0
  2  3  1  0
  2  4  1  0
  2  5  1  0
  5  6  1  0
  6  7  2  0
  6  8  1  0
  8  9  1  0
  9 10  2  0
 10 11  1  0
 11 12  2  0
 12 13  1  0
 13 14  2  0
 13 15  1  0
 15 16  1  0
 16 17  1  0
 17 18  1  0
 18 19  1  0
 14  9  1  0
 19 15  1  0
  1 20  1  0
  1 21  1  0
  1 22  1  0
  3 23  1  0
  3 24  1  0
  3 25  1  0
  4 26  1  0
  4 27  1  0
  4 28  1  0
  8 29  1  0
 10 30  1  0
 11 31  1  0
 12 32  1  0
 14 33  1  0
 15 34  1  0
 16 35  1  0
 16 36  1  0
 17 37  1  0
 17 38  1  0
 18 39  1  0
 19 40  1  0
 19 41  1  0
A    1
 C1 
A    2
 C2 
A    3
 C3 
A    4
 C4 
A    5
 O1 
A    6
 C5 
A    7
 O2 
A    8
 N1 
A    9
 C6 
A   10
 C7 
A   11
 C8 
A   12
 C9 
A   13
 C10
A   14
 C11
A   15
 C12
A   16
 C13
A   17
 C14
A   18
 N2 
A   19
 C15
A   20
 H1 
A   21
 H2 
A   22
 H3 
A   23
 H4 
A   24
 H5 
A   25
 H6 
A   26
 H7 
A   27
 H8 
A   28
 H9 
A   29
 H10
A   30
 H11
A   31
 H12
A   32
 H13
A   33
 H14
A   34
 H15
A   35
 H16
A   36
 H17
A   37
 H18
A   38
 H19
A   39
 H20
A   40
 H21
A   41
 H22
M  END
>  <ref_pdb>  (19) 
x0051_0B

>  <ref_mols>  (19) 
x0089_0B,x0951_0B

>  <original SMILES>  (19) 
[H]c1c([H])c(N([H])C(=O)OC(C([H])([H])[H])(C([H])([H])[H])C([H])([H])[H])c([H])c(C2([H])C([H])([H])N([H])C([H])([H])C2([H])[H])c1[H]

>  <index>  (19) 
1

>  <∆∆G>  (19) 
-7.374585

>  <∆G_bound>  (19) 
-7.025252

>  <∆G_unbound>  (19) 
0.349333

>  <comRMSD>  (19) 
0.694427

>  <N_constrained_atoms>  (19) 
19.0

>  <N_unconstrained_atoms>  (19) 
1.0

>  <runtime>  (19) 
104.235288

>  <LE>  (19) 
0.368729

>  <percent_hybrid>  (19) 
47.0

>  <dist>  (19) 
7.0

>  <ecfp4>  (19) 
0.238806

>  <daylight>  (19) 
0.395522

>  <topodist>  (19) 
3.0

>  <mces>  (19) 
18.0

>  <tdn>  (19) 
0.0

>  <tup>  (19) 
1.0

>  <rdn>  (19) 
0.0

>  <rup>  (19) 
1.0

>  <ldn>  (19) 
1.0

>  <lup>  (19) 
0.0

>  <mut>  (19) 
3.0

>  <maj>  (19) 
3.0

>  <min>  (19) 
0.0

>  <hyb>  (19) 
1.0

>  <sub>  (19) 
3.0

>  <query_index>  (19) 
292.0

>  <max_hit_Tanimoto>  (19) 
0.135572

>  <largest_ring>  (19) 
0

>  <N_interactions_kept>  (19) 
2.0

>  <N_interactions_lost>  (19) 
1.5

>  <interaction_uniqueness_metric>  (19) 
0.187529

>  <ad_hoc_penalty>  (19) 
-38.881193

>  <N_rotatable_bonds>  (19) 
2

>  <N_HA>  (19) 
19

>  <cluster>  (19) 
6215

>  <N_interactions>  (19) 
9

>  <Enamine>  (19) 
1

>  <Mcule>  (19) 
0

>  <N_PAINS>  (19) 
0

>  <UFF_Gibbs>  (19) 
274.145657

>  <strain_per_HA>  (19) 
14.428719

>  <saltbridge:HIS:51>  (19) 
0

>  <pistack:HIS:51>  (19) 
0

>  <hydroph_interaction:HIS:51>  (19) 
0

>  <hbond:ALA:132>  (19) 
0

>  <hbond:SER:135>  (19) 
0

>  <hydroph_interaction:TYR:150>  (19) 
1

>  <pistack:TYR:161>  (19) 
0

>  <hydroph_interaction:TYR:161>  (19) 
4

>  <hydroph_interaction:ASP:83>  (19) 
0

>  <hbond:TYR:130>  (19) 
1

>  <hydroph_interaction:ALA:132>  (19) 
1

>  <hbond:HIS:51>  (19) 
1

>  <hbond:ASP:129>  (19) 
0

>  <hbond:TYR:150>  (19) 
0

>  <hbond:GLY:151>  (19) 
0

>  <hbond:TYR:161>  (19) 
0

>  <hydroph_interaction:TYR:130>  (19) 
0

>  <hydroph_interaction:PRO:131>  (19) 
0

>  <hydroph_interaction:ASP:129>  (19) 
0

>  <saltbridge:ASP:75>  (19) 
0

>  <saltbridge:ASP:83>  (19) 
0

>  <hydroph_interaction:ASN:152>  (19) 
0

>  <halogenbond:TYR:150>  (19) 
0

>  <hbond:ASP:83>  (19) 
0

>  <hydroph_interaction:VAL:155>  (19) 
1

>  <pication:TYR:161>  (19) 
0

>  <hbond:PRO:131>  (19) 
0

>  <hbond:LEU:128>  (19) 
0

>  <saltbridge:ASP:129>  (19) 
0

>  <hbond:THR:134>  (19) 
0

>  <pication:HIS:51>  (19) 
0

>  <hbond:SER:81>  (19) 
0

>  <hbond:GLY:159>  (19) 
0

>  <hydroph_interaction:PRO:101>  (19) 
0

>  <hydroph_interaction:THR:134>  (19) 
0

>  <hbond:GLY:82>  (19) 
0

>  <hydroph_interaction:GLU:104>  (19) 
0

>  <hydroph_interaction:VAL:36>  (19) 
0

>  <hydroph_interaction:MET:49>  (19) 
0

>  <halogenbond:GLU:104>  (19) 
0

>  <hydroph_interaction:LYS:107>  (19) 
0

$$$$
Z2937864202
     RDKit          3D

 45 48  0  0  0  0  0  0  0  0999 V2000
   -7.7680    7.7190  -14.8290 O   0  0  0  0  0  0  0  0  0  0  0  0
   -8.0630    6.6680  -14.2770 C   0  0  0  0  0  0  0  0  0  0  0  0
   -8.5990    6.6110  -12.9660 N   0  0  0  0  0  0  0  0  0  0  0  0
   -8.8110    5.3410  -12.3150 C   0  0  0  0  0  0  0  0  0  0  0  0
   -8.8350    5.5020  -10.7840 C   0  0  0  0  0  0  0  0  0  0  0  0
   -8.9600    4.4100   -9.8250 C   0  0  0  0  0  0  0  0  0  0  0  0
   -9.0910    2.8920  -10.0560 C   0  0  0  0  0  0  0  0  0  0  0  0
   -8.7360    2.1820   -8.7860 C   0  0  0  0  0  0  0  0  0  0  0  0
   -9.3210    2.7150   -7.6640 C   0  0  0  0  0  0  0  0  0  0  0  0
   -9.0520    4.2150   -7.4090 C   0  0  0  0  0  0  0  0  0  0  0  0
   -8.9450    4.9560   -8.6150 N   0  0  0  0  0  0  0  0  0  0  0  0
   -8.8150    6.3100   -8.6990 N   0  0  0  0  0  0  0  0  0  0  0  0
   -8.7570    6.6060   -9.8730 C   0  0  0  0  0  0  0  0  0  0  0  0
   -7.8120    5.3180  -14.9800 C   0  0  0  0  0  0  0  0  0  0  0  0
   -6.4210    5.1050  -14.9190 C   0  0  0  0  0  0  0  0  0  0  0  0
   -5.4990    5.6130  -16.0440 C   0  0  0  0  0  0  0  0  0  0  0  0
   -6.1080    5.5880  -17.3550 N   0  0  0  0  0  0  0  0  0  0  0  0
   -7.4430    5.2980  -17.5290 C   0  0  0  0  0  0  0  0  0  0  0  0
   -7.9600    5.1230  -18.9630 C   0  0  0  0  0  0  0  0  0  0  0  0
   -9.3000    4.8370  -19.1260 C   0  0  0  0  0  0  0  0  0  0  0  0
  -10.2200    4.7050  -17.9260 C   0  0  0  0  0  0  0  0  0  0  0  0
   -9.6830    4.8730  -16.6370 C   0  0  0  0  0  0  0  0  0  0  0  0
   -8.3210    5.1630  -16.4270 C   0  0  0  0  0  0  0  0  0  0  0  0
   -9.1120    7.4180  -12.6200 H   0  0  0  0  0  0  0  0  0  0  0  0
   -9.6810    4.8790  -12.7820 H   0  0  0  0  0  0  0  0  0  0  0  0
   -7.9590    4.7100  -12.5910 H   0  0  0  0  0  0  0  0  0  0  0  0
   -8.4130    2.5860  -10.8640 H   0  0  0  0  0  0  0  0  0  0  0  0
  -10.1120    2.6400  -10.3560 H   0  0  0  0  0  0  0  0  0  0  0  0
   -9.0300    1.1450   -8.8520 H   0  0  0  0  0  0  0  0  0  0  0  0
   -7.6610    2.1710   -8.6310 H   0  0  0  0  0  0  0  0  0  0  0  0
   -8.9790    2.1490   -6.7950 H   0  0  0  0  0  0  0  0  0  0  0  0
  -10.4050    2.5530   -7.7280 H   0  0  0  0  0  0  0  0  0  0  0  0
   -8.1210    4.3410   -6.8500 H   0  0  0  0  0  0  0  0  0  0  0  0
   -9.8720    4.6620   -6.8360 H   0  0  0  0  0  0  0  0  0  0  0  0
   -8.6550    7.6550  -10.1240 H   0  0  0  0  0  0  0  0  0  0  0  0
   -8.4290    4.6240  -14.4150 H   0  0  0  0  0  0  0  0  0  0  0  0
   -6.2280    4.0460  -14.7520 H   0  0  0  0  0  0  0  0  0  0  0  0
   -6.0770    5.5970  -13.9980 H   0  0  0  0  0  0  0  0  0  0  0  0
   -4.5980    4.9850  -16.0690 H   0  0  0  0  0  0  0  0  0  0  0  0
   -5.1430    6.6260  -15.8450 H   0  0  0  0  0  0  0  0  0  0  0  0
   -5.4990    5.3690  -18.1380 H   0  0  0  0  0  0  0  0  0  0  0  0
   -7.3720    5.2030  -19.8830 H   0  0  0  0  0  0  0  0  0  0  0  0
   -9.5990    4.7290  -20.1730 H   0  0  0  0  0  0  0  0  0  0  0  0
  -11.2750    4.4850  -18.0670 H   0  0  0  0  0  0  0  0  0  0  0  0
  -10.3410    4.7730  -15.7770 H   0  0  0  0  0  0  0  0  0  0  0  0
  1  2  2  0
  2  3  1  0
  3  4  1  0
  4  5  1  0
  5  6  2  0
  6  7  1  0
  7  8  1  0
  8  9  1  0
  9 10  1  0
 10 11  1  0
 11 12  1  0
 12 13  2  0
  2 14  1  0
 14 15  1  0
 15 16  1  0
 16 17  1  0
 17 18  1  0
 18 19  2  0
 19 20  1  0
 20 21  2  0
 21 22  1  0
 22 23  2  0
 13  5  1  0
 11  6  1  0
 23 14  1  0
 23 18  1  0
  3 24  1  0
  4 25  1  0
  4 26  1  0
  7 27  1  0
  7 28  1  0
  8 29  1  0
  8 30  1  0
  9 31  1  0
  9 32  1  0
 10 33  1  0
 10 34  1  0
 13 35  1  0
 14 36  1  0
 15 37  1  0
 15 38  1  0
 16 39  1  0
 16 40  1  0
 17 41  1  0
 19 42  1  0
 20 43  1  0
 21 44  1  0
 22 45  1  0
A    1
 O1 
A    2
 C1 
A    3
 N1 
A    4
 C2 
A    5
 C3 
A    6
 C4 
A    7
 C5 
A    8
 C6 
A    9
 C7 
A   10
 C8 
A   11
 N2 
A   12
 N3 
A   13
 C9 
A   14
 C10
A   15
 C11
A   16
 C12
A   17
 N4 
A   18
 C13
A   19
 C14
A   20
 C15
A   21
 C16
A   22
 C17
A   23
 C18
A   24
 H1 
A   25
 H2 
A   26
 H3 
A   27
 H4 
A   28
 H5 
A   29
 H6 
A   30
 H7 
A   31
 H8 
A   32
 H9 
A   33
 H10
A   34
 H11
A   35
 H12
A   36
 H13
A   37
 H14
A   38
 H15
A   39
 H16
A   40
 H17
A   41
 H18
A   42
 H19
A   43
 H20
A   44
 H21
A   45
 H22
M  END
>  <ref_pdb>  (20) 
x0051_0B

>  <ref_mols>  (20) 
x0969_1B,x0455_0B

>  <original SMILES>  (20) 
[H]c1nn2c(c1C([H])([H])N([H])C(=O)C1([H])c3c([H])c([H])c([H])c([H])c3N([H])C([H])([H])C1([H])[H])C([H])([H])C([H])([H])C([H])([H])C2([H])[H]

>  <index>  (20) 
20

>  <∆∆G>  (20) 
-8.9751

>  <∆G_bound>  (20) 
-7.193784

>  <∆G_unbound>  (20) 
1.781315

>  <comRMSD>  (20) 
0.358035

>  <N_constrained_atoms>  (20) 
20.0

>  <N_unconstrained_atoms>  (20) 
3.0

>  <runtime>  (20) 
43.239729

>  <LE>  (20) 
0.390222

>  <percent_hybrid>  (20) 
50.0

>  <dist>  (20) 
5.0

>  <ecfp4>  (20) 
0.358974

>  <daylight>  (20) 
0.318436

>  <topodist>  (20) 
1.0

>  <mces>  (20) 
25.0

>  <tdn>  (20) 
0.0

>  <tup>  (20) 
1.0

>  <rdn>  (20) 
0.0

>  <rup>  (20) 
0.0

>  <ldn>  (20) 
0.0

>  <lup>  (20) 
0.0

>  <mut>  (20) 
3.0

>  <maj>  (20) 
3.0

>  <min>  (20) 
0.0

>  <hyb>  (20) 
1.0

>  <sub>  (20) 
0.0

>  <query_index>  (20) 
204.0

>  <max_hit_Tanimoto>  (20) 
0.320738

>  <largest_ring>  (20) 
0

>  <N_interactions_kept>  (20) 
1.5

>  <N_interactions_lost>  (20) 
1.0

>  <interaction_uniqueness_metric>  (20) 
0.144425

>  <ad_hoc_penalty>  (20) 
-38.842971

>  <N_rotatable_bonds>  (20) 
3

>  <N_HA>  (20) 
23

>  <cluster>  (20) 
6198

>  <N_interactions>  (20) 
6

>  <Enamine>  (20) 
1

>  <Mcule>  (20) 
0

>  <N_PAINS>  (20) 
0

>  <UFF_Gibbs>  (20) 
110.205988

>  <strain_per_HA>  (20) 
4.791565

>  <saltbridge:HIS:51>  (20) 
0

>  <pistack:HIS:51>  (20) 
1

>  <hydroph_interaction:HIS:51>  (20) 
0

>  <hbond:ALA:132>  (20) 
0

>  <hbond:SER:135>  (20) 
0

>  <hydroph_interaction:TYR:150>  (20) 
1

>  <pistack:TYR:161>  (20) 
0

>  <hydroph_interaction:TYR:161>  (20) 
3

>  <hydroph_interaction:ASP:83>  (20) 
1

>  <hbond:TYR:130>  (20) 
0

>  <hydroph_interaction:ALA:132>  (20) 
0

>  <hbond:HIS:51>  (20) 
0

>  <hbond:ASP:129>  (20) 
0

>  <hbond:TYR:150>  (20) 
0

>  <hbond:GLY:151>  (20) 
0

>  <hbond:TYR:161>  (20) 
0

>  <hydroph_interaction:TYR:130>  (20) 
0

>  <hydroph_interaction:PRO:131>  (20) 
0

>  <hydroph_interaction:ASP:129>  (20) 
0

>  <saltbridge:ASP:75>  (20) 
0

>  <saltbridge:ASP:83>  (20) 
0

>  <hydroph_interaction:ASN:152>  (20) 
0

>  <halogenbond:TYR:150>  (20) 
0

>  <hbond:ASP:83>  (20) 
0

>  <hydroph_interaction:VAL:155>  (20) 
0

>  <pication:TYR:161>  (20) 
0

>  <hbond:PRO:131>  (20) 
0

>  <hbond:LEU:128>  (20) 
0

>  <saltbridge:ASP:129>  (20) 
0

>  <hbond:THR:134>  (20) 
0

>  <pication:HIS:51>  (20) 
0

>  <hbond:SER:81>  (20) 
0

>  <hbond:GLY:159>  (20) 
0

>  <hydroph_interaction:PRO:101>  (20) 
0

>  <hydroph_interaction:THR:134>  (20) 
0

>  <hbond:GLY:82>  (20) 
0

>  <hydroph_interaction:GLU:104>  (20) 
0

>  <hydroph_interaction:VAL:36>  (20) 
0

>  <hydroph_interaction:MET:49>  (20) 
0

>  <halogenbond:GLU:104>  (20) 
0

>  <hydroph_interaction:LYS:107>  (20) 
0

$$$$
Z1694214906
     RDKit          3D

 43 46  0  0  0  0  0  0  0  0999 V2000
   -9.3320    6.9340  -12.4630 O   0  0  0  0  0  0  0  0  0  0  0  0
   -8.7300    6.0080  -11.9280 C   0  0  0  0  0  0  0  0  0  0  0  0
   -7.9290    5.1430  -12.6110 O   0  0  0  0  0  0  0  0  0  0  0  0
   -8.4640    4.6990  -13.8760 C   0  0  0  0  0  0  0  0  0  0  0  0
   -7.7610    5.4360  -15.0280 C   0  0  0  0  0  0  0  0  0  0  0  0
   -6.2310    5.2350  -15.0490 C   0  0  0  0  0  0  0  0  0  0  0  0
   -5.6280    6.0280  -16.2480 C   0  0  0  0  0  0  0  0  0  0  0  0
   -6.1150    5.5500  -17.4980 O   0  0  0  0  0  0  0  0  0  0  0  0
   -7.4560    5.2820  -17.5470 C   0  0  0  0  0  0  0  0  0  0  0  0
   -8.0040    5.0640  -18.9360 C   0  0  0  0  0  0  0  0  0  0  0  0
   -9.3450    4.7860  -19.0980 C   0  0  0  0  0  0  0  0  0  0  0  0
  -10.1680    4.7110  -17.9790 C   0  0  0  0  0  0  0  0  0  0  0  0
   -9.6610    4.9130  -16.6820 C   0  0  0  0  0  0  0  0  0  0  0  0
   -8.3070    5.2030  -16.4350 C   0  0  0  0  0  0  0  0  0  0  0  0
   -8.7990    5.7500  -10.4960 C   0  0  0  0  0  0  0  0  0  0  0  0
   -8.9270    4.5440   -9.8120 C   0  0  0  0  0  0  0  0  0  0  0  0
   -9.0280    3.1220  -10.2420 C   0  0  0  0  0  0  0  0  0  0  0  0
   -8.6300    2.2370   -9.0730 C   0  0  0  0  0  0  0  0  0  0  0  0
   -9.4890    2.5550   -7.8620 C   0  0  0  0  0  0  0  0  0  0  0  0
   -9.0970    3.9370   -7.3600 C   0  0  0  0  0  0  0  0  0  0  0  0
   -8.9570    4.8720   -8.4720 N   0  0  0  0  0  0  0  0  0  0  0  0
   -8.8470    6.1820   -8.2350 N   0  0  0  0  0  0  0  0  0  0  0  0
   -8.7540    6.7100   -9.4580 C   0  0  0  0  0  0  0  0  0  0  0  0
   -9.5460    4.8800  -13.8870 H   0  0  0  0  0  0  0  0  0  0  0  0
   -8.2850    3.6270  -13.9520 H   0  0  0  0  0  0  0  0  0  0  0  0
   -7.9100    6.5080  -14.8390 H   0  0  0  0  0  0  0  0  0  0  0  0
   -5.9910    4.1740  -15.1610 H   0  0  0  0  0  0  0  0  0  0  0  0
   -5.7850    5.5770  -14.1110 H   0  0  0  0  0  0  0  0  0  0  0  0
   -5.9160    7.0800  -16.1710 H   0  0  0  0  0  0  0  0  0  0  0  0
   -4.5310    5.9890  -16.2500 H   0  0  0  0  0  0  0  0  0  0  0  0
   -7.3520    5.1250  -19.8040 H   0  0  0  0  0  0  0  0  0  0  0  0
   -9.7390    4.6330  -20.0920 H   0  0  0  0  0  0  0  0  0  0  0  0
  -11.2240    4.4950  -18.1170 H   0  0  0  0  0  0  0  0  0  0  0  0
  -10.3520    4.8400  -15.8490 H   0  0  0  0  0  0  0  0  0  0  0  0
   -8.3750    2.9170  -11.0970 H   0  0  0  0  0  0  0  0  0  0  0  0
  -10.0550    2.8940  -10.5450 H   0  0  0  0  0  0  0  0  0  0  0  0
   -8.7210    1.1920   -9.3380 H   0  0  0  0  0  0  0  0  0  0  0  0
   -7.5770    2.4100   -8.8350 H   0  0  0  0  0  0  0  0  0  0  0  0
   -9.3440    1.8120   -7.0760 H   0  0  0  0  0  0  0  0  0  0  0  0
  -10.5490    2.5400   -8.1430 H   0  0  0  0  0  0  0  0  0  0  0  0
   -8.1270    3.9040   -6.8490 H   0  0  0  0  0  0  0  0  0  0  0  0
   -9.8520    4.3270   -6.6700 H   0  0  0  0  0  0  0  0  0  0  0  0
   -8.6580    7.7850   -9.5490 H   0  0  0  0  0  0  0  0  0  0  0  0
  1  2  2  0
  2  3  1  0
  3  4  1  0
  4  5  1  0
  5  6  1  0
  6  7  1  0
  7  8  1  0
  8  9  1  0
  9 10  2  0
 10 11  1  0
 11 12  2  0
 12 13  1  0
 13 14  2  0
  2 15  1  0
 15 16  2  0
 16 17  1  0
 17 18  1  0
 18 19  1  0
 19 20  1  0
 20 21  1  0
 21 22  1  0
 22 23  2  0
 14  5  1  0
 14  9  1  0
 23 15  1  0
 21 16  1  0
  4 24  1  0
  4 25  1  0
  5 26  1  0
  6 27  1  0
  6 28  1  0
  7 29  1  0
  7 30  1  0
 10 31  1  0
 11 32  1  0
 12 33  1  0
 13 34  1  0
 17 35  1  0
 17 36  1  0
 18 37  1  0
 18 38  1  0
 19 39  1  0
 19 40  1  0
 20 41  1  0
 20 42  1  0
 23 43  1  0
A    1
 O1 
A    2
 C1 
A    3
 O2 
A    4
 C2 
A    5
 C3 
A    6
 C4 
A    7
 C5 
A    8
 O3 
A    9
 C6 
A   10
 C7 
A   11
 C8 
A   12
 C9 
A   13
 C10
A   14
 C11
A   15
 C12
A   16
 C13
A   17
 C14
A   18
 C15
A   19
 C16
A   20
 C17
A   21
 N1 
A   22
 N2 
A   23
 C18
A   24
 H1 
A   25
 H2 
A   26
 H3 
A   27
 H4 
A   28
 H5 
A   29
 H6 
A   30
 H7 
A   31
 H8 
A   32
 H9 
A   33
 H10
A   34
 H11
A   35
 H12
A   36
 H13
A   37
 H14
A   38
 H15
A   39
 H16
A   40
 H17
A   41
 H18
A   42
 H19
A   43
 H20
M  END
>  <ref_pdb>  (21) 
x0051_0B

>  <ref_mols>  (21) 
x0969_1B,x0455_0B

>  <original SMILES>  (21) 
[H]c1nn2c(c1C(=O)OC([H])([H])C1([H])c3c([H])c([H])c([H])c([H])c3OC([H])([H])C1([H])[H])C([H])([H])C([H])([H])C([H])([H])C2([H])[H]

>  <index>  (21) 
39

>  <∆∆G>  (21) 
-7.311732

>  <∆G_bound>  (21) 
-6.679815

>  <∆G_unbound>  (21) 
0.631917

>  <comRMSD>  (21) 
0.318446

>  <N_constrained_atoms>  (21) 
20.0

>  <N_unconstrained_atoms>  (21) 
3.0

>  <runtime>  (21) 
58.583165

>  <LE>  (21) 
0.317901

>  <percent_hybrid>  (21) 
50.0

>  <dist>  (21) 
5.0

>  <ecfp4>  (21) 
0.277108

>  <daylight>  (21) 
0.345714

>  <topodist>  (21) 
1.0

>  <mces>  (21) 
25.0

>  <tdn>  (21) 
0.0

>  <tup>  (21) 
1.0

>  <rdn>  (21) 
0.0

>  <rup>  (21) 
0.0

>  <ldn>  (21) 
0.0

>  <lup>  (21) 
0.0

>  <mut>  (21) 
3.0

>  <maj>  (21) 
3.0

>  <min>  (21) 
0.0

>  <hyb>  (21) 
1.0

>  <sub>  (21) 
0.0

>  <query_index>  (21) 
204.0

>  <max_hit_Tanimoto>  (21) 
0.294764

>  <largest_ring>  (21) 
0

>  <N_interactions_kept>  (21) 
1.0

>  <N_interactions_lost>  (21) 
1.5

>  <interaction_uniqueness_metric>  (21) 
0.241738

>  <ad_hoc_penalty>  (21) 
-38.713967

>  <N_rotatable_bonds>  (21) 
3

>  <N_HA>  (21) 
23

>  <cluster>  (21) 
6180

>  <N_interactions>  (21) 
7

>  <Enamine>  (21) 
1

>  <Mcule>  (21) 
0

>  <N_PAINS>  (21) 
0

>  <UFF_Gibbs>  (21) 
42.567303

>  <strain_per_HA>  (21) 
1.850752

>  <saltbridge:HIS:51>  (21) 
1

>  <pistack:HIS:51>  (21) 
0

>  <hydroph_interaction:HIS:51>  (21) 
1

>  <hbond:ALA:132>  (21) 
0

>  <hbond:SER:135>  (21) 
0

>  <hydroph_interaction:TYR:150>  (21) 
1

>  <pistack:TYR:161>  (21) 
0

>  <hydroph_interaction:TYR:161>  (21) 
3

>  <hydroph_interaction:ASP:83>  (21) 
1

>  <hbond:TYR:130>  (21) 
0

>  <hydroph_interaction:ALA:132>  (21) 
0

>  <hbond:HIS:51>  (21) 
0

>  <hbond:ASP:129>  (21) 
0

>  <hbond:TYR:150>  (21) 
0

>  <hbond:GLY:151>  (21) 
0

>  <hbond:TYR:161>  (21) 
0

>  <hydroph_interaction:TYR:130>  (21) 
0

>  <hydroph_interaction:PRO:131>  (21) 
0

>  <hydroph_interaction:ASP:129>  (21) 
0

>  <saltbridge:ASP:75>  (21) 
0

>  <saltbridge:ASP:83>  (21) 
0

>  <hydroph_interaction:ASN:152>  (21) 
0

>  <halogenbond:TYR:150>  (21) 
0

>  <hbond:ASP:83>  (21) 
0

>  <hydroph_interaction:VAL:155>  (21) 
0

>  <pication:TYR:161>  (21) 
0

>  <hbond:PRO:131>  (21) 
0

>  <hbond:LEU:128>  (21) 
0

>  <saltbridge:ASP:129>  (21) 
0

>  <hbond:THR:134>  (21) 
0

>  <pication:HIS:51>  (21) 
0

>  <hbond:SER:81>  (21) 
0

>  <hbond:GLY:159>  (21) 
0

>  <hydroph_interaction:PRO:101>  (21) 
0

>  <hydroph_interaction:THR:134>  (21) 
0

>  <hbond:GLY:82>  (21) 
0

>  <hydroph_interaction:GLU:104>  (21) 
0

>  <hydroph_interaction:VAL:36>  (21) 
0

>  <hydroph_interaction:MET:49>  (21) 
0

>  <halogenbond:GLU:104>  (21) 
0

>  <hydroph_interaction:LYS:107>  (21) 
0

$$$$
Z1494818160
     RDKit          3D

 45 48  0  0  0  0  0  0  0  0999 V2000
   -8.6470    7.2350  -12.2810 O   0  0  0  0  0  0  0  0  0  0  0  0
   -8.6220    6.0690  -11.8990 C   0  0  0  0  0  0  0  0  0  0  0  0
   -8.4830    5.0200  -12.7520 O   0  0  0  0  0  0  0  0  0  0  0  0
   -8.9560    5.3060  -14.0860 C   0  0  0  0  0  0  0  0  0  0  0  0
   -7.8030    5.4910  -15.0530 C   0  0  0  0  0  0  0  0  0  0  0  0
   -6.4920    5.0910  -14.9640 C   0  0  0  0  0  0  0  0  0  0  0  0
   -5.5380    5.7750  -15.9270 C   0  0  0  0  0  0  0  0  0  0  0  0
   -6.0570    5.6620  -17.3680 C   0  0  0  0  0  0  0  0  0  0  0  0
   -7.3980    5.3420  -17.5620 C   0  0  0  0  0  0  0  0  0  0  0  0
   -7.9490    5.0960  -18.9480 C   0  0  0  0  0  0  0  0  0  0  0  0
   -9.3390    4.7560  -19.2440 C   0  0  0  0  0  0  0  0  0  0  0  0
  -10.1800    4.6560  -18.1540 C   0  0  0  0  0  0  0  0  0  0  0  0
   -9.7380    4.8740  -16.7760 C   0  0  0  0  0  0  0  0  0  0  0  0
   -8.2860    5.2390  -16.4770 C   0  0  0  0  0  0  0  0  0  0  0  0
   -8.7480    5.7450  -10.4850 C   0  0  0  0  0  0  0  0  0  0  0  0
   -8.8880    4.5590   -9.7680 C   0  0  0  0  0  0  0  0  0  0  0  0
   -8.9500    3.1220  -10.2760 C   0  0  0  0  0  0  0  0  0  0  0  0
   -8.6650    2.2400   -9.0690 C   0  0  0  0  0  0  0  0  0  0  0  0
   -9.4980    2.5400   -7.8890 C   0  0  0  0  0  0  0  0  0  0  0  0
   -9.1290    3.9220   -7.3520 C   0  0  0  0  0  0  0  0  0  0  0  0
   -8.9650    4.8760   -8.4420 N   0  0  0  0  0  0  0  0  0  0  0  0
   -8.8770    6.1900   -8.2140 N   0  0  0  0  0  0  0  0  0  0  0  0
   -8.7500    6.7110   -9.4450 C   0  0  0  0  0  0  0  0  0  0  0  0
   -9.5670    6.2160  -14.0350 H   0  0  0  0  0  0  0  0  0  0  0  0
   -9.6730    4.5320  -14.3050 H   0  0  0  0  0  0  0  0  0  0  0  0
   -7.6730    6.5810  -15.0570 H   0  0  0  0  0  0  0  0  0  0  0  0
   -6.1550    5.4310  -13.9780 H   0  0  0  0  0  0  0  0  0  0  0  0
   -6.3560    4.0240  -14.8860 H   0  0  0  0  0  0  0  0  0  0  0  0
   -4.4900    5.5240  -15.7920 H   0  0  0  0  0  0  0  0  0  0  0  0
   -5.5730    6.8420  -15.6810 H   0  0  0  0  0  0  0  0  0  0  0  0
   -5.4420    4.9070  -17.8770 H   0  0  0  0  0  0  0  0  0  0  0  0
   -5.8750    6.6110  -17.8850 H   0  0  0  0  0  0  0  0  0  0  0  0
   -7.2710    5.1790  -19.7960 H   0  0  0  0  0  0  0  0  0  0  0  0
   -9.8090    4.5710  -20.2110 H   0  0  0  0  0  0  0  0  0  0  0  0
  -11.2330    4.4010  -18.3200 H   0  0  0  0  0  0  0  0  0  0  0  0
  -10.4550    4.7750  -15.9690 H   0  0  0  0  0  0  0  0  0  0  0  0
   -8.2090    2.9320  -11.0580 H   0  0  0  0  0  0  0  0  0  0  0  0
   -9.9470    2.9030  -10.6780 H   0  0  0  0  0  0  0  0  0  0  0  0
   -8.7570    1.2010   -9.3460 H   0  0  0  0  0  0  0  0  0  0  0  0
   -7.6160    2.3810   -8.7850 H   0  0  0  0  0  0  0  0  0  0  0  0
  -10.5580    2.5190   -8.1740 H   0  0  0  0  0  0  0  0  0  0  0  0
   -9.3540    1.7870   -7.1120 H   0  0  0  0  0  0  0  0  0  0  0  0
   -9.9090    4.2960   -6.6790 H   0  0  0  0  0  0  0  0  0  0  0  0
   -8.1750    3.8870   -6.8130 H   0  0  0  0  0  0  0  0  0  0  0  0
   -8.6630    7.7850   -9.5460 H   0  0  0  0  0  0  0  0  0  0  0  0
  1  2  2  0
  2  3  1  0
  3  4  1  0
  4  5  1  0
  5  6  1  0
  6  7  1  0
  7  8  1  0
  8  9  1  0
  9 10  2  0
 10 11  1  0
 11 12  2  0
 12 13  1  0
 13 14  2  0
  2 15  1  0
 15 16  2  0
 16 17  1  0
 17 18  1  0
 18 19  1  0
 19 20  1  0
 20 21  1  0
 21 22  1  0
 22 23  2  0
 14  5  1  0
 14  9  1  0
 23 15  1  0
 21 16  1  0
  4 24  1  0
  4 25  1  0
  5 26  1  0
  6 27  1  0
  6 28  1  0
  7 29  1  0
  7 30  1  0
  8 31  1  0
  8 32  1  0
 10 33  1  0
 11 34  1  0
 12 35  1  0
 13 36  1  0
 17 37  1  0
 17 38  1  0
 18 39  1  0
 18 40  1  0
 19 41  1  0
 19 42  1  0
 20 43  1  0
 20 44  1  0
 23 45  1  0
A    1
 O1 
A    2
 C1 
A    3
 O2 
A    4
 C2 
A    5
 C3 
A    6
 C4 
A    7
 C5 
A    8
 C6 
A    9
 C7 
A   10
 C8 
A   11
 C9 
A   12
 C10
A   13
 C11
A   14
 C12
A   15
 C13
A   16
 C14
A   17
 C15
A   18
 C16
A   19
 C17
A   20
 C18
A   21
 N1 
A   22
 N2 
A   23
 C19
A   24
 H1 
A   25
 H2 
A   26
 H3 
A   27
 H4 
A   28
 H5 
A   29
 H6 
A   30
 H7 
A   31
 H8 
A   32
 H9 
A   33
 H10
A   34
 H11
A   35
 H12
A   36
 H13
A   37
 H14
A   38
 H15
A   39
 H16
A   40
 H17
A   41
 H18
A   42
 H19
A   43
 H20
A   44
 H21
A   45
 H22
M  END
>  <ref_pdb>  (22) 
x0051_0B

>  <ref_mols>  (22) 
x0969_1B,x0455_0B

>  <original SMILES>  (22) 
[H]c1nn2c(c1C(=O)OC([H])([H])C1([H])c3c([H])c([H])c([H])c([H])c3C([H])([H])C([H])([H])C1([H])[H])C([H])([H])C([H])([H])C([H])([H])C2([H])[H]

>  <index>  (22) 
27

>  <∆∆G>  (22) 
-7.964527

>  <∆G_bound>  (22) 
-6.96366

>  <∆G_unbound>  (22) 
1.000867

>  <comRMSD>  (22) 
0.329246

>  <N_constrained_atoms>  (22) 
20.0

>  <N_unconstrained_atoms>  (22) 
3.0

>  <runtime>  (22) 
65.709287

>  <LE>  (22) 
0.346284

>  <percent_hybrid>  (22) 
50.0

>  <dist>  (22) 
5.0

>  <ecfp4>  (22) 
0.26506

>  <daylight>  (22) 
0.348214

>  <topodist>  (22) 
1.0

>  <mces>  (22) 
25.0

>  <tdn>  (22) 
0.0

>  <tup>  (22) 
1.0

>  <rdn>  (22) 
0.0

>  <rup>  (22) 
0.0

>  <ldn>  (22) 
0.0

>  <lup>  (22) 
0.0

>  <mut>  (22) 
3.0

>  <maj>  (22) 
3.0

>  <min>  (22) 
0.0

>  <hyb>  (22) 
1.0

>  <sub>  (22) 
0.0

>  <query_index>  (22) 
204.0

>  <max_hit_Tanimoto>  (22) 
0.30423

>  <largest_ring>  (22) 
0

>  <N_interactions_kept>  (22) 
1.0

>  <N_interactions_lost>  (22) 
1.5

>  <interaction_uniqueness_metric>  (22) 
0.276363

>  <ad_hoc_penalty>  (22) 
-38.654557

>  <N_rotatable_bonds>  (22) 
3

>  <N_HA>  (22) 
23

>  <cluster>  (22) 
6191

>  <N_interactions>  (22) 
7

>  <Enamine>  (22) 
1

>  <Mcule>  (22) 
0

>  <N_PAINS>  (22) 
0

>  <UFF_Gibbs>  (22) 
105.121892

>  <strain_per_HA>  (22) 
4.570517

>  <saltbridge:HIS:51>  (22) 
1

>  <pistack:HIS:51>  (22) 
1

>  <hydroph_interaction:HIS:51>  (22) 
1

>  <hbond:ALA:132>  (22) 
0

>  <hbond:SER:135>  (22) 
0

>  <hydroph_interaction:TYR:150>  (22) 
1

>  <pistack:TYR:161>  (22) 
1

>  <hydroph_interaction:TYR:161>  (22) 
1

>  <hydroph_interaction:ASP:83>  (22) 
1

>  <hbond:TYR:130>  (22) 
0

>  <hydroph_interaction:ALA:132>  (22) 
0

>  <hbond:HIS:51>  (22) 
0

>  <hbond:ASP:129>  (22) 
0

>  <hbond:TYR:150>  (22) 
0

>  <hbond:GLY:151>  (22) 
0

>  <hbond:TYR:161>  (22) 
0

>  <hydroph_interaction:TYR:130>  (22) 
0

>  <hydroph_interaction:PRO:131>  (22) 
0

>  <hydroph_interaction:ASP:129>  (22) 
0

>  <saltbridge:ASP:75>  (22) 
0

>  <saltbridge:ASP:83>  (22) 
0

>  <hydroph_interaction:ASN:152>  (22) 
0

>  <halogenbond:TYR:150>  (22) 
0

>  <hbond:ASP:83>  (22) 
0

>  <hydroph_interaction:VAL:155>  (22) 
0

>  <pication:TYR:161>  (22) 
0

>  <hbond:PRO:131>  (22) 
0

>  <hbond:LEU:128>  (22) 
0

>  <saltbridge:ASP:129>  (22) 
0

>  <hbond:THR:134>  (22) 
0

>  <pication:HIS:51>  (22) 
0

>  <hbond:SER:81>  (22) 
0

>  <hbond:GLY:159>  (22) 
0

>  <hydroph_interaction:PRO:101>  (22) 
0

>  <hydroph_interaction:THR:134>  (22) 
0

>  <hbond:GLY:82>  (22) 
0

>  <hydroph_interaction:GLU:104>  (22) 
0

>  <hydroph_interaction:VAL:36>  (22) 
0

>  <hydroph_interaction:MET:49>  (22) 
0

>  <halogenbond:GLU:104>  (22) 
0

>  <hydroph_interaction:LYS:107>  (22) 
0

$$$$
HEZJKFBFKCYDLE-UHFFFAOYSA-N
     RDKit          3D

 49 52  0  0  0  0  0  0  0  0999 V2000
   -8.5720    7.1340  -13.9470 C   0  0  0  0  0  0  0  0  0  0  0  0
   -7.8460    6.4090  -14.8940 N   0  0  0  0  0  0  0  0  0  0  0  0
   -8.2380    5.8170  -16.1050 C   0  0  0  0  0  0  0  0  0  0  0  0
   -7.2950    5.6910  -17.1270 C   0  0  0  0  0  0  0  0  0  0  0  0
   -7.6610    5.1400  -18.3520 C   0  0  0  0  0  0  0  0  0  0  0  0
   -6.5030    5.1500  -19.2340 C   0  0  0  0  0  0  0  0  0  0  0  0
   -5.2960    5.6020  -18.4650 C   0  0  0  0  0  0  0  0  0  0  0  0
   -5.8500    6.0860  -17.1200 C   0  0  0  0  0  0  0  0  0  0  0  0
   -6.5250    4.8250  -20.4060 O   0  0  0  0  0  0  0  0  0  0  0  0
   -8.9330    4.6820  -18.6270 C   0  0  0  0  0  0  0  0  0  0  0  0
   -9.8700    4.7880  -17.6100 C   0  0  0  0  0  0  0  0  0  0  0  0
   -9.5230    5.3470  -16.3640 C   0  0  0  0  0  0  0  0  0  0  0  0
   -9.0670    8.2580  -14.0240 O   0  0  0  0  0  0  0  0  0  0  0  0
   -8.6710    6.3870  -12.6710 C   0  0  0  0  0  0  0  0  0  0  0  0
   -8.5390    7.1060  -11.3560 C   0  0  0  0  0  0  0  0  0  0  0  0
   -8.6110    6.3620  -10.1770 C   0  0  0  0  0  0  0  0  0  0  0  0
   -8.8010    4.9670  -10.1870 C   0  0  0  0  0  0  0  0  0  0  0  0
   -8.8570    4.2300   -9.0210 N   0  0  0  0  0  0  0  0  0  0  0  0
   -9.0500    2.7620   -9.0920 C   0  0  0  0  0  0  0  0  0  0  0  0
   -9.6050    2.2930   -7.8910 C   0  0  0  0  0  0  0  0  0  0  0  0
  -10.1110    3.3960   -7.0790 N   0  0  0  0  0  0  0  0  0  0  0  0
  -11.1990    3.1160   -6.1250 C   0  0  0  0  0  0  0  0  0  0  0  0
   -9.0390    4.2990   -6.6550 C   0  0  0  0  0  0  0  0  0  0  0  0
   -8.2830    4.7440   -7.7500 C   0  0  0  0  0  0  0  0  0  0  0  0
   -8.9310    4.3310  -11.4430 C   0  0  0  0  0  0  0  0  0  0  0  0
   -8.8700    5.0140  -12.6580 C   0  0  0  0  0  0  0  0  0  0  0  0
   -6.9040    6.1350  -14.6620 H   0  0  0  0  0  0  0  0  0  0  0  0
   -4.6030    4.7680  -18.3250 H   0  0  0  0  0  0  0  0  0  0  0  0
   -4.8000    6.4160  -19.0010 H   0  0  0  0  0  0  0  0  0  0  0  0
   -5.3190    5.6060  -16.2920 H   0  0  0  0  0  0  0  0  0  0  0  0
   -5.7450    7.1720  -17.0320 H   0  0  0  0  0  0  0  0  0  0  0  0
   -9.1810    4.2590  -19.5960 H   0  0  0  0  0  0  0  0  0  0  0  0
  -10.8840    4.4410  -17.7720 H   0  0  0  0  0  0  0  0  0  0  0  0
  -10.2960    5.4050  -15.6060 H   0  0  0  0  0  0  0  0  0  0  0  0
   -8.3860    8.1810  -11.3190 H   0  0  0  0  0  0  0  0  0  0  0  0
   -8.5090    6.9010   -9.2390 H   0  0  0  0  0  0  0  0  0  0  0  0
   -8.0880    2.2660   -9.2810 H   0  0  0  0  0  0  0  0  0  0  0  0
   -9.7450    2.4890   -9.8980 H   0  0  0  0  0  0  0  0  0  0  0  0
  -10.4130    1.5950   -8.1270 H   0  0  0  0  0  0  0  0  0  0  0  0
   -8.9650    1.7420   -7.2180 H   0  0  0  0  0  0  0  0  0  0  0  0
  -10.9280    3.4380   -5.1230 H   0  0  0  0  0  0  0  0  0  0  0  0
  -12.1050    3.6600   -6.3720 H   0  0  0  0  0  0  0  0  0  0  0  0
  -11.4660    2.0540   -6.1020 H   0  0  0  0  0  0  0  0  0  0  0  0
   -9.4760    5.1580   -6.1330 H   0  0  0  0  0  0  0  0  0  0  0  0
   -8.3600    3.7900   -5.9540 H   0  0  0  0  0  0  0  0  0  0  0  0
   -8.2980    5.8410   -7.7340 H   0  0  0  0  0  0  0  0  0  0  0  0
   -7.2430    4.4110   -7.6490 H   0  0  0  0  0  0  0  0  0  0  0  0
   -9.0850    3.2540  -11.4910 H   0  0  0  0  0  0  0  0  0  0  0  0
   -8.9760    4.4480  -13.5800 H   0  0  0  0  0  0  0  0  0  0  0  0
  1  2  1  0
  2  3  1  0
  3  4  1  0
  4  5  2  0
  5  6  1  0
  6  7  1  0
  7  8  1  0
  6  9  2  0
  5 10  1  0
 10 11  2  0
 11 12  1  0
  1 13  2  0
  1 14  1  0
 14 15  2  0
 15 16  1  0
 16 17  2  0
 17 18  1  0
 18 19  1  0
 19 20  1  0
 20 21  1  0
 21 22  1  0
 21 23  1  0
 23 24  1  0
 17 25  1  0
 25 26  2  0
 12  3  2  0
  8  4  1  0
 26 14  1  0
 24 18  1  0
  2 27  1  0
  7 28  1  0
  7 29  1  0
  8 30  1  0
  8 31  1  0
 10 32  1  0
 11 33  1  0
 12 34  1  0
 15 35  1  0
 16 36  1  0
 19 37  1  0
 19 38  1  0
 20 39  1  0
 20 40  1  0
 22 41  1  0
 22 42  1  0
 22 43  1  0
 23 44  1  0
 23 45  1  0
 24 46  1  0
 24 47  1  0
 25 48  1  0
 26 49  1  0
A    1
 C1 
A    2
 N1 
A    3
 C2 
A    4
 C3 
A    5
 C4 
A    6
 C5 
A    7
 C6 
A    8
 C7 
A    9
 O1 
A   10
 C8 
A   11
 C9 
A   12
 C10
A   13
 O2 
A   14
 C11
A   15
 C12
A   16
 C13
A   17
 C14
A   18
 N2 
A   19
 C15
A   20
 C16
A   21
 N3 
A   22
 C17
A   23
 C18
A   24
 C19
A   25
 C20
A   26
 C21
A   27
 H1 
A   28
 H2 
A   29
 H3 
A   30
 H4 
A   31
 H5 
A   32
 H6 
A   33
 H7 
A   34
 H8 
A   35
 H9 
A   36
 H10
A   37
 H11
A   38
 H12
A   39
 H13
A   40
 H14
A   41
 H15
A   42
 H16
A   43
 H17
A   44
 H18
A   45
 H19
A   46
 H20
A   47
 H21
A   48
 H22
A   49
 H23
M  END
>  <ref_pdb>  (23) 
x0051_0B

>  <ref_mols>  (23) 
x0435_0B,x0404_0B

>  <original SMILES>  (23) 
[H]c1c([H])c2c(c(N([H])C(=O)c3c([H])c([H])c(N4C([H])([H])C([H])([H])N(C([H])([H])[H])C([H])([H])C4([H])[H])c([H])c3[H])c1[H])C([H])([H])C([H])([H])C2=O

>  <index>  (23) 
30

>  <∆∆G>  (23) 
-8.51008

>  <∆G_bound>  (23) 
-8.074904

>  <∆G_unbound>  (23) 
0.435176

>  <comRMSD>  (23) 
0.583971

>  <N_constrained_atoms>  (23) 
25.0

>  <N_unconstrained_atoms>  (23) 
1.0

>  <runtime>  (23) 
82.92692

>  <LE>  (23) 
0.327311

>  <percent_hybrid>  (23) 
40.0

>  <dist>  (23) 
9.0

>  <ecfp4>  (23) 
0.170455

>  <daylight>  (23) 
0.207407

>  <topodist>  (23) 
3.0

>  <mces>  (23) 
28.0

>  <tdn>  (23) 
1.0

>  <tup>  (23) 
1.0

>  <rdn>  (23) 
0.0

>  <rup>  (23) 
0.0

>  <ldn>  (23) 
1.0

>  <lup>  (23) 
0.0

>  <mut>  (23) 
5.0

>  <maj>  (23) 
5.0

>  <min>  (23) 
0.0

>  <hyb>  (23) 
1.0

>  <sub>  (23) 
1.0

>  <query_index>  (23) 
26.0

>  <max_hit_Tanimoto>  (23) 
0.257242

>  <largest_ring>  (23) 
0

>  <N_interactions_kept>  (23) 
3.5

>  <N_interactions_lost>  (23) 
1.0

>  <interaction_uniqueness_metric>  (23) 
0.168723

>  <ad_hoc_penalty>  (23) 
-38.467743

>  <N_rotatable_bonds>  (23) 
4

>  <N_HA>  (23) 
26

>  <cluster>  (23) 
6189

>  <N_interactions>  (23) 
6

>  <Enamine>  (23) 
0

>  <Mcule>  (23) 
1

>  <N_PAINS>  (23) 
0

>  <UFF_Gibbs>  (23) 
83.049074

>  <strain_per_HA>  (23) 
3.194195

>  <saltbridge:HIS:51>  (23) 
0

>  <pistack:HIS:51>  (23) 
1

>  <hydroph_interaction:HIS:51>  (23) 
0

>  <hbond:ALA:132>  (23) 
0

>  <hbond:SER:135>  (23) 
0

>  <hydroph_interaction:TYR:150>  (23) 
0

>  <pistack:TYR:161>  (23) 
0

>  <hydroph_interaction:TYR:161>  (23) 
3

>  <hydroph_interaction:ASP:83>  (23) 
0

>  <hbond:TYR:130>  (23) 
0

>  <hydroph_interaction:ALA:132>  (23) 
1

>  <hbond:HIS:51>  (23) 
0

>  <hbond:ASP:129>  (23) 
0

>  <hbond:TYR:150>  (23) 
0

>  <hbond:GLY:151>  (23) 
0

>  <hbond:TYR:161>  (23) 
0

>  <hydroph_interaction:TYR:130>  (23) 
0

>  <hydroph_interaction:PRO:131>  (23) 
0

>  <hydroph_interaction:ASP:129>  (23) 
0

>  <saltbridge:ASP:75>  (23) 
1

>  <saltbridge:ASP:83>  (23) 
0

>  <hydroph_interaction:ASN:152>  (23) 
0

>  <halogenbond:TYR:150>  (23) 
0

>  <hbond:ASP:83>  (23) 
0

>  <hydroph_interaction:VAL:155>  (23) 
0

>  <pication:TYR:161>  (23) 
0

>  <hbond:PRO:131>  (23) 
0

>  <hbond:LEU:128>  (23) 
0

>  <saltbridge:ASP:129>  (23) 
0

>  <hbond:THR:134>  (23) 
0

>  <pication:HIS:51>  (23) 
0

>  <hbond:SER:81>  (23) 
0

>  <hbond:GLY:159>  (23) 
0

>  <hydroph_interaction:PRO:101>  (23) 
0

>  <hydroph_interaction:THR:134>  (23) 
0

>  <hbond:GLY:82>  (23) 
0

>  <hydroph_interaction:GLU:104>  (23) 
0

>  <hydroph_interaction:VAL:36>  (23) 
0

>  <hydroph_interaction:MET:49>  (23) 
0

>  <halogenbond:GLU:104>  (23) 
0

>  <hydroph_interaction:LYS:107>  (23) 
0

$$$$
Z2853451091
     RDKit          3D

 45 48  0  0  0  0  0  0  0  0999 V2000
   -9.2950    4.7790  -19.1850 C   0  0  0  0  0  0  0  0  0  0  0  0
  -10.2460    4.7060  -18.0370 C   0  0  0  0  0  0  0  0  0  0  0  0
   -9.7400    4.8910  -16.7480 C   0  0  0  0  0  0  0  0  0  0  0  0
   -8.3910    5.1450  -16.5160 C   0  0  0  0  0  0  0  0  0  0  0  0
   -7.5240    5.2030  -17.6360 C   0  0  0  0  0  0  0  0  0  0  0  0
   -7.9710    5.0240  -18.9400 C   0  0  0  0  0  0  0  0  0  0  0  0
   -5.7760    5.5070  -17.5390 S   0  0  0  0  0  0  0  0  0  0  0  0
   -5.5230    5.9750  -15.8130 C   0  0  0  0  0  0  0  0  0  0  0  0
   -6.4380    5.2240  -14.8660 C   0  0  0  0  0  0  0  0  0  0  0  0
   -7.9460    5.3420  -15.0700 C   0  0  0  0  0  0  0  0  0  0  0  0
   -8.5280    6.5460  -14.4210 N   0  0  0  0  0  0  0  0  0  0  0  0
   -8.8680    6.5470  -12.9810 C   0  0  0  0  0  0  0  0  0  0  0  0
   -8.6520    5.2350  -12.2260 C   0  0  0  0  0  0  0  0  0  0  0  0
   -8.7490    5.4420  -10.7020 C   0  0  0  0  0  0  0  0  0  0  0  0
   -8.9270    4.3380   -9.9060 C   0  0  0  0  0  0  0  0  0  0  0  0
   -9.0490    2.9840  -10.1960 C   0  0  0  0  0  0  0  0  0  0  0  0
   -8.7220    2.1710   -8.9520 C   0  0  0  0  0  0  0  0  0  0  0  0
   -9.5660    2.6250   -7.7750 C   0  0  0  0  0  0  0  0  0  0  0  0
   -9.1510    4.0420   -7.4140 C   0  0  0  0  0  0  0  0  0  0  0  0
   -8.9720    4.8350   -8.6180 N   0  0  0  0  0  0  0  0  0  0  0  0
   -8.8320    6.1770   -8.5480 N   0  0  0  0  0  0  0  0  0  0  0  0
   -8.6980    6.5530   -9.8290 C   0  0  0  0  0  0  0  0  0  0  0  0
   -9.7130    4.6350  -20.1820 H   0  0  0  0  0  0  0  0  0  0  0  0
  -11.3240    4.5170  -18.1140 H   0  0  0  0  0  0  0  0  0  0  0  0
  -10.4070    4.8390  -15.8950 H   0  0  0  0  0  0  0  0  0  0  0  0
   -7.2830    5.0760  -19.7800 H   0  0  0  0  0  0  0  0  0  0  0  0
   -5.6380    7.0570  -15.7280 H   0  0  0  0  0  0  0  0  0  0  0  0
   -4.4810    5.7460  -15.5640 H   0  0  0  0  0  0  0  0  0  0  0  0
   -6.1550    4.1690  -14.8600 H   0  0  0  0  0  0  0  0  0  0  0  0
   -6.2140    5.5600  -13.8440 H   0  0  0  0  0  0  0  0  0  0  0  0
   -8.3760    4.4880  -14.5220 H   0  0  0  0  0  0  0  0  0  0  0  0
   -7.9910    7.3790  -14.6590 H   0  0  0  0  0  0  0  0  0  0  0  0
   -9.8930    6.8880  -12.8100 H   0  0  0  0  0  0  0  0  0  0  0  0
   -8.2330    7.3110  -12.5140 H   0  0  0  0  0  0  0  0  0  0  0  0
   -9.5140    4.6060  -12.4880 H   0  0  0  0  0  0  0  0  0  0  0  0
   -7.8110    4.6440  -12.5770 H   0  0  0  0  0  0  0  0  0  0  0  0
  -10.0670    2.7630  -10.5190 H   0  0  0  0  0  0  0  0  0  0  0  0
   -8.3750    2.6980  -11.0130 H   0  0  0  0  0  0  0  0  0  0  0  0
   -8.8790    1.1170   -9.1450 H   0  0  0  0  0  0  0  0  0  0  0  0
   -7.6650    2.3020   -8.7040 H   0  0  0  0  0  0  0  0  0  0  0  0
  -10.6340    2.5800   -8.0180 H   0  0  0  0  0  0  0  0  0  0  0  0
   -9.3920    1.9540   -6.9310 H   0  0  0  0  0  0  0  0  0  0  0  0
   -9.9000    4.5290   -6.7810 H   0  0  0  0  0  0  0  0  0  0  0  0
   -8.1880    4.0410   -6.8930 H   0  0  0  0  0  0  0  0  0  0  0  0
   -8.5700    7.6020  -10.0660 H   0  0  0  0  0  0  0  0  0  0  0  0
  1  2  2  0
  2  3  1  0
  3  4  2  0
  4  5  1  0
  5  6  2  0
  5  7  1  0
  7  8  1  0
  8  9  1  0
  9 10  1  0
 10 11  1  0
 11 12  1  0
 12 13  1  0
 13 14  1  0
 14 15  2  0
 15 16  1  0
 16 17  1  0
 17 18  1  0
 18 19  1  0
 19 20  1  0
 20 21  1  0
 21 22  2  0
  6  1  1  0
 10  4  1  0
 22 14  1  0
 20 15  1  0
  1 23  1  0
  2 24  1  0
  3 25  1  0
  6 26  1  0
  8 27  1  0
  8 28  1  0
  9 29  1  0
  9 30  1  0
 10 31  1  0
 11 32  1  0
 12 33  1  0
 12 34  1  0
 13 35  1  0
 13 36  1  0
 16 37  1  0
 16 38  1  0
 17 39  1  0
 17 40  1  0
 18 41  1  0
 18 42  1  0
 19 43  1  0
 19 44  1  0
 22 45  1  0
A    1
 C1 
A    2
 C2 
A    3
 C3 
A    4
 C4 
A    5
 C5 
A    6
 C6 
A    7
 S1 
A    8
 C7 
A    9
 C8 
A   10
 C9 
A   11
 N1 
A   12
 C10
A   13
 C11
A   14
 C12
A   15
 C13
A   16
 C14
A   17
 C15
A   18
 C16
A   19
 C17
A   20
 N2 
A   21
 N3 
A   22
 C18
A   23
 H1 
A   24
 H2 
A   25
 H3 
A   26
 H4 
A   27
 H5 
A   28
 H6 
A   29
 H7 
A   30
 H8 
A   31
 H9 
A   32
 H10
A   33
 H11
A   34
 H12
A   35
 H13
A   36
 H14
A   37
 H15
A   38
 H16
A   39
 H17
A   40
 H18
A   41
 H19
A   42
 H20
A   43
 H21
A   44
 H22
A   45
 H23
M  END
>  <ref_pdb>  (24) 
x0051_0B

>  <ref_mols>  (24) 
x0969_1B,x0455_0B

>  <original SMILES>  (24) 
[H]c1nn2c(c1C([H])([H])C([H])([H])N([H])C1([H])c3c([H])c([H])c([H])c([H])c3SC([H])([H])C1([H])[H])C([H])([H])C([H])([H])C([H])([H])C2([H])[H]

>  <index>  (24) 
31

>  <∆∆G>  (24) 
-8.935837

>  <∆G_bound>  (24) 
-8.032602

>  <∆G_unbound>  (24) 
0.903235

>  <comRMSD>  (24) 
0.3323

>  <N_constrained_atoms>  (24) 
20.0

>  <N_unconstrained_atoms>  (24) 
2.0

>  <runtime>  (24) 
48.899612

>  <LE>  (24) 
0.406174

>  <percent_hybrid>  (24) 
50.0

>  <dist>  (24) 
5.0

>  <ecfp4>  (24) 
0.271605

>  <daylight>  (24) 
0.260274

>  <topodist>  (24) 
0.0

>  <mces>  (24) 
25.0

>  <tdn>  (24) 
0.0

>  <tup>  (24) 
0.0

>  <rdn>  (24) 
0.0

>  <rup>  (24) 
0.0

>  <ldn>  (24) 
0.0

>  <lup>  (24) 
0.0

>  <mut>  (24) 
5.0

>  <maj>  (24) 
5.0

>  <min>  (24) 
0.0

>  <hyb>  (24) 
0.0

>  <sub>  (24) 
0.0

>  <query_index>  (24) 
204.0

>  <max_hit_Tanimoto>  (24) 
0.323448

>  <largest_ring>  (24) 
0

>  <N_interactions_kept>  (24) 
1.5

>  <N_interactions_lost>  (24) 
1.0

>  <interaction_uniqueness_metric>  (24) 
0.144425

>  <ad_hoc_penalty>  (24) 
-38.461912

>  <N_rotatable_bonds>  (24) 
4

>  <N_HA>  (24) 
22

>  <cluster>  (24) 
6188

>  <N_interactions>  (24) 
6

>  <Enamine>  (24) 
1

>  <Mcule>  (24) 
0

>  <N_PAINS>  (24) 
0

>  <UFF_Gibbs>  (24) 
56.265995

>  <strain_per_HA>  (24) 
2.557545

>  <saltbridge:HIS:51>  (24) 
0

>  <pistack:HIS:51>  (24) 
1

>  <hydroph_interaction:HIS:51>  (24) 
0

>  <hbond:ALA:132>  (24) 
0

>  <hbond:SER:135>  (24) 
0

>  <hydroph_interaction:TYR:150>  (24) 
1

>  <pistack:TYR:161>  (24) 
0

>  <hydroph_interaction:TYR:161>  (24) 
3

>  <hydroph_interaction:ASP:83>  (24) 
1

>  <hbond:TYR:130>  (24) 
0

>  <hydroph_interaction:ALA:132>  (24) 
0

>  <hbond:HIS:51>  (24) 
0

>  <hbond:ASP:129>  (24) 
0

>  <hbond:TYR:150>  (24) 
0

>  <hbond:GLY:151>  (24) 
0

>  <hbond:TYR:161>  (24) 
0

>  <hydroph_interaction:TYR:130>  (24) 
0

>  <hydroph_interaction:PRO:131>  (24) 
0

>  <hydroph_interaction:ASP:129>  (24) 
0

>  <saltbridge:ASP:75>  (24) 
0

>  <saltbridge:ASP:83>  (24) 
0

>  <hydroph_interaction:ASN:152>  (24) 
0

>  <halogenbond:TYR:150>  (24) 
0

>  <hbond:ASP:83>  (24) 
0

>  <hydroph_interaction:VAL:155>  (24) 
0

>  <pication:TYR:161>  (24) 
0

>  <hbond:PRO:131>  (24) 
0

>  <hbond:LEU:128>  (24) 
0

>  <saltbridge:ASP:129>  (24) 
0

>  <hbond:THR:134>  (24) 
0

>  <pication:HIS:51>  (24) 
0

>  <hbond:SER:81>  (24) 
0

>  <hbond:GLY:159>  (24) 
0

>  <hydroph_interaction:PRO:101>  (24) 
0

>  <hydroph_interaction:THR:134>  (24) 
0

>  <hbond:GLY:82>  (24) 
0

>  <hydroph_interaction:GLU:104>  (24) 
0

>  <hydroph_interaction:VAL:36>  (24) 
0

>  <hydroph_interaction:MET:49>  (24) 
0

>  <halogenbond:GLU:104>  (24) 
0

>  <hydroph_interaction:LYS:107>  (24) 
0

$$$$
YWTCEYPALGBLHT-UHFFFAOYSA-N
     RDKit          3D

 48 51  0  0  0  0  0  0  0  0999 V2000
   -8.5460    7.1610  -14.0020 C   0  0  0  0  0  0  0  0  0  0  0  0
   -7.8190    6.3760  -14.9000 N   0  0  0  0  0  0  0  0  0  0  0  0
   -8.2140    5.8240  -16.1100 C   0  0  0  0  0  0  0  0  0  0  0  0
   -7.2680    5.7760  -17.1640 C   0  0  0  0  0  0  0  0  0  0  0  0
   -7.6380    5.2500  -18.4710 C   0  0  0  0  0  0  0  0  0  0  0  0
   -6.5780    5.3330  -19.3510 C   0  0  0  0  0  0  0  0  0  0  0  0
   -5.4120    5.5830  -18.6070 C   0  0  0  0  0  0  0  0  0  0  0  0
   -5.8300    6.1950  -17.2440 C   0  0  0  0  0  0  0  0  0  0  0  0
   -8.9100    4.7660  -18.6960 C   0  0  0  0  0  0  0  0  0  0  0  0
   -9.8210    4.8020  -17.6400 C   0  0  0  0  0  0  0  0  0  0  0  0
   -9.4890    5.3180  -16.3710 C   0  0  0  0  0  0  0  0  0  0  0  0
   -9.0140    8.2910  -14.1020 O   0  0  0  0  0  0  0  0  0  0  0  0
   -8.6810    6.4490  -12.7300 C   0  0  0  0  0  0  0  0  0  0  0  0
   -8.5860    7.1580  -11.5290 C   0  0  0  0  0  0  0  0  0  0  0  0
   -8.6800    6.5410  -10.2990 C   0  0  0  0  0  0  0  0  0  0  0  0
   -8.8970    5.0190  -10.2820 C   0  0  0  0  0  0  0  0  0  0  0  0
   -8.9930    4.3120   -9.1200 N   0  0  0  0  0  0  0  0  0  0  0  0
   -9.2530    2.8690   -9.2300 C   0  0  0  0  0  0  0  0  0  0  0  0
   -9.4840    2.3870   -7.9540 C   0  0  0  0  0  0  0  0  0  0  0  0
   -8.5640    2.9430   -7.0860 C   0  0  0  0  0  0  0  0  0  0  0  0
   -8.8100    4.1960   -6.7260 C   0  0  0  0  0  0  0  0  0  0  0  0
   -8.4140    4.8890   -7.8820 C   0  0  0  0  0  0  0  0  0  0  0  0
   -8.9910    4.3780  -11.5240 C   0  0  0  0  0  0  0  0  0  0  0  0
   -8.8870    5.0730  -12.7270 C   0  0  0  0  0  0  0  0  0  0  0  0
   -6.8990    6.0830  -14.5960 H   0  0  0  0  0  0  0  0  0  0  0  0
   -6.8190    5.9390  -20.2140 H   0  0  0  0  0  0  0  0  0  0  0  0
   -6.4290    4.3410  -19.7700 H   0  0  0  0  0  0  0  0  0  0  0  0
   -4.7640    6.2860  -19.1500 H   0  0  0  0  0  0  0  0  0  0  0  0
   -4.8480    4.6620  -18.4430 H   0  0  0  0  0  0  0  0  0  0  0  0
   -5.2920    5.9090  -16.3420 H   0  0  0  0  0  0  0  0  0  0  0  0
   -5.7900    7.2880  -17.3060 H   0  0  0  0  0  0  0  0  0  0  0  0
   -9.2010    4.3670  -19.6740 H   0  0  0  0  0  0  0  0  0  0  0  0
  -10.8250    4.4250  -17.8010 H   0  0  0  0  0  0  0  0  0  0  0  0
  -10.2320    5.3300  -15.5810 H   0  0  0  0  0  0  0  0  0  0  0  0
   -8.4280    8.2330  -11.6630 H   0  0  0  0  0  0  0  0  0  0  0  0
   -8.6060    7.0820   -9.3630 H   0  0  0  0  0  0  0  0  0  0  0  0
  -10.1140    2.6760   -9.8770 H   0  0  0  0  0  0  0  0  0  0  0  0
   -8.3870    2.3310   -9.6370 H   0  0  0  0  0  0  0  0  0  0  0  0
  -10.4570    2.8010   -7.6570 H   0  0  0  0  0  0  0  0  0  0  0  0
   -9.5790    1.3520   -7.6890 H   0  0  0  0  0  0  0  0  0  0  0  0
   -7.6190    2.8950   -7.6340 H   0  0  0  0  0  0  0  0  0  0  0  0
   -8.4680    2.3190   -6.2170 H   0  0  0  0  0  0  0  0  0  0  0  0
   -8.2710    4.5040   -5.8260 H   0  0  0  0  0  0  0  0  0  0  0  0
   -9.8610    4.3250   -6.5060 H   0  0  0  0  0  0  0  0  0  0  0  0
   -7.3220    4.8570   -7.9600 H   0  0  0  0  0  0  0  0  0  0  0  0
   -8.7120    5.9390   -7.7840 H   0  0  0  0  0  0  0  0  0  0  0  0
   -9.1470    3.3020  -11.5790 H   0  0  0  0  0  0  0  0  0  0  0  0
   -8.9660    4.5100  -13.6630 H   0  0  0  0  0  0  0  0  0  0  0  0
  1  2  1  0
  2  3  1  0
  3  4  1  0
  4  5  2  0
  5  6  1  0
  6  7  1  0
  7  8  1  0
  5  9  1  0
  9 10  2  0
 10 11  1  0
  1 12  2  0
  1 13  1  0
 13 14  2  0
 14 15  1  0
 15 16  2  0
 16 17  1  0
 17 18  1  0
 18 19  1  0
 19 20  1  0
 20 21  1  0
 21 22  1  0
 16 23  1  0
 23 24  2  0
 11  3  2  0
  8  4  1  0
 24 13  1  0
 22 17  1  0
  2 25  1  0
  6 26  1  0
  6 27  1  0
  7 28  1  0
  7 29  1  0
  8 30  1  0
  8 31  1  0
  9 32  1  0
 10 33  1  0
 11 34  1  0
 14 35  1  0
 15 36  1  0
 18 37  1  0
 18 38  1  0
 19 39  1  0
 19 40  1  0
 20 41  1  0
 20 42  1  0
 21 43  1  0
 21 44  1  0
 22 45  1  0
 22 46  1  0
 23 47  1  0
 24 48  1  0
A    1
 C1 
A    2
 N1 
A    3
 C2 
A    4
 C3 
A    5
 C4 
A    6
 C5 
A    7
 C6 
A    8
 C7 
A    9
 C8 
A   10
 C9 
A   11
 C10
A   12
 O1 
A   13
 C11
A   14
 C12
A   15
 C13
A   16
 C14
A   17
 N2 
A   18
 C15
A   19
 C16
A   20
 C17
A   21
 C18
A   22
 C19
A   23
 C20
A   24
 C21
A   25
 H1 
A   26
 H2 
A   27
 H3 
A   28
 H4 
A   29
 H5 
A   30
 H6 
A   31
 H7 
A   32
 H8 
A   33
 H9 
A   34
 H10
A   35
 H11
A   36
 H12
A   37
 H13
A   38
 H14
A   39
 H15
A   40
 H16
A   41
 H17
A   42
 H18
A   43
 H19
A   44
 H20
A   45
 H21
A   46
 H22
A   47
 H23
A   48
 H24
M  END
>  <ref_pdb>  (25) 
x0051_0B

>  <ref_mols>  (25) 
x0435_0B,x0404_0B

>  <original SMILES>  (25) 
[H]c1c([H])c(N([H])C(=O)c2c([H])c([H])c(N3C([H])([H])C([H])([H])C([H])([H])C([H])([H])C3([H])[H])c([H])c2[H])c2c(c1[H])C([H])([H])C([H])([H])C2([H])[H]

>  <index>  (25) 
16

>  <∆∆G>  (25) 
-8.667331

>  <∆G_bound>  (25) 
-8.374644

>  <∆G_unbound>  (25) 
0.292687

>  <comRMSD>  (25) 
0.584941

>  <N_constrained_atoms>  (25) 
25.0

>  <N_unconstrained_atoms>  (25) 
0.0

>  <runtime>  (25) 
88.470773

>  <LE>  (25) 
0.346693

>  <percent_hybrid>  (25) 
40.0

>  <dist>  (25) 
10.0

>  <ecfp4>  (25) 
0.168675

>  <daylight>  (25) 
0.174721

>  <topodist>  (25) 
3.0

>  <mces>  (25) 
27.0

>  <tdn>  (25) 
2.0

>  <tup>  (25) 
0.0

>  <rdn>  (25) 
0.0

>  <rup>  (25) 
0.0

>  <ldn>  (25) 
1.0

>  <lup>  (25) 
0.0

>  <mut>  (25) 
5.0

>  <maj>  (25) 
5.0

>  <min>  (25) 
0.0

>  <hyb>  (25) 
2.0

>  <sub>  (25) 
0.0

>  <query_index>  (25) 
26.0

>  <max_hit_Tanimoto>  (25) 
0.223203

>  <largest_ring>  (25) 
0

>  <N_interactions_kept>  (25) 
3.5

>  <N_interactions_lost>  (25) 
1.0

>  <interaction_uniqueness_metric>  (25) 
0.150876

>  <ad_hoc_penalty>  (25) 
-38.442757

>  <N_rotatable_bonds>  (25) 
3

>  <N_HA>  (25) 
24

>  <cluster>  (25) 
6201

>  <N_interactions>  (25) 
6

>  <Enamine>  (25) 
0

>  <Mcule>  (25) 
1

>  <N_PAINS>  (25) 
0

>  <UFF_Gibbs>  (25) 
163.199026

>  <strain_per_HA>  (25) 
6.799959

>  <saltbridge:HIS:51>  (25) 
0

>  <pistack:HIS:51>  (25) 
1

>  <hydroph_interaction:HIS:51>  (25) 
0

>  <hbond:ALA:132>  (25) 
0

>  <hbond:SER:135>  (25) 
0

>  <hydroph_interaction:TYR:150>  (25) 
0

>  <pistack:TYR:161>  (25) 
0

>  <hydroph_interaction:TYR:161>  (25) 
3

>  <hydroph_interaction:ASP:83>  (25) 
1

>  <hbond:TYR:130>  (25) 
0

>  <hydroph_interaction:ALA:132>  (25) 
1

>  <hbond:HIS:51>  (25) 
0

>  <hbond:ASP:129>  (25) 
0

>  <hbond:TYR:150>  (25) 
0

>  <hbond:GLY:151>  (25) 
0

>  <hbond:TYR:161>  (25) 
0

>  <hydroph_interaction:TYR:130>  (25) 
0

>  <hydroph_interaction:PRO:131>  (25) 
0

>  <hydroph_interaction:ASP:129>  (25) 
0

>  <saltbridge:ASP:75>  (25) 
0

>  <saltbridge:ASP:83>  (25) 
0

>  <hydroph_interaction:ASN:152>  (25) 
0

>  <halogenbond:TYR:150>  (25) 
0

>  <hbond:ASP:83>  (25) 
0

>  <hydroph_interaction:VAL:155>  (25) 
0

>  <pication:TYR:161>  (25) 
0

>  <hbond:PRO:131>  (25) 
0

>  <hbond:LEU:128>  (25) 
0

>  <saltbridge:ASP:129>  (25) 
0

>  <hbond:THR:134>  (25) 
0

>  <pication:HIS:51>  (25) 
0

>  <hbond:SER:81>  (25) 
0

>  <hbond:GLY:159>  (25) 
0

>  <hydroph_interaction:PRO:101>  (25) 
0

>  <hydroph_interaction:THR:134>  (25) 
0

>  <hbond:GLY:82>  (25) 
0

>  <hydroph_interaction:GLU:104>  (25) 
0

>  <hydroph_interaction:VAL:36>  (25) 
0

>  <hydroph_interaction:MET:49>  (25) 
0

>  <halogenbond:GLU:104>  (25) 
0

>  <hydroph_interaction:LYS:107>  (25) 
0

$$$$
PNBIBQYVDSFAJG-UHFFFAOYSA-N
     RDKit          3D

 41 44  0  0  0  0  0  0  0  0999 V2000
   -8.9660    5.0640  -12.6500 C   0  0  0  0  0  0  0  0  0  0  0  0
   -8.4460    5.8200  -13.7250 N   0  0  0  0  0  0  0  0  0  0  0  0
   -7.7460    5.0810  -14.8010 C   0  0  0  0  0  0  0  0  0  0  0  0
   -8.3030    5.0570  -16.2470 C   0  0  0  0  0  0  0  0  0  0  0  0
   -7.4480    5.2420  -17.3610 C   0  0  0  0  0  0  0  0  0  0  0  0
   -8.0250    5.1690  -18.7530 C   0  0  0  0  0  0  0  0  0  0  0  0
   -9.3800    4.9270  -18.9300 C   0  0  0  0  0  0  0  0  0  0  0  0
  -10.1900    4.7640  -17.8170 C   0  0  0  0  0  0  0  0  0  0  0  0
   -9.6680    4.8270  -16.5140 C   0  0  0  0  0  0  0  0  0  0  0  0
   -6.1260    5.4750  -17.1710 O   0  0  0  0  0  0  0  0  0  0  0  0
   -5.8630    6.1440  -15.9430 C   0  0  0  0  0  0  0  0  0  0  0  0
   -6.2440    5.3990  -14.8190 C   0  0  0  0  0  0  0  0  0  0  0  0
   -9.5180    4.0030  -12.8850 O   0  0  0  0  0  0  0  0  0  0  0  0
   -8.8840    5.4650  -11.1410 C   0  0  0  0  0  0  0  0  0  0  0  0
   -8.9540    4.3490  -10.1240 C   0  0  0  0  0  0  0  0  0  0  0  0
   -8.8790    4.9960   -8.9110 N   0  0  0  0  0  0  0  0  0  0  0  0
   -8.9220    4.3460   -7.6040 C   0  0  0  0  0  0  0  0  0  0  0  0
   -9.3610    2.8990   -7.7170 C   0  0  0  0  0  0  0  0  0  0  0  0
   -8.6430    2.2560   -8.8830 C   0  0  0  0  0  0  0  0  0  0  0  0
   -9.0770    2.8730  -10.1980 C   0  0  0  0  0  0  0  0  0  0  0  0
   -8.7620    6.3450   -9.0120 N   0  0  0  0  0  0  0  0  0  0  0  0
   -8.7650    6.6320  -10.3450 C   0  0  0  0  0  0  0  0  0  0  0  0
   -9.0120    6.6220  -13.9890 H   0  0  0  0  0  0  0  0  0  0  0  0
   -7.7830    4.0520  -14.4360 H   0  0  0  0  0  0  0  0  0  0  0  0
   -7.3810    5.3050  -19.6190 H   0  0  0  0  0  0  0  0  0  0  0  0
   -9.7950    4.8730  -19.9320 H   0  0  0  0  0  0  0  0  0  0  0  0
  -11.2500    4.5810  -17.9650 H   0  0  0  0  0  0  0  0  0  0  0  0
  -10.3490    4.6850  -15.6760 H   0  0  0  0  0  0  0  0  0  0  0  0
   -6.4280    7.0830  -15.9640 H   0  0  0  0  0  0  0  0  0  0  0  0
   -4.8010    6.4150  -15.9090 H   0  0  0  0  0  0  0  0  0  0  0  0
   -5.9440    5.9230  -13.9060 H   0  0  0  0  0  0  0  0  0  0  0  0
   -5.6940    4.4490  -14.8410 H   0  0  0  0  0  0  0  0  0  0  0  0
   -9.6100    4.9090   -6.9640 H   0  0  0  0  0  0  0  0  0  0  0  0
   -7.9110    4.4140   -7.1850 H   0  0  0  0  0  0  0  0  0  0  0  0
  -10.4460    2.8320   -7.8670 H   0  0  0  0  0  0  0  0  0  0  0  0
   -9.1260    2.3660   -6.7950 H   0  0  0  0  0  0  0  0  0  0  0  0
   -7.5640    2.3790   -8.7700 H   0  0  0  0  0  0  0  0  0  0  0  0
   -8.8450    1.1920   -8.8750 H   0  0  0  0  0  0  0  0  0  0  0  0
  -10.1160    2.5980  -10.4060 H   0  0  0  0  0  0  0  0  0  0  0  0
   -8.4570    2.4680  -11.0060 H   0  0  0  0  0  0  0  0  0  0  0  0
   -8.6850    7.6610  -10.6750 H   0  0  0  0  0  0  0  0  0  0  0  0
  1  2  1  0
  2  3  1  0
  3  4  1  0
  4  5  1  0
  5  6  2  0
  6  7  1  0
  7  8  2  0
  8  9  1  0
  5 10  1  0
 10 11  1  0
 11 12  1  0
  1 13  2  0
  1 14  1  0
 14 15  2  0
 15 16  1  0
 16 17  1  0
 17 18  1  0
 18 19  1  0
 19 20  1  0
 16 21  1  0
 21 22  2  0
 12  3  1  0
  9  4  2  0
 22 14  1  0
 20 15  1  0
  2 23  1  0
  3 24  1  0
  6 25  1  0
  7 26  1  0
  8 27  1  0
  9 28  1  0
 11 29  1  0
 11 30  1  0
 12 31  1  0
 12 32  1  0
 17 33  1  0
 17 34  1  0
 18 35  1  0
 18 36  1  0
 19 37  1  0
 19 38  1  0
 20 39  1  0
 20 40  1  0
 22 41  1  0
A    1
 C1 
A    2
 N1 
A    3
 C2 
A    4
 C3 
A    5
 C4 
A    6
 C5 
A    7
 C6 
A    8
 C7 
A    9
 C8 
A   10
 O1 
A   11
 C9 
A   12
 C10
A   13
 O2 
A   14
 C11
A   15
 C12
A   16
 N2 
A   17
 C13
A   18
 C14
A   19
 C15
A   20
 C16
A   21
 N3 
A   22
 C17
A   23
 H1 
A   24
 H2 
A   25
 H3 
A   26
 H4 
A   27
 H5 
A   28
 H6 
A   29
 H7 
A   30
 H8 
A   31
 H9 
A   32
 H10
A   33
 H11
A   34
 H12
A   35
 H13
A   36
 H14
A   37
 H15
A   38
 H16
A   39
 H17
A   40
 H18
A   41
 H19
M  END
>  <ref_pdb>  (26) 
x0051_0B

>  <ref_mols>  (26) 
x0969_1B,x0455_0B

>  <original SMILES>  (26) 
[H]c1nn2c(c1C(=O)N([H])C1([H])c3c([H])c([H])c([H])c([H])c3OC([H])([H])C1([H])[H])C([H])([H])C([H])([H])C([H])([H])C2([H])[H]

>  <index>  (26) 
28

>  <∆∆G>  (26) 
-6.932246

>  <∆G_bound>  (26) 
-6.065841

>  <∆G_unbound>  (26) 
0.866405

>  <comRMSD>  (26) 
0.541848

>  <N_constrained_atoms>  (26) 
20.0

>  <N_unconstrained_atoms>  (26) 
2.0

>  <runtime>  (26) 
41.389185

>  <LE>  (26) 
0.315102

>  <percent_hybrid>  (26) 
50.0

>  <dist>  (26) 
7.0

>  <ecfp4>  (26) 
0.25

>  <daylight>  (26) 
0.285333

>  <topodist>  (26) 
2.0

>  <mces>  (26) 
24.0

>  <tdn>  (26) 
0.0

>  <tup>  (26) 
1.0

>  <rdn>  (26) 
0.0

>  <rup>  (26) 
0.0

>  <ldn>  (26) 
1.0

>  <lup>  (26) 
0.0

>  <mut>  (26) 
4.0

>  <maj>  (26) 
4.0

>  <min>  (26) 
0.0

>  <hyb>  (26) 
1.0

>  <sub>  (26) 
0.0

>  <query_index>  (26) 
204.0

>  <max_hit_Tanimoto>  (26) 
0.307498

>  <largest_ring>  (26) 
0

>  <N_interactions_kept>  (26) 
1.5

>  <N_interactions_lost>  (26) 
1.0

>  <interaction_uniqueness_metric>  (26) 
0.18366

>  <ad_hoc_penalty>  (26) 
-38.13794

>  <N_rotatable_bonds>  (26) 
2

>  <N_HA>  (26) 
22

>  <cluster>  (26) 
6190

>  <N_interactions>  (26) 
6

>  <Enamine>  (26) 
0

>  <Mcule>  (26) 
1

>  <N_PAINS>  (26) 
0

>  <UFF_Gibbs>  (26) 
80.068969

>  <strain_per_HA>  (26) 
3.639499

>  <saltbridge:HIS:51>  (26) 
0

>  <pistack:HIS:51>  (26) 
1

>  <hydroph_interaction:HIS:51>  (26) 
0

>  <hbond:ALA:132>  (26) 
0

>  <hbond:SER:135>  (26) 
0

>  <hydroph_interaction:TYR:150>  (26) 
1

>  <pistack:TYR:161>  (26) 
0

>  <hydroph_interaction:TYR:161>  (26) 
2

>  <hydroph_interaction:ASP:83>  (26) 
1

>  <hbond:TYR:130>  (26) 
0

>  <hydroph_interaction:ALA:132>  (26) 
0

>  <hbond:HIS:51>  (26) 
0

>  <hbond:ASP:129>  (26) 
0

>  <hbond:TYR:150>  (26) 
0

>  <hbond:GLY:151>  (26) 
0

>  <hbond:TYR:161>  (26) 
1

>  <hydroph_interaction:TYR:130>  (26) 
0

>  <hydroph_interaction:PRO:131>  (26) 
0

>  <hydroph_interaction:ASP:129>  (26) 
0

>  <saltbridge:ASP:75>  (26) 
0

>  <saltbridge:ASP:83>  (26) 
0

>  <hydroph_interaction:ASN:152>  (26) 
0

>  <halogenbond:TYR:150>  (26) 
0

>  <hbond:ASP:83>  (26) 
0

>  <hydroph_interaction:VAL:155>  (26) 
0

>  <pication:TYR:161>  (26) 
0

>  <hbond:PRO:131>  (26) 
0

>  <hbond:LEU:128>  (26) 
0

>  <saltbridge:ASP:129>  (26) 
0

>  <hbond:THR:134>  (26) 
0

>  <pication:HIS:51>  (26) 
0

>  <hbond:SER:81>  (26) 
0

>  <hbond:GLY:159>  (26) 
0

>  <hydroph_interaction:PRO:101>  (26) 
0

>  <hydroph_interaction:THR:134>  (26) 
0

>  <hbond:GLY:82>  (26) 
0

>  <hydroph_interaction:GLU:104>  (26) 
0

>  <hydroph_interaction:VAL:36>  (26) 
0

>  <hydroph_interaction:MET:49>  (26) 
0

>  <halogenbond:GLU:104>  (26) 
0

>  <hydroph_interaction:LYS:107>  (26) 
0

$$$$
MCULE-5116231444
     RDKit          3D

 51 53  0  0  0  0  0  0  0  0999 V2000
   -5.6550    5.4290  -19.5800 C   0  0  0  0  0  0  0  0  0  0  0  0
   -6.4100    4.9700  -20.4190 O   0  0  0  0  0  0  0  0  0  0  0  0
   -5.9870    5.6710  -18.2740 N   0  0  0  0  0  0  0  0  0  0  0  0
   -7.2840    5.4270  -17.8570 C   0  0  0  0  0  0  0  0  0  0  0  0
   -8.1680    4.7980  -18.7230 C   0  0  0  0  0  0  0  0  0  0  0  0
   -9.4520    4.5290  -18.3390 C   0  0  0  0  0  0  0  0  0  0  0  0
   -9.8690    4.9000  -17.0840 C   0  0  0  0  0  0  0  0  0  0  0  0
   -9.0070    5.5580  -16.2000 C   0  0  0  0  0  0  0  0  0  0  0  0
   -7.6980    5.8150  -16.5810 C   0  0  0  0  0  0  0  0  0  0  0  0
   -9.5330    5.9400  -14.9390 O   0  0  0  0  0  0  0  0  0  0  0  0
   -8.9450    6.8970  -14.0780 C   0  0  0  0  0  0  0  0  0  0  0  0
   -8.5100    8.0320  -14.2740 O   0  0  0  0  0  0  0  0  0  0  0  0
   -8.9470    6.2530  -12.7550 C   0  0  0  0  0  0  0  0  0  0  0  0
   -8.8280    7.0050  -11.5730 C   0  0  0  0  0  0  0  0  0  0  0  0
   -8.8590    6.3490  -10.3330 C   0  0  0  0  0  0  0  0  0  0  0  0
   -9.0080    4.9550  -10.2820 C   0  0  0  0  0  0  0  0  0  0  0  0
   -9.1110    4.2300  -11.4710 C   0  0  0  0  0  0  0  0  0  0  0  0
   -9.0810    4.8800  -12.6910 C   0  0  0  0  0  0  0  0  0  0  0  0
   -9.0790    4.2380   -9.0620 N   0  0  0  0  0  0  0  0  0  0  0  0
   -9.5050    2.9280   -8.9530 C   0  0  0  0  0  0  0  0  0  0  0  0
   -9.4730    2.5440   -7.6390 C   0  0  0  0  0  0  0  0  0  0  0  0
   -9.0040    3.6500   -6.8950 C   0  0  0  0  0  0  0  0  0  0  0  0
   -8.7670    4.6750   -7.7880 C   0  0  0  0  0  0  0  0  0  0  0  0
   -4.3530    5.7760  -19.8620 N   0  0  0  0  0  0  0  0  0  0  0  0
   -3.1800    5.5290  -19.0160 C   0  0  0  0  0  0  0  0  0  0  0  0
   -2.5230    6.9010  -18.8100 C   0  0  0  0  0  0  0  0  0  0  0  0
   -2.1480    4.6310  -19.7230 C   0  0  0  0  0  0  0  0  0  0  0  0
   -3.5540    4.9550  -17.6390 C   0  0  0  0  0  0  0  0  0  0  0  0
   -5.5170    6.4540  -17.8500 H   0  0  0  0  0  0  0  0  0  0  0  0
   -7.8760    4.4950  -19.7210 H   0  0  0  0  0  0  0  0  0  0  0  0
  -10.1240    4.0300  -19.0200 H   0  0  0  0  0  0  0  0  0  0  0  0
  -10.8660    4.6750  -16.8060 H   0  0  0  0  0  0  0  0  0  0  0  0
   -7.0200    6.3150  -15.8970 H   0  0  0  0  0  0  0  0  0  0  0  0
   -8.7200    8.0870  -11.6100 H   0  0  0  0  0  0  0  0  0  0  0  0
   -8.7720    6.9630   -9.4420 H   0  0  0  0  0  0  0  0  0  0  0  0
   -9.2260    3.1510  -11.4850 H   0  0  0  0  0  0  0  0  0  0  0  0
   -9.1720    4.2800  -13.5950 H   0  0  0  0  0  0  0  0  0  0  0  0
   -9.8100    2.3510   -9.8110 H   0  0  0  0  0  0  0  0  0  0  0  0
   -9.7550    1.5750   -7.2570 H   0  0  0  0  0  0  0  0  0  0  0  0
   -8.8530    3.6960   -5.8240 H   0  0  0  0  0  0  0  0  0  0  0  0
   -8.4040    5.6720   -7.5950 H   0  0  0  0  0  0  0  0  0  0  0  0
   -4.2820    6.5680  -20.4830 H   0  0  0  0  0  0  0  0  0  0  0  0
   -3.1060    7.5270  -18.1260 H   0  0  0  0  0  0  0  0  0  0  0  0
   -2.4290    7.4410  -19.7590 H   0  0  0  0  0  0  0  0  0  0  0  0
   -1.5150    6.7930  -18.3960 H   0  0  0  0  0  0  0  0  0  0  0  0
   -1.1520    5.0850  -19.7070 H   0  0  0  0  0  0  0  0  0  0  0  0
   -2.0530    3.6540  -19.2530 H   0  0  0  0  0  0  0  0  0  0  0  0
   -2.4210    4.4610  -20.7710 H   0  0  0  0  0  0  0  0  0  0  0  0
   -3.5310    5.7350  -16.8710 H   0  0  0  0  0  0  0  0  0  0  0  0
   -2.8600    4.1720  -17.3240 H   0  0  0  0  0  0  0  0  0  0  0  0
   -4.5540    4.5200  -17.6420 H   0  0  0  0  0  0  0  0  0  0  0  0
  1  2  2  0
  1  3  1  0
  3  4  1  0
  4  5  2  0
  5  6  1  0
  6  7  2  0
  7  8  1  0
  8  9  2  0
  8 10  1  0
 10 11  1  0
 11 12  2  0
 11 13  1  0
 13 14  2  0
 14 15  1  0
 15 16  2  0
 16 17  1  0
 17 18  2  0
 16 19  1  0
 19 20  1  0
 20 21  2  0
 21 22  1  0
 22 23  2  0
  1 24  1  0
 24 25  1  0
 25 26  1  0
 25 27  1  0
 25 28  1  0
  4  9  1  0
 18 13  1  0
 23 19  1  0
  3 29  1  0
  5 30  1  0
  6 31  1  0
  7 32  1  0
  9 33  1  0
 14 34  1  0
 15 35  1  0
 17 36  1  0
 18 37  1  0
 20 38  1  0
 21 39  1  0
 22 40  1  0
 23 41  1  0
 24 42  1  0
 26 43  1  0
 26 44  1  0
 26 45  1  0
 27 46  1  0
 27 47  1  0
 27 48  1  0
 28 49  1  0
 28 50  1  0
 28 51  1  0
A    1
 C1 
A    2
 O1 
A    3
 N1 
A    4
 C2 
A    5
 C3 
A    6
 C4 
A    7
 C5 
A    8
 C6 
A    9
 C7 
A   10
 O2 
A   11
 C8 
A   12
 O3 
A   13
 C9 
A   14
 C10
A   15
 C11
A   16
 C12
A   17
 C13
A   18
 C14
A   19
 N2 
A   20
 C15
A   21
 C16
A   22
 C17
A   23
 C18
A   24
 N3 
A   25
 C19
A   26
 C20
A   27
 C21
A   28
 C22
A   29
 H1 
A   30
 H2 
A   31
 H3 
A   32
 H4 
A   33
 H5 
A   34
 H6 
A   35
 H7 
A   36
 H8 
A   37
 H9 
A   38
 H10
A   39
 H11
A   40
 H12
A   41
 H13
A   42
 H14
A   43
 H15
A   44
 H16
A   45
 H17
A   46
 H18
A   47
 H19
A   48
 H20
A   49
 H21
A   50
 H22
A   51
 H23
M  END
>  <ref_pdb>  (27) 
x0051_0B

>  <ref_mols>  (27) 
x0089_0B,x0404_0B

>  <original SMILES>  (27) 
[H]c1c([H])c(OC(=O)c2c([H])c([H])c(-n3c([H])c([H])c([H])c3[H])c([H])c2[H])c([H])c(N([H])C(=O)N([H])C(C([H])([H])[H])(C([H])([H])[H])C([H])([H])[H])c1[H]

>  <index>  (27) 
17

>  <∆∆G>  (27) 
-9.309738

>  <∆G_bound>  (27) 
-8.569093

>  <∆G_unbound>  (27) 
0.740645

>  <comRMSD>  (27) 
0.70674

>  <N_constrained_atoms>  (27) 
28.0

>  <N_unconstrained_atoms>  (27) 
1.0

>  <runtime>  (27) 
205.6128

>  <LE>  (27) 
0.321025

>  <percent_hybrid>  (27) 
47.0

>  <dist>  (27) 
12.0

>  <ecfp4>  (27) 
0.2

>  <daylight>  (27) 
0.180812

>  <topodist>  (27) 
5.0

>  <mces>  (27) 
29.0

>  <tdn>  (27) 
1.0

>  <tup>  (27) 
1.0

>  <rdn>  (27) 
1.0

>  <rup>  (27) 
0.0

>  <ldn>  (27) 
2.0

>  <lup>  (27) 
0.0

>  <mut>  (27) 
2.0

>  <maj>  (27) 
2.0

>  <min>  (27) 
0.0

>  <hyb>  (27) 
5.0

>  <sub>  (27) 
2.0

>  <query_index>  (27) 
3.0

>  <max_hit_Tanimoto>  (27) 
0.186951

>  <largest_ring>  (27) 
0

>  <N_interactions_kept>  (27) 
2.0

>  <N_interactions_lost>  (27) 
2.5

>  <interaction_uniqueness_metric>  (27) 
0.210434

>  <ad_hoc_penalty>  (27) 
-37.790601

>  <N_rotatable_bonds>  (27) 
4

>  <N_HA>  (27) 
28

>  <cluster>  (27) 
6200

>  <N_interactions>  (27) 
9

>  <Enamine>  (27) 
0

>  <Mcule>  (27) 
1

>  <N_PAINS>  (27) 
0

>  <UFF_Gibbs>  (27) 
213.75892

>  <strain_per_HA>  (27) 
7.634247

>  <saltbridge:HIS:51>  (27) 
1

>  <pistack:HIS:51>  (27) 
1

>  <hydroph_interaction:HIS:51>  (27) 
1

>  <hbond:ALA:132>  (27) 
0

>  <hbond:SER:135>  (27) 
0

>  <hydroph_interaction:TYR:150>  (27) 
1

>  <pistack:TYR:161>  (27) 
0

>  <hydroph_interaction:TYR:161>  (27) 
4

>  <hydroph_interaction:ASP:83>  (27) 
0

>  <hbond:TYR:130>  (27) 
0

>  <hydroph_interaction:ALA:132>  (27) 
1

>  <hbond:HIS:51>  (27) 
0

>  <hbond:ASP:129>  (27) 
0

>  <hbond:TYR:150>  (27) 
0

>  <hbond:GLY:151>  (27) 
0

>  <hbond:TYR:161>  (27) 
0

>  <hydroph_interaction:TYR:130>  (27) 
0

>  <hydroph_interaction:PRO:131>  (27) 
0

>  <hydroph_interaction:ASP:129>  (27) 
0

>  <saltbridge:ASP:75>  (27) 
0

>  <saltbridge:ASP:83>  (27) 
0

>  <hydroph_interaction:ASN:152>  (27) 
0

>  <halogenbond:TYR:150>  (27) 
0

>  <hbond:ASP:83>  (27) 
0

>  <hydroph_interaction:VAL:155>  (27) 
0

>  <pication:TYR:161>  (27) 
0

>  <hbond:PRO:131>  (27) 
0

>  <hbond:LEU:128>  (27) 
0

>  <saltbridge:ASP:129>  (27) 
0

>  <hbond:THR:134>  (27) 
0

>  <pication:HIS:51>  (27) 
0

>  <hbond:SER:81>  (27) 
0

>  <hbond:GLY:159>  (27) 
0

>  <hydroph_interaction:PRO:101>  (27) 
0

>  <hydroph_interaction:THR:134>  (27) 
0

>  <hbond:GLY:82>  (27) 
0

>  <hydroph_interaction:GLU:104>  (27) 
0

>  <hydroph_interaction:VAL:36>  (27) 
0

>  <hydroph_interaction:MET:49>  (27) 
0

>  <halogenbond:GLU:104>  (27) 
0

>  <hydroph_interaction:LYS:107>  (27) 
0

$$$$
MCULE-5000599073
     RDKit          3D

 32 33  0  0  0  0  0  0  0  0999 V2000
   -6.3170    5.9640  -16.5830 N   0  0  0  0  0  0  0  0  0  0  0  0
   -5.1220    6.3280  -17.0670 C   0  0  0  0  0  0  0  0  0  0  0  0
   -4.2180    5.2900  -17.6490 C   0  0  0  0  0  0  0  0  0  0  0  0
   -3.6500    5.6840  -18.8600 C   0  0  0  0  0  0  0  0  0  0  0  0
   -3.1270    4.9480  -16.6420 C   0  0  0  0  0  0  0  0  0  0  0  0
   -7.3860    5.5590  -17.3270 C   0  0  0  0  0  0  0  0  0  0  0  0
   -7.5430    5.4140  -18.7170 C   0  0  0  0  0  0  0  0  0  0  0  0
   -8.8890    4.9290  -19.2360 C   0  0  0  0  0  0  0  0  0  0  0  0
   -9.9170    4.6610  -18.1640 C   0  0  0  0  0  0  0  0  0  0  0  0
   -9.6490    4.8390  -16.8100 C   0  0  0  0  0  0  0  0  0  0  0  0
   -8.3890    5.2860  -16.3910 C   0  0  0  0  0  0  0  0  0  0  0  0
   -7.8230    5.5530  -15.1730 C   0  0  0  0  0  0  0  0  0  0  0  0
   -8.5750    5.3860  -13.8820 C   0  0  0  0  0  0  0  0  0  0  0  0
   -8.9980    6.6890  -13.3600 N   0  0  0  0  0  0  0  0  0  0  0  0
   -6.5460    5.9750  -15.2490 N   0  0  0  0  0  0  0  0  0  0  0  0
   -4.6130    6.8320  -16.2380 H   0  0  0  0  0  0  0  0  0  0  0  0
   -5.3160    7.1090  -17.8150 H   0  0  0  0  0  0  0  0  0  0  0  0
   -4.7980    4.3890  -17.8310 H   0  0  0  0  0  0  0  0  0  0  0  0
   -2.8020    5.0430  -19.1320 H   0  0  0  0  0  0  0  0  0  0  0  0
   -4.3720    5.5830  -19.6820 H   0  0  0  0  0  0  0  0  0  0  0  0
   -3.3070    6.7230  -18.8250 H   0  0  0  0  0  0  0  0  0  0  0  0
   -3.3380    3.9920  -16.1460 H   0  0  0  0  0  0  0  0  0  0  0  0
   -3.0610    5.7170  -15.8650 H   0  0  0  0  0  0  0  0  0  0  0  0
   -2.1510    4.8700  -17.1300 H   0  0  0  0  0  0  0  0  0  0  0  0
   -6.7360    5.6370  -19.4100 H   0  0  0  0  0  0  0  0  0  0  0  0
   -9.0970    4.7850  -20.2950 H   0  0  0  0  0  0  0  0  0  0  0  0
  -10.8850    4.3160  -18.5320 H   0  0  0  0  0  0  0  0  0  0  0  0
  -10.4130    4.6310  -16.0740 H   0  0  0  0  0  0  0  0  0  0  0  0
   -7.9300    4.8880  -13.1490 H   0  0  0  0  0  0  0  0  0  0  0  0
   -9.4570    4.7550  -14.0210 H   0  0  0  0  0  0  0  0  0  0  0  0
  -10.0120    6.6930  -13.2840 H   0  0  0  0  0  0  0  0  0  0  0  0
   -8.7660    7.3760  -14.0830 H   0  0  0  0  0  0  0  0  0  0  0  0
  1  2  1  0
  2  3  1  0
  3  4  1  0
  3  5  1  0
  1  6  1  0
  6  7  2  0
  7  8  1  0
  8  9  2  0
  9 10  1  0
 10 11  2  0
 11 12  1  0
 12 13  1  0
 13 14  1  0
 12 15  2  0
 15  1  1  0
  6 11  1  0
  2 16  1  0
  2 17  1  0
  3 18  1  0
  4 19  1  0
  4 20  1  0
  4 21  1  0
  5 22  1  0
  5 23  1  0
  5 24  1  0
  7 25  1  0
  8 26  1  0
  9 27  1  0
 10 28  1  0
 13 29  1  0
 13 30  1  0
 14 31  1  0
 14 32  1  0
A    1
 N1 
A    2
 C1 
A    3
 C2 
A    4
 C3 
A    5
 C4 
A    6
 C5 
A    7
 C6 
A    8
 C7 
A    9
 C8 
A   10
 C9 
A   11
 C10
A   12
 C11
A   13
 C12
A   14
 N2 
A   15
 N3 
A   16
 H1 
A   17
 H2 
A   18
 H3 
A   19
 H4 
A   20
 H5 
A   21
 H6 
A   22
 H7 
A   23
 H8 
A   24
 H9 
A   25
 H10
A   26
 H11
A   27
 H12
A   28
 H13
A   29
 H14
A   30
 H15
A   31
 H16
A   32
 H17
M  END
>  <ref_pdb>  (28) 
x0051_0B

>  <ref_mols>  (28) 
x0951_0B,x0472_0B

>  <original SMILES>  (28) 
[H]c1c([H])c([H])c2c(c(C([H])([H])N([H])[H])nn2C([H])([H])C([H])(C([H])([H])[H])C([H])([H])[H])c1[H]

>  <index>  (28) 
26

>  <∆∆G>  (28) 
-7.903238

>  <∆G_bound>  (28) 
-8.270712

>  <∆G_unbound>  (28) 
-0.367474

>  <comRMSD>  (28) 
0.679086

>  <N_constrained_atoms>  (28) 
17.0

>  <N_unconstrained_atoms>  (28) 
0.0

>  <runtime>  (28) 
18.449406

>  <LE>  (28) 
0.464896

>  <percent_hybrid>  (28) 
40.0

>  <dist>  (28) 
4.0

>  <ecfp4>  (28) 
0.403846

>  <daylight>  (28) 
0.758065

>  <topodist>  (28) 
3.0

>  <mces>  (28) 
15.0

>  <tdn>  (28) 
2.0

>  <tup>  (28) 
1.0

>  <rdn>  (28) 
0.0

>  <rup>  (28) 
0.0

>  <ldn>  (28) 
0.0

>  <lup>  (28) 
0.0

>  <mut>  (28) 
1.0

>  <maj>  (28) 
1.0

>  <min>  (28) 
0.0

>  <hyb>  (28) 
0.0

>  <sub>  (28) 
3.0

>  <query_index>  (28) 
55.0

>  <max_hit_Tanimoto>  (28) 
0.163557

>  <largest_ring>  (28) 
0

>  <N_interactions_kept>  (28) 
3.0

>  <N_interactions_lost>  (28) 
0.5

>  <interaction_uniqueness_metric>  (28) 
0.141194

>  <ad_hoc_penalty>  (28) 
-37.711313

>  <N_rotatable_bonds>  (28) 
6

>  <N_HA>  (28) 
15

>  <cluster>  (28) 
6192

>  <N_interactions>  (28) 
7

>  <Enamine>  (28) 
0

>  <Mcule>  (28) 
1

>  <N_PAINS>  (28) 
0

>  <UFF_Gibbs>  (28) 
65.78754

>  <strain_per_HA>  (28) 
4.385836

>  <saltbridge:HIS:51>  (28) 
0

>  <pistack:HIS:51>  (28) 
0

>  <hydroph_interaction:HIS:51>  (28) 
0

>  <hbond:ALA:132>  (28) 
0

>  <hbond:SER:135>  (28) 
0

>  <hydroph_interaction:TYR:150>  (28) 
1

>  <pistack:TYR:161>  (28) 
0

>  <hydroph_interaction:TYR:161>  (28) 
4

>  <hydroph_interaction:ASP:83>  (28) 
0

>  <hbond:TYR:130>  (28) 
0

>  <hydroph_interaction:ALA:132>  (28) 
0

>  <hbond:HIS:51>  (28) 
1

>  <hbond:ASP:129>  (28) 
0

>  <hbond:TYR:150>  (28) 
0

>  <hbond:GLY:151>  (28) 
0

>  <hbond:TYR:161>  (28) 
0

>  <hydroph_interaction:TYR:130>  (28) 
0

>  <hydroph_interaction:PRO:131>  (28) 
0

>  <hydroph_interaction:ASP:129>  (28) 
0

>  <saltbridge:ASP:75>  (28) 
0

>  <saltbridge:ASP:83>  (28) 
0

>  <hydroph_interaction:ASN:152>  (28) 
0

>  <halogenbond:TYR:150>  (28) 
0

>  <hbond:ASP:83>  (28) 
0

>  <hydroph_interaction:VAL:155>  (28) 
1

>  <pication:TYR:161>  (28) 
0

>  <hbond:PRO:131>  (28) 
0

>  <hbond:LEU:128>  (28) 
0

>  <saltbridge:ASP:129>  (28) 
0

>  <hbond:THR:134>  (28) 
0

>  <pication:HIS:51>  (28) 
0

>  <hbond:SER:81>  (28) 
0

>  <hbond:GLY:159>  (28) 
0

>  <hydroph_interaction:PRO:101>  (28) 
0

>  <hydroph_interaction:THR:134>  (28) 
0

>  <hbond:GLY:82>  (28) 
0

>  <hydroph_interaction:GLU:104>  (28) 
0

>  <hydroph_interaction:VAL:36>  (28) 
0

>  <hydroph_interaction:MET:49>  (28) 
0

>  <halogenbond:GLU:104>  (28) 
0

>  <hydroph_interaction:LYS:107>  (28) 
0

$$$$
Z1494863129
     RDKit          3D

 46 49  0  0  0  0  0  0  0  0999 V2000
   -7.4720    6.6980  -12.2990 O   0  0  0  0  0  0  0  0  0  0  0  0
   -8.4720    6.0700  -11.9680 C   0  0  0  0  0  0  0  0  0  0  0  0
   -9.3980    5.6740  -12.9090 N   0  0  0  0  0  0  0  0  0  0  0  0
   -9.0050    4.8730  -14.0560 C   0  0  0  0  0  0  0  0  0  0  0  0
   -8.0420    5.4950  -15.0870 C   0  0  0  0  0  0  0  0  0  0  0  0
   -6.5490    5.1520  -14.9070 C   0  0  0  0  0  0  0  0  0  0  0  0
   -5.7010    5.9470  -15.9400 C   0  0  0  0  0  0  0  0  0  0  0  0
   -6.0660    5.7020  -17.4040 C   0  0  0  0  0  0  0  0  0  0  0  0
   -7.5460    5.3270  -17.6170 C   0  0  0  0  0  0  0  0  0  0  0  0
   -7.9570    5.0900  -18.9270 C   0  0  0  0  0  0  0  0  0  0  0  0
   -9.2700    4.7430  -19.2030 C   0  0  0  0  0  0  0  0  0  0  0  0
  -10.1650    4.6320  -18.1560 C   0  0  0  0  0  0  0  0  0  0  0  0
   -9.7520    4.8680  -16.8390 C   0  0  0  0  0  0  0  0  0  0  0  0
   -8.4640    5.2210  -16.5370 C   0  0  0  0  0  0  0  0  0  0  0  0
   -8.6770    5.7540  -10.5510 C   0  0  0  0  0  0  0  0  0  0  0  0
   -8.8790    4.5290   -9.7490 C   0  0  0  0  0  0  0  0  0  0  0  0
   -8.9320    3.1120  -10.2830 C   0  0  0  0  0  0  0  0  0  0  0  0
   -8.6290    2.2300   -9.0790 C   0  0  0  0  0  0  0  0  0  0  0  0
   -9.5560    2.5660   -7.9090 C   0  0  0  0  0  0  0  0  0  0  0  0
   -9.2120    3.9480   -7.3560 C   0  0  0  0  0  0  0  0  0  0  0  0
   -9.0010    4.8820   -8.4490 N   0  0  0  0  0  0  0  0  0  0  0  0
   -8.9050    6.2060   -8.2640 N   0  0  0  0  0  0  0  0  0  0  0  0
   -8.7170    6.7220   -9.5060 C   0  0  0  0  0  0  0  0  0  0  0  0
  -10.3950    5.6880  -12.6830 H   0  0  0  0  0  0  0  0  0  0  0  0
   -9.9530    4.6360  -14.5500 H   0  0  0  0  0  0  0  0  0  0  0  0
   -8.5850    3.9370  -13.6660 H   0  0  0  0  0  0  0  0  0  0  0  0
   -8.1310    6.5840  -14.9670 H   0  0  0  0  0  0  0  0  0  0  0  0
   -6.2160    5.3680  -13.8860 H   0  0  0  0  0  0  0  0  0  0  0  0
   -6.3850    4.0850  -15.0600 H   0  0  0  0  0  0  0  0  0  0  0  0
   -5.7390    7.0270  -15.7460 H   0  0  0  0  0  0  0  0  0  0  0  0
   -4.6500    5.6630  -15.7930 H   0  0  0  0  0  0  0  0  0  0  0  0
   -5.8110    6.5970  -17.9830 H   0  0  0  0  0  0  0  0  0  0  0  0
   -5.4500    4.8870  -17.8050 H   0  0  0  0  0  0  0  0  0  0  0  0
   -7.2520    5.1740  -19.7490 H   0  0  0  0  0  0  0  0  0  0  0  0
   -9.5790    4.5650  -20.2290 H   0  0  0  0  0  0  0  0  0  0  0  0
  -11.1990    4.3620  -18.3570 H   0  0  0  0  0  0  0  0  0  0  0  0
  -10.4820    4.7660  -16.0540 H   0  0  0  0  0  0  0  0  0  0  0  0
   -8.2000    2.9600  -11.0840 H   0  0  0  0  0  0  0  0  0  0  0  0
   -9.9320    2.8820  -10.6720 H   0  0  0  0  0  0  0  0  0  0  0  0
   -8.7210    1.1890   -9.3530 H   0  0  0  0  0  0  0  0  0  0  0  0
   -7.5900    2.3870   -8.7810 H   0  0  0  0  0  0  0  0  0  0  0  0
  -10.6010    2.5430   -8.2290 H   0  0  0  0  0  0  0  0  0  0  0  0
   -9.4420    1.8110   -7.1260 H   0  0  0  0  0  0  0  0  0  0  0  0
   -8.2830    3.9170   -6.7780 H   0  0  0  0  0  0  0  0  0  0  0  0
  -10.0200    4.3280   -6.7210 H   0  0  0  0  0  0  0  0  0  0  0  0
   -8.6140    7.7950   -9.6090 H   0  0  0  0  0  0  0  0  0  0  0  0
  1  2  2  0
  2  3  1  0
  3  4  1  0
  4  5  1  0
  5  6  1  0
  6  7  1  0
  7  8  1  0
  8  9  1  0
  9 10  2  0
 10 11  1  0
 11 12  2  0
 12 13  1  0
 13 14  2  0
  2 15  1  0
 15 16  2  0
 16 17  1  0
 17 18  1  0
 18 19  1  0
 19 20  1  0
 20 21  1  0
 21 22  1  0
 22 23  2  0
 14  5  1  0
 14  9  1  0
 23 15  1  0
 21 16  1  0
  3 24  1  0
  4 25  1  0
  4 26  1  0
  5 27  1  0
  6 28  1  0
  6 29  1  0
  7 30  1  0
  7 31  1  0
  8 32  1  0
  8 33  1  0
 10 34  1  0
 11 35  1  0
 12 36  1  0
 13 37  1  0
 17 38  1  0
 17 39  1  0
 18 40  1  0
 18 41  1  0
 19 42  1  0
 19 43  1  0
 20 44  1  0
 20 45  1  0
 23 46  1  0
A    1
 O1 
A    2
 C1 
A    3
 N1 
A    4
 C2 
A    5
 C3 
A    6
 C4 
A    7
 C5 
A    8
 C6 
A    9
 C7 
A   10
 C8 
A   11
 C9 
A   12
 C10
A   13
 C11
A   14
 C12
A   15
 C13
A   16
 C14
A   17
 C15
A   18
 C16
A   19
 C17
A   20
 C18
A   21
 N2 
A   22
 N3 
A   23
 C19
A   24
 H1 
A   25
 H2 
A   26
 H3 
A   27
 H4 
A   28
 H5 
A   29
 H6 
A   30
 H7 
A   31
 H8 
A   32
 H9 
A   33
 H10
A   34
 H11
A   35
 H12
A   36
 H13
A   37
 H14
A   38
 H15
A   39
 H16
A   40
 H17
A   41
 H18
A   42
 H19
A   43
 H20
A   44
 H21
A   45
 H22
A   46
 H23
M  END
>  <ref_pdb>  (29) 
x0051_0B

>  <ref_mols>  (29) 
x0969_1B,x0455_0B

>  <original SMILES>  (29) 
[H]c1nn2c(c1C(=O)N([H])C([H])([H])C1([H])c3c([H])c([H])c([H])c([H])c3C([H])([H])C([H])([H])C1([H])[H])C([H])([H])C([H])([H])C([H])([H])C2([H])[H]

>  <index>  (29) 
32

>  <∆∆G>  (29) 
-7.809806

>  <∆G_bound>  (29) 
-6.94656

>  <∆G_unbound>  (29) 
0.863246

>  <comRMSD>  (29) 
0.321325

>  <N_constrained_atoms>  (29) 
20.0

>  <N_unconstrained_atoms>  (29) 
3.0

>  <runtime>  (29) 
71.186615

>  <LE>  (29) 
0.339557

>  <percent_hybrid>  (29) 
50.0

>  <dist>  (29) 
6.0

>  <ecfp4>  (29) 
0.235294

>  <daylight>  (29) 
0.260504

>  <topodist>  (29) 
1.0

>  <mces>  (29) 
25.0

>  <tdn>  (29) 
0.0

>  <tup>  (29) 
1.0

>  <rdn>  (29) 
0.0

>  <rup>  (29) 
0.0

>  <ldn>  (29) 
0.0

>  <lup>  (29) 
0.0

>  <mut>  (29) 
4.0

>  <maj>  (29) 
4.0

>  <min>  (29) 
0.0

>  <hyb>  (29) 
1.0

>  <sub>  (29) 
0.0

>  <query_index>  (29) 
204.0

>  <max_hit_Tanimoto>  (29) 
0.315934

>  <largest_ring>  (29) 
0

>  <N_interactions_kept>  (29) 
2.0

>  <N_interactions_lost>  (29) 
0.5

>  <interaction_uniqueness_metric>  (29) 
0.214959

>  <ad_hoc_penalty>  (29) 
-37.554466

>  <N_rotatable_bonds>  (29) 
3

>  <N_HA>  (29) 
23

>  <cluster>  (29) 
6187

>  <N_interactions>  (29) 
5

>  <Enamine>  (29) 
1

>  <Mcule>  (29) 
0

>  <N_PAINS>  (29) 
0

>  <UFF_Gibbs>  (29) 
91.771544

>  <strain_per_HA>  (29) 
3.990067

>  <saltbridge:HIS:51>  (29) 
0

>  <pistack:HIS:51>  (29) 
1

>  <hydroph_interaction:HIS:51>  (29) 
0

>  <hbond:ALA:132>  (29) 
0

>  <hbond:SER:135>  (29) 
0

>  <hydroph_interaction:TYR:150>  (29) 
1

>  <pistack:TYR:161>  (29) 
1

>  <hydroph_interaction:TYR:161>  (29) 
0

>  <hydroph_interaction:ASP:83>  (29) 
1

>  <hbond:TYR:130>  (29) 
0

>  <hydroph_interaction:ALA:132>  (29) 
0

>  <hbond:HIS:51>  (29) 
1

>  <hbond:ASP:129>  (29) 
0

>  <hbond:TYR:150>  (29) 
0

>  <hbond:GLY:151>  (29) 
0

>  <hbond:TYR:161>  (29) 
0

>  <hydroph_interaction:TYR:130>  (29) 
0

>  <hydroph_interaction:PRO:131>  (29) 
0

>  <hydroph_interaction:ASP:129>  (29) 
0

>  <saltbridge:ASP:75>  (29) 
0

>  <saltbridge:ASP:83>  (29) 
0

>  <hydroph_interaction:ASN:152>  (29) 
0

>  <halogenbond:TYR:150>  (29) 
0

>  <hbond:ASP:83>  (29) 
0

>  <hydroph_interaction:VAL:155>  (29) 
0

>  <pication:TYR:161>  (29) 
0

>  <hbond:PRO:131>  (29) 
0

>  <hbond:LEU:128>  (29) 
0

>  <saltbridge:ASP:129>  (29) 
0

>  <hbond:THR:134>  (29) 
0

>  <pication:HIS:51>  (29) 
0

>  <hbond:SER:81>  (29) 
0

>  <hbond:GLY:159>  (29) 
0

>  <hydroph_interaction:PRO:101>  (29) 
0

>  <hydroph_interaction:THR:134>  (29) 
0

>  <hbond:GLY:82>  (29) 
0

>  <hydroph_interaction:GLU:104>  (29) 
0

>  <hydroph_interaction:VAL:36>  (29) 
0

>  <hydroph_interaction:MET:49>  (29) 
0

>  <halogenbond:GLU:104>  (29) 
0

>  <hydroph_interaction:LYS:107>  (29) 
0

$$$$
CSSB00161000141
     RDKit          3D

 38 39  0  0  0  0  0  0  0  0999 V2000
   -1.0360    4.6160  -16.0030 C   0  0  0  0  0  0  0  0  0  0  0  0
   -2.4430    4.2080  -16.4010 C   0  0  0  0  0  0  0  0  0  0  0  0
   -2.3260    3.6600  -17.8430 C   0  0  0  0  0  0  0  0  0  0  0  0
   -2.7710    3.0790  -15.4220 C   0  0  0  0  0  0  0  0  0  0  0  0
   -3.3460    5.0600  -16.3720 O   0  0  0  0  0  0  0  0  0  0  0  0
   -4.0420    5.4970  -17.4880 C   0  0  0  0  0  0  0  0  0  0  0  0
   -3.5360    5.7470  -18.5830 O   0  0  0  0  0  0  0  0  0  0  0  0
   -5.4000    5.6470  -17.2230 N   0  0  0  0  0  0  0  0  0  0  0  0
   -5.8140    6.0330  -15.8540 C   0  0  0  0  0  0  0  0  0  0  0  0
   -7.1890    5.8760  -15.6230 C   0  0  0  0  0  0  0  0  0  0  0  0
   -8.0080    5.5130  -16.6960 C   0  0  0  0  0  0  0  0  0  0  0  0
   -7.5590    5.6270  -17.9940 C   0  0  0  0  0  0  0  0  0  0  0  0
   -8.5170    5.2020  -18.8920 C   0  0  0  0  0  0  0  0  0  0  0  0
   -9.7080    4.7610  -18.3120 C   0  0  0  0  0  0  0  0  0  0  0  0
   -9.5750    4.9200  -16.6030 S   0  0  0  0  0  0  0  0  0  0  0  0
   -6.1730    6.1830  -18.2360 C   0  0  0  0  0  0  0  0  0  0  0  0
   -5.9890    6.4090  -19.5950 C   0  0  0  0  0  0  0  0  0  0  0  0
   -5.7440    5.2010  -20.3910 N   0  0  0  0  0  0  0  0  0  0  0  0
   -0.6160    3.8980  -15.2880 H   0  0  0  0  0  0  0  0  0  0  0  0
   -1.0250    5.6140  -15.5580 H   0  0  0  0  0  0  0  0  0  0  0  0
   -0.3720    4.6260  -16.8750 H   0  0  0  0  0  0  0  0  0  0  0  0
   -1.5480    4.0100  -18.5080 H   0  0  0  0  0  0  0  0  0  0  0  0
   -2.2190    2.5760  -17.8280 H   0  0  0  0  0  0  0  0  0  0  0  0
   -3.2550    3.8640  -18.3650 H   0  0  0  0  0  0  0  0  0  0  0  0
   -2.5970    2.0900  -15.8600 H   0  0  0  0  0  0  0  0  0  0  0  0
   -2.1280    3.1350  -14.5410 H   0  0  0  0  0  0  0  0  0  0  0  0
   -3.8190    3.1250  -15.1040 H   0  0  0  0  0  0  0  0  0  0  0  0
   -5.1610    5.5480  -15.1360 H   0  0  0  0  0  0  0  0  0  0  0  0
   -5.5740    7.0980  -15.7680 H   0  0  0  0  0  0  0  0  0  0  0  0
   -7.3040    5.0940  -14.8620 H   0  0  0  0  0  0  0  0  0  0  0  0
   -7.5600    6.8020  -15.1700 H   0  0  0  0  0  0  0  0  0  0  0  0
   -8.2430    5.2500  -19.9470 H   0  0  0  0  0  0  0  0  0  0  0  0
  -10.6030    4.3860  -18.7800 H   0  0  0  0  0  0  0  0  0  0  0  0
   -6.2690    7.2160  -17.8860 H   0  0  0  0  0  0  0  0  0  0  0  0
   -5.2190    7.1150  -19.8980 H   0  0  0  0  0  0  0  0  0  0  0  0
   -6.9220    6.8330  -19.9860 H   0  0  0  0  0  0  0  0  0  0  0  0
   -6.3380    4.4490  -20.0450 H   0  0  0  0  0  0  0  0  0  0  0  0
   -4.7810    4.8980  -20.2460 H   0  0  0  0  0  0  0  0  0  0  0  0
  1  2  1  0
  2  3  1  0
  2  4  1  0
  2  5  1  0
  5  6  1  0
  6  7  2  0
  6  8  1  0
  8  9  1  0
  9 10  1  0
 10 11  1  0
 11 12  2  0
 12 13  1  0
 13 14  2  0
 14 15  1  0
 12 16  1  0
 16 17  1  0
 17 18  1  0
 16  8  1  0
 15 11  1  0
  1 19  1  0
  1 20  1  0
  1 21  1  0
  3 22  1  0
  3 23  1  0
  3 24  1  0
  4 25  1  0
  4 26  1  0
  4 27  1  0
  9 28  1  0
  9 29  1  0
 10 30  1  0
 10 31  1  0
 13 32  1  0
 14 33  1  0
 16 34  1  0
 17 35  1  0
 17 36  1  0
 18 37  1  0
 18 38  1  0
A    1
 C1 
A    2
 C2 
A    3
 C3 
A    4
 C4 
A    5
 O1 
A    6
 C5 
A    7
 O2 
A    8
 N1 
A    9
 C6 
A   10
 C7 
A   11
 C8 
A   12
 C9 
A   13
 C10
A   14
 C11
A   15
 S1 
A   16
 C12
A   17
 C13
A   18
 N2 
A   19
 H1 
A   20
 H2 
A   21
 H3 
A   22
 H4 
A   23
 H5 
A   24
 H6 
A   25
 H7 
A   26
 H8 
A   27
 H9 
A   28
 H10
A   29
 H11
A   30
 H12
A   31
 H13
A   32
 H14
A   33
 H15
A   34
 H16
A   35
 H17
A   36
 H18
A   37
 H19
A   38
 H20
M  END
>  <ref_pdb>  (30) 
x0051_0B

>  <ref_mols>  (30) 
x0472_0B,x0227_0B

>  <original SMILES>  (30) 
[H]c1sc2c(c1[H])C([H])(C([H])([H])N([H])[H])N(C(=O)OC(C([H])([H])[H])(C([H])([H])[H])C([H])([H])[H])C([H])([H])C2([H])[H]

>  <index>  (30) 
4

>  <∆∆G>  (30) 
-8.906276

>  <∆G_bound>  (30) 
-8.608784

>  <∆G_unbound>  (30) 
0.297492

>  <comRMSD>  (30) 
0.695929

>  <N_constrained_atoms>  (30) 
18.0

>  <N_unconstrained_atoms>  (30) 
3.0

>  <runtime>  (30) 
24.605477

>  <LE>  (30) 
0.424108

>  <percent_hybrid>  (30) 
50.0

>  <dist>  (30) 
6.0

>  <ecfp4>  (30) 
0.5

>  <daylight>  (30) 
0.672727

>  <topodist>  (30) 
3.0

>  <mces>  (30) 
16.0

>  <tdn>  (30) 
0.0

>  <tup>  (30) 
2.0

>  <rdn>  (30) 
0.0

>  <rup>  (30) 
0.0

>  <ldn>  (30) 
0.0

>  <lup>  (30) 
1.0

>  <mut>  (30) 
2.0

>  <maj>  (30) 
2.0

>  <min>  (30) 
0.0

>  <hyb>  (30) 
1.0

>  <sub>  (30) 
1.0

>  <query_index>  (30) 
78.0

>  <max_hit_Tanimoto>  (30) 
0.480043

>  <largest_ring>  (30) 
0

>  <N_interactions_kept>  (30) 
4.5

>  <N_interactions_lost>  (30) 
0.5

>  <interaction_uniqueness_metric>  (30) 
0.073924

>  <ad_hoc_penalty>  (30) 
-37.527639

>  <N_rotatable_bonds>  (30) 
2

>  <N_HA>  (30) 
18

>  <cluster>  (30) 
6212

>  <N_interactions>  (30) 
6

>  <Enamine>  (30) 
1

>  <Mcule>  (30) 
0

>  <N_PAINS>  (30) 
0

>  <UFF_Gibbs>  (30) 
220.494792

>  <strain_per_HA>  (30) 
12.249711

>  <saltbridge:HIS:51>  (30) 
0

>  <pistack:HIS:51>  (30) 
0

>  <hydroph_interaction:HIS:51>  (30) 
0

>  <hbond:ALA:132>  (30) 
0

>  <hbond:SER:135>  (30) 
0

>  <hydroph_interaction:TYR:150>  (30) 
0

>  <pistack:TYR:161>  (30) 
0

>  <hydroph_interaction:TYR:161>  (30) 
4

>  <hydroph_interaction:ASP:83>  (30) 
0

>  <hbond:TYR:130>  (30) 
0

>  <hydroph_interaction:ALA:132>  (30) 
1

>  <hbond:HIS:51>  (30) 
0

>  <hbond:ASP:129>  (30) 
0

>  <hbond:TYR:150>  (30) 
0

>  <hbond:GLY:151>  (30) 
0

>  <hbond:TYR:161>  (30) 
0

>  <hydroph_interaction:TYR:130>  (30) 
0

>  <hydroph_interaction:PRO:131>  (30) 
0

>  <hydroph_interaction:ASP:129>  (30) 
0

>  <saltbridge:ASP:75>  (30) 
0

>  <saltbridge:ASP:83>  (30) 
0

>  <hydroph_interaction:ASN:152>  (30) 
0

>  <halogenbond:TYR:150>  (30) 
0

>  <hbond:ASP:83>  (30) 
0

>  <hydroph_interaction:VAL:155>  (30) 
1

>  <pication:TYR:161>  (30) 
0

>  <hbond:PRO:131>  (30) 
0

>  <hbond:LEU:128>  (30) 
0

>  <saltbridge:ASP:129>  (30) 
0

>  <hbond:THR:134>  (30) 
0

>  <pication:HIS:51>  (30) 
0

>  <hbond:SER:81>  (30) 
0

>  <hbond:GLY:159>  (30) 
0

>  <hydroph_interaction:PRO:101>  (30) 
0

>  <hydroph_interaction:THR:134>  (30) 
0

>  <hbond:GLY:82>  (30) 
0

>  <hydroph_interaction:GLU:104>  (30) 
0

>  <hydroph_interaction:VAL:36>  (30) 
0

>  <hydroph_interaction:MET:49>  (30) 
0

>  <halogenbond:GLU:104>  (30) 
0

>  <hydroph_interaction:LYS:107>  (30) 
0

$$$$
Z2783649254
     RDKit          3D

 49 52  0  0  0  0  0  0  0  0999 V2000
   -9.1720    4.5640  -18.6120 C   0  0  0  0  0  0  0  0  0  0  0  0
   -8.5310    5.1870  -17.3920 C   0  0  0  0  0  0  0  0  0  0  0  0
   -9.0680    5.1830  -16.1050 C   0  0  0  0  0  0  0  0  0  0  0  0
   -8.2520    5.8460  -15.1980 C   0  0  0  0  0  0  0  0  0  0  0  0
   -8.4390    6.0950  -13.7820 C   0  0  0  0  0  0  0  0  0  0  0  0
   -8.3340    7.2770  -13.4660 O   0  0  0  0  0  0  0  0  0  0  0  0
   -8.7170    5.1050  -12.7830 N   0  0  0  0  0  0  0  0  0  0  0  0
   -8.7760    5.3840  -11.2690 C   0  0  0  0  0  0  0  0  0  0  0  0
   -8.9700    4.2090  -10.3160 C   0  0  0  0  0  0  0  0  0  0  0  0
   -9.1220    2.8440  -10.4660 C   0  0  0  0  0  0  0  0  0  0  0  0
   -9.4140    2.1180   -9.2960 C   0  0  0  0  0  0  0  0  0  0  0  0
   -9.5910    2.7860   -8.0480 C   0  0  0  0  0  0  0  0  0  0  0  0
   -9.1340    4.1100   -7.7750 C   0  0  0  0  0  0  0  0  0  0  0  0
   -8.9730    4.8600   -9.0070 N   0  0  0  0  0  0  0  0  0  0  0  0
   -8.8120    6.2180   -9.0820 N   0  0  0  0  0  0  0  0  0  0  0  0
   -8.6980    6.5150  -10.4260 C   0  0  0  0  0  0  0  0  0  0  0  0
   -7.1640    6.2770  -15.9280 N   0  0  0  0  0  0  0  0  0  0  0  0
   -7.3410    5.8860  -17.2280 N   0  0  0  0  0  0  0  0  0  0  0  0
   -6.2940    6.2510  -18.2320 C   0  0  0  0  0  0  0  0  0  0  0  0
   -5.4160    5.2050  -18.5130 C   0  0  0  0  0  0  0  0  0  0  0  0
   -4.4200    5.5230  -19.4470 C   0  0  0  0  0  0  0  0  0  0  0  0
   -4.4330    6.7830  -19.9910 C   0  0  0  0  0  0  0  0  0  0  0  0
   -5.6810    7.0210  -20.5610 C   0  0  0  0  0  0  0  0  0  0  0  0
   -6.8090    6.8280  -19.5510 C   0  0  0  0  0  0  0  0  0  0  0  0
   -9.3510    3.4990  -18.4530 H   0  0  0  0  0  0  0  0  0  0  0  0
   -8.5360    4.6580  -19.5010 H   0  0  0  0  0  0  0  0  0  0  0  0
  -10.1220    5.0610  -18.8390 H   0  0  0  0  0  0  0  0  0  0  0  0
  -10.0140    4.7250  -15.8260 H   0  0  0  0  0  0  0  0  0  0  0  0
   -9.1480    4.2640  -13.1380 H   0  0  0  0  0  0  0  0  0  0  0  0
   -8.2100    2.4240  -10.9070 H   0  0  0  0  0  0  0  0  0  0  0  0
   -9.9220    2.6690  -11.1950 H   0  0  0  0  0  0  0  0  0  0  0  0
   -8.5830    1.4310   -9.1630 H   0  0  0  0  0  0  0  0  0  0  0  0
  -10.2620    1.4510   -9.3500 H   0  0  0  0  0  0  0  0  0  0  0  0
   -9.1390    2.1510   -7.2780 H   0  0  0  0  0  0  0  0  0  0  0  0
  -10.6610    2.7500   -7.8290 H   0  0  0  0  0  0  0  0  0  0  0  0
   -8.1430    4.0520   -7.3170 H   0  0  0  0  0  0  0  0  0  0  0  0
   -9.7410    4.7490   -7.1290 H   0  0  0  0  0  0  0  0  0  0  0  0
   -8.5600    7.5310  -10.7900 H   0  0  0  0  0  0  0  0  0  0  0  0
   -5.7080    7.0510  -17.7590 H   0  0  0  0  0  0  0  0  0  0  0  0
   -5.0350    4.6840  -17.6440 H   0  0  0  0  0  0  0  0  0  0  0  0
   -6.0320    4.4790  -19.0450 H   0  0  0  0  0  0  0  0  0  0  0  0
   -4.5020    4.8240  -20.2780 H   0  0  0  0  0  0  0  0  0  0  0  0
   -3.4380    5.3420  -18.9930 H   0  0  0  0  0  0  0  0  0  0  0  0
   -3.6550    6.8560  -20.7630 H   0  0  0  0  0  0  0  0  0  0  0  0
   -4.2060    7.5420  -19.2320 H   0  0  0  0  0  0  0  0  0  0  0  0
   -5.8460    6.3400  -21.4050 H   0  0  0  0  0  0  0  0  0  0  0  0
   -5.7100    8.0390  -20.9670 H   0  0  0  0  0  0  0  0  0  0  0  0
   -7.2710    7.7900  -19.4060 H   0  0  0  0  0  0  0  0  0  0  0  0
   -7.5750    6.1710  -19.9730 H   0  0  0  0  0  0  0  0  0  0  0  0
  1  2  1  0
  2  3  2  0
  3  4  1  0
  4  5  1  0
  5  6  2  0
  5  7  1  0
  7  8  1  0
  8  9  2  0
  9 10  1  0
 10 11  1  0
 11 12  1  0
 12 13  1  0
 13 14  1  0
 14 15  1  0
 15 16  2  0
  4 17  2  0
 17 18  1  0
 18 19  1  0
 19 20  1  0
 20 21  1  0
 21 22  1  0
 22 23  1  0
 23 24  1  0
 18  2  1  0
 16  8  1  0
 14  9  1  0
 24 19  1  0
  1 25  1  0
  1 26  1  0
  1 27  1  0
  3 28  1  0
  7 29  1  0
 10 30  1  0
 10 31  1  0
 11 32  1  0
 11 33  1  0
 12 34  1  0
 12 35  1  0
 13 36  1  0
 13 37  1  0
 16 38  1  0
 19 39  1  0
 20 40  1  0
 20 41  1  0
 21 42  1  0
 21 43  1  0
 22 44  1  0
 22 45  1  0
 23 46  1  0
 23 47  1  0
 24 48  1  0
 24 49  1  0
A    1
 C1 
A    2
 C2 
A    3
 C3 
A    4
 C4 
A    5
 C5 
A    6
 O1 
A    7
 N1 
A    8
 C6 
A    9
 C7 
A   10
 C8 
A   11
 C9 
A   12
 C10
A   13
 C11
A   14
 N2 
A   15
 N3 
A   16
 C12
A   17
 N4 
A   18
 N5 
A   19
 C13
A   20
 C14
A   21
 C15
A   22
 C16
A   23
 C17
A   24
 C18
A   25
 H1 
A   26
 H2 
A   27
 H3 
A   28
 H4 
A   29
 H5 
A   30
 H6 
A   31
 H7 
A   32
 H8 
A   33
 H9 
A   34
 H10
A   35
 H11
A   36
 H12
A   37
 H13
A   38
 H14
A   39
 H15
A   40
 H16
A   41
 H17
A   42
 H18
A   43
 H19
A   44
 H20
A   45
 H21
A   46
 H22
A   47
 H23
A   48
 H24
A   49
 H25
M  END
>  <ref_pdb>  (31) 
x0051_0B

>  <ref_mols>  (31) 
x0969_1B,x0917_0B

>  <original SMILES>  (31) 
[H]c1nn2c(c1N([H])C(=O)c1nn(C3([H])C([H])([H])C([H])([H])C([H])([H])C([H])([H])C3([H])[H])c(C([H])([H])[H])c1[H])C([H])([H])C([H])([H])C([H])([H])C2([H])[H]

>  <index>  (31) 
19

>  <∆∆G>  (31) 
-7.476797

>  <∆G_bound>  (31) 
-6.822353

>  <∆G_unbound>  (31) 
0.654444

>  <comRMSD>  (31) 
0.591366

>  <N_constrained_atoms>  (31) 
25.0

>  <N_unconstrained_atoms>  (31) 
0.0

>  <runtime>  (31) 
62.421511

>  <LE>  (31) 
0.299072

>  <percent_hybrid>  (31) 
38.0

>  <dist>  (31) 
8.0

>  <ecfp4>  (31) 
0.204545

>  <daylight>  (31) 
0.287324

>  <topodist>  (31) 
1.0

>  <mces>  (31) 
27.0

>  <tdn>  (31) 
1.0

>  <tup>  (31) 
0.0

>  <rdn>  (31) 
0.0

>  <rup>  (31) 
0.0

>  <ldn>  (31) 
0.0

>  <lup>  (31) 
0.0

>  <mut>  (31) 
6.0

>  <maj>  (31) 
6.0

>  <min>  (31) 
0.0

>  <hyb>  (31) 
1.0

>  <sub>  (31) 
0.0

>  <query_index>  (31) 
70.0

>  <max_hit_Tanimoto>  (31) 
0.273841

>  <largest_ring>  (31) 
0

>  <N_interactions_kept>  (31) 
2.0

>  <N_interactions_lost>  (31) 
2.0

>  <interaction_uniqueness_metric>  (31) 
0.170032

>  <ad_hoc_penalty>  (31) 
-37.233121

>  <N_rotatable_bonds>  (31) 
4

>  <N_HA>  (31) 
24

>  <cluster>  (31) 
6199

>  <N_interactions>  (31) 
9

>  <Enamine>  (31) 
1

>  <Mcule>  (31) 
0

>  <N_PAINS>  (31) 
0

>  <UFF_Gibbs>  (31) 
164.922244

>  <strain_per_HA>  (31) 
6.87176

>  <saltbridge:HIS:51>  (31) 
0

>  <pistack:HIS:51>  (31) 
1

>  <hydroph_interaction:HIS:51>  (31) 
1

>  <hbond:ALA:132>  (31) 
0

>  <hbond:SER:135>  (31) 
0

>  <hydroph_interaction:TYR:150>  (31) 
1

>  <pistack:TYR:161>  (31) 
1

>  <hydroph_interaction:TYR:161>  (31) 
3

>  <hydroph_interaction:ASP:83>  (31) 
0

>  <hbond:TYR:130>  (31) 
0

>  <hydroph_interaction:ALA:132>  (31) 
1

>  <hbond:HIS:51>  (31) 
0

>  <hbond:ASP:129>  (31) 
0

>  <hbond:TYR:150>  (31) 
0

>  <hbond:GLY:151>  (31) 
1

>  <hbond:TYR:161>  (31) 
0

>  <hydroph_interaction:TYR:130>  (31) 
0

>  <hydroph_interaction:PRO:131>  (31) 
0

>  <hydroph_interaction:ASP:129>  (31) 
0

>  <saltbridge:ASP:75>  (31) 
0

>  <saltbridge:ASP:83>  (31) 
0

>  <hydroph_interaction:ASN:152>  (31) 
0

>  <halogenbond:TYR:150>  (31) 
0

>  <hbond:ASP:83>  (31) 
0

>  <hydroph_interaction:VAL:155>  (31) 
0

>  <pication:TYR:161>  (31) 
0

>  <hbond:PRO:131>  (31) 
0

>  <hbond:LEU:128>  (31) 
0

>  <saltbridge:ASP:129>  (31) 
0

>  <hbond:THR:134>  (31) 
0

>  <pication:HIS:51>  (31) 
0

>  <hbond:SER:81>  (31) 
0

>  <hbond:GLY:159>  (31) 
0

>  <hydroph_interaction:PRO:101>  (31) 
0

>  <hydroph_interaction:THR:134>  (31) 
0

>  <hbond:GLY:82>  (31) 
0

>  <hydroph_interaction:GLU:104>  (31) 
0

>  <hydroph_interaction:VAL:36>  (31) 
0

>  <hydroph_interaction:MET:49>  (31) 
0

>  <halogenbond:GLU:104>  (31) 
0

>  <hydroph_interaction:LYS:107>  (31) 
0

$$$$
CSSB00005866780
     RDKit          3D

 35 36  0  0  0  0  0  0  0  0999 V2000
   -1.9860    5.1040  -18.0460 C   0  0  0  0  0  0  0  0  0  0  0  0
   -3.0330    5.3890  -16.9710 C   0  0  0  0  0  0  0  0  0  0  0  0
   -3.0180    4.4630  -15.9180 C   0  0  0  0  0  0  0  0  0  0  0  0
   -4.4260    5.3840  -17.5890 C   0  0  0  0  0  0  0  0  0  0  0  0
   -5.2270    6.4170  -17.1530 C   0  0  0  0  0  0  0  0  0  0  0  0
   -6.4810    5.9890  -16.5990 N   0  0  0  0  0  0  0  0  0  0  0  0
   -6.6910    6.0000  -15.2620 N   0  0  0  0  0  0  0  0  0  0  0  0
   -7.9560    5.5420  -15.1390 C   0  0  0  0  0  0  0  0  0  0  0  0
   -8.5930    5.3940  -13.7860 C   0  0  0  0  0  0  0  0  0  0  0  0
   -9.0520    6.6980  -13.2950 N   0  0  0  0  0  0  0  0  0  0  0  0
   -8.5190    5.2530  -16.4070 C   0  0  0  0  0  0  0  0  0  0  0  0
   -9.7420    4.7770  -16.8750 C   0  0  0  0  0  0  0  0  0  0  0  0
   -9.9600    4.6050  -18.2370 C   0  0  0  0  0  0  0  0  0  0  0  0
   -8.9620    4.9020  -19.1530 C   0  0  0  0  0  0  0  0  0  0  0  0
   -7.7310    5.3800  -18.7090 C   0  0  0  0  0  0  0  0  0  0  0  0
   -7.5360    5.5490  -17.3300 C   0  0  0  0  0  0  0  0  0  0  0  0
   -2.1910    4.1600  -18.5570 H   0  0  0  0  0  0  0  0  0  0  0  0
   -0.9750    5.0720  -17.6350 H   0  0  0  0  0  0  0  0  0  0  0  0
   -1.9950    5.8970  -18.8040 H   0  0  0  0  0  0  0  0  0  0  0  0
   -2.8280    6.3780  -16.5420 H   0  0  0  0  0  0  0  0  0  0  0  0
   -3.2460    3.4630  -16.2830 H   0  0  0  0  0  0  0  0  0  0  0  0
   -3.7700    4.7210  -15.1660 H   0  0  0  0  0  0  0  0  0  0  0  0
   -2.0420    4.4360  -15.4210 H   0  0  0  0  0  0  0  0  0  0  0  0
   -4.9150    4.4340  -17.3520 H   0  0  0  0  0  0  0  0  0  0  0  0
   -4.3470    5.4310  -18.6830 H   0  0  0  0  0  0  0  0  0  0  0  0
   -5.4390    7.1280  -17.9600 H   0  0  0  0  0  0  0  0  0  0  0  0
   -4.7080    6.9860  -16.3710 H   0  0  0  0  0  0  0  0  0  0  0  0
   -9.4460    4.7050  -13.8230 H   0  0  0  0  0  0  0  0  0  0  0  0
   -7.8610    4.9760  -13.0870 H   0  0  0  0  0  0  0  0  0  0  0  0
   -8.9040    6.7340  -12.2890 H   0  0  0  0  0  0  0  0  0  0  0  0
  -10.0680    6.7020  -13.4280 H   0  0  0  0  0  0  0  0  0  0  0  0
  -10.5180    4.5420  -16.1650 H   0  0  0  0  0  0  0  0  0  0  0  0
  -10.9210    4.2360  -18.5770 H   0  0  0  0  0  0  0  0  0  0  0  0
   -9.1400    4.7650  -20.2150 H   0  0  0  0  0  0  0  0  0  0  0  0
   -6.9510    5.6140  -19.4270 H   0  0  0  0  0  0  0  0  0  0  0  0
  1  2  1  0
  2  3  1  0
  2  4  1  0
  4  5  1  0
  5  6  1  0
  6  7  1  0
  7  8  2  0
  8  9  1  0
  9 10  1  0
  8 11  1  0
 11 12  2  0
 12 13  1  0
 13 14  2  0
 14 15  1  0
 15 16  2  0
 16  6  1  0
 16 11  1  0
  1 17  1  0
  1 18  1  0
  1 19  1  0
  2 20  1  0
  3 21  1  0
  3 22  1  0
  3 23  1  0
  4 24  1  0
  4 25  1  0
  5 26  1  0
  5 27  1  0
  9 28  1  0
  9 29  1  0
 10 30  1  0
 10 31  1  0
 12 32  1  0
 13 33  1  0
 14 34  1  0
 15 35  1  0
A    1
 C1 
A    2
 C2 
A    3
 C3 
A    4
 C4 
A    5
 C5 
A    6
 N1 
A    7
 N2 
A    8
 C6 
A    9
 C7 
A   10
 N3 
A   11
 C8 
A   12
 C9 
A   13
 C10
A   14
 C11
A   15
 C12
A   16
 C13
A   17
 H1 
A   18
 H2 
A   19
 H3 
A   20
 H4 
A   21
 H5 
A   22
 H6 
A   23
 H7 
A   24
 H8 
A   25
 H9 
A   26
 H10
A   27
 H11
A   28
 H12
A   29
 H13
A   30
 H14
A   31
 H15
A   32
 H16
A   33
 H17
A   34
 H18
A   35
 H19
M  END
>  <ref_pdb>  (32) 
x0051_0B

>  <ref_mols>  (32) 
x0951_0B,x0472_0B

>  <original SMILES>  (32) 
[H]c1c([H])c([H])c2c(c(C([H])([H])N([H])[H])nn2C([H])([H])C([H])([H])C([H])(C([H])([H])[H])C([H])([H])[H])c1[H]

>  <index>  (32) 
48

>  <∆∆G>  (32) 
-7.841771

>  <∆G_bound>  (32) 
-8.055974

>  <∆G_unbound>  (32) 
-0.214203

>  <comRMSD>  (32) 
0.580927

>  <N_constrained_atoms>  (32) 
18.0

>  <N_unconstrained_atoms>  (32) 
1.0

>  <runtime>  (32) 
20.259783

>  <LE>  (32) 
0.412725

>  <percent_hybrid>  (32) 
46.0

>  <dist>  (32) 
5.0

>  <ecfp4>  (32) 
0.388889

>  <daylight>  (32) 
0.706767

>  <topodist>  (32) 
4.0

>  <mces>  (32) 
15.0

>  <tdn>  (32) 
2.0

>  <tup>  (32) 
2.0

>  <rdn>  (32) 
0.0

>  <rup>  (32) 
0.0

>  <ldn>  (32) 
0.0

>  <lup>  (32) 
0.0

>  <mut>  (32) 
1.0

>  <maj>  (32) 
1.0

>  <min>  (32) 
0.0

>  <hyb>  (32) 
0.0

>  <sub>  (32) 
2.0

>  <query_index>  (32) 
55.0

>  <max_hit_Tanimoto>  (32) 
0.163221

>  <largest_ring>  (32) 
0

>  <N_interactions_kept>  (32) 
3.0

>  <N_interactions_lost>  (32) 
0.5

>  <interaction_uniqueness_metric>  (32) 
0.141194

>  <ad_hoc_penalty>  (32) 
-36.065158

>  <N_rotatable_bonds>  (32) 
7

>  <N_HA>  (32) 
16

>  <cluster>  (32) 
6173

>  <N_interactions>  (32) 
7

>  <Enamine>  (32) 
1

>  <Mcule>  (32) 
0

>  <N_PAINS>  (32) 
0

>  <UFF_Gibbs>  (32) 
40.756077

>  <strain_per_HA>  (32) 
2.547255

>  <saltbridge:HIS:51>  (32) 
0

>  <pistack:HIS:51>  (32) 
0

>  <hydroph_interaction:HIS:51>  (32) 
0

>  <hbond:ALA:132>  (32) 
0

>  <hbond:SER:135>  (32) 
0

>  <hydroph_interaction:TYR:150>  (32) 
1

>  <pistack:TYR:161>  (32) 
0

>  <hydroph_interaction:TYR:161>  (32) 
4

>  <hydroph_interaction:ASP:83>  (32) 
0

>  <hbond:TYR:130>  (32) 
0

>  <hydroph_interaction:ALA:132>  (32) 
0

>  <hbond:HIS:51>  (32) 
1

>  <hbond:ASP:129>  (32) 
0

>  <hbond:TYR:150>  (32) 
0

>  <hbond:GLY:151>  (32) 
0

>  <hbond:TYR:161>  (32) 
0

>  <hydroph_interaction:TYR:130>  (32) 
0

>  <hydroph_interaction:PRO:131>  (32) 
0

>  <hydroph_interaction:ASP:129>  (32) 
0

>  <saltbridge:ASP:75>  (32) 
0

>  <saltbridge:ASP:83>  (32) 
0

>  <hydroph_interaction:ASN:152>  (32) 
0

>  <halogenbond:TYR:150>  (32) 
0

>  <hbond:ASP:83>  (32) 
0

>  <hydroph_interaction:VAL:155>  (32) 
1

>  <pication:TYR:161>  (32) 
0

>  <hbond:PRO:131>  (32) 
0

>  <hbond:LEU:128>  (32) 
0

>  <saltbridge:ASP:129>  (32) 
0

>  <hbond:THR:134>  (32) 
0

>  <pication:HIS:51>  (32) 
0

>  <hbond:SER:81>  (32) 
0

>  <hbond:GLY:159>  (32) 
0

>  <hydroph_interaction:PRO:101>  (32) 
0

>  <hydroph_interaction:THR:134>  (32) 
0

>  <hbond:GLY:82>  (32) 
0

>  <hydroph_interaction:GLU:104>  (32) 
0

>  <hydroph_interaction:VAL:36>  (32) 
0

>  <hydroph_interaction:MET:49>  (32) 
0

>  <halogenbond:GLU:104>  (32) 
0

>  <hydroph_interaction:LYS:107>  (32) 
0

$$$$
PV-007140268584
     RDKit          3D

 52 56  0  0  0  0  0  0  0  0999 V2000
   -4.3120    5.3390  -21.3000 O   0  0  0  0  0  0  0  0  0  0  0  0
   -5.1530    6.1440  -20.9090 C   0  0  0  0  0  0  0  0  0  0  0  0
   -5.4260    7.3270  -21.8430 C   0  0  0  0  0  0  0  0  0  0  0  0
   -6.0040    7.0870  -23.1190 C   0  0  0  0  0  0  0  0  0  0  0  0
   -6.2620    8.1260  -23.9960 C   0  0  0  0  0  0  0  0  0  0  0  0
   -5.9580    9.4370  -23.6510 C   0  0  0  0  0  0  0  0  0  0  0  0
   -6.2350   10.5150  -24.5910 C   0  0  0  0  0  0  0  0  0  0  0  0
   -5.6710   10.2060  -26.1810 S   0  0  0  0  0  0  0  0  0  0  0  0
   -7.0970    9.4850  -26.7980 C   0  0  0  0  0  0  0  0  0  0  0  0
   -7.3170    8.1790  -27.1800 N   0  0  0  0  0  0  0  0  0  0  0  0
   -8.6720    8.1490  -27.6070 C   0  0  0  0  0  0  0  0  0  0  0  0
   -9.3400    6.8960  -28.1040 C   0  0  0  0  0  0  0  0  0  0  0  0
  -10.6710    7.1910  -28.4340 C   0  0  0  0  0  0  0  0  0  0  0  0
  -11.3190    8.4530  -28.3330 C   0  0  0  0  0  0  0  0  0  0  0  0
  -10.5990    9.5980  -27.8510 C   0  0  0  0  0  0  0  0  0  0  0  0
   -9.2680    9.3700  -27.5030 C   0  0  0  0  0  0  0  0  0  0  0  0
   -8.2630   10.2050  -26.9960 N   0  0  0  0  0  0  0  0  0  0  0  0
   -5.3830    9.6980  -22.3890 C   0  0  0  0  0  0  0  0  0  0  0  0
   -5.1180    8.6540  -21.4890 C   0  0  0  0  0  0  0  0  0  0  0  0
   -5.8100    5.9900  -19.6680 N   0  0  0  0  0  0  0  0  0  0  0  0
   -4.9220    5.9590  -18.4790 C   0  0  0  0  0  0  0  0  0  0  0  0
   -5.6140    6.1220  -17.0960 C   0  0  0  0  0  0  0  0  0  0  0  0
   -6.8190    5.3000  -16.9810 N   0  0  0  0  0  0  0  0  0  0  0  0
   -7.6690    5.5360  -15.8070 C   0  0  0  0  0  0  0  0  0  0  0  0
   -9.1040    5.3380  -16.3080 C   0  0  0  0  0  0  0  0  0  0  0  0
   -8.9610    4.8370  -17.7420 C   0  0  0  0  0  0  0  0  0  0  0  0
   -7.6540    5.5030  -18.1340 C   0  0  2  0  0  0  0  0  0  0  0  0
   -7.0330    5.1790  -19.4910 C   0  0  0  0  0  0  0  0  0  0  0  0
   -6.2470    6.0670  -23.4040 H   0  0  0  0  0  0  0  0  0  0  0  0
   -6.7070    7.9020  -24.9650 H   0  0  0  0  0  0  0  0  0  0  0  0
   -7.2860   10.7830  -24.5800 H   0  0  0  0  0  0  0  0  0  0  0  0
   -5.7170   11.4160  -24.2420 H   0  0  0  0  0  0  0  0  0  0  0  0
   -8.8650    5.9240  -28.1870 H   0  0  0  0  0  0  0  0  0  0  0  0
  -11.2700    6.3650  -28.8070 H   0  0  0  0  0  0  0  0  0  0  0  0
  -12.3660    8.5550  -28.6210 H   0  0  0  0  0  0  0  0  0  0  0  0
  -11.0670   10.5730  -27.7640 H   0  0  0  0  0  0  0  0  0  0  0  0
   -8.3590   11.1860  -26.7970 H   0  0  0  0  0  0  0  0  0  0  0  0
   -5.1400   10.7200  -22.1030 H   0  0  0  0  0  0  0  0  0  0  0  0
   -4.6740    8.8700  -20.5220 H   0  0  0  0  0  0  0  0  0  0  0  0
   -4.3950    4.9990  -18.5140 H   0  0  0  0  0  0  0  0  0  0  0  0
   -4.1630    6.7380  -18.5890 H   0  0  0  0  0  0  0  0  0  0  0  0
   -5.8760    7.1780  -16.9420 H   0  0  0  0  0  0  0  0  0  0  0  0
   -4.8870    5.8500  -16.3180 H   0  0  0  0  0  0  0  0  0  0  0  0
   -7.5610    6.5530  -15.4240 H   0  0  0  0  0  0  0  0  0  0  0  0
   -7.4310    4.8370  -15.0000 H   0  0  0  0  0  0  0  0  0  0  0  0
   -9.6740    4.6580  -15.6820 H   0  0  0  0  0  0  0  0  0  0  0  0
   -9.6390    6.2890  -16.3100 H   0  0  0  0  0  0  0  0  0  0  0  0
   -9.8070    5.1700  -18.3530 H   0  0  0  0  0  0  0  0  0  0  0  0
   -8.9120    3.7500  -17.7930 H   0  0  0  0  0  0  0  0  0  0  0  0
   -7.7800    6.5780  -18.1420 H   0  0  0  0  0  0  0  0  0  0  0  0
   -7.7580    5.3820  -20.2770 H   0  0  0  0  0  0  0  0  0  0  0  0
   -6.7350    4.1370  -19.5690 H   0  0  0  0  0  0  0  0  0  0  0  0
  1  2  2  0
  2  3  1  0
  3  4  2  0
  4  5  1  0
  5  6  2  0
  6  7  1  0
  7  8  1  0
  8  9  1  0
  9 10  2  0
 10 11  1  0
 11 12  2  0
 12 13  1  0
 13 14  2  0
 14 15  1  0
 15 16  2  0
 16 17  1  0
  6 18  1  0
 18 19  2  0
  2 20  1  0
 20 21  1  0
 21 22  1  0
 22 23  1  0
 23 24  1  0
 24 25  1  0
 25 26  1  0
 26 27  1  0
 27 28  1  0
 19  3  1  0
 17  9  1  0
 16 11  1  0
 28 20  1  0
 27 23  1  0
  4 29  1  0
  5 30  1  0
  7 31  1  0
  7 32  1  0
 12 33  1  0
 13 34  1  0
 14 35  1  0
 15 36  1  0
 17 37  1  0
 18 38  1  0
 19 39  1  0
 21 40  1  0
 21 41  1  0
 22 42  1  0
 22 43  1  0
 24 44  1  0
 24 45  1  0
 25 46  1  0
 25 47  1  0
 26 48  1  0
 26 49  1  0
 27 50  1  6
 28 51  1  0
 28 52  1  0
A    1
 O1 
A    2
 C1 
A    3
 C2 
A    4
 C3 
A    5
 C4 
A    6
 C5 
A    7
 C6 
A    8
 S1 
A    9
 C7 
A   10
 N1 
A   11
 C8 
A   12
 C9 
A   13
 C10
A   14
 C11
A   15
 C12
A   16
 C13
A   17
 N2 
A   18
 C14
A   19
 C15
A   20
 N3 
A   21
 C16
A   22
 C17
A   23
 N4 
A   24
 C18
A   25
 C19
A   26
 C20
A   27
 C21
A   28
 C22
A   29
 H1 
A   30
 H2 
A   31
 H3 
A   32
 H4 
A   33
 H5 
A   34
 H6 
A   35
 H7 
A   36
 H8 
A   37
 H9 
A   38
 H10
A   39
 H11
A   40
 H12
A   41
 H13
A   42
 H14
A   43
 H15
A   44
 H16
A   45
 H17
A   46
 H18
A   47
 H19
A   48
 H20
A   49
 H21
A   50
 H22
A   51
 H23
A   52
 H24
M  END
>  <ref_pdb>  (33) 
x0051_0B

>  <ref_mols>  (33) 
x0846_1B,x0969_0B

>  <original SMILES>  (33) 
[H]c1c([H])c(C([H])([H])Sc2nc3c([H])c([H])c([H])c([H])c3n2[H])c([H])c([H])c1C(=O)N1C([H])([H])C([H])([H])N2C([H])([H])C([H])([H])C([H])([H])[C@]2([H])C1([H])[H]

>  <index>  (33) 
75

>  <∆∆G>  (33) 
-6.79556

>  <∆G_bound>  (33) 
-6.105597

>  <∆G_unbound>  (33) 
0.689962

>  <comRMSD>  (33) 
0.742197

>  <N_constrained_atoms>  (33) 
28.0

>  <N_unconstrained_atoms>  (33) 
2.0

>  <runtime>  (33) 
40.166907

>  <LE>  (33) 
0.226519

>  <percent_hybrid>  (33) 
36.0

>  <dist>  (33) 
9.0

>  <ecfp4>  (33) 
0.193878

>  <daylight>  (33) 
0.25784

>  <topodist>  (33) 
3.0

>  <mces>  (33) 
31.0

>  <tdn>  (33) 
2.0

>  <tup>  (33) 
1.0

>  <rdn>  (33) 
0.0

>  <rup>  (33) 
0.0

>  <ldn>  (33) 
0.0

>  <lup>  (33) 
0.0

>  <mut>  (33) 
3.0

>  <maj>  (33) 
3.0

>  <min>  (33) 
0.0

>  <hyb>  (33) 
3.0

>  <sub>  (33) 
1.0

>  <query_index>  (33) 
45.0

>  <max_hit_Tanimoto>  (33) 
0.271167

>  <largest_ring>  (33) 
0

>  <N_interactions_kept>  (33) 
1.5

>  <N_interactions_lost>  (33) 
1.0

>  <interaction_uniqueness_metric>  (33) 
0.260394

>  <ad_hoc_penalty>  (33) 
-35.824057

>  <N_rotatable_bonds>  (33) 
4

>  <N_HA>  (33) 
28

>  <cluster>  (33) 
6149

>  <N_interactions>  (33) 
6

>  <Enamine>  (33) 
1

>  <Mcule>  (33) 
0

>  <N_PAINS>  (33) 
0

>  <UFF_Gibbs>  (33) 
73.966895

>  <strain_per_HA>  (33) 
2.641675

>  <saltbridge:HIS:51>  (33) 
0

>  <pistack:HIS:51>  (33) 
0

>  <hydroph_interaction:HIS:51>  (33) 
0

>  <hbond:ALA:132>  (33) 
0

>  <hbond:SER:135>  (33) 
0

>  <hydroph_interaction:TYR:150>  (33) 
0

>  <pistack:TYR:161>  (33) 
0

>  <hydroph_interaction:TYR:161>  (33) 
1

>  <hydroph_interaction:ASP:83>  (33) 
0

>  <hbond:TYR:130>  (33) 
0

>  <hydroph_interaction:ALA:132>  (33) 
1

>  <hbond:HIS:51>  (33) 
0

>  <hbond:ASP:129>  (33) 
1

>  <hbond:TYR:150>  (33) 
0

>  <hbond:GLY:151>  (33) 
0

>  <hbond:TYR:161>  (33) 
0

>  <hydroph_interaction:TYR:130>  (33) 
1

>  <hydroph_interaction:PRO:131>  (33) 
1

>  <hydroph_interaction:ASP:129>  (33) 
0

>  <saltbridge:ASP:75>  (33) 
0

>  <saltbridge:ASP:83>  (33) 
0

>  <hydroph_interaction:ASN:152>  (33) 
0

>  <halogenbond:TYR:150>  (33) 
0

>  <hbond:ASP:83>  (33) 
0

>  <hydroph_interaction:VAL:155>  (33) 
0

>  <pication:TYR:161>  (33) 
1

>  <hbond:PRO:131>  (33) 
0

>  <hbond:LEU:128>  (33) 
0

>  <saltbridge:ASP:129>  (33) 
0

>  <hbond:THR:134>  (33) 
0

>  <pication:HIS:51>  (33) 
0

>  <hbond:SER:81>  (33) 
0

>  <hbond:GLY:159>  (33) 
0

>  <hydroph_interaction:PRO:101>  (33) 
0

>  <hydroph_interaction:THR:134>  (33) 
0

>  <hbond:GLY:82>  (33) 
0

>  <hydroph_interaction:GLU:104>  (33) 
0

>  <hydroph_interaction:VAL:36>  (33) 
0

>  <hydroph_interaction:MET:49>  (33) 
0

>  <halogenbond:GLU:104>  (33) 
0

>  <hydroph_interaction:LYS:107>  (33) 
0

$$$$
PHHGEXJHSMHNLH-UHFFFAOYSA-N
     RDKit          3D

 33 34  0  0  0  0  0  0  0  0999 V2000
   -5.7310    6.0830  -17.2060 N   0  0  0  0  0  0  0  0  0  0  0  0
   -4.4950    5.3380  -17.5190 C   0  0  0  0  0  0  0  0  0  0  0  0
   -3.3570    5.4440  -16.4980 C   0  0  0  0  0  0  0  0  0  0  0  0
   -3.6460    4.4200  -15.5760 C   0  0  0  0  0  0  0  0  0  0  0  0
   -3.9220    5.5440  -18.9250 C   0  0  0  0  0  0  0  0  0  0  0  0
   -5.9420    6.3600  -15.7710 C   0  0  0  0  0  0  0  0  0  0  0  0
   -7.1070    5.6970  -15.2940 C   0  0  0  0  0  0  0  0  0  0  0  0
   -7.7870    6.3430  -14.2470 C   0  0  0  0  0  0  0  0  0  0  0  0
   -7.8800    5.3950  -16.5530 C   0  0  0  0  0  0  0  0  0  0  0  0
   -7.0560    5.6200  -17.6170 C   0  0  0  0  0  0  0  0  0  0  0  0
   -7.4790    5.4250  -18.9040 C   0  0  0  0  0  0  0  0  0  0  0  0
   -8.8910    4.9530  -19.1170 C   0  0  0  0  0  0  0  0  0  0  0  0
   -9.7370    4.7280  -18.0040 C   0  0  0  0  0  0  0  0  0  0  0  0
   -9.2110    4.9560  -16.6970 C   0  0  0  0  0  0  0  0  0  0  0  0
   -4.7950    4.2920  -17.4890 H   0  0  0  0  0  0  0  0  0  0  0  0
   -2.3740    5.2770  -16.9590 H   0  0  0  0  0  0  0  0  0  0  0  0
   -3.3190    6.4170  -16.0000 H   0  0  0  0  0  0  0  0  0  0  0  0
   -3.3230    4.7200  -14.5720 H   0  0  0  0  0  0  0  0  0  0  0  0
   -4.7230    4.2190  -15.5460 H   0  0  0  0  0  0  0  0  0  0  0  0
   -3.1350    3.4890  -15.8390 H   0  0  0  0  0  0  0  0  0  0  0  0
   -3.6540    6.5930  -19.0920 H   0  0  0  0  0  0  0  0  0  0  0  0
   -4.6630    5.2630  -19.6820 H   0  0  0  0  0  0  0  0  0  0  0  0
   -3.0310    4.9360  -19.1040 H   0  0  0  0  0  0  0  0  0  0  0  0
   -5.0610    6.0330  -15.2050 H   0  0  0  0  0  0  0  0  0  0  0  0
   -6.0410    7.4400  -15.6090 H   0  0  0  0  0  0  0  0  0  0  0  0
   -6.7820    4.7240  -14.9050 H   0  0  0  0  0  0  0  0  0  0  0  0
   -8.0980    7.3580  -14.5130 H   0  0  0  0  0  0  0  0  0  0  0  0
   -7.1510    6.4180  -13.3590 H   0  0  0  0  0  0  0  0  0  0  0  0
   -8.6840    5.7770  -13.9690 H   0  0  0  0  0  0  0  0  0  0  0  0
   -6.7740    5.6220  -19.7050 H   0  0  0  0  0  0  0  0  0  0  0  0
   -9.2600    4.7900  -20.1290 H   0  0  0  0  0  0  0  0  0  0  0  0
  -10.7590    4.3920  -18.1470 H   0  0  0  0  0  0  0  0  0  0  0  0
   -9.8360    4.7920  -15.8260 H   0  0  0  0  0  0  0  0  0  0  0  0
  1  2  1  0
  2  3  1  0
  3  4  1  0
  2  5  1  0
  1  6  1  0
  6  7  1  0
  7  8  1  0
  7  9  1  0
  9 10  2  0
 10 11  1  0
 11 12  2  0
 12 13  1  0
 13 14  2  0
 10  1  1  0
 14  9  1  0
  2 15  1  0
  3 16  1  0
  3 17  1  0
  4 18  1  0
  4 19  1  0
  4 20  1  0
  5 21  1  0
  5 22  1  0
  5 23  1  0
  6 24  1  0
  6 25  1  0
  7 26  1  0
  8 27  1  0
  8 28  1  0
  8 29  1  0
 11 30  1  0
 12 31  1  0
 13 32  1  0
 14 33  1  0
A    1
 N1 
A    2
 C1 
A    3
 C2 
A    4
 C3 
A    5
 C4 
A    6
 C5 
A    7
 C6 
A    8
 C7 
A    9
 C8 
A   10
 C9 
A   11
 C10
A   12
 C11
A   13
 C12
A   14
 C13
A   15
 H1 
A   16
 H2 
A   17
 H3 
A   18
 H4 
A   19
 H5 
A   20
 H6 
A   21
 H7 
A   22
 H8 
A   23
 H9 
A   24
 H10
A   25
 H11
A   26
 H12
A   27
 H13
A   28
 H14
A   29
 H15
A   30
 H16
A   31
 H17
A   32
 H18
A   33
 H19
M  END
>  <ref_pdb>  (34) 
x0051_0B

>  <ref_mols>  (34) 
x0951_0B,x0472_0B

>  <original SMILES>  (34) 
[H]c1c([H])c([H])c2c(c1[H])N(C([H])(C([H])([H])[H])C([H])([H])C([H])([H])[H])C([H])([H])C2([H])C([H])([H])[H]

>  <index>  (34) 
23

>  <∆∆G>  (34) 
-7.628122

>  <∆G_bound>  (34) 
-8.22954

>  <∆G_unbound>  (34) 
-0.601419

>  <comRMSD>  (34) 
0.735924

>  <N_constrained_atoms>  (34) 
16.0

>  <N_unconstrained_atoms>  (34) 
1.0

>  <runtime>  (34) 
22.573422

>  <LE>  (34) 
0.448713

>  <percent_hybrid>  (34) 
34.0

>  <dist>  (34) 
5.0

>  <ecfp4>  (34) 
0.254545

>  <daylight>  (34) 
0.152866

>  <topodist>  (34) 
2.0

>  <mces>  (34) 
15.0

>  <tdn>  (34) 
2.0

>  <tup>  (34) 
0.0

>  <rdn>  (34) 
0.0

>  <rup>  (34) 
0.0

>  <ldn>  (34) 
0.0

>  <lup>  (34) 
0.0

>  <mut>  (34) 
2.0

>  <maj>  (34) 
2.0

>  <min>  (34) 
0.0

>  <hyb>  (34) 
1.0

>  <sub>  (34) 
1.0

>  <query_index>  (34) 
55.0

>  <max_hit_Tanimoto>  (34) 
0.213695

>  <largest_ring>  (34) 
0

>  <N_interactions_kept>  (34) 
3.0

>  <N_interactions_lost>  (34) 
0.5

>  <interaction_uniqueness_metric>  (34) 
0.089447

>  <ad_hoc_penalty>  (34) 
-35.655216

>  <N_rotatable_bonds>  (34) 
5

>  <N_HA>  (34) 
14

>  <cluster>  (34) 
6195

>  <N_interactions>  (34) 
7

>  <Enamine>  (34) 
0

>  <Mcule>  (34) 
1

>  <N_PAINS>  (34) 
0

>  <UFF_Gibbs>  (34) 
97.044986

>  <strain_per_HA>  (34) 
6.931785

>  <saltbridge:HIS:51>  (34) 
0

>  <pistack:HIS:51>  (34) 
0

>  <hydroph_interaction:HIS:51>  (34) 
0

>  <hbond:ALA:132>  (34) 
0

>  <hbond:SER:135>  (34) 
0

>  <hydroph_interaction:TYR:150>  (34) 
1

>  <pistack:TYR:161>  (34) 
0

>  <hydroph_interaction:TYR:161>  (34) 
4

>  <hydroph_interaction:ASP:83>  (34) 
0

>  <hbond:TYR:130>  (34) 
0

>  <hydroph_interaction:ALA:132>  (34) 
1

>  <hbond:HIS:51>  (34) 
0

>  <hbond:ASP:129>  (34) 
0

>  <hbond:TYR:150>  (34) 
0

>  <hbond:GLY:151>  (34) 
0

>  <hbond:TYR:161>  (34) 
0

>  <hydroph_interaction:TYR:130>  (34) 
0

>  <hydroph_interaction:PRO:131>  (34) 
0

>  <hydroph_interaction:ASP:129>  (34) 
0

>  <saltbridge:ASP:75>  (34) 
0

>  <saltbridge:ASP:83>  (34) 
0

>  <hydroph_interaction:ASN:152>  (34) 
0

>  <halogenbond:TYR:150>  (34) 
0

>  <hbond:ASP:83>  (34) 
0

>  <hydroph_interaction:VAL:155>  (34) 
1

>  <pication:TYR:161>  (34) 
0

>  <hbond:PRO:131>  (34) 
0

>  <hbond:LEU:128>  (34) 
0

>  <saltbridge:ASP:129>  (34) 
0

>  <hbond:THR:134>  (34) 
0

>  <pication:HIS:51>  (34) 
0

>  <hbond:SER:81>  (34) 
0

>  <hbond:GLY:159>  (34) 
0

>  <hydroph_interaction:PRO:101>  (34) 
0

>  <hydroph_interaction:THR:134>  (34) 
0

>  <hbond:GLY:82>  (34) 
0

>  <hydroph_interaction:GLU:104>  (34) 
0

>  <hydroph_interaction:VAL:36>  (34) 
0

>  <hydroph_interaction:MET:49>  (34) 
0

>  <halogenbond:GLU:104>  (34) 
0

>  <hydroph_interaction:LYS:107>  (34) 
0

$$$$
XDCMWTDMVOHHCG-UHFFFAOYSA-N
     RDKit          3D

 39 41  0  0  0  0  0  0  0  0999 V2000
   -9.5580    5.3830  -14.7000 C   0  0  0  0  0  0  0  0  0  0  0  0
   -9.1310    4.8590  -13.4440 N   0  0  0  0  0  0  0  0  0  0  0  0
   -8.3330    5.6790  -12.5090 C   0  0  0  0  0  0  0  0  0  0  0  0
   -8.5890    5.6610  -10.9960 C   0  0  0  0  0  0  0  0  0  0  0  0
   -8.8050    4.3990  -10.1590 C   0  0  0  0  0  0  0  0  0  0  0  0
   -8.9540    4.8850   -8.8700 N   0  0  0  0  0  0  0  0  0  0  0  0
   -9.1700    4.0820   -7.6660 C   0  0  0  0  0  0  0  0  0  0  0  0
   -9.5370    2.6590   -8.0190 C   0  0  0  0  0  0  0  0  0  0  0  0
   -8.6000    2.1800   -9.1180 C   0  0  0  0  0  0  0  0  0  0  0  0
   -8.8680    2.9020  -10.4210 C   0  0  0  0  0  0  0  0  0  0  0  0
   -8.8800    6.2130   -8.7860 N   0  0  0  0  0  0  0  0  0  0  0  0
   -8.6690    6.6620  -10.0410 C   0  0  0  0  0  0  0  0  0  0  0  0
  -10.6150    5.9720  -14.7450 O   0  0  0  0  0  0  0  0  0  0  0  0
   -8.6970    5.2970  -15.9310 C   0  0  0  0  0  0  0  0  0  0  0  0
   -9.0680    5.0580  -17.3290 C   0  0  0  0  0  0  0  0  0  0  0  0
  -10.4940    4.8160  -17.7220 C   0  0  0  0  0  0  0  0  0  0  0  0
   -8.2060    5.0250  -18.4310 C   0  0  0  0  0  0  0  0  0  0  0  0
   -6.8660    5.2130  -18.3150 C   0  0  0  0  0  0  0  0  0  0  0  0
   -6.3770    5.4510  -16.9180 C   0  0  0  0  0  0  0  0  0  0  0  0
   -7.2800    5.4780  -15.8600 C   0  0  0  0  0  0  0  0  0  0  0  0
   -9.0810    3.8580  -13.3250 H   0  0  0  0  0  0  0  0  0  0  0  0
   -7.2760    5.4450  -12.6750 H   0  0  0  0  0  0  0  0  0  0  0  0
   -8.4730    6.7090  -12.8550 H   0  0  0  0  0  0  0  0  0  0  0  0
   -8.2310    4.1070   -7.1020 H   0  0  0  0  0  0  0  0  0  0  0  0
   -9.9630    4.5310   -7.0570 H   0  0  0  0  0  0  0  0  0  0  0  0
   -9.4610    2.0170   -7.1370 H   0  0  0  0  0  0  0  0  0  0  0  0
  -10.5710    2.6110   -8.3730 H   0  0  0  0  0  0  0  0  0  0  0  0
   -7.5610    2.3530   -8.8340 H   0  0  0  0  0  0  0  0  0  0  0  0
   -8.7110    1.1200   -9.2490 H   0  0  0  0  0  0  0  0  0  0  0  0
   -8.1200    2.6020  -11.1650 H   0  0  0  0  0  0  0  0  0  0  0  0
   -9.8530    2.6110  -10.8120 H   0  0  0  0  0  0  0  0  0  0  0  0
   -8.5740    7.7300  -10.1940 H   0  0  0  0  0  0  0  0  0  0  0  0
  -10.9890    5.7270  -18.0370 H   0  0  0  0  0  0  0  0  0  0  0  0
  -10.5400    4.1210  -18.5620 H   0  0  0  0  0  0  0  0  0  0  0  0
  -11.0080    4.3820  -16.8820 H   0  0  0  0  0  0  0  0  0  0  0  0
   -8.5360    4.8460  -19.4630 H   0  0  0  0  0  0  0  0  0  0  0  0
   -6.1990    5.1880  -19.1720 H   0  0  0  0  0  0  0  0  0  0  0  0
   -5.3180    5.6050  -16.7330 H   0  0  0  0  0  0  0  0  0  0  0  0
   -6.8620    5.6620  -14.8710 H   0  0  0  0  0  0  0  0  0  0  0  0
  1  2  1  0
  2  3  1  0
  3  4  1  0
  4  5  2  0
  5  6  1  0
  6  7  1  0
  7  8  1  0
  8  9  1  0
  9 10  1  0
  6 11  1  0
 11 12  2  0
  1 13  2  0
  1 14  1  0
 14 15  2  0
 15 16  1  0
 15 17  1  0
 17 18  2  0
 18 19  1  0
 19 20  2  0
 12  4  1  0
 10  5  1  0
 20 14  1  0
  2 21  1  0
  3 22  1  0
  3 23  1  0
  7 24  1  0
  7 25  1  0
  8 26  1  0
  8 27  1  0
  9 28  1  0
  9 29  1  0
 10 30  1  0
 10 31  1  0
 12 32  1  0
 16 33  1  0
 16 34  1  0
 16 35  1  0
 17 36  1  0
 18 37  1  0
 19 38  1  0
 20 39  1  0
A    1
 C1 
A    2
 N1 
A    3
 C2 
A    4
 C3 
A    5
 C4 
A    6
 N2 
A    7
 C5 
A    8
 C6 
A    9
 C7 
A   10
 C8 
A   11
 N3 
A   12
 C9 
A   13
 O1 
A   14
 C10
A   15
 C11
A   16
 C12
A   17
 C13
A   18
 C14
A   19
 C15
A   20
 C16
A   21
 H1 
A   22
 H2 
A   23
 H3 
A   24
 H4 
A   25
 H5 
A   26
 H6 
A   27
 H7 
A   28
 H8 
A   29
 H9 
A   30
 H10
A   31
 H11
A   32
 H12
A   33
 H13
A   34
 H14
A   35
 H15
A   36
 H16
A   37
 H17
A   38
 H18
A   39
 H19
M  END
>  <ref_pdb>  (35) 
x0051_0B

>  <ref_mols>  (35) 
x0553_0B,x0969_1B

>  <original SMILES>  (35) 
[H]c1nn2c(c1C([H])([H])N([H])C(=O)c1c([H])c([H])c([H])c([H])c1C([H])([H])[H])C([H])([H])C([H])([H])C([H])([H])C2([H])[H]

>  <index>  (35) 
59

>  <∆∆G>  (35) 
-6.024597

>  <∆G_bound>  (35) 
-5.915663

>  <∆G_unbound>  (35) 
0.108934

>  <comRMSD>  (35) 
0.734044

>  <N_constrained_atoms>  (35) 
19.0

>  <N_unconstrained_atoms>  (35) 
3.0

>  <runtime>  (35) 
50.840457

>  <LE>  (35) 
0.273845

>  <percent_hybrid>  (35) 
48.0

>  <dist>  (35) 
6.0

>  <ecfp4>  (35) 
0.337838

>  <daylight>  (35) 
0.327138

>  <topodist>  (35) 
3.0

>  <mces>  (35) 
21.0

>  <tdn>  (35) 
2.0

>  <tup>  (35) 
1.0

>  <rdn>  (35) 
0.0

>  <rup>  (35) 
0.0

>  <ldn>  (35) 
0.0

>  <lup>  (35) 
0.0

>  <mut>  (35) 
3.0

>  <maj>  (35) 
3.0

>  <min>  (35) 
0.0

>  <hyb>  (35) 
0.0

>  <sub>  (35) 
1.0

>  <query_index>  (35) 
375.0

>  <max_hit_Tanimoto>  (35) 
0.355336

>  <largest_ring>  (35) 
0

>  <N_interactions_kept>  (35) 
1.5

>  <N_interactions_lost>  (35) 
1.0

>  <interaction_uniqueness_metric>  (35) 
0.268774

>  <ad_hoc_penalty>  (35) 
-35.592819

>  <N_rotatable_bonds>  (35) 
4

>  <N_HA>  (35) 
20

>  <cluster>  (35) 
6164

>  <N_interactions>  (35) 
7

>  <Enamine>  (35) 
0

>  <Mcule>  (35) 
1

>  <N_PAINS>  (35) 
0

>  <UFF_Gibbs>  (35) 
70.235547

>  <strain_per_HA>  (35) 
3.511777

>  <saltbridge:HIS:51>  (35) 
0

>  <pistack:HIS:51>  (35) 
1

>  <hydroph_interaction:HIS:51>  (35) 
0

>  <hbond:ALA:132>  (35) 
0

>  <hbond:SER:135>  (35) 
1

>  <hydroph_interaction:TYR:150>  (35) 
1

>  <pistack:TYR:161>  (35) 
1

>  <hydroph_interaction:TYR:161>  (35) 
0

>  <hydroph_interaction:ASP:83>  (35) 
1

>  <hbond:TYR:130>  (35) 
0

>  <hydroph_interaction:ALA:132>  (35) 
0

>  <hbond:HIS:51>  (35) 
0

>  <hbond:ASP:129>  (35) 
0

>  <hbond:TYR:150>  (35) 
0

>  <hbond:GLY:151>  (35) 
1

>  <hbond:TYR:161>  (35) 
1

>  <hydroph_interaction:TYR:130>  (35) 
0

>  <hydroph_interaction:PRO:131>  (35) 
0

>  <hydroph_interaction:ASP:129>  (35) 
0

>  <saltbridge:ASP:75>  (35) 
0

>  <saltbridge:ASP:83>  (35) 
0

>  <hydroph_interaction:ASN:152>  (35) 
0

>  <halogenbond:TYR:150>  (35) 
0

>  <hbond:ASP:83>  (35) 
0

>  <hydroph_interaction:VAL:155>  (35) 
0

>  <pication:TYR:161>  (35) 
0

>  <hbond:PRO:131>  (35) 
0

>  <hbond:LEU:128>  (35) 
0

>  <saltbridge:ASP:129>  (35) 
0

>  <hbond:THR:134>  (35) 
0

>  <pication:HIS:51>  (35) 
0

>  <hbond:SER:81>  (35) 
0

>  <hbond:GLY:159>  (35) 
0

>  <hydroph_interaction:PRO:101>  (35) 
0

>  <hydroph_interaction:THR:134>  (35) 
0

>  <hbond:GLY:82>  (35) 
0

>  <hydroph_interaction:GLU:104>  (35) 
0

>  <hydroph_interaction:VAL:36>  (35) 
0

>  <hydroph_interaction:MET:49>  (35) 
0

>  <halogenbond:GLU:104>  (35) 
0

>  <hydroph_interaction:LYS:107>  (35) 
0

$$$$
Z2853453318
     RDKit          3D

 46 49  0  0  0  0  0  0  0  0999 V2000
   -9.2970    4.9170  -19.2450 C   0  0  0  0  0  0  0  0  0  0  0  0
  -10.3020    4.7110  -18.1380 C   0  0  0  0  0  0  0  0  0  0  0  0
   -9.7440    4.7850  -16.8080 N   0  0  0  0  0  0  0  0  0  0  0  0
   -8.4160    5.0130  -16.5890 C   0  0  0  0  0  0  0  0  0  0  0  0
   -7.5050    5.2170  -17.6180 C   0  0  0  0  0  0  0  0  0  0  0  0
   -7.9580    5.1640  -18.9530 C   0  0  0  0  0  0  0  0  0  0  0  0
   -6.0610    5.4870  -17.3220 C   0  0  0  0  0  0  0  0  0  0  0  0
   -5.7650    5.6320  -15.9510 C   0  0  0  0  0  0  0  0  0  0  0  0
   -6.7670    6.0170  -15.0210 C   0  0  0  0  0  0  0  0  0  0  0  0
   -7.9320    5.0320  -15.1390 C   0  0  0  0  0  0  0  0  0  0  0  0
   -9.0010    5.2240  -14.2980 N   0  0  0  0  0  0  0  0  0  0  0  0
   -8.5930    5.0030  -13.0520 C   0  0  0  0  0  0  0  0  0  0  0  0
   -8.6750    5.9980  -12.0570 C   0  0  0  0  0  0  0  0  0  0  0  0
   -8.7650    5.7370  -10.6620 C   0  0  0  0  0  0  0  0  0  0  0  0
   -8.9200    4.4830   -9.8380 C   0  0  0  0  0  0  0  0  0  0  0  0
   -9.0270    3.0440  -10.2750 C   0  0  0  0  0  0  0  0  0  0  0  0
   -8.6280    2.2130   -9.0700 C   0  0  0  0  0  0  0  0  0  0  0  0
   -9.5290    2.5920   -7.8820 C   0  0  0  0  0  0  0  0  0  0  0  0
   -9.0990    3.9880   -7.4350 C   0  0  0  0  0  0  0  0  0  0  0  0
   -8.9490    4.8870   -8.5700 N   0  0  0  0  0  0  0  0  0  0  0  0
   -8.8290    6.2320   -8.4210 N   0  0  0  0  0  0  0  0  0  0  0  0
   -8.7190    6.7410   -9.6730 C   0  0  0  0  0  0  0  0  0  0  0  0
   -9.7160    4.8600  -20.2550 H   0  0  0  0  0  0  0  0  0  0  0  0
  -11.3700    4.5210  -18.2920 H   0  0  0  0  0  0  0  0  0  0  0  0
   -7.2600    5.3160  -19.7720 H   0  0  0  0  0  0  0  0  0  0  0  0
   -5.4640    4.6620  -17.7320 H   0  0  0  0  0  0  0  0  0  0  0  0
   -5.7380    6.3890  -17.8480 H   0  0  0  0  0  0  0  0  0  0  0  0
   -4.9490    6.3570  -15.8700 H   0  0  0  0  0  0  0  0  0  0  0  0
   -5.3230    4.6820  -15.6250 H   0  0  0  0  0  0  0  0  0  0  0  0
   -6.3320    5.8870  -14.0240 H   0  0  0  0  0  0  0  0  0  0  0  0
   -6.9200    7.0980  -15.1060 H   0  0  0  0  0  0  0  0  0  0  0  0
   -7.5660    4.0260  -14.9590 H   0  0  0  0  0  0  0  0  0  0  0  0
   -9.6030    4.4180  -14.5450 H   0  0  0  0  0  0  0  0  0  0  0  0
   -9.1750    4.1450  -12.6930 H   0  0  0  0  0  0  0  0  0  0  0  0
   -7.5560    4.6480  -13.0930 H   0  0  0  0  0  0  0  0  0  0  0  0
   -9.5300    6.6340  -12.3140 H   0  0  0  0  0  0  0  0  0  0  0  0
   -7.8130    6.6630  -12.1940 H   0  0  0  0  0  0  0  0  0  0  0  0
  -10.0370    2.7870  -10.6020 H   0  0  0  0  0  0  0  0  0  0  0  0
   -8.3370    2.8560  -11.1100 H   0  0  0  0  0  0  0  0  0  0  0  0
   -8.8400    1.1860   -9.3210 H   0  0  0  0  0  0  0  0  0  0  0  0
   -7.5680    2.2000   -8.8600 H   0  0  0  0  0  0  0  0  0  0  0  0
   -9.2500    1.9130   -7.0690 H   0  0  0  0  0  0  0  0  0  0  0  0
  -10.5970    2.4270   -8.0040 H   0  0  0  0  0  0  0  0  0  0  0  0
   -8.1350    3.8970   -6.9200 H   0  0  0  0  0  0  0  0  0  0  0  0
   -9.8400    4.4320   -6.7620 H   0  0  0  0  0  0  0  0  0  0  0  0
   -8.6140    7.8110   -9.8000 H   0  0  0  0  0  0  0  0  0  0  0  0
  1  2  2  0
  2  3  1  0
  3  4  2  0
  4  5  1  0
  5  6  2  0
  5  7  1  0
  7  8  1  0
  8  9  1  0
  9 10  1  0
 10 11  1  0
 11 12  1  0
 12 13  1  0
 13 14  1  0
 14 15  2  0
 15 16  1  0
 16 17  1  0
 17 18  1  0
 18 19  1  0
 19 20  1  0
 20 21  1  0
 21 22  2  0
  6  1  1  0
 10  4  1  0
 22 14  1  0
 20 15  1  0
  1 23  1  0
  2 24  1  0
  6 25  1  0
  7 26  1  0
  7 27  1  0
  8 28  1  0
  8 29  1  0
  9 30  1  0
  9 31  1  0
 10 32  1  0
 11 33  1  0
 12 34  1  0
 12 35  1  0
 13 36  1  0
 13 37  1  0
 16 38  1  0
 16 39  1  0
 17 40  1  0
 17 41  1  0
 18 42  1  0
 18 43  1  0
 19 44  1  0
 19 45  1  0
 22 46  1  0
A    1
 C1 
A    2
 C2 
A    3
 N1 
A    4
 C3 
A    5
 C4 
A    6
 C5 
A    7
 C6 
A    8
 C7 
A    9
 C8 
A   10
 C9 
A   11
 N2 
A   12
 C10
A   13
 C11
A   14
 C12
A   15
 C13
A   16
 C14
A   17
 C15
A   18
 C16
A   19
 C17
A   20
 N3 
A   21
 N4 
A   22
 C18
A   23
 H1 
A   24
 H2 
A   25
 H3 
A   26
 H4 
A   27
 H5 
A   28
 H6 
A   29
 H7 
A   30
 H8 
A   31
 H9 
A   32
 H10
A   33
 H11
A   34
 H12
A   35
 H13
A   36
 H14
A   37
 H15
A   38
 H16
A   39
 H17
A   40
 H18
A   41
 H19
A   42
 H20
A   43
 H21
A   44
 H22
A   45
 H23
A   46
 H24
M  END
>  <ref_pdb>  (36) 
x0051_0B

>  <ref_mols>  (36) 
x0969_1B,x0455_0B

>  <original SMILES>  (36) 
[H]c1nc2c(c([H])c1[H])C([H])([H])C([H])([H])C([H])([H])C2([H])N([H])C([H])([H])C([H])([H])c1c([H])nn2c1C([H])([H])C([H])([H])C([H])([H])C2([H])[H]

>  <index>  (36) 
36

>  <∆∆G>  (36) 
-6.687224

>  <∆G_bound>  (36) 
-6.069476

>  <∆G_unbound>  (36) 
0.617748

>  <comRMSD>  (36) 
0.37756

>  <N_constrained_atoms>  (36) 
20.0

>  <N_unconstrained_atoms>  (36) 
2.0

>  <runtime>  (36) 
55.931594

>  <LE>  (36) 
0.303965

>  <percent_hybrid>  (36) 
50.0

>  <dist>  (36) 
4.0

>  <ecfp4>  (36) 
0.381579

>  <daylight>  (36) 
0.340845

>  <topodist>  (36) 
0.0

>  <mces>  (36) 
25.0

>  <tdn>  (36) 
0.0

>  <tup>  (36) 
0.0

>  <rdn>  (36) 
0.0

>  <rup>  (36) 
0.0

>  <ldn>  (36) 
0.0

>  <lup>  (36) 
0.0

>  <mut>  (36) 
4.0

>  <maj>  (36) 
4.0

>  <min>  (36) 
0.0

>  <hyb>  (36) 
0.0

>  <sub>  (36) 
0.0

>  <query_index>  (36) 
204.0

>  <max_hit_Tanimoto>  (36) 
0.333333

>  <largest_ring>  (36) 
0

>  <N_interactions_kept>  (36) 
1.5

>  <N_interactions_lost>  (36) 
1.0

>  <interaction_uniqueness_metric>  (36) 
0.221084

>  <ad_hoc_penalty>  (36) 
-34.842781

>  <N_rotatable_bonds>  (36) 
4

>  <N_HA>  (36) 
22

>  <cluster>  (36) 
6183

>  <N_interactions>  (36) 
7

>  <Enamine>  (36) 
1

>  <Mcule>  (36) 
0

>  <N_PAINS>  (36) 
0

>  <UFF_Gibbs>  (36) 
131.425993

>  <strain_per_HA>  (36) 
5.973909

>  <saltbridge:HIS:51>  (36) 
0

>  <pistack:HIS:51>  (36) 
1

>  <hydroph_interaction:HIS:51>  (36) 
0

>  <hbond:ALA:132>  (36) 
0

>  <hbond:SER:135>  (36) 
0

>  <hydroph_interaction:TYR:150>  (36) 
1

>  <pistack:TYR:161>  (36) 
0

>  <hydroph_interaction:TYR:161>  (36) 
2

>  <hydroph_interaction:ASP:83>  (36) 
1

>  <hbond:TYR:130>  (36) 
0

>  <hydroph_interaction:ALA:132>  (36) 
0

>  <hbond:HIS:51>  (36) 
0

>  <hbond:ASP:129>  (36) 
0

>  <hbond:TYR:150>  (36) 
0

>  <hbond:GLY:151>  (36) 
1

>  <hbond:TYR:161>  (36) 
1

>  <hydroph_interaction:TYR:130>  (36) 
0

>  <hydroph_interaction:PRO:131>  (36) 
0

>  <hydroph_interaction:ASP:129>  (36) 
0

>  <saltbridge:ASP:75>  (36) 
0

>  <saltbridge:ASP:83>  (36) 
0

>  <hydroph_interaction:ASN:152>  (36) 
0

>  <halogenbond:TYR:150>  (36) 
0

>  <hbond:ASP:83>  (36) 
0

>  <hydroph_interaction:VAL:155>  (36) 
0

>  <pication:TYR:161>  (36) 
0

>  <hbond:PRO:131>  (36) 
0

>  <hbond:LEU:128>  (36) 
0

>  <saltbridge:ASP:129>  (36) 
0

>  <hbond:THR:134>  (36) 
0

>  <pication:HIS:51>  (36) 
0

>  <hbond:SER:81>  (36) 
0

>  <hbond:GLY:159>  (36) 
0

>  <hydroph_interaction:PRO:101>  (36) 
0

>  <hydroph_interaction:THR:134>  (36) 
0

>  <hbond:GLY:82>  (36) 
0

>  <hydroph_interaction:GLU:104>  (36) 
0

>  <hydroph_interaction:VAL:36>  (36) 
0

>  <hydroph_interaction:MET:49>  (36) 
0

>  <halogenbond:GLU:104>  (36) 
0

>  <hydroph_interaction:LYS:107>  (36) 
0

$$$$
CSSS00000168872
     RDKit          3D

 20 21  0  0  0  0  0  0  0  0999 V2000
   -9.9340    5.1480  -15.4270 N   0  0  0  0  0  0  0  0  0  0  0  0
   -9.3780    5.0790  -16.7640 C   0  0  0  0  0  0  0  0  0  0  0  0
   -8.1090    5.2260  -16.9760 N   0  0  0  0  0  0  0  0  0  0  0  0
   -7.8310    5.1080  -18.3200 C   0  0  0  0  0  0  0  0  0  0  0  0
   -8.9380    4.8720  -19.1010 C   0  0  0  0  0  0  0  0  0  0  0  0
  -10.3530    4.7930  -18.1570 S   0  0  0  0  0  0  0  0  0  0  0  0
   -6.4590    5.2190  -18.7700 C   0  0  0  0  0  0  0  0  0  0  0  0
   -5.3900    5.2860  -17.8570 C   0  0  0  0  0  0  0  0  0  0  0  0
   -4.0660    5.3750  -18.3130 C   0  0  0  0  0  0  0  0  0  0  0  0
   -3.8020    5.3990  -19.6840 C   0  0  0  0  0  0  0  0  0  0  0  0
   -4.8690    5.3330  -20.5740 C   0  0  0  0  0  0  0  0  0  0  0  0
   -6.1780    5.2450  -20.1370 C   0  0  0  0  0  0  0  0  0  0  0  0
   -9.2340    5.5510  -14.8070 H   0  0  0  0  0  0  0  0  0  0  0  0
  -10.0400    4.1760  -15.1270 H   0  0  0  0  0  0  0  0  0  0  0  0
   -8.9060    4.7490  -20.1810 H   0  0  0  0  0  0  0  0  0  0  0  0
   -5.5600    5.2660  -16.7850 H   0  0  0  0  0  0  0  0  0  0  0  0
   -3.2460    5.4240  -17.6010 H   0  0  0  0  0  0  0  0  0  0  0  0
   -2.7820    5.4650  -20.0520 H   0  0  0  0  0  0  0  0  0  0  0  0
   -4.6680    5.3500  -21.6500 H   0  0  0  0  0  0  0  0  0  0  0  0
   -6.9240    5.1950  -20.9370 H   0  0  0  0  0  0  0  0  0  0  0  0
  1  2  1  0
  2  3  2  0
  3  4  1  0
  4  5  2  0
  5  6  1  0
  4  7  1  0
  7  8  2  0
  8  9  1  0
  9 10  2  0
 10 11  1  0
 11 12  2  0
  6  2  1  0
 12  7  1  0
  1 13  1  0
  1 14  1  0
  5 15  1  0
  8 16  1  0
  9 17  1  0
 10 18  1  0
 11 19  1  0
 12 20  1  0
A    1
 N1 
A    2
 C1 
A    3
 N2 
A    4
 C2 
A    5
 C3 
A    6
 S1 
A    7
 C4 
A    8
 C5 
A    9
 C6 
A   10
 C7 
A   11
 C8 
A   12
 C9 
A   13
 H1 
A   14
 H2 
A   15
 H3 
A   16
 H4 
A   17
 H5 
A   18
 H6 
A   19
 H7 
A   20
 H8 
M  END
>  <ref_pdb>  (37) 
x0051_0B

>  <ref_mols>  (37) 
x0680_0B,x0386_0B

>  <original SMILES>  (37) 
[H]c1sc(N([H])[H])nc1-c1c([H])c([H])c([H])c([H])c1[H]

>  <index>  (37) 
72

>  <∆∆G>  (37) 
-6.364117

>  <∆G_bound>  (37) 
-6.288444

>  <∆G_unbound>  (37) 
0.075673

>  <comRMSD>  (37) 
0.608531

>  <N_constrained_atoms>  (37) 
12.0

>  <N_unconstrained_atoms>  (37) 
1.0

>  <runtime>  (37) 
27.421412

>  <LE>  (37) 
0.489547

>  <percent_hybrid>  (37) 
17.0

>  <dist>  (37) 
4.0

>  <ecfp4>  (37) 
0.137255

>  <daylight>  (37) 
0.178808

>  <topodist>  (37) 
2.0

>  <mces>  (37) 
12.0

>  <tdn>  (37) 
1.0

>  <tup>  (37) 
1.0

>  <rdn>  (37) 
0.0

>  <rup>  (37) 
0.0

>  <ldn>  (37) 
0.0

>  <lup>  (37) 
0.0

>  <mut>  (37) 
2.0

>  <maj>  (37) 
1.0

>  <min>  (37) 
1.0

>  <hyb>  (37) 
0.0

>  <sub>  (37) 
2.0

>  <query_index>  (37) 
296.0

>  <max_hit_Tanimoto>  (37) 
0.097649

>  <largest_ring>  (37) 
0

>  <N_interactions_kept>  (37) 
3.5

>  <N_interactions_lost>  (37) 
0.5

>  <interaction_uniqueness_metric>  (37) 
0.083994

>  <ad_hoc_penalty>  (37) 
-34.688141

>  <N_rotatable_bonds>  (37) 
2

>  <N_HA>  (37) 
12

>  <cluster>  (37) 
6152

>  <N_interactions>  (37) 
5

>  <Enamine>  (37) 
1

>  <Mcule>  (37) 
0

>  <N_PAINS>  (37) 
0

>  <UFF_Gibbs>  (37) 
24.98092

>  <strain_per_HA>  (37) 
2.081743

>  <saltbridge:HIS:51>  (37) 
0

>  <pistack:HIS:51>  (37) 
0

>  <hydroph_interaction:HIS:51>  (37) 
0

>  <hbond:ALA:132>  (37) 
0

>  <hbond:SER:135>  (37) 
2

>  <hydroph_interaction:TYR:150>  (37) 
0

>  <pistack:TYR:161>  (37) 
0

>  <hydroph_interaction:TYR:161>  (37) 
3

>  <hydroph_interaction:ASP:83>  (37) 
0

>  <hbond:TYR:130>  (37) 
0

>  <hydroph_interaction:ALA:132>  (37) 
0

>  <hbond:HIS:51>  (37) 
0

>  <hbond:ASP:129>  (37) 
0

>  <hbond:TYR:150>  (37) 
0

>  <hbond:GLY:151>  (37) 
0

>  <hbond:TYR:161>  (37) 
0

>  <hydroph_interaction:TYR:130>  (37) 
0

>  <hydroph_interaction:PRO:131>  (37) 
0

>  <hydroph_interaction:ASP:129>  (37) 
0

>  <saltbridge:ASP:75>  (37) 
0

>  <saltbridge:ASP:83>  (37) 
0

>  <hydroph_interaction:ASN:152>  (37) 
0

>  <halogenbond:TYR:150>  (37) 
0

>  <hbond:ASP:83>  (37) 
0

>  <hydroph_interaction:VAL:155>  (37) 
0

>  <pication:TYR:161>  (37) 
0

>  <hbond:PRO:131>  (37) 
0

>  <hbond:LEU:128>  (37) 
0

>  <saltbridge:ASP:129>  (37) 
0

>  <hbond:THR:134>  (37) 
0

>  <pication:HIS:51>  (37) 
0

>  <hbond:SER:81>  (37) 
0

>  <hbond:GLY:159>  (37) 
0

>  <hydroph_interaction:PRO:101>  (37) 
0

>  <hydroph_interaction:THR:134>  (37) 
0

>  <hbond:GLY:82>  (37) 
0

>  <hydroph_interaction:GLU:104>  (37) 
0

>  <hydroph_interaction:VAL:36>  (37) 
0

>  <hydroph_interaction:MET:49>  (37) 
0

>  <halogenbond:GLU:104>  (37) 
0

>  <hydroph_interaction:LYS:107>  (37) 
0

$$$$
FTCIAKRPGVEECU-UHFFFAOYSA-N
     RDKit          3D

 36 39  0  0  0  0  0  0  0  0999 V2000
   -8.7620    5.9240  -12.8290 C   0  0  0  0  0  0  0  0  0  0  0  0
   -7.9730    5.2170  -13.8200 N   0  0  0  0  0  0  0  0  0  0  0  0
   -8.2060    5.1410  -15.2890 C   0  0  0  0  0  0  0  0  0  0  0  0
   -7.2090    5.2200  -16.3550 C   0  0  0  0  0  0  0  0  0  0  0  0
   -7.5240    5.1280  -17.7370 C   0  0  0  0  0  0  0  0  0  0  0  0
   -6.3060    5.2500  -18.4320 C   0  0  0  0  0  0  0  0  0  0  0  0
   -5.2750    5.4020  -17.6130 N   0  0  0  0  0  0  0  0  0  0  0  0
   -5.8370    5.3810  -16.3770 N   0  0  0  0  0  0  0  0  0  0  0  0
   -8.8400    4.9500  -18.1540 C   0  0  0  0  0  0  0  0  0  0  0  0
   -9.8130    4.8790  -17.1760 C   0  0  0  0  0  0  0  0  0  0  0  0
   -9.5060    4.9740  -15.8060 C   0  0  0  0  0  0  0  0  0  0  0  0
   -9.4880    6.8510  -13.1680 O   0  0  0  0  0  0  0  0  0  0  0  0
   -8.7510    5.6140  -11.3110 C   0  0  0  0  0  0  0  0  0  0  0  0
   -8.8590    4.4570  -10.4890 C   0  0  0  0  0  0  0  0  0  0  0  0
   -8.8130    4.9170   -9.1650 N   0  0  0  0  0  0  0  0  0  0  0  0
   -8.9070    4.1060   -7.9470 C   0  0  0  0  0  0  0  0  0  0  0  0
   -9.3310    2.6790   -8.2510 C   0  0  0  0  0  0  0  0  0  0  0  0
   -8.5500    2.2410   -9.4790 C   0  0  0  0  0  0  0  0  0  0  0  0
   -9.0070    2.9970  -10.7290 C   0  0  0  0  0  0  0  0  0  0  0  0
   -8.6700    6.2590   -9.1920 C   0  0  0  0  0  0  0  0  0  0  0  0
   -8.6290    6.7090  -10.4280 N   0  0  0  0  0  0  0  0  0  0  0  0
   -7.3430    4.5450  -13.3920 H   0  0  0  0  0  0  0  0  0  0  0  0
   -6.1350    5.2300  -19.4980 H   0  0  0  0  0  0  0  0  0  0  0  0
   -5.2220    5.4840  -15.5790 H   0  0  0  0  0  0  0  0  0  0  0  0
   -9.0990    4.8740  -19.2080 H   0  0  0  0  0  0  0  0  0  0  0  0
  -10.8450    4.7450  -17.4840 H   0  0  0  0  0  0  0  0  0  0  0  0
  -10.3490    4.9040  -15.1210 H   0  0  0  0  0  0  0  0  0  0  0  0
   -9.6400    4.5970   -7.2980 H   0  0  0  0  0  0  0  0  0  0  0  0
   -7.9310    4.1170   -7.4500 H   0  0  0  0  0  0  0  0  0  0  0  0
  -10.4100    2.6330   -8.4540 H   0  0  0  0  0  0  0  0  0  0  0  0
   -9.1210    2.0250   -7.4010 H   0  0  0  0  0  0  0  0  0  0  0  0
   -7.4900    2.4520   -9.3060 H   0  0  0  0  0  0  0  0  0  0  0  0
   -8.6280    1.1770   -9.6310 H   0  0  0  0  0  0  0  0  0  0  0  0
  -10.0540    2.7620  -10.9470 H   0  0  0  0  0  0  0  0  0  0  0  0
   -8.4080    2.6760  -11.5860 H   0  0  0  0  0  0  0  0  0  0  0  0
   -8.6030    6.8630   -8.2970 H   0  0  0  0  0  0  0  0  0  0  0  0
  1  2  1  0
  2  3  1  0
  3  4  1  0
  4  5  2  0
  5  6  1  0
  6  7  2  0
  7  8  1  0
  5  9  1  0
  9 10  2  0
 10 11  1  0
  1 12  2  0
  1 13  1  0
 13 14  2  0
 14 15  1  0
 15 16  1  0
 16 17  1  0
 17 18  1  0
 18 19  1  0
 15 20  1  0
 20 21  2  0
  3 11  2  0
  8  4  1  0
 21 13  1  0
 19 14  1  0
  2 22  1  0
  6 23  1  0
  8 24  1  0
  9 25  1  0
 10 26  1  0
 11 27  1  0
 16 28  1  0
 16 29  1  0
 17 30  1  0
 17 31  1  0
 18 32  1  0
 18 33  1  0
 19 34  1  0
 19 35  1  0
 20 36  1  0
A    1
 C1 
A    2
 N1 
A    3
 C2 
A    4
 C3 
A    5
 C4 
A    6
 C5 
A    7
 N2 
A    8
 N3 
A    9
 C6 
A   10
 C7 
A   11
 C8 
A   12
 O1 
A   13
 C9 
A   14
 C10
A   15
 N4 
A   16
 C11
A   17
 C12
A   18
 C13
A   19
 C14
A   20
 C15
A   21
 N5 
A   22
 H1 
A   23
 H2 
A   24
 H3 
A   25
 H4 
A   26
 H5 
A   27
 H6 
A   28
 H7 
A   29
 H8 
A   30
 H9 
A   31
 H10
A   32
 H11
A   33
 H12
A   34
 H13
A   35
 H14
A   36
 H15
M  END
>  <ref_pdb>  (38) 
x0051_0B

>  <ref_mols>  (38) 
x0435_0B,x0969_1B

>  <original SMILES>  (38) 
[H]c1c([H])c(N([H])C(=O)c2nc([H])n3c2C([H])([H])C([H])([H])C([H])([H])C3([H])[H])c2c(c([H])nn2[H])c1[H]

>  <index>  (38) 
86

>  <∆∆G>  (38) 
-7.016892

>  <∆G_bound>  (38) 
-6.232666

>  <∆G_unbound>  (38) 
0.784226

>  <comRMSD>  (38) 
0.773809

>  <N_constrained_atoms>  (38) 
20.0

>  <N_unconstrained_atoms>  (38) 
2.0

>  <runtime>  (38) 
58.399125

>  <LE>  (38) 
0.31895

>  <percent_hybrid>  (38) 
50.0

>  <dist>  (38) 
10.0

>  <ecfp4>  (38) 
0.098901

>  <daylight>  (38) 
0.216802

>  <topodist>  (38) 
3.0

>  <mces>  (38) 
23.0

>  <tdn>  (38) 
1.0

>  <tup>  (38) 
1.0

>  <rdn>  (38) 
0.0

>  <rup>  (38) 
0.0

>  <ldn>  (38) 
1.0

>  <lup>  (38) 
0.0

>  <mut>  (38) 
5.0

>  <maj>  (38) 
5.0

>  <min>  (38) 
0.0

>  <hyb>  (38) 
2.0

>  <sub>  (38) 
1.0

>  <query_index>  (38) 
311.0

>  <max_hit_Tanimoto>  (38) 
0.213942

>  <largest_ring>  (38) 
0

>  <N_interactions_kept>  (38) 
2.5

>  <N_interactions_lost>  (38) 
1.0

>  <interaction_uniqueness_metric>  (38) 
0.177326

>  <ad_hoc_penalty>  (38) 
-34.200866

>  <N_rotatable_bonds>  (38) 
2

>  <N_HA>  (38) 
21

>  <cluster>  (38) 
6138

>  <N_interactions>  (38) 
5

>  <Enamine>  (38) 
0

>  <Mcule>  (38) 
1

>  <N_PAINS>  (38) 
0

>  <UFF_Gibbs>  (38) 
54.815762

>  <strain_per_HA>  (38) 
2.610274

>  <saltbridge:HIS:51>  (38) 
0

>  <pistack:HIS:51>  (38) 
1

>  <hydroph_interaction:HIS:51>  (38) 
0

>  <hbond:ALA:132>  (38) 
0

>  <hbond:SER:135>  (38) 
0

>  <hydroph_interaction:TYR:150>  (38) 
0

>  <pistack:TYR:161>  (38) 
1

>  <hydroph_interaction:TYR:161>  (38) 
1

>  <hydroph_interaction:ASP:83>  (38) 
1

>  <hbond:TYR:130>  (38) 
0

>  <hydroph_interaction:ALA:132>  (38) 
0

>  <hbond:HIS:51>  (38) 
0

>  <hbond:ASP:129>  (38) 
0

>  <hbond:TYR:150>  (38) 
0

>  <hbond:GLY:151>  (38) 
0

>  <hbond:TYR:161>  (38) 
1

>  <hydroph_interaction:TYR:130>  (38) 
0

>  <hydroph_interaction:PRO:131>  (38) 
0

>  <hydroph_interaction:ASP:129>  (38) 
0

>  <saltbridge:ASP:75>  (38) 
0

>  <saltbridge:ASP:83>  (38) 
0

>  <hydroph_interaction:ASN:152>  (38) 
0

>  <halogenbond:TYR:150>  (38) 
0

>  <hbond:ASP:83>  (38) 
0

>  <hydroph_interaction:VAL:155>  (38) 
0

>  <pication:TYR:161>  (38) 
0

>  <hbond:PRO:131>  (38) 
0

>  <hbond:LEU:128>  (38) 
0

>  <saltbridge:ASP:129>  (38) 
0

>  <hbond:THR:134>  (38) 
0

>  <pication:HIS:51>  (38) 
0

>  <hbond:SER:81>  (38) 
0

>  <hbond:GLY:159>  (38) 
0

>  <hydroph_interaction:PRO:101>  (38) 
0

>  <hydroph_interaction:THR:134>  (38) 
0

>  <hbond:GLY:82>  (38) 
0

>  <hydroph_interaction:GLU:104>  (38) 
0

>  <hydroph_interaction:VAL:36>  (38) 
0

>  <hydroph_interaction:MET:49>  (38) 
0

>  <halogenbond:GLU:104>  (38) 
0

>  <hydroph_interaction:LYS:107>  (38) 
0

$$$$
Z2874569125
     RDKit          3D

 45 48  0  0  0  0  0  0  0  0999 V2000
   -9.2220    4.6220  -18.6830 C   0  0  0  0  0  0  0  0  0  0  0  0
   -8.5840    5.2040  -17.4440 C   0  0  0  0  0  0  0  0  0  0  0  0
   -9.1280    5.1640  -16.1890 C   0  0  0  0  0  0  0  0  0  0  0  0
   -8.2490    5.8470  -15.1530 C   0  0  0  0  0  0  0  0  0  0  0  0
   -8.4660    6.0630  -13.6350 C   0  0  0  0  0  0  0  0  0  0  0  0
   -8.4170    7.2360  -13.2610 O   0  0  0  0  0  0  0  0  0  0  0  0
   -8.7020    5.0460  -12.6920 N   0  0  0  0  0  0  0  0  0  0  0  0
   -8.7660    5.2930  -11.3010 C   0  0  0  0  0  0  0  0  0  0  0  0
   -8.9730    4.3270  -10.2790 C   0  0  0  0  0  0  0  0  0  0  0  0
   -9.1570    2.9550  -10.3990 C   0  0  0  0  0  0  0  0  0  0  0  0
   -9.3570    2.2090   -9.2170 C   0  0  0  0  0  0  0  0  0  0  0  0
   -9.3720    2.8570   -7.8770 C   0  0  0  0  0  0  0  0  0  0  0  0
   -9.1710    4.2250   -7.8470 C   0  0  0  0  0  0  0  0  0  0  0  0
   -8.9790    4.9400   -9.0220 N   0  0  0  0  0  0  0  0  0  0  0  0
   -8.7820    6.2700   -9.1650 N   0  0  0  0  0  0  0  0  0  0  0  0
   -8.6590    6.4770  -10.5030 C   0  0  0  0  0  0  0  0  0  0  0  0
   -7.1760    6.2720  -15.8860 N   0  0  0  0  0  0  0  0  0  0  0  0
   -7.3770    5.8940  -17.2520 N   0  0  0  0  0  0  0  0  0  0  0  0
   -6.2970    6.2950  -18.2020 C   0  0  0  0  0  0  0  0  0  0  0  0
   -6.8080    6.9260  -19.5010 C   0  0  0  0  0  0  0  0  0  0  0  0
   -5.8820    6.7450  -20.5410 C   0  0  0  0  0  0  0  0  0  0  0  0
   -4.5370    6.5950  -20.2110 C   0  0  0  0  0  0  0  0  0  0  0  0
   -4.2280    5.7070  -19.1890 C   0  0  0  0  0  0  0  0  0  0  0  0
   -5.3770    5.1630  -18.6140 C   0  0  0  0  0  0  0  0  0  0  0  0
  -10.1350    5.1760  -18.9270 H   0  0  0  0  0  0  0  0  0  0  0  0
   -9.4790    3.5740  -18.5270 H   0  0  0  0  0  0  0  0  0  0  0  0
   -8.5440    4.6820  -19.5390 H   0  0  0  0  0  0  0  0  0  0  0  0
  -10.0840    4.7030  -15.9470 H   0  0  0  0  0  0  0  0  0  0  0  0
   -9.1190    4.1830  -13.0080 H   0  0  0  0  0  0  0  0  0  0  0  0
   -9.1470    2.4720  -11.3690 H   0  0  0  0  0  0  0  0  0  0  0  0
   -9.5020    1.1450   -9.2410 H   0  0  0  0  0  0  0  0  0  0  0  0
   -9.5290    2.2620   -6.9860 H   0  0  0  0  0  0  0  0  0  0  0  0
   -9.1590    4.7870   -6.9190 H   0  0  0  0  0  0  0  0  0  0  0  0
   -8.4930    7.4940  -10.8390 H   0  0  0  0  0  0  0  0  0  0  0  0
   -5.6630    6.9040  -17.5660 H   0  0  0  0  0  0  0  0  0  0  0  0
   -7.7810    6.6100  -19.8520 H   0  0  0  0  0  0  0  0  0  0  0  0
   -6.8860    8.0050  -19.3770 H   0  0  0  0  0  0  0  0  0  0  0  0
   -5.9870    7.6020  -21.2190 H   0  0  0  0  0  0  0  0  0  0  0  0
   -6.1920    5.8460  -21.0880 H   0  0  0  0  0  0  0  0  0  0  0  0
   -3.9780    6.2790  -21.1000 H   0  0  0  0  0  0  0  0  0  0  0  0
   -4.1370    7.5830  -19.9440 H   0  0  0  0  0  0  0  0  0  0  0  0
   -3.5770    4.9210  -19.5790 H   0  0  0  0  0  0  0  0  0  0  0  0
   -3.6540    6.2200  -18.4070 H   0  0  0  0  0  0  0  0  0  0  0  0
   -5.0690    4.5990  -17.7300 H   0  0  0  0  0  0  0  0  0  0  0  0
   -5.9460    4.4770  -19.2310 H   0  0  0  0  0  0  0  0  0  0  0  0
  1  2  1  0
  2  3  2  0
  3  4  1  0
  4  5  1  0
  5  6  2  0
  5  7  1  0
  7  8  1  0
  8  9  2  0
  9 10  1  0
 10 11  2  0
 11 12  1  0
 12 13  2  0
 13 14  1  0
 14 15  1  0
 15 16  2  0
  4 17  2  0
 17 18  1  0
 18 19  1  0
 19 20  1  0
 20 21  1  0
 21 22  1  0
 22 23  1  0
 23 24  1  0
 18  2  1  0
 16  8  1  0
 14  9  1  0
 24 19  1  0
  1 25  1  0
  1 26  1  0
  1 27  1  0
  3 28  1  0
  7 29  1  0
 10 30  1  0
 11 31  1  0
 12 32  1  0
 13 33  1  0
 16 34  1  0
 19 35  1  0
 20 36  1  0
 20 37  1  0
 21 38  1  0
 21 39  1  0
 22 40  1  0
 22 41  1  0
 23 42  1  0
 23 43  1  0
 24 44  1  0
 24 45  1  0
A    1
 C1 
A    2
 C2 
A    3
 C3 
A    4
 C4 
A    5
 C5 
A    6
 O1 
A    7
 N1 
A    8
 C6 
A    9
 C7 
A   10
 C8 
A   11
 C9 
A   12
 C10
A   13
 C11
A   14
 N2 
A   15
 N3 
A   16
 C12
A   17
 N4 
A   18
 N5 
A   19
 C13
A   20
 C14
A   21
 C15
A   22
 C16
A   23
 C17
A   24
 C18
A   25
 H1 
A   26
 H2 
A   27
 H3 
A   28
 H4 
A   29
 H5 
A   30
 H6 
A   31
 H7 
A   32
 H8 
A   33
 H9 
A   34
 H10
A   35
 H11
A   36
 H12
A   37
 H13
A   38
 H14
A   39
 H15
A   40
 H16
A   41
 H17
A   42
 H18
A   43
 H19
A   44
 H20
A   45
 H21
M  END
>  <ref_pdb>  (39) 
x0051_0B

>  <ref_mols>  (39) 
x0969_1B,x0917_0B

>  <original SMILES>  (39) 
[H]c1nn2c([H])c([H])c([H])c([H])c2c1N([H])C(=O)c1nn(C2([H])C([H])([H])C([H])([H])C([H])([H])C([H])([H])C2([H])[H])c(C([H])([H])[H])c1[H]

>  <index>  (39) 
42

>  <∆∆G>  (39) 
-6.184374

>  <∆G_bound>  (39) 
-5.840369

>  <∆G_unbound>  (39) 
0.344005

>  <comRMSD>  (39) 
0.644756

>  <N_constrained_atoms>  (39) 
25.0

>  <N_unconstrained_atoms>  (39) 
0.0

>  <runtime>  (39) 
67.401255

>  <LE>  (39) 
0.247375

>  <percent_hybrid>  (39) 
38.0

>  <dist>  (39) 
11.0

>  <ecfp4>  (39) 
0.138298

>  <daylight>  (39) 
0.260388

>  <topodist>  (39) 
1.0

>  <mces>  (39) 
27.0

>  <tdn>  (39) 
1.0

>  <tup>  (39) 
0.0

>  <rdn>  (39) 
0.0

>  <rup>  (39) 
0.0

>  <ldn>  (39) 
0.0

>  <lup>  (39) 
0.0

>  <mut>  (39) 
6.0

>  <maj>  (39) 
6.0

>  <min>  (39) 
0.0

>  <hyb>  (39) 
4.0

>  <sub>  (39) 
0.0

>  <query_index>  (39) 
70.0

>  <max_hit_Tanimoto>  (39) 
0.268566

>  <largest_ring>  (39) 
0

>  <N_interactions_kept>  (39) 
3.5

>  <N_interactions_lost>  (39) 
0.5

>  <interaction_uniqueness_metric>  (39) 
0.116623

>  <ad_hoc_penalty>  (39) 
-34.194901

>  <N_rotatable_bonds>  (39) 
4

>  <N_HA>  (39) 
24

>  <cluster>  (39) 
6177

>  <N_interactions>  (39) 
6

>  <Enamine>  (39) 
1

>  <Mcule>  (39) 
0

>  <N_PAINS>  (39) 
0

>  <UFF_Gibbs>  (39) 
119.021944

>  <strain_per_HA>  (39) 
4.959248

>  <saltbridge:HIS:51>  (39) 
0

>  <pistack:HIS:51>  (39) 
1

>  <hydroph_interaction:HIS:51>  (39) 
0

>  <hbond:ALA:132>  (39) 
0

>  <hbond:SER:135>  (39) 
0

>  <hydroph_interaction:TYR:150>  (39) 
1

>  <pistack:TYR:161>  (39) 
0

>  <hydroph_interaction:TYR:161>  (39) 
2

>  <hydroph_interaction:ASP:83>  (39) 
0

>  <hbond:TYR:130>  (39) 
0

>  <hydroph_interaction:ALA:132>  (39) 
1

>  <hbond:HIS:51>  (39) 
0

>  <hbond:ASP:129>  (39) 
0

>  <hbond:TYR:150>  (39) 
0

>  <hbond:GLY:151>  (39) 
1

>  <hbond:TYR:161>  (39) 
0

>  <hydroph_interaction:TYR:130>  (39) 
0

>  <hydroph_interaction:PRO:131>  (39) 
0

>  <hydroph_interaction:ASP:129>  (39) 
0

>  <saltbridge:ASP:75>  (39) 
0

>  <saltbridge:ASP:83>  (39) 
0

>  <hydroph_interaction:ASN:152>  (39) 
0

>  <halogenbond:TYR:150>  (39) 
0

>  <hbond:ASP:83>  (39) 
0

>  <hydroph_interaction:VAL:155>  (39) 
0

>  <pication:TYR:161>  (39) 
0

>  <hbond:PRO:131>  (39) 
0

>  <hbond:LEU:128>  (39) 
0

>  <saltbridge:ASP:129>  (39) 
0

>  <hbond:THR:134>  (39) 
0

>  <pication:HIS:51>  (39) 
0

>  <hbond:SER:81>  (39) 
0

>  <hbond:GLY:159>  (39) 
0

>  <hydroph_interaction:PRO:101>  (39) 
0

>  <hydroph_interaction:THR:134>  (39) 
0

>  <hbond:GLY:82>  (39) 
0

>  <hydroph_interaction:GLU:104>  (39) 
0

>  <hydroph_interaction:VAL:36>  (39) 
0

>  <hydroph_interaction:MET:49>  (39) 
0

>  <halogenbond:GLU:104>  (39) 
0

>  <hydroph_interaction:LYS:107>  (39) 
0

$$$$
Z5034716328
     RDKit          3D

 43 46  0  0  0  0  0  0  0  0999 V2000
   -8.0080    7.4060  -13.4420 O   0  0  0  0  0  0  0  0  0  0  0  0
   -8.3010    6.2480  -13.7210 C   0  0  0  0  0  0  0  0  0  0  0  0
   -8.6690    5.2600  -12.7630 N   0  0  0  0  0  0  0  0  0  0  0  0
   -8.7490    5.4070  -11.3310 C   0  0  0  0  0  0  0  0  0  0  0  0
   -8.9330    4.2990  -10.2910 C   0  0  0  0  0  0  0  0  0  0  0  0
   -9.0650    2.9540  -10.4080 C   0  0  0  0  0  0  0  0  0  0  0  0
   -9.3730    2.1030   -9.2420 C   0  0  0  0  0  0  0  0  0  0  0  0
   -9.5990    2.7530   -8.0060 C   0  0  0  0  0  0  0  0  0  0  0  0
   -9.1200    4.0860   -7.7910 C   0  0  0  0  0  0  0  0  0  0  0  0
   -8.9560    4.8640   -9.0650 N   0  0  0  0  0  0  0  0  0  0  0  0
   -8.8130    6.2020   -9.1070 N   0  0  0  0  0  0  0  0  0  0  0  0
   -8.6940    6.5260  -10.4360 C   0  0  0  0  0  0  0  0  0  0  0  0
   -8.2950    5.8350  -15.1750 C   0  0  0  0  0  0  0  0  0  0  0  0
   -9.4090    5.1510  -15.8560 C   0  0  0  0  0  0  0  0  0  0  0  0
   -9.0150    4.8780  -17.4970 S   0  0  0  0  0  0  0  0  0  0  0  0
   -7.4670    5.6170  -17.3060 C   0  0  0  0  0  0  0  0  0  0  0  0
   -6.5530    5.6740  -18.5380 C   0  0  0  0  0  0  0  0  0  0  0  0
   -6.6500    6.9640  -19.3700 C   0  0  0  0  0  0  0  0  0  0  0  0
   -5.7130    6.9840  -20.5740 C   0  0  0  0  0  0  0  0  0  0  0  0
   -4.3760    6.8240  -20.1180 O   0  0  0  0  0  0  0  0  0  0  0  0
   -4.2450    5.5610  -19.4800 C   0  0  0  0  0  0  0  0  0  0  0  0
   -5.0850    5.4470  -18.2100 C   0  0  0  0  0  0  0  0  0  0  0  0
   -7.2030    6.0760  -16.0660 N   0  0  0  0  0  0  0  0  0  0  0  0
   -9.0600    4.4110  -13.1630 H   0  0  0  0  0  0  0  0  0  0  0  0
   -8.1480    2.5540  -10.8560 H   0  0  0  0  0  0  0  0  0  0  0  0
   -9.8500    2.7770  -11.1540 H   0  0  0  0  0  0  0  0  0  0  0  0
   -8.7030    1.2830   -9.0320 H   0  0  0  0  0  0  0  0  0  0  0  0
  -10.3090    1.6020   -9.4730 H   0  0  0  0  0  0  0  0  0  0  0  0
  -10.6870    2.7980   -7.8950 H   0  0  0  0  0  0  0  0  0  0  0  0
   -9.2960    2.0260   -7.2440 H   0  0  0  0  0  0  0  0  0  0  0  0
   -8.1150    4.0050   -7.3660 H   0  0  0  0  0  0  0  0  0  0  0  0
   -9.6720    4.7410   -7.1240 H   0  0  0  0  0  0  0  0  0  0  0  0
   -8.5700    7.5730  -10.6930 H   0  0  0  0  0  0  0  0  0  0  0  0
  -10.3550    4.8430  -15.4350 H   0  0  0  0  0  0  0  0  0  0  0  0
   -6.8450    4.8550  -19.2080 H   0  0  0  0  0  0  0  0  0  0  0  0
   -7.6790    7.0590  -19.7260 H   0  0  0  0  0  0  0  0  0  0  0  0
   -6.4300    7.8540  -18.7850 H   0  0  0  0  0  0  0  0  0  0  0  0
   -5.9620    6.1930  -21.2940 H   0  0  0  0  0  0  0  0  0  0  0  0
   -5.7950    7.9410  -21.0980 H   0  0  0  0  0  0  0  0  0  0  0  0
   -3.1830    5.4070  -19.2600 H   0  0  0  0  0  0  0  0  0  0  0  0
   -4.5490    4.8090  -20.2060 H   0  0  0  0  0  0  0  0  0  0  0  0
   -4.9120    4.4910  -17.7150 H   0  0  0  0  0  0  0  0  0  0  0  0
   -4.7490    6.2150  -17.5010 H   0  0  0  0  0  0  0  0  0  0  0  0
  1  2  2  0
  2  3  1  0
  3  4  1  0
  4  5  2  0
  5  6  1  0
  6  7  1  0
  7  8  1  0
  8  9  1  0
  9 10  1  0
 10 11  1  0
 11 12  2  0
  2 13  1  0
 13 14  2  0
 14 15  1  0
 15 16  1  0
 16 17  1  0
 17 18  1  0
 18 19  1  0
 19 20  1  0
 20 21  1  0
 21 22  1  0
 16 23  2  0
 12  4  1  0
 10  5  1  0
 23 13  1  0
 22 17  1  0
  3 24  1  0
  6 25  1  0
  6 26  1  0
  7 27  1  0
  7 28  1  0
  8 29  1  0
  8 30  1  0
  9 31  1  0
  9 32  1  0
 12 33  1  0
 14 34  1  0
 17 35  1  0
 18 36  1  0
 18 37  1  0
 19 38  1  0
 19 39  1  0
 21 40  1  0
 21 41  1  0
 22 42  1  0
 22 43  1  0
A    1
 O1 
A    2
 C1 
A    3
 N1 
A    4
 C2 
A    5
 C3 
A    6
 C4 
A    7
 C5 
A    8
 C6 
A    9
 C7 
A   10
 N2 
A   11
 N3 
A   12
 C8 
A   13
 C9 
A   14
 C10
A   15
 S1 
A   16
 C11
A   17
 C12
A   18
 C13
A   19
 C14
A   20
 O2 
A   21
 C15
A   22
 C16
A   23
 N4 
A   24
 H1 
A   25
 H2 
A   26
 H3 
A   27
 H4 
A   28
 H5 
A   29
 H6 
A   30
 H7 
A   31
 H8 
A   32
 H9 
A   33
 H10
A   34
 H11
A   35
 H12
A   36
 H13
A   37
 H14
A   38
 H15
A   39
 H16
A   40
 H17
A   41
 H18
A   42
 H19
A   43
 H20
M  END
>  <ref_pdb>  (40) 
x0051_0B

>  <ref_mols>  (40) 
x0917_1B,x0969_1B

>  <original SMILES>  (40) 
[H]c1nn2c(c1N([H])C(=O)c1nc(C3([H])C([H])([H])C([H])([H])OC([H])([H])C3([H])[H])sc1[H])C([H])([H])C([H])([H])C([H])([H])C2([H])[H]

>  <index>  (40) 
54

>  <∆∆G>  (40) 
-6.360143

>  <∆G_bound>  (40) 
-5.483679

>  <∆G_unbound>  (40) 
0.876464

>  <comRMSD>  (40) 
0.786543

>  <N_constrained_atoms>  (40) 
25.0

>  <N_unconstrained_atoms>  (40) 
0.0

>  <runtime>  (40) 
54.221114

>  <LE>  (40) 
0.254406

>  <percent_hybrid>  (40) 
38.0

>  <dist>  (40) 
9.0

>  <ecfp4>  (40) 
0.229885

>  <daylight>  (40) 
0.286432

>  <topodist>  (40) 
2.0

>  <mces>  (40) 
26.0

>  <tdn>  (40) 
2.0

>  <tup>  (40) 
0.0

>  <rdn>  (40) 
0.0

>  <rup>  (40) 
0.0

>  <ldn>  (40) 
0.0

>  <lup>  (40) 
0.0

>  <mut>  (40) 
6.0

>  <maj>  (40) 
6.0

>  <min>  (40) 
0.0

>  <hyb>  (40) 
1.0

>  <sub>  (40) 
0.0

>  <query_index>  (40) 
298.0

>  <max_hit_Tanimoto>  (40) 
0.268992

>  <largest_ring>  (40) 
0

>  <N_interactions_kept>  (40) 
2.0

>  <N_interactions_lost>  (40) 
1.0

>  <interaction_uniqueness_metric>  (40) 
0.138446

>  <ad_hoc_penalty>  (40) 
-34.142363

>  <N_rotatable_bonds>  (40) 
3

>  <N_HA>  (40) 
23

>  <cluster>  (40) 
6168

>  <N_interactions>  (40) 
6

>  <Enamine>  (40) 
1

>  <Mcule>  (40) 
0

>  <N_PAINS>  (40) 
0

>  <UFF_Gibbs>  (40) 
91.44739

>  <strain_per_HA>  (40) 
3.975973

>  <saltbridge:HIS:51>  (40) 
0

>  <pistack:HIS:51>  (40) 
1

>  <hydroph_interaction:HIS:51>  (40) 
1

>  <hbond:ALA:132>  (40) 
0

>  <hbond:SER:135>  (40) 
0

>  <hydroph_interaction:TYR:150>  (40) 
0

>  <pistack:TYR:161>  (40) 
0

>  <hydroph_interaction:TYR:161>  (40) 
2

>  <hydroph_interaction:ASP:83>  (40) 
0

>  <hbond:TYR:130>  (40) 
0

>  <hydroph_interaction:ALA:132>  (40) 
1

>  <hbond:HIS:51>  (40) 
0

>  <hbond:ASP:129>  (40) 
0

>  <hbond:TYR:150>  (40) 
0

>  <hbond:GLY:151>  (40) 
1

>  <hbond:TYR:161>  (40) 
0

>  <hydroph_interaction:TYR:130>  (40) 
0

>  <hydroph_interaction:PRO:131>  (40) 
0

>  <hydroph_interaction:ASP:129>  (40) 
0

>  <saltbridge:ASP:75>  (40) 
0

>  <saltbridge:ASP:83>  (40) 
0

>  <hydroph_interaction:ASN:152>  (40) 
0

>  <halogenbond:TYR:150>  (40) 
0

>  <hbond:ASP:83>  (40) 
0

>  <hydroph_interaction:VAL:155>  (40) 
0

>  <pication:TYR:161>  (40) 
0

>  <hbond:PRO:131>  (40) 
0

>  <hbond:LEU:128>  (40) 
0

>  <saltbridge:ASP:129>  (40) 
0

>  <hbond:THR:134>  (40) 
0

>  <pication:HIS:51>  (40) 
0

>  <hbond:SER:81>  (40) 
0

>  <hbond:GLY:159>  (40) 
0

>  <hydroph_interaction:PRO:101>  (40) 
0

>  <hydroph_interaction:THR:134>  (40) 
0

>  <hbond:GLY:82>  (40) 
0

>  <hydroph_interaction:GLU:104>  (40) 
0

>  <hydroph_interaction:VAL:36>  (40) 
0

>  <hydroph_interaction:MET:49>  (40) 
0

>  <halogenbond:GLU:104>  (40) 
0

>  <hydroph_interaction:LYS:107>  (40) 
0

$$$$
JOBQGBGZIHYOQQ-UHFFFAOYSA-N
     RDKit          3D

 45 47  0  0  0  0  0  0  0  0999 V2000
   -8.5790    7.0710  -13.9630 C   0  0  0  0  0  0  0  0  0  0  0  0
   -7.8410    6.2250  -14.7960 N   0  0  0  0  0  0  0  0  0  0  0  0
   -8.0500    5.7280  -16.1090 C   0  0  0  0  0  0  0  0  0  0  0  0
   -6.9340    5.4240  -16.8930 C   0  0  0  0  0  0  0  0  0  0  0  0
   -5.6440    5.5760  -16.3970 C   0  0  0  0  0  0  0  0  0  0  0  0
   -7.0900    4.9630  -18.2020 C   0  0  0  0  0  0  0  0  0  0  0  0
   -8.3530    4.7970  -18.7440 C   0  0  0  0  0  0  0  0  0  0  0  0
   -9.4590    5.0880  -17.9760 C   0  0  0  0  0  0  0  0  0  0  0  0
  -10.8370    4.9630  -18.5830 C   0  0  0  0  0  0  0  0  0  0  0  0
   -9.3110    5.5430  -16.6590 C   0  0  0  0  0  0  0  0  0  0  0  0
   -9.0670    8.1860  -14.1350 O   0  0  0  0  0  0  0  0  0  0  0  0
   -8.6850    6.4340  -12.6410 C   0  0  0  0  0  0  0  0  0  0  0  0
   -8.6060    7.1460  -11.4440 C   0  0  0  0  0  0  0  0  0  0  0  0
   -8.6830    6.4540  -10.2370 C   0  0  0  0  0  0  0  0  0  0  0  0
   -8.8470    4.9830  -10.2190 C   0  0  0  0  0  0  0  0  0  0  0  0
   -8.9110    4.2700   -9.0610 N   0  0  0  0  0  0  0  0  0  0  0  0
   -9.1390    2.8200   -9.1050 C   0  0  0  0  0  0  0  0  0  0  0  0
   -9.7510    2.3930   -7.7790 C   0  0  0  0  0  0  0  0  0  0  0  0
   -8.9160    2.6930   -6.6630 O   0  0  0  0  0  0  0  0  0  0  0  0
   -8.1780    3.9140   -6.7830 C   0  0  0  0  0  0  0  0  0  0  0  0
   -8.6950    4.8740   -7.7380 C   0  0  0  0  0  0  0  0  0  0  0  0
   -8.9320    4.3460  -11.4580 C   0  0  0  0  0  0  0  0  0  0  0  0
   -8.8530    5.0530  -12.6500 C   0  0  0  0  0  0  0  0  0  0  0  0
   -7.0290    5.8250  -14.3500 H   0  0  0  0  0  0  0  0  0  0  0  0
   -4.8130    5.2430  -17.0150 H   0  0  0  0  0  0  0  0  0  0  0  0
   -5.5590    5.0240  -15.4540 H   0  0  0  0  0  0  0  0  0  0  0  0
   -5.4650    6.6350  -16.1980 H   0  0  0  0  0  0  0  0  0  0  0  0
   -6.2250    4.7300  -18.8170 H   0  0  0  0  0  0  0  0  0  0  0  0
   -8.4640    4.4490  -19.7680 H   0  0  0  0  0  0  0  0  0  0  0  0
  -11.5130    5.6530  -18.1220 H   0  0  0  0  0  0  0  0  0  0  0  0
  -11.2610    3.9860  -18.4890 H   0  0  0  0  0  0  0  0  0  0  0  0
  -10.7650    5.2580  -19.6300 H   0  0  0  0  0  0  0  0  0  0  0  0
  -10.2010    5.7670  -16.0850 H   0  0  0  0  0  0  0  0  0  0  0  0
   -8.4790    8.2250  -11.4300 H   0  0  0  0  0  0  0  0  0  0  0  0
   -8.6150    7.0210   -9.3140 H   0  0  0  0  0  0  0  0  0  0  0  0
   -8.1850    2.3010   -9.2610 H   0  0  0  0  0  0  0  0  0  0  0  0
   -9.8370    2.5450   -9.9030 H   0  0  0  0  0  0  0  0  0  0  0  0
   -9.9410    1.3340   -7.7790 H   0  0  0  0  0  0  0  0  0  0  0  0
  -10.7120    2.8860   -7.6180 H   0  0  0  0  0  0  0  0  0  0  0  0
   -8.1390    4.3610   -5.7840 H   0  0  0  0  0  0  0  0  0  0  0  0
   -7.1540    3.6400   -7.0520 H   0  0  0  0  0  0  0  0  0  0  0  0
   -7.9720    5.6980   -7.8010 H   0  0  0  0  0  0  0  0  0  0  0  0
   -9.6440    5.2760   -7.3720 H   0  0  0  0  0  0  0  0  0  0  0  0
   -9.0580    3.2680  -11.5230 H   0  0  0  0  0  0  0  0  0  0  0  0
   -8.9180    4.5150  -13.5940 H   0  0  0  0  0  0  0  0  0  0  0  0
  1  2  1  0
  2  3  1  0
  3  4  2  0
  4  5  1  0
  4  6  1  0
  6  7  2  0
  7  8  1  0
  8  9  1  0
  8 10  2  0
  1 11  2  0
  1 12  1  0
 12 13  2  0
 13 14  1  0
 14 15  2  0
 15 16  1  0
 16 17  1  0
 17 18  1  0
 18 19  1  0
 19 20  1  0
 20 21  1  0
 15 22  1  0
 22 23  2  0
  3 10  1  0
 23 12  1  0
 21 16  1  0
  2 24  1  0
  5 25  1  0
  5 26  1  0
  5 27  1  0
  6 28  1  0
  7 29  1  0
  9 30  1  0
  9 31  1  0
  9 32  1  0
 10 33  1  0
 13 34  1  0
 14 35  1  0
 17 36  1  0
 17 37  1  0
 18 38  1  0
 18 39  1  0
 20 40  1  0
 20 41  1  0
 21 42  1  0
 21 43  1  0
 22 44  1  0
 23 45  1  0
A    1
 C1 
A    2
 N1 
A    3
 C2 
A    4
 C3 
A    5
 C4 
A    6
 C5 
A    7
 C6 
A    8
 C7 
A    9
 C8 
A   10
 C9 
A   11
 O1 
A   12
 C10
A   13
 C11
A   14
 C12
A   15
 C13
A   16
 N2 
A   17
 C14
A   18
 C15
A   19
 O2 
A   20
 C16
A   21
 C17
A   22
 C18
A   23
 C19
A   24
 H1 
A   25
 H2 
A   26
 H3 
A   27
 H4 
A   28
 H5 
A   29
 H6 
A   30
 H7 
A   31
 H8 
A   32
 H9 
A   33
 H10
A   34
 H11
A   35
 H12
A   36
 H13
A   37
 H14
A   38
 H15
A   39
 H16
A   40
 H17
A   41
 H18
A   42
 H19
A   43
 H20
A   44
 H21
A   45
 H22
M  END
>  <ref_pdb>  (41) 
x0051_0B

>  <ref_mols>  (41) 
x0553_0B,x0404_0B

>  <original SMILES>  (41) 
[H]c1c([H])c(N2C([H])([H])C([H])([H])OC([H])([H])C2([H])[H])c([H])c([H])c1C(=O)N([H])c1c([H])c(C([H])([H])[H])c([H])c([H])c1C([H])([H])[H]

>  <index>  (41) 
74

>  <∆∆G>  (41) 
-8.20302

>  <∆G_bound>  (41) 
-8.163328

>  <∆G_unbound>  (41) 
0.039693

>  <comRMSD>  (41) 
0.609734

>  <N_constrained_atoms>  (41) 
24.0

>  <N_unconstrained_atoms>  (41) 
0.0

>  <runtime>  (41) 
61.547083

>  <LE>  (41) 
0.341793

>  <percent_hybrid>  (41) 
38.0

>  <dist>  (41) 
7.0

>  <ecfp4>  (41) 
0.266667

>  <daylight>  (41) 
0.21134

>  <topodist>  (41) 
3.0

>  <mces>  (41) 
25.0

>  <tdn>  (41) 
2.0

>  <tup>  (41) 
0.0

>  <rdn>  (41) 
0.0

>  <rup>  (41) 
0.0

>  <ldn>  (41) 
1.0

>  <lup>  (41) 
0.0

>  <mut>  (41) 
2.0

>  <maj>  (41) 
2.0

>  <min>  (41) 
0.0

>  <hyb>  (41) 
2.0

>  <sub>  (41) 
0.0

>  <query_index>  (41) 
112.0

>  <max_hit_Tanimoto>  (41) 
0.245053

>  <largest_ring>  (41) 
0

>  <N_interactions_kept>  (41) 
2.0

>  <N_interactions_lost>  (41) 
1.5

>  <interaction_uniqueness_metric>  (41) 
0.119529

>  <ad_hoc_penalty>  (41) 
-33.861384

>  <N_rotatable_bonds>  (41) 
5

>  <N_HA>  (41) 
23

>  <cluster>  (41) 
6150

>  <N_interactions>  (41) 
7

>  <Enamine>  (41) 
0

>  <Mcule>  (41) 
1

>  <N_PAINS>  (41) 
0

>  <UFF_Gibbs>  (41) 
73.216371

>  <strain_per_HA>  (41) 
3.18332

>  <saltbridge:HIS:51>  (41) 
0

>  <pistack:HIS:51>  (41) 
1

>  <hydroph_interaction:HIS:51>  (41) 
1

>  <hbond:ALA:132>  (41) 
0

>  <hbond:SER:135>  (41) 
0

>  <hydroph_interaction:TYR:150>  (41) 
1

>  <pistack:TYR:161>  (41) 
0

>  <hydroph_interaction:TYR:161>  (41) 
3

>  <hydroph_interaction:ASP:83>  (41) 
0

>  <hbond:TYR:130>  (41) 
0

>  <hydroph_interaction:ALA:132>  (41) 
1

>  <hbond:HIS:51>  (41) 
0

>  <hbond:ASP:129>  (41) 
0

>  <hbond:TYR:150>  (41) 
0

>  <hbond:GLY:151>  (41) 
0

>  <hbond:TYR:161>  (41) 
0

>  <hydroph_interaction:TYR:130>  (41) 
0

>  <hydroph_interaction:PRO:131>  (41) 
0

>  <hydroph_interaction:ASP:129>  (41) 
0

>  <saltbridge:ASP:75>  (41) 
0

>  <saltbridge:ASP:83>  (41) 
0

>  <hydroph_interaction:ASN:152>  (41) 
0

>  <halogenbond:TYR:150>  (41) 
0

>  <hbond:ASP:83>  (41) 
0

>  <hydroph_interaction:VAL:155>  (41) 
0

>  <pication:TYR:161>  (41) 
0

>  <hbond:PRO:131>  (41) 
0

>  <hbond:LEU:128>  (41) 
0

>  <saltbridge:ASP:129>  (41) 
0

>  <hbond:THR:134>  (41) 
0

>  <pication:HIS:51>  (41) 
0

>  <hbond:SER:81>  (41) 
0

>  <hbond:GLY:159>  (41) 
0

>  <hydroph_interaction:PRO:101>  (41) 
0

>  <hydroph_interaction:THR:134>  (41) 
0

>  <hbond:GLY:82>  (41) 
0

>  <hydroph_interaction:GLU:104>  (41) 
0

>  <hydroph_interaction:VAL:36>  (41) 
0

>  <hydroph_interaction:MET:49>  (41) 
0

>  <halogenbond:GLU:104>  (41) 
0

>  <hydroph_interaction:LYS:107>  (41) 
0

$$$$
MCULE-5645852107
     RDKit          3D

 20 21  0  0  0  0  0  0  0  0999 V2000
   -8.6270    5.0200  -17.9370 C   0  0  0  0  0  0  0  0  0  0  0  0
  -10.1160    4.8010  -17.7410 C   0  0  0  0  0  0  0  0  0  0  0  0
   -7.6730    5.1520  -16.9020 C   0  0  0  0  0  0  0  0  0  0  0  0
   -7.8430    5.1180  -15.5250 N   0  0  0  0  0  0  0  0  0  0  0  0
   -6.6520    5.2800  -14.8640 C   0  0  0  0  0  0  0  0  0  0  0  0
   -5.6480    5.4350  -15.9600 C   0  0  0  0  0  0  0  0  0  0  0  0
   -6.3070    5.3500  -17.1710 C   0  0  0  0  0  0  0  0  0  0  0  0
   -5.8330    5.4270  -18.6270 C   0  0  0  0  0  0  0  0  0  0  0  0
   -6.8360    5.2870  -19.5750 C   0  0  0  0  0  0  0  0  0  0  0  0
   -6.5360    5.3360  -20.8950 O   0  0  0  0  0  0  0  0  0  0  0  0
   -8.1660    5.0940  -19.2560 C   0  0  0  0  0  0  0  0  0  0  0  0
  -10.7970    5.6220  -17.8990 H   0  0  0  0  0  0  0  0  0  0  0  0
  -10.2840    4.4430  -16.7230 H   0  0  0  0  0  0  0  0  0  0  0  0
  -10.4270    4.0260  -18.4420 H   0  0  0  0  0  0  0  0  0  0  0  0
   -8.7360    4.9880  -15.0700 H   0  0  0  0  0  0  0  0  0  0  0  0
   -6.5810    5.2790  -13.7860 H   0  0  0  0  0  0  0  0  0  0  0  0
   -4.5880    5.5850  -15.8190 H   0  0  0  0  0  0  0  0  0  0  0  0
   -4.7930    5.5780  -18.8780 H   0  0  0  0  0  0  0  0  0  0  0  0
   -7.2970    5.7440  -21.3600 H   0  0  0  0  0  0  0  0  0  0  0  0
   -8.8830    4.9960  -20.0720 H   0  0  0  0  0  0  0  0  0  0  0  0
  1  2  1  0
  1  3  2  0
  3  4  1  0
  4  5  1  0
  5  6  2  0
  6  7  1  0
  7  8  2  0
  8  9  1  0
  9 10  1  0
  9 11  2  0
  1 11  1  0
  3  7  1  0
  2 12  1  0
  2 13  1  0
  2 14  1  0
  4 15  1  0
  5 16  1  0
  6 17  1  0
  8 18  1  0
 10 19  1  0
 11 20  1  0
A    1
 C1 
A    2
 C2 
A    3
 C3 
A    4
 N1 
A    5
 C4 
A    6
 C5 
A    7
 C6 
A    8
 C7 
A    9
 C8 
A   10
 O1 
A   11
 C9 
A   12
 H1 
A   13
 H2 
A   14
 H3 
A   15
 H4 
A   16
 H5 
A   17
 H6 
A   18
 H7 
A   19
 H8 
A   20
 H9 
M  END
>  <ref_pdb>  (42) 
x0051_0B

>  <ref_mols>  (42) 
x0605_0B,x0382_0B

>  <original SMILES>  (42) 
[H]Oc1c([H])c(C([H])([H])[H])c2c(c1[H])c([H])c([H])n2[H]

>  <index>  (42) 
63

>  <∆∆G>  (42) 
-6.666145

>  <∆G_bound>  (42) 
-6.672055

>  <∆G_unbound>  (42) 
-0.00591

>  <comRMSD>  (42) 
0.940779

>  <N_constrained_atoms>  (42) 
11.0

>  <N_unconstrained_atoms>  (42) 
2.0

>  <runtime>  (42) 
24.279232

>  <LE>  (42) 
0.51278

>  <percent_hybrid>  (42) 
34.0

>  <dist>  (42) 
2.0

>  <ecfp4>  (42) 
0.275

>  <daylight>  (42) 
0.308824

>  <topodist>  (42) 
2.0

>  <mces>  (42) 
10.0

>  <tdn>  (42) 
0.0

>  <tup>  (42) 
1.0

>  <rdn>  (42) 
0.0

>  <rup>  (42) 
1.0

>  <ldn>  (42) 
0.0

>  <lup>  (42) 
0.0

>  <mut>  (42) 
0.0

>  <maj>  (42) 
0.0

>  <min>  (42) 
0.0

>  <hyb>  (42) 
0.0

>  <sub>  (42) 
2.0

>  <query_index>  (42) 
274.0

>  <max_hit_Tanimoto>  (42) 
0.162281

>  <largest_ring>  (42) 
0

>  <N_interactions_kept>  (42) 
1.0

>  <N_interactions_lost>  (42) 
1.0

>  <interaction_uniqueness_metric>  (42) 
0.099763

>  <ad_hoc_penalty>  (42) 
-33.696371

>  <N_rotatable_bonds>  (42) 
2

>  <N_HA>  (42) 
11

>  <cluster>  (42) 
6160

>  <N_interactions>  (42) 
6

>  <Enamine>  (42) 
0

>  <Mcule>  (42) 
1

>  <N_PAINS>  (42) 
0

>  <UFF_Gibbs>  (42) 
40.255759

>  <strain_per_HA>  (42) 
3.659614

>  <saltbridge:HIS:51>  (42) 
0

>  <pistack:HIS:51>  (42) 
0

>  <hydroph_interaction:HIS:51>  (42) 
0

>  <hbond:ALA:132>  (42) 
0

>  <hbond:SER:135>  (42) 
0

>  <hydroph_interaction:TYR:150>  (42) 
0

>  <pistack:TYR:161>  (42) 
2

>  <hydroph_interaction:TYR:161>  (42) 
1

>  <hydroph_interaction:ASP:83>  (42) 
0

>  <hbond:TYR:130>  (42) 
2

>  <hydroph_interaction:ALA:132>  (42) 
0

>  <hbond:HIS:51>  (42) 
0

>  <hbond:ASP:129>  (42) 
0

>  <hbond:TYR:150>  (42) 
0

>  <hbond:GLY:151>  (42) 
1

>  <hbond:TYR:161>  (42) 
0

>  <hydroph_interaction:TYR:130>  (42) 
0

>  <hydroph_interaction:PRO:131>  (42) 
0

>  <hydroph_interaction:ASP:129>  (42) 
0

>  <saltbridge:ASP:75>  (42) 
0

>  <saltbridge:ASP:83>  (42) 
0

>  <hydroph_interaction:ASN:152>  (42) 
0

>  <halogenbond:TYR:150>  (42) 
0

>  <hbond:ASP:83>  (42) 
0

>  <hydroph_interaction:VAL:155>  (42) 
0

>  <pication:TYR:161>  (42) 
0

>  <hbond:PRO:131>  (42) 
0

>  <hbond:LEU:128>  (42) 
0

>  <saltbridge:ASP:129>  (42) 
0

>  <hbond:THR:134>  (42) 
0

>  <pication:HIS:51>  (42) 
0

>  <hbond:SER:81>  (42) 
0

>  <hbond:GLY:159>  (42) 
0

>  <hydroph_interaction:PRO:101>  (42) 
0

>  <hydroph_interaction:THR:134>  (42) 
0

>  <hbond:GLY:82>  (42) 
0

>  <hydroph_interaction:GLU:104>  (42) 
0

>  <hydroph_interaction:VAL:36>  (42) 
0

>  <hydroph_interaction:MET:49>  (42) 
0

>  <halogenbond:GLU:104>  (42) 
0

>  <hydroph_interaction:LYS:107>  (42) 
0

$$$$
AJRDTNSESMPVEI-UHFFFAOYSA-N
     RDKit          3D

 43 45  0  0  0  0  0  0  0  0999 V2000
   -7.9260    6.9650  -12.4060 O   0  0  0  0  0  0  0  0  0  0  0  0
   -8.6470    5.8660  -12.0360 C   0  0  0  0  0  0  0  0  0  0  0  0
   -9.1550    5.0900  -12.8300 O   0  0  0  0  0  0  0  0  0  0  0  0
   -8.7550    5.6900  -10.6020 C   0  0  0  0  0  0  0  0  0  0  0  0
   -8.9280    4.4330   -9.7930 C   0  0  0  0  0  0  0  0  0  0  0  0
   -8.9770    4.8650   -8.4900 N   0  0  0  0  0  0  0  0  0  0  0  0
   -9.1490    4.0110   -7.3230 C   0  0  0  0  0  0  0  0  0  0  0  0
   -9.5500    2.6040   -7.7410 C   0  0  0  0  0  0  0  0  0  0  0  0
   -8.6820    2.1890   -8.9120 C   0  0  0  0  0  0  0  0  0  0  0  0
   -9.0420    2.9950  -10.1400 C   0  0  0  0  0  0  0  0  0  0  0  0
   -8.8540    6.2010   -8.3500 N   0  0  0  0  0  0  0  0  0  0  0  0
   -8.7240    6.6880   -9.6000 C   0  0  0  0  0  0  0  0  0  0  0  0
   -7.9230    7.2390  -13.8270 C   0  0  0  0  0  0  0  0  0  0  0  0
   -6.5030    7.1310  -14.4340 C   0  0  0  0  0  0  0  0  0  0  0  0
   -5.9330    5.4170  -14.7250 S   0  0  0  0  0  0  0  0  0  0  0  0
   -5.2720    5.5640  -16.3110 C   0  0  0  0  0  0  0  0  0  0  0  0
   -6.0560    5.4460  -17.6030 C   0  0  0  0  0  0  0  0  0  0  0  0
   -7.4240    5.2020  -17.7110 C   0  0  0  0  0  0  0  0  0  0  0  0
   -8.0260    5.0180  -18.9630 C   0  0  0  0  0  0  0  0  0  0  0  0
   -9.3860    4.7760  -19.0610 C   0  0  0  0  0  0  0  0  0  0  0  0
  -10.1560    4.7170  -17.9050 C   0  0  0  0  0  0  0  0  0  0  0  0
   -9.5520    4.9000  -16.6500 C   0  0  0  0  0  0  0  0  0  0  0  0
   -8.2050    5.1380  -16.5600 C   0  0  0  0  0  0  0  0  0  0  0  0
   -8.1890    3.9990   -6.7930 H   0  0  0  0  0  0  0  0  0  0  0  0
   -9.9120    4.4550   -6.6750 H   0  0  0  0  0  0  0  0  0  0  0  0
  -10.6060    2.5790   -8.0350 H   0  0  0  0  0  0  0  0  0  0  0  0
   -9.4240    1.9080   -6.9130 H   0  0  0  0  0  0  0  0  0  0  0  0
   -8.8040    1.1330   -9.1010 H   0  0  0  0  0  0  0  0  0  0  0  0
   -7.6300    2.3540   -8.6700 H   0  0  0  0  0  0  0  0  0  0  0  0
  -10.0620    2.7610  -10.4540 H   0  0  0  0  0  0  0  0  0  0  0  0
   -8.3630    2.7250  -10.9550 H   0  0  0  0  0  0  0  0  0  0  0  0
   -8.6120    7.7590   -9.7340 H   0  0  0  0  0  0  0  0  0  0  0  0
   -8.3140    8.2560  -13.9280 H   0  0  0  0  0  0  0  0  0  0  0  0
   -8.6380    6.5660  -14.3180 H   0  0  0  0  0  0  0  0  0  0  0  0
   -5.7800    7.5760  -13.7370 H   0  0  0  0  0  0  0  0  0  0  0  0
   -6.4510    7.7020  -15.3650 H   0  0  0  0  0  0  0  0  0  0  0  0
   -4.1980    5.7570  -16.3700 H   0  0  0  0  0  0  0  0  0  0  0  0
   -5.5300    5.5540  -18.5510 H   0  0  0  0  0  0  0  0  0  0  0  0
   -7.4380    5.0600  -19.8790 H   0  0  0  0  0  0  0  0  0  0  0  0
   -9.8400    4.6360  -20.0360 H   0  0  0  0  0  0  0  0  0  0  0  0
  -11.2210    4.5320  -17.9770 H   0  0  0  0  0  0  0  0  0  0  0  0
  -10.1670    4.8510  -15.7520 H   0  0  0  0  0  0  0  0  0  0  0  0
   -7.7650    5.2750  -15.5820 H   0  0  0  0  0  0  0  0  0  0  0  0
  1  2  1  0
  2  3  2  0
  2  4  1  0
  4  5  2  0
  5  6  1  0
  6  7  1  0
  7  8  1  0
  8  9  1  0
  9 10  1  0
  6 11  1  0
 11 12  2  0
  1 13  1  0
 13 14  1  0
 14 15  1  0
 15 16  1  0
 16 17  2  3
 17 18  1  0
 18 19  2  0
 19 20  1  0
 20 21  2  0
 21 22  1  0
 22 23  2  0
 12  4  1  0
 10  5  1  0
 23 18  1  0
  7 24  1  0
  7 25  1  0
  8 26  1  0
  8 27  1  0
  9 28  1  0
  9 29  1  0
 10 30  1  0
 10 31  1  0
 12 32  1  0
 13 33  1  0
 13 34  1  0
 14 35  1  0
 14 36  1  0
 16 37  1  0
 17 38  1  0
 19 39  1  0
 20 40  1  0
 21 41  1  0
 22 42  1  0
 23 43  1  0
A    1
 O1 
A    2
 C1 
A    3
 O2 
A    4
 C2 
A    5
 C3 
A    6
 N1 
A    7
 C4 
A    8
 C5 
A    9
 C6 
A   10
 C7 
A   11
 N2 
A   12
 C8 
A   13
 C9 
A   14
 C10
A   15
 S1 
A   16
 C11
A   17
 C12
A   18
 C13
A   19
 C14
A   20
 C15
A   21
 C16
A   22
 C17
A   23
 C18
A   24
 H1 
A   25
 H2 
A   26
 H3 
A   27
 H4 
A   28
 H5 
A   29
 H6 
A   30
 H7 
A   31
 H8 
A   32
 H9 
A   33
 H10
A   34
 H11
A   35
 H12
A   36
 H13
A   37
 H14
A   38
 H15
A   39
 H16
A   40
 H17
A   41
 H18
A   42
 H19
A   43
 H20
M  END
>  <ref_pdb>  (43) 
x0051_0B

>  <ref_mols>  (43) 
x0969_1B,x0455_0B

>  <original SMILES>  (43) 
[H]C(SC([H])([H])C([H])([H])OC(=O)c1c([H])nn2c1C([H])([H])C([H])([H])C([H])([H])C2([H])[H])=C([H])c1c([H])c([H])c([H])c([H])c1[H]

>  <index>  (43) 
67

>  <∆∆G>  (43) 
-8.012634

>  <∆G_bound>  (43) 
-6.803649

>  <∆G_unbound>  (43) 
1.208985

>  <comRMSD>  (43) 
0.796008

>  <N_constrained_atoms>  (43) 
20.0

>  <N_unconstrained_atoms>  (43) 
4.0

>  <runtime>  (43) 
70.943371

>  <LE>  (43) 
0.33386

>  <percent_hybrid>  (43) 
50.0

>  <dist>  (43) 
8.0

>  <ecfp4>  (43) 
0.223529

>  <daylight>  (43) 
0.272206

>  <topodist>  (43) 
2.0

>  <mces>  (43) 
24.0

>  <tdn>  (43) 
0.0

>  <tup>  (43) 
1.0

>  <rdn>  (43) 
1.0

>  <rup>  (43) 
0.0

>  <ldn>  (43) 
0.0

>  <lup>  (43) 
0.0

>  <mut>  (43) 
4.0

>  <maj>  (43) 
4.0

>  <min>  (43) 
0.0

>  <hyb>  (43) 
2.0

>  <sub>  (43) 
2.0

>  <query_index>  (43) 
204.0

>  <max_hit_Tanimoto>  (43) 
0.329569

>  <largest_ring>  (43) 
0

>  <N_interactions_kept>  (43) 
1.0

>  <N_interactions_lost>  (43) 
1.5

>  <interaction_uniqueness_metric>  (43) 
0.270159

>  <ad_hoc_penalty>  (43) 
-33.642186

>  <N_rotatable_bonds>  (43) 
6

>  <N_HA>  (43) 
23

>  <cluster>  (43) 
6157

>  <N_interactions>  (43) 
8

>  <Enamine>  (43) 
0

>  <Mcule>  (43) 
1

>  <N_PAINS>  (43) 
0

>  <UFF_Gibbs>  (43) 
117.954678

>  <strain_per_HA>  (43) 
5.128464

>  <saltbridge:HIS:51>  (43) 
1

>  <pistack:HIS:51>  (43) 
1

>  <hydroph_interaction:HIS:51>  (43) 
1

>  <hbond:ALA:132>  (43) 
0

>  <hbond:SER:135>  (43) 
0

>  <hydroph_interaction:TYR:150>  (43) 
1

>  <pistack:TYR:161>  (43) 
0

>  <hydroph_interaction:TYR:161>  (43) 
3

>  <hydroph_interaction:ASP:83>  (43) 
1

>  <hbond:TYR:130>  (43) 
0

>  <hydroph_interaction:ALA:132>  (43) 
0

>  <hbond:HIS:51>  (43) 
0

>  <hbond:ASP:129>  (43) 
0

>  <hbond:TYR:150>  (43) 
0

>  <hbond:GLY:151>  (43) 
0

>  <hbond:TYR:161>  (43) 
0

>  <hydroph_interaction:TYR:130>  (43) 
0

>  <hydroph_interaction:PRO:131>  (43) 
0

>  <hydroph_interaction:ASP:129>  (43) 
0

>  <saltbridge:ASP:75>  (43) 
0

>  <saltbridge:ASP:83>  (43) 
0

>  <hydroph_interaction:ASN:152>  (43) 
0

>  <halogenbond:TYR:150>  (43) 
0

>  <hbond:ASP:83>  (43) 
0

>  <hydroph_interaction:VAL:155>  (43) 
0

>  <pication:TYR:161>  (43) 
0

>  <hbond:PRO:131>  (43) 
0

>  <hbond:LEU:128>  (43) 
0

>  <saltbridge:ASP:129>  (43) 
0

>  <hbond:THR:134>  (43) 
0

>  <pication:HIS:51>  (43) 
0

>  <hbond:SER:81>  (43) 
0

>  <hbond:GLY:159>  (43) 
0

>  <hydroph_interaction:PRO:101>  (43) 
0

>  <hydroph_interaction:THR:134>  (43) 
0

>  <hbond:GLY:82>  (43) 
0

>  <hydroph_interaction:GLU:104>  (43) 
0

>  <hydroph_interaction:VAL:36>  (43) 
0

>  <hydroph_interaction:MET:49>  (43) 
0

>  <halogenbond:GLU:104>  (43) 
0

>  <hydroph_interaction:LYS:107>  (43) 
0

$$$$
YVXJQJNEFZLCJB-UHFFFAOYSA-N
     RDKit          3D

 28 29  0  0  0  0  0  0  0  0999 V2000
   -5.3750    5.5450  -17.6370 N   0  0  0  0  0  0  0  0  0  0  0  0
   -3.9280    5.5160  -18.0040 C   0  0  0  0  0  0  0  0  0  0  0  0
   -3.0040    5.1070  -16.8150 C   0  0  0  0  0  0  0  0  0  0  0  0
   -3.3640    4.5250  -15.4490 C   0  0  0  0  0  0  0  0  0  0  0  0
   -6.3310    5.3500  -18.7890 C   0  0  0  0  0  0  0  0  0  0  0  0
   -6.3820    6.4200  -19.8640 C   0  0  0  0  0  0  0  0  0  0  0  0
   -7.7140    5.1610  -18.2450 C   0  0  0  0  0  0  0  0  0  0  0  0
   -7.9570    5.3560  -16.8950 C   0  0  0  0  0  0  0  0  0  0  0  0
   -9.5860    5.0980  -16.5180 S   0  0  0  0  0  0  0  0  0  0  0  0
   -9.9930    4.7180  -18.1370 C   0  0  0  0  0  0  0  0  0  0  0  0
   -8.8900    4.7880  -18.9670 C   0  0  0  0  0  0  0  0  0  0  0  0
   -6.9880    5.7440  -15.8400 C   0  0  0  0  0  0  0  0  0  0  0  0
   -5.8880    6.3330  -16.4610 C   0  0  0  0  0  0  0  0  0  0  0  0
   -3.6040    6.4930  -18.3870 H   0  0  0  0  0  0  0  0  0  0  0  0
   -3.7600    4.7930  -18.8100 H   0  0  0  0  0  0  0  0  0  0  0  0
   -1.9380    5.2640  -17.0010 H   0  0  0  0  0  0  0  0  0  0  0  0
   -4.4330    4.3700  -15.2620 H   0  0  0  0  0  0  0  0  0  0  0  0
   -2.6970    4.2430  -14.6310 H   0  0  0  0  0  0  0  0  0  0  0  0
   -6.0630    4.4230  -19.2990 H   0  0  0  0  0  0  0  0  0  0  0  0
   -5.4950    7.0600  -19.7930 H   0  0  0  0  0  0  0  0  0  0  0  0
   -6.3520    5.9590  -20.8590 H   0  0  0  0  0  0  0  0  0  0  0  0
   -7.2820    7.0400  -19.8110 H   0  0  0  0  0  0  0  0  0  0  0  0
  -11.0270    4.4620  -18.4070 H   0  0  0  0  0  0  0  0  0  0  0  0
   -8.9230    4.5860  -20.0350 H   0  0  0  0  0  0  0  0  0  0  0  0
   -6.6760    4.8510  -15.2820 H   0  0  0  0  0  0  0  0  0  0  0  0
   -7.4040    6.4730  -15.1360 H   0  0  0  0  0  0  0  0  0  0  0  0
   -5.0960    6.5270  -15.7240 H   0  0  0  0  0  0  0  0  0  0  0  0
   -6.2210    7.3210  -16.8100 H   0  0  0  0  0  0  0  0  0  0  0  0
  1  2  1  0
  2  3  1  0
  3  4  2  3
  1  5  1  0
  5  6  1  0
  5  7  1  0
  7  8  2  0
  8  9  1  0
  9 10  1  0
 10 11  2  0
  8 12  1  0
 12 13  1  0
 13  1  1  0
 11  7  1  0
  2 14  1  0
  2 15  1  0
  3 16  1  0
  4 17  1  0
  4 18  1  0
  5 19  1  0
  6 20  1  0
  6 21  1  0
  6 22  1  0
 10 23  1  0
 11 24  1  0
 12 25  1  0
 12 26  1  0
 13 27  1  0
 13 28  1  0
A    1
 N1 
A    2
 C1 
A    3
 C2 
A    4
 C3 
A    5
 C4 
A    6
 C5 
A    7
 C6 
A    8
 C7 
A    9
 S1 
A   10
 C8 
A   11
 C9 
A   12
 C10
A   13
 C11
A   14
 H1 
A   15
 H2 
A   16
 H3 
A   17
 H4 
A   18
 H5 
A   19
 H6 
A   20
 H7 
A   21
 H8 
A   22
 H9 
A   23
 H10
A   24
 H11
A   25
 H12
A   26
 H13
A   27
 H14
A   28
 H15
M  END
>  <ref_pdb>  (44) 
x0051_0B

>  <ref_mols>  (44) 
x0472_0B,x0386_0B

>  <original SMILES>  (44) 
[H]C([H])=C([H])C([H])([H])N1C([H])([H])C([H])([H])c2sc([H])c([H])c2C1([H])C([H])([H])[H]

>  <index>  (44) 
58

>  <∆∆G>  (44) 
-6.883995

>  <∆G_bound>  (44) 
-6.890241

>  <∆G_unbound>  (44) 
-0.006246

>  <comRMSD>  (44) 
0.424887

>  <N_constrained_atoms>  (44) 
14.0

>  <N_unconstrained_atoms>  (44) 
0.0

>  <runtime>  (44) 
22.503951

>  <LE>  (44) 
0.491714

>  <percent_hybrid>  (44) 
13.0

>  <dist>  (44) 
4.0

>  <ecfp4>  (44) 
0.4

>  <daylight>  (44) 
0.701493

>  <topodist>  (44) 
1.0

>  <mces>  (44) 
14.0

>  <tdn>  (44) 
1.0

>  <tup>  (44) 
0.0

>  <rdn>  (44) 
0.0

>  <rup>  (44) 
0.0

>  <ldn>  (44) 
0.0

>  <lup>  (44) 
0.0

>  <mut>  (44) 
2.0

>  <maj>  (44) 
2.0

>  <min>  (44) 
0.0

>  <hyb>  (44) 
1.0

>  <sub>  (44) 
1.0

>  <query_index>  (44) 
75.0

>  <max_hit_Tanimoto>  (44) 
0.651446

>  <largest_ring>  (44) 
0

>  <N_interactions_kept>  (44) 
2.0

>  <N_interactions_lost>  (44) 
1.0

>  <interaction_uniqueness_metric>  (44) 
0.149776

>  <ad_hoc_penalty>  (44) 
-33.587231

>  <N_rotatable_bonds>  (44) 
3

>  <N_HA>  (44) 
13

>  <cluster>  (44) 
6165

>  <N_interactions>  (44) 
6

>  <Enamine>  (44) 
0

>  <Mcule>  (44) 
1

>  <N_PAINS>  (44) 
0

>  <UFF_Gibbs>  (44) 
58.65222

>  <strain_per_HA>  (44) 
4.511709

>  <saltbridge:HIS:51>  (44) 
0

>  <pistack:HIS:51>  (44) 
0

>  <hydroph_interaction:HIS:51>  (44) 
0

>  <hbond:ALA:132>  (44) 
0

>  <hbond:SER:135>  (44) 
0

>  <hydroph_interaction:TYR:150>  (44) 
1

>  <pistack:TYR:161>  (44) 
0

>  <hydroph_interaction:TYR:161>  (44) 
3

>  <hydroph_interaction:ASP:83>  (44) 
0

>  <hbond:TYR:130>  (44) 
0

>  <hydroph_interaction:ALA:132>  (44) 
0

>  <hbond:HIS:51>  (44) 
0

>  <hbond:ASP:129>  (44) 
0

>  <hbond:TYR:150>  (44) 
0

>  <hbond:GLY:151>  (44) 
0

>  <hbond:TYR:161>  (44) 
0

>  <hydroph_interaction:TYR:130>  (44) 
0

>  <hydroph_interaction:PRO:131>  (44) 
0

>  <hydroph_interaction:ASP:129>  (44) 
0

>  <saltbridge:ASP:75>  (44) 
0

>  <saltbridge:ASP:83>  (44) 
0

>  <hydroph_interaction:ASN:152>  (44) 
0

>  <halogenbond:TYR:150>  (44) 
0

>  <hbond:ASP:83>  (44) 
0

>  <hydroph_interaction:VAL:155>  (44) 
1

>  <pication:TYR:161>  (44) 
1

>  <hbond:PRO:131>  (44) 
0

>  <hbond:LEU:128>  (44) 
0

>  <saltbridge:ASP:129>  (44) 
0

>  <hbond:THR:134>  (44) 
0

>  <pication:HIS:51>  (44) 
0

>  <hbond:SER:81>  (44) 
0

>  <hbond:GLY:159>  (44) 
0

>  <hydroph_interaction:PRO:101>  (44) 
0

>  <hydroph_interaction:THR:134>  (44) 
0

>  <hbond:GLY:82>  (44) 
0

>  <hydroph_interaction:GLU:104>  (44) 
0

>  <hydroph_interaction:VAL:36>  (44) 
0

>  <hydroph_interaction:MET:49>  (44) 
0

>  <halogenbond:GLU:104>  (44) 
0

>  <hydroph_interaction:LYS:107>  (44) 
0

$$$$
MCULE-9338386934
     RDKit          3D

 21 22  0  0  0  0  0  0  0  0999 V2000
   -7.8620    5.0760  -18.3420 C   0  0  0  0  0  0  0  0  0  0  0  0
   -8.2370    5.1060  -16.9290 C   0  0  0  0  0  0  0  0  0  0  0  0
   -9.6800    4.8720  -16.7850 C   0  0  0  0  0  0  0  0  0  0  0  0
  -10.1450    4.7140  -18.0740 O   0  0  0  0  0  0  0  0  0  0  0  0
   -9.0800    4.8330  -18.9850 C   0  0  0  0  0  0  0  0  0  0  0  0
   -6.5660    5.2430  -18.7880 C   0  0  0  0  0  0  0  0  0  0  0  0
   -5.5510    5.1590  -17.8400 C   0  0  0  0  0  0  0  0  0  0  0  0
   -4.2290    5.2900  -18.2310 C   0  0  0  0  0  0  0  0  0  0  0  0
   -3.1230    5.1780  -17.1720 C   0  0  0  0  0  0  0  0  0  0  0  0
   -3.9670    5.5110  -19.5740 C   0  0  0  0  0  0  0  0  0  0  0  0
   -4.9280    5.6060  -20.5210 N   0  0  0  0  0  0  0  0  0  0  0  0
   -6.2070    5.4680  -20.1050 C   0  0  0  0  0  0  0  0  0  0  0  0
   -7.5250    5.2750  -16.1090 H   0  0  0  0  0  0  0  0  0  0  0  0
  -10.3740    4.8040  -15.9640 H   0  0  0  0  0  0  0  0  0  0  0  0
   -9.3690    4.7170  -20.0280 H   0  0  0  0  0  0  0  0  0  0  0  0
   -5.7840    4.9810  -16.7840 H   0  0  0  0  0  0  0  0  0  0  0  0
   -2.9880    6.1600  -16.6960 H   0  0  0  0  0  0  0  0  0  0  0  0
   -2.1720    4.8910  -17.6350 H   0  0  0  0  0  0  0  0  0  0  0  0
   -3.3900    4.4380  -16.4090 H   0  0  0  0  0  0  0  0  0  0  0  0
   -2.9470    5.6220  -19.9480 H   0  0  0  0  0  0  0  0  0  0  0  0
   -6.9460    5.5450  -20.9030 H   0  0  0  0  0  0  0  0  0  0  0  0
  1  2  1  0
  2  3  2  0
  3  4  1  0
  4  5  1  0
  1  6  1  0
  6  7  2  0
  7  8  1  0
  8  9  1  0
  8 10  2  0
 10 11  1  0
 11 12  2  0
  1  5  2  0
  6 12  1  0
  2 13  1  0
  3 14  1  0
  5 15  1  0
  7 16  1  0
  9 17  1  0
  9 18  1  0
  9 19  1  0
 10 20  1  0
 12 21  1  0
A    1
 C1 
A    2
 C2 
A    3
 C3 
A    4
 O1 
A    5
 C4 
A    6
 C5 
A    7
 C6 
A    8
 C7 
A    9
 C8 
A   10
 C9 
A   11
 N1 
A   12
 C10
A   13
 H1 
A   14
 H2 
A   15
 H3 
A   16
 H4 
A   17
 H5 
A   18
 H6 
A   19
 H7 
A   20
 H8 
A   21
 H9 
M  END
>  <ref_pdb>  (45) 
x0051_0B

>  <ref_mols>  (45) 
x0680_0B,x0386_0B

>  <original SMILES>  (45) 
[H]c1nc([H])c(C([H])([H])[H])c([H])c1-c1c([H])oc([H])c1[H]

>  <index>  (45) 
61

>  <∆∆G>  (45) 
-6.519483

>  <∆G_bound>  (45) 
-6.598024

>  <∆G_unbound>  (45) 
-0.078541

>  <comRMSD>  (45) 
0.64228

>  <N_constrained_atoms>  (45) 
13.0

>  <N_unconstrained_atoms>  (45) 
1.0

>  <runtime>  (45) 
22.803099

>  <LE>  (45) 
0.465677

>  <percent_hybrid>  (45) 
25.0

>  <dist>  (45) 
3.0

>  <ecfp4>  (45) 
0.24

>  <daylight>  (45) 
0.414062

>  <topodist>  (45) 
2.0

>  <mces>  (45) 
12.0

>  <tdn>  (45) 
1.0

>  <tup>  (45) 
1.0

>  <rdn>  (45) 
0.0

>  <rup>  (45) 
0.0

>  <ldn>  (45) 
0.0

>  <lup>  (45) 
0.0

>  <mut>  (45) 
1.0

>  <maj>  (45) 
1.0

>  <min>  (45) 
0.0

>  <hyb>  (45) 
0.0

>  <sub>  (45) 
2.0

>  <query_index>  (45) 
296.0

>  <max_hit_Tanimoto>  (45) 
0.157221

>  <largest_ring>  (45) 
0

>  <N_interactions_kept>  (45) 
3.5

>  <N_interactions_lost>  (45) 
0.5

>  <interaction_uniqueness_metric>  (45) 
0.05195

>  <ad_hoc_penalty>  (45) 
-33.300192

>  <N_rotatable_bonds>  (45) 
2

>  <N_HA>  (45) 
12

>  <cluster>  (45) 
6162

>  <N_interactions>  (45) 
5

>  <Enamine>  (45) 
0

>  <Mcule>  (45) 
1

>  <N_PAINS>  (45) 
0

>  <UFF_Gibbs>  (45) 
42.653738

>  <strain_per_HA>  (45) 
3.554478

>  <saltbridge:HIS:51>  (45) 
0

>  <pistack:HIS:51>  (45) 
0

>  <hydroph_interaction:HIS:51>  (45) 
0

>  <hbond:ALA:132>  (45) 
0

>  <hbond:SER:135>  (45) 
0

>  <hydroph_interaction:TYR:150>  (45) 
0

>  <pistack:TYR:161>  (45) 
0

>  <hydroph_interaction:TYR:161>  (45) 
4

>  <hydroph_interaction:ASP:83>  (45) 
0

>  <hbond:TYR:130>  (45) 
0

>  <hydroph_interaction:ALA:132>  (45) 
0

>  <hbond:HIS:51>  (45) 
0

>  <hbond:ASP:129>  (45) 
0

>  <hbond:TYR:150>  (45) 
0

>  <hbond:GLY:151>  (45) 
0

>  <hbond:TYR:161>  (45) 
0

>  <hydroph_interaction:TYR:130>  (45) 
0

>  <hydroph_interaction:PRO:131>  (45) 
0

>  <hydroph_interaction:ASP:129>  (45) 
0

>  <saltbridge:ASP:75>  (45) 
0

>  <saltbridge:ASP:83>  (45) 
0

>  <hydroph_interaction:ASN:152>  (45) 
0

>  <halogenbond:TYR:150>  (45) 
0

>  <hbond:ASP:83>  (45) 
0

>  <hydroph_interaction:VAL:155>  (45) 
1

>  <pication:TYR:161>  (45) 
0

>  <hbond:PRO:131>  (45) 
0

>  <hbond:LEU:128>  (45) 
0

>  <saltbridge:ASP:129>  (45) 
0

>  <hbond:THR:134>  (45) 
0

>  <pication:HIS:51>  (45) 
0

>  <hbond:SER:81>  (45) 
0

>  <hbond:GLY:159>  (45) 
0

>  <hydroph_interaction:PRO:101>  (45) 
0

>  <hydroph_interaction:THR:134>  (45) 
0

>  <hbond:GLY:82>  (45) 
0

>  <hydroph_interaction:GLU:104>  (45) 
0

>  <hydroph_interaction:VAL:36>  (45) 
0

>  <hydroph_interaction:MET:49>  (45) 
0

>  <halogenbond:GLU:104>  (45) 
0

>  <hydroph_interaction:LYS:107>  (45) 
0

$$$$
PEGDGACHRBNIEM-UHFFFAOYSA-N
     RDKit          3D

 41 44  0  0  0  0  0  0  0  0999 V2000
   -8.9850    6.3730  -13.0960 O   0  0  0  0  0  0  0  0  0  0  0  0
   -8.2410    6.5860  -14.2450 C   0  0  0  0  0  0  0  0  0  0  0  0
   -7.9030    7.7040  -14.6020 O   0  0  0  0  0  0  0  0  0  0  0  0
   -7.8810    5.2780  -14.9830 C   0  0  0  0  0  0  0  0  0  0  0  0
   -8.3800    5.1390  -16.4300 C   0  0  0  0  0  0  0  0  0  0  0  0
   -7.5200    5.2690  -17.5430 C   0  0  0  0  0  0  0  0  0  0  0  0
   -8.0270    5.1260  -18.8430 C   0  0  0  0  0  0  0  0  0  0  0  0
   -9.3680    4.8570  -19.0620 C   0  0  0  0  0  0  0  0  0  0  0  0
  -10.2220    4.7290  -17.9780 C   0  0  0  0  0  0  0  0  0  0  0  0
   -9.7290    4.8680  -16.6760 C   0  0  0  0  0  0  0  0  0  0  0  0
   -6.0550    5.5570  -17.3880 C   0  0  0  0  0  0  0  0  0  0  0  0
   -5.6590    5.9790  -15.9790 C   0  0  0  0  0  0  0  0  0  0  0  0
   -6.3560    5.1340  -14.9130 C   0  0  0  0  0  0  0  0  0  0  0  0
   -8.6070    5.2280  -12.3070 C   0  0  0  0  0  0  0  0  0  0  0  0
   -8.7330    5.4160  -10.8170 C   0  0  0  0  0  0  0  0  0  0  0  0
   -8.9670    4.4370   -9.8740 C   0  0  0  0  0  0  0  0  0  0  0  0
   -9.0000    5.0570   -8.6140 N   0  0  0  0  0  0  0  0  0  0  0  0
   -9.2210    4.3340   -7.4420 C   0  0  0  0  0  0  0  0  0  0  0  0
   -9.4110    3.0210   -7.5040 C   0  0  0  0  0  0  0  0  0  0  0  0
   -9.3730    2.3640   -8.7780 C   0  0  0  0  0  0  0  0  0  0  0  0
   -9.1650    3.0300   -9.9250 C   0  0  0  0  0  0  0  0  0  0  0  0
   -8.7960    6.3880   -8.7270 N   0  0  0  0  0  0  0  0  0  0  0  0
   -8.6410    6.5960  -10.0390 C   0  0  0  0  0  0  0  0  0  0  0  0
   -8.3260    4.4480  -14.4150 H   0  0  0  0  0  0  0  0  0  0  0  0
   -7.3640    5.2270  -19.7020 H   0  0  0  0  0  0  0  0  0  0  0  0
   -9.7400    4.7520  -20.0760 H   0  0  0  0  0  0  0  0  0  0  0  0
  -11.2750    4.5210  -18.1450 H   0  0  0  0  0  0  0  0  0  0  0  0
  -10.4100    4.7610  -15.8390 H   0  0  0  0  0  0  0  0  0  0  0  0
   -5.7970    6.3600  -18.0900 H   0  0  0  0  0  0  0  0  0  0  0  0
   -5.4680    4.6760  -17.6660 H   0  0  0  0  0  0  0  0  0  0  0  0
   -4.5730    5.8900  -15.8690 H   0  0  0  0  0  0  0  0  0  0  0  0
   -5.9040    7.0390  -15.8300 H   0  0  0  0  0  0  0  0  0  0  0  0
   -6.0790    4.0870  -15.0500 H   0  0  0  0  0  0  0  0  0  0  0  0
   -5.9880    5.4230  -13.9230 H   0  0  0  0  0  0  0  0  0  0  0  0
   -9.2460    4.3840  -12.6050 H   0  0  0  0  0  0  0  0  0  0  0  0
   -7.5650    4.9750  -12.5310 H   0  0  0  0  0  0  0  0  0  0  0  0
   -9.2310    4.9040   -6.5220 H   0  0  0  0  0  0  0  0  0  0  0  0
   -9.5900    2.4310   -6.6300 H   0  0  0  0  0  0  0  0  0  0  0  0
   -9.5130    1.3080   -8.7600 H   0  0  0  0  0  0  0  0  0  0  0  0
   -9.1390    2.5070  -10.8750 H   0  0  0  0  0  0  0  0  0  0  0  0
   -8.4630    7.6050  -10.3830 H   0  0  0  0  0  0  0  0  0  0  0  0
  1  2  1  0
  2  3  2  0
  2  4  1  0
  4  5  1  0
  5  6  1  0
  6  7  2  0
  7  8  1  0
  8  9  2  0
  9 10  1  0
  6 11  1  0
 11 12  1  0
 12 13  1  0
  1 14  1  0
 14 15  1  0
 15 16  2  0
 16 17  1  0
 17 18  1  0
 18 19  2  0
 19 20  1  0
 20 21  2  0
 17 22  1  0
 22 23  2  0
 13  4  1  0
 10  5  2  0
 23 15  1  0
 21 16  1  0
  4 24  1  0
  7 25  1  0
  8 26  1  0
  9 27  1  0
 10 28  1  0
 11 29  1  0
 11 30  1  0
 12 31  1  0
 12 32  1  0
 13 33  1  0
 13 34  1  0
 14 35  1  0
 14 36  1  0
 18 37  1  0
 19 38  1  0
 20 39  1  0
 21 40  1  0
 23 41  1  0
A    1
 O1 
A    2
 C1 
A    3
 O2 
A    4
 C2 
A    5
 C3 
A    6
 C4 
A    7
 C5 
A    8
 C6 
A    9
 C7 
A   10
 C8 
A   11
 C9 
A   12
 C10
A   13
 C11
A   14
 C12
A   15
 C13
A   16
 C14
A   17
 N1 
A   18
 C15
A   19
 C16
A   20
 C17
A   21
 C18
A   22
 N2 
A   23
 C19
A   24
 H1 
A   25
 H2 
A   26
 H3 
A   27
 H4 
A   28
 H5 
A   29
 H6 
A   30
 H7 
A   31
 H8 
A   32
 H9 
A   33
 H10
A   34
 H11
A   35
 H12
A   36
 H13
A   37
 H14
A   38
 H15
A   39
 H16
A   40
 H17
A   41
 H18
M  END
>  <ref_pdb>  (46) 
x0051_0B

>  <ref_mols>  (46) 
x0969_1B,x0455_0B

>  <original SMILES>  (46) 
[H]c1nn2c([H])c([H])c([H])c([H])c2c1C([H])([H])OC(=O)C1([H])c2c([H])c([H])c([H])c([H])c2C([H])([H])C([H])([H])C1([H])[H]

>  <index>  (46) 
105

>  <∆∆G>  (46) 
-6.153388

>  <∆G_bound>  (46) 
-5.390694

>  <∆G_unbound>  (46) 
0.762694

>  <comRMSD>  (46) 
0.423554

>  <N_constrained_atoms>  (46) 
20.0

>  <N_unconstrained_atoms>  (46) 
3.0

>  <runtime>  (46) 
71.066094

>  <LE>  (46) 
0.267539

>  <percent_hybrid>  (46) 
50.0

>  <dist>  (46) 
8.0

>  <ecfp4>  (46) 
0.193182

>  <daylight>  (46) 
0.265432

>  <topodist>  (46) 
1.0

>  <mces>  (46) 
25.0

>  <tdn>  (46) 
0.0

>  <tup>  (46) 
1.0

>  <rdn>  (46) 
0.0

>  <rup>  (46) 
0.0

>  <ldn>  (46) 
0.0

>  <lup>  (46) 
0.0

>  <mut>  (46) 
3.0

>  <maj>  (46) 
3.0

>  <min>  (46) 
0.0

>  <hyb>  (46) 
4.0

>  <sub>  (46) 
0.0

>  <query_index>  (46) 
204.0

>  <max_hit_Tanimoto>  (46) 
0.196444

>  <largest_ring>  (46) 
0

>  <N_interactions_kept>  (46) 
1.5

>  <N_interactions_lost>  (46) 
1.0

>  <interaction_uniqueness_metric>  (46) 
0.148598

>  <ad_hoc_penalty>  (46) 
-33.102148

>  <N_rotatable_bonds>  (46) 
3

>  <N_HA>  (46) 
23

>  <cluster>  (46) 
6121

>  <N_interactions>  (46) 
6

>  <Enamine>  (46) 
0

>  <Mcule>  (46) 
1

>  <N_PAINS>  (46) 
0

>  <UFF_Gibbs>  (46) 
46.607707

>  <strain_per_HA>  (46) 
2.026422

>  <saltbridge:HIS:51>  (46) 
1

>  <pistack:HIS:51>  (46) 
1

>  <hydroph_interaction:HIS:51>  (46) 
0

>  <hbond:ALA:132>  (46) 
0

>  <hbond:SER:135>  (46) 
0

>  <hydroph_interaction:TYR:150>  (46) 
1

>  <pistack:TYR:161>  (46) 
0

>  <hydroph_interaction:TYR:161>  (46) 
3

>  <hydroph_interaction:ASP:83>  (46) 
0

>  <hbond:TYR:130>  (46) 
0

>  <hydroph_interaction:ALA:132>  (46) 
0

>  <hbond:HIS:51>  (46) 
0

>  <hbond:ASP:129>  (46) 
0

>  <hbond:TYR:150>  (46) 
0

>  <hbond:GLY:151>  (46) 
0

>  <hbond:TYR:161>  (46) 
0

>  <hydroph_interaction:TYR:130>  (46) 
0

>  <hydroph_interaction:PRO:131>  (46) 
0

>  <hydroph_interaction:ASP:129>  (46) 
0

>  <saltbridge:ASP:75>  (46) 
0

>  <saltbridge:ASP:83>  (46) 
0

>  <hydroph_interaction:ASN:152>  (46) 
0

>  <halogenbond:TYR:150>  (46) 
0

>  <hbond:ASP:83>  (46) 
0

>  <hydroph_interaction:VAL:155>  (46) 
0

>  <pication:TYR:161>  (46) 
0

>  <hbond:PRO:131>  (46) 
0

>  <hbond:LEU:128>  (46) 
0

>  <saltbridge:ASP:129>  (46) 
0

>  <hbond:THR:134>  (46) 
0

>  <pication:HIS:51>  (46) 
0

>  <hbond:SER:81>  (46) 
0

>  <hbond:GLY:159>  (46) 
0

>  <hydroph_interaction:PRO:101>  (46) 
0

>  <hydroph_interaction:THR:134>  (46) 
0

>  <hbond:GLY:82>  (46) 
0

>  <hydroph_interaction:GLU:104>  (46) 
0

>  <hydroph_interaction:VAL:36>  (46) 
0

>  <hydroph_interaction:MET:49>  (46) 
0

>  <halogenbond:GLU:104>  (46) 
0

>  <hydroph_interaction:LYS:107>  (46) 
0

$$$$
Z2928553930
     RDKit          3D

 46 49  0  0  0  0  0  0  0  0999 V2000
   -6.5830    5.2410  -20.2130 Cl  0  0  0  0  0  0  0  0  0  0  0  0
   -7.7770    5.1420  -18.9720 C   0  0  0  0  0  0  0  0  0  0  0  0
   -9.1640    4.6970  -19.3170 C   0  0  0  0  0  0  0  0  0  0  0  0
  -10.0560    4.6770  -18.0900 C   0  0  0  0  0  0  0  0  0  0  0  0
   -9.7760    4.9840  -16.8350 N   0  0  0  0  0  0  0  0  0  0  0  0
   -8.4830    5.3790  -16.6720 C   0  0  0  0  0  0  0  0  0  0  0  0
   -7.4980    5.4640  -17.6620 C   0  0  0  0  0  0  0  0  0  0  0  0
   -6.1510    5.9400  -17.1510 C   0  0  0  0  0  0  0  0  0  0  0  0
   -5.8090    5.3950  -15.9060 C   0  0  0  0  0  0  0  0  0  0  0  0
   -6.8360    5.1900  -14.9690 C   0  0  0  0  0  0  0  0  0  0  0  0
   -8.0570    5.7860  -15.2630 C   0  0  0  0  0  0  0  0  0  0  0  0
   -8.9610    5.4740  -14.3510 N   0  0  0  0  0  0  0  0  0  0  0  0
   -8.7840    6.1360  -13.0450 C   0  0  0  0  0  0  0  0  0  0  0  0
   -8.5460    5.1320  -12.0780 C   0  0  0  0  0  0  0  0  0  0  0  0
   -8.6880    5.4160  -10.5930 C   0  0  0  0  0  0  0  0  0  0  0  0
   -8.8970    4.4080   -9.6870 C   0  0  0  0  0  0  0  0  0  0  0  0
   -9.0270    2.9180   -9.9630 C   0  0  0  0  0  0  0  0  0  0  0  0
   -8.7140    2.2050   -8.8080 C   0  0  0  0  0  0  0  0  0  0  0  0
   -9.3420    2.7500   -7.5010 C   0  0  0  0  0  0  0  0  0  0  0  0
   -9.1660    4.1300   -7.3830 C   0  0  0  0  0  0  0  0  0  0  0  0
   -8.9700    4.9350   -8.4620 N   0  0  0  0  0  0  0  0  0  0  0  0
   -8.8260    6.3000   -8.4570 N   0  0  0  0  0  0  0  0  0  0  0  0
   -8.6550    6.5860   -9.7760 C   0  0  0  0  0  0  0  0  0  0  0  0
   -9.4860    4.4260  -20.3120 H   0  0  0  0  0  0  0  0  0  0  0  0
  -11.0900    4.3730  -18.2190 H   0  0  0  0  0  0  0  0  0  0  0  0
   -5.3440    5.6990  -17.8490 H   0  0  0  0  0  0  0  0  0  0  0  0
   -6.1790    7.0330  -17.0740 H   0  0  0  0  0  0  0  0  0  0  0  0
   -5.1860    6.1660  -15.4360 H   0  0  0  0  0  0  0  0  0  0  0  0
   -5.1210    4.5570  -15.9310 H   0  0  0  0  0  0  0  0  0  0  0  0
   -6.9150    4.1690  -14.6110 H   0  0  0  0  0  0  0  0  0  0  0  0
   -6.4730    5.7110  -14.0720 H   0  0  0  0  0  0  0  0  0  0  0  0
   -7.9060    6.8740  -15.2640 H   0  0  0  0  0  0  0  0  0  0  0  0
   -9.8690    5.7610  -14.7270 H   0  0  0  0  0  0  0  0  0  0  0  0
   -9.6920    6.6830  -12.7650 H   0  0  0  0  0  0  0  0  0  0  0  0
   -7.9480    6.8440  -13.0760 H   0  0  0  0  0  0  0  0  0  0  0  0
   -7.5480    4.7050  -12.2470 H   0  0  0  0  0  0  0  0  0  0  0  0
   -9.2380    4.3110  -12.3180 H   0  0  0  0  0  0  0  0  0  0  0  0
   -8.3850    2.5030  -10.7280 H   0  0  0  0  0  0  0  0  0  0  0  0
  -10.0060    2.5560  -10.2580 H   0  0  0  0  0  0  0  0  0  0  0  0
   -7.6300    2.2150   -8.7020 H   0  0  0  0  0  0  0  0  0  0  0  0
   -8.9930    1.1660   -8.9220 H   0  0  0  0  0  0  0  0  0  0  0  0
   -8.8460    2.2560   -6.6630 H   0  0  0  0  0  0  0  0  0  0  0  0
  -10.4070    2.4940   -7.4480 H   0  0  0  0  0  0  0  0  0  0  0  0
   -8.2770    4.3000   -6.7640 H   0  0  0  0  0  0  0  0  0  0  0  0
  -10.0160    4.5450   -6.8340 H   0  0  0  0  0  0  0  0  0  0  0  0
   -8.5130    7.6150  -10.0820 H   0  0  0  0  0  0  0  0  0  0  0  0
  1  2  1  0
  2  3  2  0
  3  4  1  0
  4  5  2  0
  5  6  1  0
  6  7  2  0
  7  8  1  0
  8  9  1  0
  9 10  1  0
 10 11  1  0
 11 12  1  0
 12 13  1  0
 13 14  1  0
 14 15  1  0
 15 16  2  0
 16 17  1  0
 17 18  1  0
 18 19  1  0
 19 20  1  0
 20 21  1  0
 21 22  1  0
 22 23  2  0
  7  2  1  0
 11  6  1  0
 23 15  1  0
 21 16  1  0
  3 24  1  0
  4 25  1  0
  8 26  1  0
  8 27  1  0
  9 28  1  0
  9 29  1  0
 10 30  1  0
 10 31  1  0
 11 32  1  0
 12 33  1  0
 13 34  1  0
 13 35  1  0
 14 36  1  0
 14 37  1  0
 17 38  1  0
 17 39  1  0
 18 40  1  0
 18 41  1  0
 19 42  1  0
 19 43  1  0
 20 44  1  0
 20 45  1  0
 23 46  1  0
A    1
CL1 
A    2
 C1 
A    3
 C2 
A    4
 C3 
A    5
 N1 
A    6
 C4 
A    7
 C5 
A    8
 C6 
A    9
 C7 
A   10
 C8 
A   11
 C9 
A   12
 N2 
A   13
 C10
A   14
 C11
A   15
 C12
A   16
 C13
A   17
 C14
A   18
 C15
A   19
 C16
A   20
 C17
A   21
 N3 
A   22
 N4 
A   23
 C18
A   24
 H1 
A   25
 H2 
A   26
 H3 
A   27
 H4 
A   28
 H5 
A   29
 H6 
A   30
 H7 
A   31
 H8 
A   32
 H9 
A   33
 H10
A   34
 H11
A   35
 H12
A   36
 H13
A   37
 H14
A   38
 H15
A   39
 H16
A   40
 H17
A   41
 H18
A   42
 H19
A   43
 H20
A   44
 H21
A   45
 H22
A   46
 H23
M  END
>  <ref_pdb>  (47) 
x0051_0B

>  <ref_mols>  (47) 
x0969_1B,x0455_0B

>  <original SMILES>  (47) 
[H]c1nc2c(c(Cl)c1[H])C([H])([H])C([H])([H])C([H])([H])C2([H])N([H])C([H])([H])C([H])([H])c1c([H])nn2c1C([H])([H])C([H])([H])C([H])([H])C2([H])[H]

>  <index>  (47) 
46

>  <∆∆G>  (47) 
-6.427274

>  <∆G_bound>  (47) 
-5.439526

>  <∆G_unbound>  (47) 
0.987748

>  <comRMSD>  (47) 
0.436915

>  <N_constrained_atoms>  (47) 
20.0

>  <N_unconstrained_atoms>  (47) 
3.0

>  <runtime>  (47) 
57.592115

>  <LE>  (47) 
0.279447

>  <percent_hybrid>  (47) 
50.0

>  <dist>  (47) 
5.0

>  <ecfp4>  (47) 
0.317073

>  <daylight>  (47) 
0.339726

>  <topodist>  (47) 
1.0

>  <mces>  (47) 
25.0

>  <tdn>  (47) 
0.0

>  <tup>  (47) 
1.0

>  <rdn>  (47) 
0.0

>  <rup>  (47) 
0.0

>  <ldn>  (47) 
0.0

>  <lup>  (47) 
0.0

>  <mut>  (47) 
4.0

>  <maj>  (47) 
4.0

>  <min>  (47) 
0.0

>  <hyb>  (47) 
0.0

>  <sub>  (47) 
1.0

>  <query_index>  (47) 
204.0

>  <max_hit_Tanimoto>  (47) 
0.311828

>  <largest_ring>  (47) 
0

>  <N_interactions_kept>  (47) 
1.5

>  <N_interactions_lost>  (47) 
1.0

>  <interaction_uniqueness_metric>  (47) 
0.210027

>  <ad_hoc_penalty>  (47) 
-32.930735

>  <N_rotatable_bonds>  (47) 
4

>  <N_HA>  (47) 
23

>  <cluster>  (47) 
6174

>  <N_interactions>  (47) 
7

>  <Enamine>  (47) 
1

>  <Mcule>  (47) 
0

>  <N_PAINS>  (47) 
0

>  <UFF_Gibbs>  (47) 
146.359562

>  <strain_per_HA>  (47) 
6.363459

>  <saltbridge:HIS:51>  (47) 
0

>  <pistack:HIS:51>  (47) 
1

>  <hydroph_interaction:HIS:51>  (47) 
0

>  <hbond:ALA:132>  (47) 
0

>  <hbond:SER:135>  (47) 
0

>  <hydroph_interaction:TYR:150>  (47) 
1

>  <pistack:TYR:161>  (47) 
1

>  <hydroph_interaction:TYR:161>  (47) 
1

>  <hydroph_interaction:ASP:83>  (47) 
1

>  <hbond:TYR:130>  (47) 
0

>  <hydroph_interaction:ALA:132>  (47) 
1

>  <hbond:HIS:51>  (47) 
0

>  <hbond:ASP:129>  (47) 
0

>  <hbond:TYR:150>  (47) 
0

>  <hbond:GLY:151>  (47) 
1

>  <hbond:TYR:161>  (47) 
0

>  <hydroph_interaction:TYR:130>  (47) 
0

>  <hydroph_interaction:PRO:131>  (47) 
0

>  <hydroph_interaction:ASP:129>  (47) 
0

>  <saltbridge:ASP:75>  (47) 
0

>  <saltbridge:ASP:83>  (47) 
0

>  <hydroph_interaction:ASN:152>  (47) 
0

>  <halogenbond:TYR:150>  (47) 
0

>  <hbond:ASP:83>  (47) 
0

>  <hydroph_interaction:VAL:155>  (47) 
0

>  <pication:TYR:161>  (47) 
0

>  <hbond:PRO:131>  (47) 
0

>  <hbond:LEU:128>  (47) 
0

>  <saltbridge:ASP:129>  (47) 
0

>  <hbond:THR:134>  (47) 
0

>  <pication:HIS:51>  (47) 
0

>  <hbond:SER:81>  (47) 
0

>  <hbond:GLY:159>  (47) 
0

>  <hydroph_interaction:PRO:101>  (47) 
0

>  <hydroph_interaction:THR:134>  (47) 
0

>  <hbond:GLY:82>  (47) 
0

>  <hydroph_interaction:GLU:104>  (47) 
0

>  <hydroph_interaction:VAL:36>  (47) 
0

>  <hydroph_interaction:MET:49>  (47) 
0

>  <halogenbond:GLU:104>  (47) 
0

>  <hydroph_interaction:LYS:107>  (47) 
0

$$$$
Z3559502619
     RDKit          3D

 39 41  0  0  0  0  0  0  0  0999 V2000
   -9.1260    4.7190  -19.4510 C   0  0  0  0  0  0  0  0  0  0  0  0
   -8.5980    4.9810  -18.2510 C   0  0  0  0  0  0  0  0  0  0  0  0
   -9.4130    4.9100  -16.9930 C   0  0  0  0  0  0  0  0  0  0  0  0
   -8.8380    5.1910  -15.7420 C   0  0  0  0  0  0  0  0  0  0  0  0
   -9.5930    5.1390  -14.5360 N   0  0  0  0  0  0  0  0  0  0  0  0
   -9.0830    4.6430  -13.2150 C   0  0  0  0  0  0  0  0  0  0  0  0
   -8.7460    5.7130  -12.3440 C   0  0  0  0  0  0  0  0  0  0  0  0
   -8.8070    5.6540  -10.9090 C   0  0  0  0  0  0  0  0  0  0  0  0
   -8.8820    4.4400  -10.0310 C   0  0  0  0  0  0  0  0  0  0  0  0
   -8.9170    2.9880  -10.1900 C   0  0  0  0  0  0  0  0  0  0  0  0
   -8.7340    2.2620   -9.0490 C   0  0  0  0  0  0  0  0  0  0  0  0
   -9.3170    2.6430   -7.7490 C   0  0  0  0  0  0  0  0  0  0  0  0
   -9.0130    4.1230   -7.4930 C   0  0  0  0  0  0  0  0  0  0  0  0
   -8.9250    4.9330   -8.7440 N   0  0  0  0  0  0  0  0  0  0  0  0
   -8.8800    6.2750   -8.6790 N   0  0  0  0  0  0  0  0  0  0  0  0
   -8.8120    6.7040   -9.9550 C   0  0  0  0  0  0  0  0  0  0  0  0
   -7.4920    5.5240  -15.7770 C   0  0  0  0  0  0  0  0  0  0  0  0
   -6.7940    5.5720  -16.9810 C   0  0  0  0  0  0  0  0  0  0  0  0
   -5.4960    5.9040  -16.9290 F   0  0  0  0  0  0  0  0  0  0  0  0
   -7.2980    5.3160  -18.2050 N   0  0  0  0  0  0  0  0  0  0  0  0
   -9.9790    5.3240  -19.7470 H   0  0  0  0  0  0  0  0  0  0  0  0
   -8.4140    4.6380  -20.2650 H   0  0  0  0  0  0  0  0  0  0  0  0
   -9.5270    3.7100  -19.3480 H   0  0  0  0  0  0  0  0  0  0  0  0
  -10.4600    4.6320  -17.1310 H   0  0  0  0  0  0  0  0  0  0  0  0
  -10.5550    4.8630  -14.7180 H   0  0  0  0  0  0  0  0  0  0  0  0
   -9.8350    3.9420  -12.8610 H   0  0  0  0  0  0  0  0  0  0  0  0
   -8.2050    4.0020  -13.3810 H   0  0  0  0  0  0  0  0  0  0  0  0
   -7.7190    6.0080  -12.6010 H   0  0  0  0  0  0  0  0  0  0  0  0
   -9.3440    6.5810  -12.6420 H   0  0  0  0  0  0  0  0  0  0  0  0
   -8.1290    2.7140  -10.9010 H   0  0  0  0  0  0  0  0  0  0  0  0
   -9.8640    2.6870  -10.6510 H   0  0  0  0  0  0  0  0  0  0  0  0
   -7.6550    2.3150   -8.8760 H   0  0  0  0  0  0  0  0  0  0  0  0
   -8.8950    1.2130   -9.1390 H   0  0  0  0  0  0  0  0  0  0  0  0
  -10.3980    2.4620   -7.7340 H   0  0  0  0  0  0  0  0  0  0  0  0
   -8.8700    2.0330   -6.9590 H   0  0  0  0  0  0  0  0  0  0  0  0
   -9.7860    4.5670   -6.8580 H   0  0  0  0  0  0  0  0  0  0  0  0
   -8.0450    4.2300   -6.9900 H   0  0  0  0  0  0  0  0  0  0  0  0
   -8.7680    7.7700  -10.1380 H   0  0  0  0  0  0  0  0  0  0  0  0
   -6.9390    5.7580  -14.8780 H   0  0  0  0  0  0  0  0  0  0  0  0
  1  2  1  0
  2  3  2  0
  3  4  1  0
  4  5  1  0
  5  6  1  0
  6  7  1  0
  7  8  1  0
  8  9  2  0
  9 10  1  0
 10 11  1  0
 11 12  1  0
 12 13  1  0
 13 14  1  0
 14 15  1  0
 15 16  2  0
  4 17  2  0
 17 18  1  0
 18 19  1  0
 18 20  2  0
 20  2  1  0
 16  8  1  0
 14  9  1  0
  1 21  1  0
  1 22  1  0
  1 23  1  0
  3 24  1  0
  5 25  1  0
  6 26  1  0
  6 27  1  0
  7 28  1  0
  7 29  1  0
 10 30  1  0
 10 31  1  0
 11 32  1  0
 11 33  1  0
 12 34  1  0
 12 35  1  0
 13 36  1  0
 13 37  1  0
 16 38  1  0
 17 39  1  0
A    1
 C1 
A    2
 C2 
A    3
 C3 
A    4
 C4 
A    5
 N1 
A    6
 C5 
A    7
 C6 
A    8
 C7 
A    9
 C8 
A   10
 C9 
A   11
 C10
A   12
 C11
A   13
 C12
A   14
 N2 
A   15
 N3 
A   16
 C13
A   17
 C14
A   18
 C15
A   19
 F1 
A   20
 N4 
A   21
 H1 
A   22
 H2 
A   23
 H3 
A   24
 H4 
A   25
 H5 
A   26
 H6 
A   27
 H7 
A   28
 H8 
A   29
 H9 
A   30
 H10
A   31
 H11
A   32
 H12
A   33
 H13
A   34
 H14
A   35
 H15
A   36
 H16
A   37
 H17
A   38
 H18
A   39
 H19
M  END
>  <ref_pdb>  (48) 
x0051_0B

>  <ref_mols>  (48) 
x0589_0B,x0969_1B

>  <original SMILES>  (48) 
[H]c1nn2c(c1C([H])([H])C([H])([H])N([H])c1c([H])c(F)nc(C([H])([H])[H])c1[H])C([H])([H])C([H])([H])C([H])([H])C2([H])[H]

>  <index>  (48) 
80

>  <∆∆G>  (48) 
-7.116332

>  <∆G_bound>  (48) 
-6.782741

>  <∆G_unbound>  (48) 
0.333591

>  <comRMSD>  (48) 
0.698714

>  <N_constrained_atoms>  (48) 
17.0

>  <N_unconstrained_atoms>  (48) 
4.0

>  <runtime>  (48) 
46.686468

>  <LE>  (48) 
0.338873

>  <percent_hybrid>  (48) 
42.0

>  <dist>  (48) 
4.0

>  <ecfp4>  (48) 
0.310811

>  <daylight>  (48) 
0.265734

>  <topodist>  (48) 
0.0

>  <mces>  (48) 
22.0

>  <tdn>  (48) 
0.0

>  <tup>  (48) 
0.0

>  <rdn>  (48) 
0.0

>  <rup>  (48) 
0.0

>  <ldn>  (48) 
0.0

>  <lup>  (48) 
0.0

>  <mut>  (48) 
4.0

>  <maj>  (48) 
3.0

>  <min>  (48) 
1.0

>  <hyb>  (48) 
0.0

>  <sub>  (48) 
0.0

>  <query_index>  (48) 
379.0

>  <max_hit_Tanimoto>  (48) 
0.332629

>  <largest_ring>  (48) 
0

>  <N_interactions_kept>  (48) 
1.5

>  <N_interactions_lost>  (48) 
1.0

>  <interaction_uniqueness_metric>  (48) 
0.218358

>  <ad_hoc_penalty>  (48) 
-32.844165

>  <N_rotatable_bonds>  (48) 
5

>  <N_HA>  (48) 
20

>  <cluster>  (48) 
6144

>  <N_interactions>  (48) 
7

>  <Enamine>  (48) 
1

>  <Mcule>  (48) 
0

>  <N_PAINS>  (48) 
0

>  <UFF_Gibbs>  (48) 
92.092294

>  <strain_per_HA>  (48) 
4.604615

>  <saltbridge:HIS:51>  (48) 
0

>  <pistack:HIS:51>  (48) 
1

>  <hydroph_interaction:HIS:51>  (48) 
0

>  <hbond:ALA:132>  (48) 
0

>  <hbond:SER:135>  (48) 
2

>  <hydroph_interaction:TYR:150>  (48) 
1

>  <pistack:TYR:161>  (48) 
1

>  <hydroph_interaction:TYR:161>  (48) 
1

>  <hydroph_interaction:ASP:83>  (48) 
1

>  <hbond:TYR:130>  (48) 
0

>  <hydroph_interaction:ALA:132>  (48) 
0

>  <hbond:HIS:51>  (48) 
0

>  <hbond:ASP:129>  (48) 
0

>  <hbond:TYR:150>  (48) 
0

>  <hbond:GLY:151>  (48) 
0

>  <hbond:TYR:161>  (48) 
0

>  <hydroph_interaction:TYR:130>  (48) 
0

>  <hydroph_interaction:PRO:131>  (48) 
0

>  <hydroph_interaction:ASP:129>  (48) 
0

>  <saltbridge:ASP:75>  (48) 
0

>  <saltbridge:ASP:83>  (48) 
0

>  <hydroph_interaction:ASN:152>  (48) 
0

>  <halogenbond:TYR:150>  (48) 
0

>  <hbond:ASP:83>  (48) 
0

>  <hydroph_interaction:VAL:155>  (48) 
0

>  <pication:TYR:161>  (48) 
0

>  <hbond:PRO:131>  (48) 
0

>  <hbond:LEU:128>  (48) 
0

>  <saltbridge:ASP:129>  (48) 
0

>  <hbond:THR:134>  (48) 
0

>  <pication:HIS:51>  (48) 
0

>  <hbond:SER:81>  (48) 
0

>  <hbond:GLY:159>  (48) 
0

>  <hydroph_interaction:PRO:101>  (48) 
0

>  <hydroph_interaction:THR:134>  (48) 
0

>  <hbond:GLY:82>  (48) 
0

>  <hydroph_interaction:GLU:104>  (48) 
0

>  <hydroph_interaction:VAL:36>  (48) 
0

>  <hydroph_interaction:MET:49>  (48) 
0

>  <halogenbond:GLU:104>  (48) 
0

>  <hydroph_interaction:LYS:107>  (48) 
0

$$$$
Z4385449583
     RDKit          3D

 42 45  0  0  0  0  0  0  0  0999 V2000
   -9.7380    4.6900  -18.2520 C   0  0  0  0  0  0  0  0  0  0  0  0
   -9.0330    5.1680  -17.0750 N   0  0  0  0  0  0  0  0  0  0  0  0
   -9.6650    5.1970  -15.8670 N   0  0  0  0  0  0  0  0  0  0  0  0
   -8.7370    5.7130  -15.0270 C   0  0  0  0  0  0  0  0  0  0  0  0
   -8.9880    6.0140  -13.4890 C   0  0  0  0  0  0  0  0  0  0  0  0
   -8.5750    5.0240  -12.4920 O   0  0  0  0  0  0  0  0  0  0  0  0
   -8.6890    5.3100  -11.1270 C   0  0  0  0  0  0  0  0  0  0  0  0
   -8.8660    4.3120  -10.1450 C   0  0  0  0  0  0  0  0  0  0  0  0
   -8.9700    2.8180  -10.3470 C   0  0  0  0  0  0  0  0  0  0  0  0
   -8.6830    2.2020   -8.9880 C   0  0  0  0  0  0  0  0  0  0  0  0
   -9.4810    2.8520   -7.8620 C   0  0  0  0  0  0  0  0  0  0  0  0
   -9.1010    4.1820   -7.6540 C   0  0  0  0  0  0  0  0  0  0  0  0
   -8.9290    4.9000   -8.9180 N   0  0  0  0  0  0  0  0  0  0  0  0
   -8.8120    6.2380   -8.9860 N   0  0  0  0  0  0  0  0  0  0  0  0
   -8.6700    6.4900  -10.3150 C   0  0  0  0  0  0  0  0  0  0  0  0
   -7.5440    5.9800  -15.6880 N   0  0  0  0  0  0  0  0  0  0  0  0
   -7.7420    5.6420  -16.9700 C   0  0  0  0  0  0  0  0  0  0  0  0
   -6.7330    5.7850  -18.0540 C   0  0  0  0  0  0  0  0  0  0  0  0
   -5.4900    5.2140  -18.0120 C   0  0  0  0  0  0  0  0  0  0  0  0
   -4.4120    5.3100  -19.0380 C   0  0  0  0  0  0  0  0  0  0  0  0
   -4.7330    6.1480  -20.2880 C   0  0  0  0  0  0  0  0  0  0  0  0
   -5.9910    6.7250  -20.3270 C   0  0  0  0  0  0  0  0  0  0  0  0
   -6.9930    6.5360  -19.2030 C   0  0  0  0  0  0  0  0  0  0  0  0
   -9.5560    3.6260  -18.3880 H   0  0  0  0  0  0  0  0  0  0  0  0
  -10.8130    4.8700  -18.1530 H   0  0  0  0  0  0  0  0  0  0  0  0
   -9.3810    5.2110  -19.1470 H   0  0  0  0  0  0  0  0  0  0  0  0
  -10.0540    6.1590  -13.3750 H   0  0  0  0  0  0  0  0  0  0  0  0
   -8.5100    6.9670  -13.2320 H   0  0  0  0  0  0  0  0  0  0  0  0
   -9.9850    2.5570  -10.6760 H   0  0  0  0  0  0  0  0  0  0  0  0
   -8.2590    2.4480  -11.0940 H   0  0  0  0  0  0  0  0  0  0  0  0
   -8.8730    1.1400   -9.0070 H   0  0  0  0  0  0  0  0  0  0  0  0
   -7.6190    2.3270   -8.7630 H   0  0  0  0  0  0  0  0  0  0  0  0
  -10.5490    2.8010   -8.1110 H   0  0  0  0  0  0  0  0  0  0  0  0
   -9.3420    2.2700   -6.9460 H   0  0  0  0  0  0  0  0  0  0  0  0
   -9.8390    4.7120   -7.0450 H   0  0  0  0  0  0  0  0  0  0  0  0
   -8.1320    4.2190   -7.1430 H   0  0  0  0  0  0  0  0  0  0  0  0
   -8.5560    7.5200  -10.6230 H   0  0  0  0  0  0  0  0  0  0  0  0
   -5.2430    4.6200  -17.1360 H   0  0  0  0  0  0  0  0  0  0  0  0
   -3.4510    4.8170  -18.9090 H   0  0  0  0  0  0  0  0  0  0  0  0
   -4.0130    6.2800  -21.0910 H   0  0  0  0  0  0  0  0  0  0  0  0
   -6.2750    7.3290  -21.1870 H   0  0  0  0  0  0  0  0  0  0  0  0
   -7.9270    7.0080  -19.3290 H   0  0  0  0  0  0  0  0  0  0  0  0
  1  2  1  0
  2  3  1  0
  3  4  2  0
  4  5  1  0
  5  6  1  0
  6  7  1  0
  7  8  2  0
  8  9  1  0
  9 10  1  0
 10 11  1  0
 11 12  1  0
 12 13  1  0
 13 14  1  0
 14 15  2  0
  4 16  1  0
 16 17  2  0
 17 18  1  0
 18 19  2  0
 19 20  1  0
 20 21  2  0
 21 22  1  0
 22 23  2  0
 17  2  1  0
 15  7  1  0
 13  8  1  0
 23 18  1  0
  1 24  1  0
  1 25  1  0
  1 26  1  0
  5 27  1  0
  5 28  1  0
  9 29  1  0
  9 30  1  0
 10 31  1  0
 10 32  1  0
 11 33  1  0
 11 34  1  0
 12 35  1  0
 12 36  1  0
 15 37  1  0
 19 38  1  0
 20 39  1  0
 21 40  1  0
 22 41  1  0
 23 42  1  0
A    1
 C1 
A    2
 N1 
A    3
 N2 
A    4
 C2 
A    5
 C3 
A    6
 O1 
A    7
 C4 
A    8
 C5 
A    9
 C6 
A   10
 C7 
A   11
 C8 
A   12
 C9 
A   13
 N3 
A   14
 N4 
A   15
 C10
A   16
 N5 
A   17
 C11
A   18
 C12
A   19
 C13
A   20
 C14
A   21
 C15
A   22
 C16
A   23
 C17
A   24
 H1 
A   25
 H2 
A   26
 H3 
A   27
 H4 
A   28
 H5 
A   29
 H6 
A   30
 H7 
A   31
 H8 
A   32
 H9 
A   33
 H10
A   34
 H11
A   35
 H12
A   36
 H13
A   37
 H14
A   38
 H15
A   39
 H16
A   40
 H17
A   41
 H18
A   42
 H19
M  END
>  <ref_pdb>  (49) 
x0051_0B

>  <ref_mols>  (49) 
x0969_1B,x0803_0B

>  <original SMILES>  (49) 
[H]c1nn2c(c1OC([H])([H])c1nc(-c3c([H])c([H])c([H])c([H])c3[H])n(C([H])([H])[H])n1)C([H])([H])C([H])([H])C([H])([H])C2([H])[H]

>  <index>  (49) 
98

>  <∆∆G>  (49) 
-7.87327

>  <∆G_bound>  (49) 
-7.761464

>  <∆G_unbound>  (49) 
0.111806

>  <comRMSD>  (49) 
0.628471

>  <N_constrained_atoms>  (49) 
22.0

>  <N_unconstrained_atoms>  (49) 
1.0

>  <runtime>  (49) 
83.598682

>  <LE>  (49) 
0.342316

>  <percent_hybrid>  (49) 
46.0

>  <dist>  (49) 
11.0

>  <ecfp4>  (49) 
0.192771

>  <daylight>  (49) 
0.257485

>  <topodist>  (49) 
1.0

>  <mces>  (49) 
26.0

>  <tdn>  (49) 
0.0

>  <tup>  (49) 
0.0

>  <rdn>  (49) 
0.0

>  <rup>  (49) 
0.0

>  <ldn>  (49) 
1.0

>  <lup>  (49) 
0.0

>  <mut>  (49) 
5.0

>  <maj>  (49) 
5.0

>  <min>  (49) 
0.0

>  <hyb>  (49) 
5.0

>  <sub>  (49) 
0.0

>  <query_index>  (49) 
360.0

>  <max_hit_Tanimoto>  (49) 
0.243197

>  <largest_ring>  (49) 
0

>  <N_interactions_kept>  (49) 
5.0

>  <N_interactions_lost>  (49) 
1.0

>  <interaction_uniqueness_metric>  (49) 
0.150876

>  <ad_hoc_penalty>  (49) 
-32.791587

>  <N_rotatable_bonds>  (49) 
5

>  <N_HA>  (49) 
23

>  <cluster>  (49) 
6126

>  <N_interactions>  (49) 
6

>  <Enamine>  (49) 
1

>  <Mcule>  (49) 
0

>  <N_PAINS>  (49) 
0

>  <UFF_Gibbs>  (49) 
68.745637

>  <strain_per_HA>  (49) 
2.988941

>  <saltbridge:HIS:51>  (49) 
0

>  <pistack:HIS:51>  (49) 
1

>  <hydroph_interaction:HIS:51>  (49) 
0

>  <hbond:ALA:132>  (49) 
0

>  <hbond:SER:135>  (49) 
0

>  <hydroph_interaction:TYR:150>  (49) 
0

>  <pistack:TYR:161>  (49) 
0

>  <hydroph_interaction:TYR:161>  (49) 
3

>  <hydroph_interaction:ASP:83>  (49) 
1

>  <hbond:TYR:130>  (49) 
0

>  <hydroph_interaction:ALA:132>  (49) 
1

>  <hbond:HIS:51>  (49) 
0

>  <hbond:ASP:129>  (49) 
0

>  <hbond:TYR:150>  (49) 
0

>  <hbond:GLY:151>  (49) 
0

>  <hbond:TYR:161>  (49) 
0

>  <hydroph_interaction:TYR:130>  (49) 
0

>  <hydroph_interaction:PRO:131>  (49) 
0

>  <hydroph_interaction:ASP:129>  (49) 
0

>  <saltbridge:ASP:75>  (49) 
0

>  <saltbridge:ASP:83>  (49) 
0

>  <hydroph_interaction:ASN:152>  (49) 
0

>  <halogenbond:TYR:150>  (49) 
0

>  <hbond:ASP:83>  (49) 
0

>  <hydroph_interaction:VAL:155>  (49) 
0

>  <pication:TYR:161>  (49) 
0

>  <hbond:PRO:131>  (49) 
0

>  <hbond:LEU:128>  (49) 
0

>  <saltbridge:ASP:129>  (49) 
0

>  <hbond:THR:134>  (49) 
0

>  <pication:HIS:51>  (49) 
0

>  <hbond:SER:81>  (49) 
0

>  <hbond:GLY:159>  (49) 
0

>  <hydroph_interaction:PRO:101>  (49) 
0

>  <hydroph_interaction:THR:134>  (49) 
0

>  <hbond:GLY:82>  (49) 
0

>  <hydroph_interaction:GLU:104>  (49) 
0

>  <hydroph_interaction:VAL:36>  (49) 
0

>  <hydroph_interaction:MET:49>  (49) 
0

>  <halogenbond:GLU:104>  (49) 
0

>  <hydroph_interaction:LYS:107>  (49) 
0

$$$$
Z3537468943
     RDKit          3D

 43 46  0  0  0  0  0  0  0  0999 V2000
   -9.9930    4.9270  -14.2060 O   0  0  0  0  0  0  0  0  0  0  0  0
   -8.8100    5.1460  -14.0110 C   0  0  0  0  0  0  0  0  0  0  0  0
   -8.2320    5.0660  -12.7760 O   0  0  0  0  0  0  0  0  0  0  0  0
   -8.7200    6.1030  -11.9150 C   0  0  0  0  0  0  0  0  0  0  0  0
   -8.7470    5.7510  -10.4460 C   0  0  0  0  0  0  0  0  0  0  0  0
   -8.7300    4.6440   -9.6620 C   0  0  0  0  0  0  0  0  0  0  0  0
   -8.6620    3.2220  -10.1290 C   0  0  0  0  0  0  0  0  0  0  0  0
   -9.2380    2.2610   -9.0990 C   0  0  0  0  0  0  0  0  0  0  0  0
   -9.4410    2.6870   -7.8020 C   0  0  0  0  0  0  0  0  0  0  0  0
   -8.7810    3.8290   -7.3680 C   0  0  0  0  0  0  0  0  0  0  0  0
   -8.7810    4.8250   -8.3370 N   0  0  0  0  0  0  0  0  0  0  0  0
   -8.8290    6.1350   -8.0780 N   0  0  0  0  0  0  0  0  0  0  0  0
   -8.8090    6.7120   -9.3920 C   0  0  0  0  0  0  0  0  0  0  0  0
   -7.8680    5.5820  -15.1290 C   0  0  0  0  0  0  0  0  0  0  0  0
   -6.4660    5.1880  -14.8540 C   0  0  0  0  0  0  0  0  0  0  0  0
   -5.5840    5.5980  -15.8870 C   0  0  0  0  0  0  0  0  0  0  0  0
   -5.9830    5.6740  -17.2200 C   0  0  0  0  0  0  0  0  0  0  0  0
   -7.4150    5.3050  -17.5800 C   0  0  0  0  0  0  0  0  0  0  0  0
   -7.8040    5.0100  -19.0430 C   0  0  0  0  0  0  0  0  0  0  0  0
   -9.2660    4.6510  -19.2960 C   0  0  0  0  0  0  0  0  0  0  0  0
  -10.1050    4.6130  -18.1990 C   0  0  0  0  0  0  0  0  0  0  0  0
   -9.6520    4.9110  -16.7900 C   0  0  0  0  0  0  0  0  0  0  0  0
   -8.3360    5.2510  -16.5310 C   0  0  0  0  0  0  0  0  0  0  0  0
   -8.0980    6.9880  -12.0840 H   0  0  0  0  0  0  0  0  0  0  0  0
   -9.6750    6.3730  -12.3480 H   0  0  0  0  0  0  0  0  0  0  0  0
   -9.2000    3.1000  -11.0760 H   0  0  0  0  0  0  0  0  0  0  0  0
   -7.6110    2.9610  -10.3120 H   0  0  0  0  0  0  0  0  0  0  0  0
  -10.1980    1.9450   -9.4870 H   0  0  0  0  0  0  0  0  0  0  0  0
   -8.6090    1.3710   -9.0690 H   0  0  0  0  0  0  0  0  0  0  0  0
   -9.1570    1.8660   -7.1380 H   0  0  0  0  0  0  0  0  0  0  0  0
  -10.5170    2.8290   -7.6450 H   0  0  0  0  0  0  0  0  0  0  0  0
   -9.3560    4.1920   -6.5060 H   0  0  0  0  0  0  0  0  0  0  0  0
   -7.7490    3.7270   -7.0380 H   0  0  0  0  0  0  0  0  0  0  0  0
   -8.8440    7.8080   -9.4810 H   0  0  0  0  0  0  0  0  0  0  0  0
   -7.9130    6.6770  -15.0770 H   0  0  0  0  0  0  0  0  0  0  0  0
   -6.1510    5.4200  -13.8400 H   0  0  0  0  0  0  0  0  0  0  0  0
   -6.4500    4.1000  -14.8560 H   0  0  0  0  0  0  0  0  0  0  0  0
   -4.5670    5.8560  -15.6100 H   0  0  0  0  0  0  0  0  0  0  0  0
   -5.3000    5.9860  -18.0060 H   0  0  0  0  0  0  0  0  0  0  0  0
   -7.1020    5.0510  -19.8680 H   0  0  0  0  0  0  0  0  0  0  0  0
   -9.6120    4.4390  -20.2980 H   0  0  0  0  0  0  0  0  0  0  0  0
  -11.1590    4.3580  -18.3550 H   0  0  0  0  0  0  0  0  0  0  0  0
  -10.4240    4.8410  -16.0280 H   0  0  0  0  0  0  0  0  0  0  0  0
  1  2  2  0
  2  3  1  0
  3  4  1  0
  4  5  1  0
  5  6  2  0
  6  7  1  0
  7  8  1  0
  8  9  1  0
  9 10  1  0
 10 11  1  0
 11 12  1  0
 12 13  2  0
  2 14  1  0
 14 15  1  0
 15 16  1  0
 16 17  2  0
 17 18  1  0
 18 19  2  0
 19 20  1  0
 20 21  2  0
 21 22  1  0
 22 23  2  0
 13  5  1  0
 11  6  1  0
 23 14  1  0
 23 18  1  0
  4 24  1  0
  4 25  1  0
  7 26  1  0
  7 27  1  0
  8 28  1  0
  8 29  1  0
  9 30  1  0
  9 31  1  0
 10 32  1  0
 10 33  1  0
 13 34  1  0
 14 35  1  0
 15 36  1  0
 15 37  1  0
 16 38  1  0
 17 39  1  0
 19 40  1  0
 20 41  1  0
 21 42  1  0
 22 43  1  0
A    1
 O1 
A    2
 C1 
A    3
 O2 
A    4
 C2 
A    5
 C3 
A    6
 C4 
A    7
 C5 
A    8
 C6 
A    9
 C7 
A   10
 C8 
A   11
 N1 
A   12
 N2 
A   13
 C9 
A   14
 C10
A   15
 C11
A   16
 C12
A   17
 C13
A   18
 C14
A   19
 C15
A   20
 C16
A   21
 C17
A   22
 C18
A   23
 C19
A   24
 H1 
A   25
 H2 
A   26
 H3 
A   27
 H4 
A   28
 H5 
A   29
 H6 
A   30
 H7 
A   31
 H8 
A   32
 H9 
A   33
 H10
A   34
 H11
A   35
 H12
A   36
 H13
A   37
 H14
A   38
 H15
A   39
 H16
A   40
 H17
A   41
 H18
A   42
 H19
A   43
 H20
M  END
>  <ref_pdb>  (50) 
x0051_0B

>  <ref_mols>  (50) 
x0969_1B,x0455_0B

>  <original SMILES>  (50) 
[H]C1=C([H])C([H])([H])C([H])(C(=O)OC([H])([H])c2c([H])nn3c2C([H])([H])C([H])([H])C([H])([H])C3([H])[H])c2c([H])c([H])c([H])c([H])c21

>  <index>  (50) 
49

>  <∆∆G>  (50) 
-7.088228

>  <∆G_bound>  (50) 
-5.73358

>  <∆G_unbound>  (50) 
1.354648

>  <comRMSD>  (50) 
0.4074

>  <N_constrained_atoms>  (50) 
20.0

>  <N_unconstrained_atoms>  (50) 
3.0

>  <runtime>  (50) 
55.641556

>  <LE>  (50) 
0.308184

>  <percent_hybrid>  (50) 
50.0

>  <dist>  (50) 
6.0

>  <ecfp4>  (50) 
0.26506

>  <daylight>  (50) 
0.349711

>  <topodist>  (50) 
1.0

>  <mces>  (50) 
25.0

>  <tdn>  (50) 
0.0

>  <tup>  (50) 
1.0

>  <rdn>  (50) 
0.0

>  <rup>  (50) 
0.0

>  <ldn>  (50) 
0.0

>  <lup>  (50) 
0.0

>  <mut>  (50) 
3.0

>  <maj>  (50) 
3.0

>  <min>  (50) 
0.0

>  <hyb>  (50) 
2.0

>  <sub>  (50) 
0.0

>  <query_index>  (50) 
204.0

>  <max_hit_Tanimoto>  (50) 
0.305654

>  <largest_ring>  (50) 
0

>  <N_interactions_kept>  (50) 
1.0

>  <N_interactions_lost>  (50) 
1.5

>  <interaction_uniqueness_metric>  (50) 
0.215508

>  <ad_hoc_penalty>  (50) 
-32.68423

>  <N_rotatable_bonds>  (50) 
3

>  <N_HA>  (50) 
23

>  <cluster>  (50) 
6172

>  <N_interactions>  (50) 
7

>  <Enamine>  (50) 
1

>  <Mcule>  (50) 
0

>  <N_PAINS>  (50) 
0

>  <UFF_Gibbs>  (50) 
154.014227

>  <strain_per_HA>  (50) 
6.696271

>  <saltbridge:HIS:51>  (50) 
1

>  <pistack:HIS:51>  (50) 
0

>  <hydroph_interaction:HIS:51>  (50) 
1

>  <hbond:ALA:132>  (50) 
0

>  <hbond:SER:135>  (50) 
1

>  <hydroph_interaction:TYR:150>  (50) 
1

>  <pistack:TYR:161>  (50) 
1

>  <hydroph_interaction:TYR:161>  (50) 
2

>  <hydroph_interaction:ASP:83>  (50) 
0

>  <hbond:TYR:130>  (50) 
0

>  <hydroph_interaction:ALA:132>  (50) 
0

>  <hbond:HIS:51>  (50) 
0

>  <hbond:ASP:129>  (50) 
0

>  <hbond:TYR:150>  (50) 
0

>  <hbond:GLY:151>  (50) 
0

>  <hbond:TYR:161>  (50) 
0

>  <hydroph_interaction:TYR:130>  (50) 
0

>  <hydroph_interaction:PRO:131>  (50) 
0

>  <hydroph_interaction:ASP:129>  (50) 
0

>  <saltbridge:ASP:75>  (50) 
0

>  <saltbridge:ASP:83>  (50) 
0

>  <hydroph_interaction:ASN:152>  (50) 
0

>  <halogenbond:TYR:150>  (50) 
0

>  <hbond:ASP:83>  (50) 
0

>  <hydroph_interaction:VAL:155>  (50) 
0

>  <pication:TYR:161>  (50) 
0

>  <hbond:PRO:131>  (50) 
0

>  <hbond:LEU:128>  (50) 
0

>  <saltbridge:ASP:129>  (50) 
0

>  <hbond:THR:134>  (50) 
0

>  <pication:HIS:51>  (50) 
0

>  <hbond:SER:81>  (50) 
0

>  <hbond:GLY:159>  (50) 
0

>  <hydroph_interaction:PRO:101>  (50) 
0

>  <hydroph_interaction:THR:134>  (50) 
0

>  <hbond:GLY:82>  (50) 
0

>  <hydroph_interaction:GLU:104>  (50) 
0

>  <hydroph_interaction:VAL:36>  (50) 
0

>  <hydroph_interaction:MET:49>  (50) 
0

>  <halogenbond:GLU:104>  (50) 
0

>  <hydroph_interaction:LYS:107>  (50) 
0

$$$$
Z750433262
     RDKit          3D

 53 56  0  0  0  0  0  0  0  0999 V2000
   -9.9920    4.7620  -18.2670 C   0  0  0  0  0  0  0  0  0  0  0  0
   -9.4030    4.8410  -16.9460 N   0  0  0  0  0  0  0  0  0  0  0  0
   -8.1670    5.4200  -16.7810 C   0  0  0  0  0  0  0  0  0  0  0  0
   -7.7670    5.8790  -15.7120 O   0  0  0  0  0  0  0  0  0  0  0  0
   -7.3780    5.4700  -17.9200 C   0  0  0  0  0  0  0  0  0  0  0  0
   -5.9150    5.3250  -18.0150 C   0  0  0  0  0  0  0  0  0  0  0  0
   -5.2380    4.9240  -16.8410 C   0  0  0  0  0  0  0  0  0  0  0  0
   -3.7120    4.7200  -16.7730 C   0  0  0  0  0  0  0  0  0  0  0  0
   -3.1060    5.0150  -18.1350 C   0  0  0  0  0  0  0  0  0  0  0  0
   -3.8140    5.4130  -19.2600 C   0  0  0  0  0  0  0  0  0  0  0  0
   -5.2080    5.5760  -19.2230 C   0  0  0  0  0  0  0  0  0  0  0  0
   -5.9010    5.9910  -20.3820 N   0  0  0  0  0  0  0  0  0  0  0  0
   -5.3320    6.1480  -21.6360 C   0  0  0  0  0  0  0  0  0  0  0  0
   -4.6640    5.3120  -22.2260 O   0  0  0  0  0  0  0  0  0  0  0  0
   -5.5300    7.4330  -22.3220 C   0  0  0  0  0  0  0  0  0  0  0  0
   -6.1420    7.3490  -23.5770 C   0  0  0  0  0  0  0  0  0  0  0  0
   -6.3700    8.4810  -24.3040 C   0  0  0  0  0  0  0  0  0  0  0  0
   -5.9980    9.7270  -23.8130 C   0  0  0  0  0  0  0  0  0  0  0  0
   -6.2720   10.9180  -24.6750 C   0  0  0  0  0  0  0  0  0  0  0  0
   -5.8800   10.5220  -26.4110 S   0  0  0  0  0  0  0  0  0  0  0  0
   -7.2660    9.6600  -26.9580 C   0  0  0  0  0  0  0  0  0  0  0  0
   -7.3450    8.3920  -27.2810 N   0  0  0  0  0  0  0  0  0  0  0  0
   -8.6580    8.2070  -27.6440 C   0  0  0  0  0  0  0  0  0  0  0  0
   -9.3190    7.0440  -28.0720 C   0  0  0  0  0  0  0  0  0  0  0  0
  -10.6830    7.1210  -28.3770 C   0  0  0  0  0  0  0  0  0  0  0  0
  -11.3760    8.3250  -28.2610 C   0  0  0  0  0  0  0  0  0  0  0  0
  -10.7380    9.4980  -27.8410 C   0  0  0  0  0  0  0  0  0  0  0  0
   -9.3750    9.3960  -27.5400 C   0  0  0  0  0  0  0  0  0  0  0  0
   -8.4500   10.3080  -27.1030 N   0  0  0  0  0  0  0  0  0  0  0  0
   -5.3830    9.8310  -22.5500 C   0  0  0  0  0  0  0  0  0  0  0  0
   -5.1470    8.6780  -21.7970 C   0  0  0  0  0  0  0  0  0  0  0  0
  -11.0150    5.1470  -18.2770 H   0  0  0  0  0  0  0  0  0  0  0  0
   -9.3940    5.3280  -18.9830 H   0  0  0  0  0  0  0  0  0  0  0  0
   -9.9950    3.7200  -18.5930 H   0  0  0  0  0  0  0  0  0  0  0  0
   -9.6220    4.0680  -16.3050 H   0  0  0  0  0  0  0  0  0  0  0  0
   -7.6440    6.4020  -18.4250 H   0  0  0  0  0  0  0  0  0  0  0  0
   -7.7910    4.7010  -18.5830 H   0  0  0  0  0  0  0  0  0  0  0  0
   -5.7380    4.7200  -15.8840 H   0  0  0  0  0  0  0  0  0  0  0  0
   -3.1550    4.4110  -15.8960 H   0  0  0  0  0  0  0  0  0  0  0  0
   -2.0290    4.9090  -18.2430 H   0  0  0  0  0  0  0  0  0  0  0  0
   -3.2460    5.5930  -20.1670 H   0  0  0  0  0  0  0  0  0  0  0  0
   -6.9210    5.9350  -20.3590 H   0  0  0  0  0  0  0  0  0  0  0  0
   -6.4370    6.3840  -23.9790 H   0  0  0  0  0  0  0  0  0  0  0  0
   -6.8460    8.3920  -25.2780 H   0  0  0  0  0  0  0  0  0  0  0  0
   -7.2980   11.2740  -24.5580 H   0  0  0  0  0  0  0  0  0  0  0  0
   -5.6270   11.7460  -24.3620 H   0  0  0  0  0  0  0  0  0  0  0  0
   -8.7770    6.1090  -28.1590 H   0  0  0  0  0  0  0  0  0  0  0  0
  -11.2070    6.2250  -28.7070 H   0  0  0  0  0  0  0  0  0  0  0  0
  -12.4400    8.3570  -28.5030 H   0  0  0  0  0  0  0  0  0  0  0  0
  -11.2820   10.4330  -27.7560 H   0  0  0  0  0  0  0  0  0  0  0  0
   -8.6050   11.2880  -26.9140 H   0  0  0  0  0  0  0  0  0  0  0  0
   -5.0880   10.8000  -22.1550 H   0  0  0  0  0  0  0  0  0  0  0  0
   -4.6720    8.7670  -20.8230 H   0  0  0  0  0  0  0  0  0  0  0  0
  1  2  1  0
  2  3  1  0
  3  4  2  0
  3  5  1  0
  5  6  1  0
  6  7  2  0
  7  8  1  0
  8  9  2  0
  9 10  1  0
 10 11  2  0
 11 12  1  0
 12 13  1  0
 13 14  2  0
 13 15  1  0
 15 16  2  0
 16 17  1  0
 17 18  2  0
 18 19  1  0
 19 20  1  0
 20 21  1  0
 21 22  2  0
 22 23  1  0
 23 24  2  0
 24 25  1  0
 25 26  2  0
 26 27  1  0
 27 28  2  0
 28 29  1  0
 18 30  1  0
 30 31  2  0
 11  6  1  0
 31 15  1  0
 29 21  1  0
 28 23  1  0
  1 32  1  0
  1 33  1  0
  1 34  1  0
  2 35  1  0
  5 36  1  0
  5 37  1  0
  7 38  1  0
  8 39  1  0
  9 40  1  0
 10 41  1  0
 12 42  1  0
 16 43  1  0
 17 44  1  0
 19 45  1  0
 19 46  1  0
 24 47  1  0
 25 48  1  0
 26 49  1  0
 27 50  1  0
 29 51  1  0
 30 52  1  0
 31 53  1  0
A    1
 C1 
A    2
 N1 
A    3
 C2 
A    4
 O1 
A    5
 C3 
A    6
 C4 
A    7
 C5 
A    8
 C6 
A    9
 C7 
A   10
 C8 
A   11
 C9 
A   12
 N2 
A   13
 C10
A   14
 O2 
A   15
 C11
A   16
 C12
A   17
 C13
A   18
 C14
A   19
 C15
A   20
 S1 
A   21
 C16
A   22
 N3 
A   23
 C17
A   24
 C18
A   25
 C19
A   26
 C20
A   27
 C21
A   28
 C22
A   29
 N4 
A   30
 C23
A   31
 C24
A   32
 H1 
A   33
 H2 
A   34
 H3 
A   35
 H4 
A   36
 H5 
A   37
 H6 
A   38
 H7 
A   39
 H8 
A   40
 H9 
A   41
 H10
A   42
 H11
A   43
 H12
A   44
 H13
A   45
 H14
A   46
 H15
A   47
 H16
A   48
 H17
A   49
 H18
A   50
 H19
A   51
 H20
A   52
 H21
A   53
 H22
M  END
>  <ref_pdb>  (51) 
x0051_0B

>  <ref_mols>  (51) 
x0465_0B,x0846_1B

>  <original SMILES>  (51) 
[H]c1c([H])c([H])c(C([H])([H])C(=O)N([H])C([H])([H])[H])c(N([H])C(=O)c2c([H])c([H])c(C([H])([H])Sc3nc4c([H])c([H])c([H])c([H])c4n3[H])c([H])c2[H])c1[H]

>  <index>  (51) 
89

>  <∆∆G>  (51) 
-12.244588

>  <∆G_bound>  (51) 
-10.566884

>  <∆G_unbound>  (51) 
1.677704

>  <comRMSD>  (51) 
0.817691

>  <N_constrained_atoms>  (51) 
31.0

>  <N_unconstrained_atoms>  (51) 
3.0

>  <runtime>  (51) 
71.005196

>  <LE>  (51) 
0.360135

>  <percent_hybrid>  (51) 
42.0

>  <dist>  (51) 
9.0

>  <ecfp4>  (51) 
0.267442

>  <daylight>  (51) 
0.403509

>  <topodist>  (51) 
5.0

>  <mces>  (51) 
33.0

>  <tdn>  (51) 
1.0

>  <tup>  (51) 
1.0

>  <rdn>  (51) 
1.0

>  <rup>  (51) 
0.0

>  <ldn>  (51) 
2.0

>  <lup>  (51) 
0.0

>  <mut>  (51) 
3.0

>  <maj>  (51) 
3.0

>  <min>  (51) 
0.0

>  <hyb>  (51) 
1.0

>  <sub>  (51) 
2.0

>  <query_index>  (51) 
127.0

>  <max_hit_Tanimoto>  (51) 
0.286199

>  <largest_ring>  (51) 
0

>  <N_interactions_kept>  (51) 
1.5

>  <N_interactions_lost>  (51) 
2.5

>  <interaction_uniqueness_metric>  (51) 
0.232355

>  <ad_hoc_penalty>  (51) 
-32.65559

>  <N_rotatable_bonds>  (51) 
8

>  <N_HA>  (51) 
31

>  <cluster>  (51) 
6135

>  <N_interactions>  (51) 
8

>  <Enamine>  (51) 
1

>  <Mcule>  (51) 
0

>  <N_PAINS>  (51) 
0

>  <UFF_Gibbs>  (51) 
146.055996

>  <strain_per_HA>  (51) 
4.711484

>  <saltbridge:HIS:51>  (51) 
0

>  <pistack:HIS:51>  (51) 
0

>  <hydroph_interaction:HIS:51>  (51) 
0

>  <hbond:ALA:132>  (51) 
0

>  <hbond:SER:135>  (51) 
0

>  <hydroph_interaction:TYR:150>  (51) 
0

>  <pistack:TYR:161>  (51) 
1

>  <hydroph_interaction:TYR:161>  (51) 
2

>  <hydroph_interaction:ASP:83>  (51) 
0

>  <hbond:TYR:130>  (51) 
1

>  <hydroph_interaction:ALA:132>  (51) 
0

>  <hbond:HIS:51>  (51) 
0

>  <hbond:ASP:129>  (51) 
1

>  <hbond:TYR:150>  (51) 
0

>  <hbond:GLY:151>  (51) 
1

>  <hbond:TYR:161>  (51) 
0

>  <hydroph_interaction:TYR:130>  (51) 
1

>  <hydroph_interaction:PRO:131>  (51) 
1

>  <hydroph_interaction:ASP:129>  (51) 
0

>  <saltbridge:ASP:75>  (51) 
0

>  <saltbridge:ASP:83>  (51) 
0

>  <hydroph_interaction:ASN:152>  (51) 
0

>  <halogenbond:TYR:150>  (51) 
0

>  <hbond:ASP:83>  (51) 
0

>  <hydroph_interaction:VAL:155>  (51) 
0

>  <pication:TYR:161>  (51) 
0

>  <hbond:PRO:131>  (51) 
0

>  <hbond:LEU:128>  (51) 
0

>  <saltbridge:ASP:129>  (51) 
0

>  <hbond:THR:134>  (51) 
0

>  <pication:HIS:51>  (51) 
0

>  <hbond:SER:81>  (51) 
0

>  <hbond:GLY:159>  (51) 
0

>  <hydroph_interaction:PRO:101>  (51) 
0

>  <hydroph_interaction:THR:134>  (51) 
0

>  <hbond:GLY:82>  (51) 
0

>  <hydroph_interaction:GLU:104>  (51) 
0

>  <hydroph_interaction:VAL:36>  (51) 
0

>  <hydroph_interaction:MET:49>  (51) 
0

>  <halogenbond:GLU:104>  (51) 
0

>  <hydroph_interaction:LYS:107>  (51) 
0

$$$$
HRTZYBSWNCYMCS-UHFFFAOYSA-N
     RDKit          3D

 39 41  0  0  0  0  0  0  0  0999 V2000
   -8.7330    7.1480  -14.0500 C   0  0  0  0  0  0  0  0  0  0  0  0
   -9.2270    6.3030  -15.0220 N   0  0  0  0  0  0  0  0  0  0  0  0
   -8.6160    5.8600  -16.2690 C   0  0  0  0  0  0  0  0  0  0  0  0
   -9.5940    4.9580  -17.0080 C   0  0  0  0  0  0  0  0  0  0  0  0
   -9.1100    4.4560  -18.3480 C   0  0  0  0  0  0  0  0  0  0  0  0
   -7.8700    4.7930  -18.8390 C   0  0  0  0  0  0  0  0  0  0  0  0
   -7.0300    5.5760  -18.1470 C   0  0  0  0  0  0  0  0  0  0  0  0
   -5.8340    5.8610  -18.6780 F   0  0  0  0  0  0  0  0  0  0  0  0
   -7.4090    6.1190  -16.8340 C   0  0  0  0  0  0  0  0  0  0  0  0
   -8.2910    8.4440  -14.1410 O   0  0  0  0  0  0  0  0  0  0  0  0
   -8.7460    6.4670  -12.7440 C   0  0  0  0  0  0  0  0  0  0  0  0
   -8.6080    7.1460  -11.5330 C   0  0  0  0  0  0  0  0  0  0  0  0
   -8.6340    6.3630  -10.2560 C   0  0  0  0  0  0  0  0  0  0  0  0
   -8.7950    4.9600  -10.2320 C   0  0  0  0  0  0  0  0  0  0  0  0
   -8.8160    4.2450   -9.0690 N   0  0  0  0  0  0  0  0  0  0  0  0
   -9.0400    2.7890   -9.1100 C   0  0  0  0  0  0  0  0  0  0  0  0
   -9.6480    2.3750   -7.9260 C   0  0  0  0  0  0  0  0  0  0  0  0
   -8.9080    2.7320   -6.7590 O   0  0  0  0  0  0  0  0  0  0  0  0
   -8.8130    4.0790   -6.6140 C   0  0  0  0  0  0  0  0  0  0  0  0
   -8.2250    4.7790   -7.8310 C   0  0  0  0  0  0  0  0  0  0  0  0
   -8.9330    4.3080  -11.4600 C   0  0  0  0  0  0  0  0  0  0  0  0
   -8.9070    5.0980  -12.7510 C   0  0  0  0  0  0  0  0  0  0  0  0
  -10.1610    5.9600  -14.8520 H   0  0  0  0  0  0  0  0  0  0  0  0
  -10.5640    4.6880  -16.6340 H   0  0  0  0  0  0  0  0  0  0  0  0
   -9.8230    3.8180  -18.8730 H   0  0  0  0  0  0  0  0  0  0  0  0
   -7.5520    4.4180  -19.8090 H   0  0  0  0  0  0  0  0  0  0  0  0
   -6.6690    6.7480  -16.3510 H   0  0  0  0  0  0  0  0  0  0  0  0
   -8.4810    8.2210  -11.5000 H   0  0  0  0  0  0  0  0  0  0  0  0
   -8.5230    6.9240   -9.3260 H   0  0  0  0  0  0  0  0  0  0  0  0
   -9.7290    2.5460   -9.9280 H   0  0  0  0  0  0  0  0  0  0  0  0
   -8.1040    2.2380   -9.2730 H   0  0  0  0  0  0  0  0  0  0  0  0
   -9.7720    1.2920   -7.9360 H   0  0  0  0  0  0  0  0  0  0  0  0
  -10.6510    2.7990   -7.8290 H   0  0  0  0  0  0  0  0  0  0  0  0
   -9.8130    4.4670   -6.3880 H   0  0  0  0  0  0  0  0  0  0  0  0
   -8.1880    4.2790   -5.7360 H   0  0  0  0  0  0  0  0  0  0  0  0
   -8.3720    5.8610   -7.7460 H   0  0  0  0  0  0  0  0  0  0  0  0
   -7.1400    4.6060   -7.8520 H   0  0  0  0  0  0  0  0  0  0  0  0
   -9.0620    3.2190  -11.5230 H   0  0  0  0  0  0  0  0  0  0  0  0
   -9.0240    4.4880  -13.6560 H   0  0  0  0  0  0  0  0  0  0  0  0
  1  2  1  0
  2  3  1  0
  3  4  2  0
  4  5  1  0
  5  6  2  0
  6  7  1  0
  7  8  1  0
  7  9  2  0
  1 10  2  0
  1 11  1  0
 11 12  2  0
 12 13  1  0
 13 14  2  0
 14 15  1  0
 15 16  1  0
 16 17  1  0
 17 18  1  0
 18 19  1  0
 19 20  1  0
 14 21  1  0
 21 22  2  0
  9  3  1  0
 22 11  1  0
 20 15  1  0
  2 23  1  0
  4 24  1  0
  5 25  1  0
  6 26  1  0
  9 27  1  0
 12 28  1  0
 13 29  1  0
 16 30  1  0
 16 31  1  0
 17 32  1  0
 17 33  1  0
 19 34  1  0
 19 35  1  0
 20 36  1  0
 20 37  1  0
 21 38  1  0
 22 39  1  0
A    1
 C1 
A    2
 N1 
A    3
 C2 
A    4
 C3 
A    5
 C4 
A    6
 C5 
A    7
 C6 
A    8
 F1 
A    9
 C7 
A   10
 O1 
A   11
 C8 
A   12
 C9 
A   13
 C10
A   14
 C11
A   15
 N2 
A   16
 C12
A   17
 C13
A   18
 O2 
A   19
 C14
A   20
 C15
A   21
 C16
A   22
 C17
A   23
 H1 
A   24
 H2 
A   25
 H3 
A   26
 H4 
A   27
 H5 
A   28
 H6 
A   29
 H7 
A   30
 H8 
A   31
 H9 
A   32
 H10
A   33
 H11
A   34
 H12
A   35
 H13
A   36
 H14
A   37
 H15
A   38
 H16
A   39
 H17
M  END
>  <ref_pdb>  (52) 
x0051_0B

>  <ref_mols>  (52) 
x0589_0B,x0404_0B

>  <original SMILES>  (52) 
[H]c1c([H])c(F)c([H])c(N([H])C(=O)c2c([H])c([H])c(N3C([H])([H])C([H])([H])OC([H])([H])C3([H])[H])c([H])c2[H])c1[H]

>  <index>  (52) 
64

>  <∆∆G>  (52) 
-6.462391

>  <∆G_bound>  (52) 
-6.079571

>  <∆G_unbound>  (52) 
0.38282

>  <comRMSD>  (52) 
0.535944

>  <N_constrained_atoms>  (52) 
23.0

>  <N_unconstrained_atoms>  (52) 
0.0

>  <runtime>  (52) 
70.229324

>  <LE>  (52) 
0.280974

>  <percent_hybrid>  (52) 
35.0

>  <dist>  (52) 
7.0

>  <ecfp4>  (52) 
0.2

>  <daylight>  (52) 
0.205263

>  <topodist>  (52) 
3.0

>  <mces>  (52) 
24.0

>  <tdn>  (52) 
2.0

>  <tup>  (52) 
0.0

>  <rdn>  (52) 
0.0

>  <rup>  (52) 
0.0

>  <ldn>  (52) 
1.0

>  <lup>  (52) 
0.0

>  <mut>  (52) 
3.0

>  <maj>  (52) 
2.0

>  <min>  (52) 
1.0

>  <hyb>  (52) 
1.0

>  <sub>  (52) 
1.0

>  <query_index>  (52) 
29.0

>  <max_hit_Tanimoto>  (52) 
0.258958

>  <largest_ring>  (52) 
0

>  <N_interactions_kept>  (52) 
2.5

>  <N_interactions_lost>  (52) 
1.0

>  <interaction_uniqueness_metric>  (52) 
0.116623

>  <ad_hoc_penalty>  (52) 
-32.513032

>  <N_rotatable_bonds>  (52) 
3

>  <N_HA>  (52) 
22

>  <cluster>  (52) 
531

>  <N_interactions>  (52) 
6

>  <Enamine>  (52) 
0

>  <Mcule>  (52) 
1

>  <N_PAINS>  (52) 
0

>  <UFF_Gibbs>  (52) 
111.442331

>  <strain_per_HA>  (52) 
5.065561

>  <saltbridge:HIS:51>  (52) 
0

>  <pistack:HIS:51>  (52) 
1

>  <hydroph_interaction:HIS:51>  (52) 
0

>  <hbond:ALA:132>  (52) 
0

>  <hbond:SER:135>  (52) 
0

>  <hydroph_interaction:TYR:150>  (52) 
1

>  <pistack:TYR:161>  (52) 
0

>  <hydroph_interaction:TYR:161>  (52) 
2

>  <hydroph_interaction:ASP:83>  (52) 
0

>  <hbond:TYR:130>  (52) 
0

>  <hydroph_interaction:ALA:132>  (52) 
1

>  <hbond:HIS:51>  (52) 
0

>  <hbond:ASP:129>  (52) 
0

>  <hbond:TYR:150>  (52) 
0

>  <hbond:GLY:151>  (52) 
1

>  <hbond:TYR:161>  (52) 
0

>  <hydroph_interaction:TYR:130>  (52) 
0

>  <hydroph_interaction:PRO:131>  (52) 
0

>  <hydroph_interaction:ASP:129>  (52) 
0

>  <saltbridge:ASP:75>  (52) 
0

>  <saltbridge:ASP:83>  (52) 
0

>  <hydroph_interaction:ASN:152>  (52) 
0

>  <halogenbond:TYR:150>  (52) 
0

>  <hbond:ASP:83>  (52) 
0

>  <hydroph_interaction:VAL:155>  (52) 
0

>  <pication:TYR:161>  (52) 
0

>  <hbond:PRO:131>  (52) 
0

>  <hbond:LEU:128>  (52) 
0

>  <saltbridge:ASP:129>  (52) 
0

>  <hbond:THR:134>  (52) 
0

>  <pication:HIS:51>  (52) 
0

>  <hbond:SER:81>  (52) 
0

>  <hbond:GLY:159>  (52) 
0

>  <hydroph_interaction:PRO:101>  (52) 
0

>  <hydroph_interaction:THR:134>  (52) 
0

>  <hbond:GLY:82>  (52) 
0

>  <hydroph_interaction:GLU:104>  (52) 
0

>  <hydroph_interaction:VAL:36>  (52) 
0

>  <hydroph_interaction:MET:49>  (52) 
0

>  <halogenbond:GLU:104>  (52) 
0

>  <hydroph_interaction:LYS:107>  (52) 
0

$$$$
MCULE-8608536621
     RDKit          3D

 49 52  0  0  0  0  0  0  0  0999 V2000
   -4.7890    5.8850  -19.2400 N   0  0  0  0  0  0  0  0  0  0  0  0
   -5.0340    5.6330  -17.9900 C   0  0  0  0  0  0  0  0  0  0  0  0
   -3.9770    5.3190  -16.9840 C   0  0  0  0  0  0  0  0  0  0  0  0
   -2.9880    4.4090  -17.2890 C   0  0  0  0  0  0  0  0  0  0  0  0
   -4.6320    4.8850  -15.6680 C   0  0  0  0  0  0  0  0  0  0  0  0
   -3.1910    6.5970  -16.7620 C   0  0  0  0  0  0  0  0  0  0  0  0
   -6.4920    5.7120  -17.6660 C   0  0  0  0  0  0  0  0  0  0  0  0
   -7.0680    5.7220  -18.9470 C   0  0  0  0  0  0  0  0  0  0  0  0
   -8.2350    5.3850  -19.1100 O   0  0  0  0  0  0  0  0  0  0  0  0
   -6.0030    6.1630  -19.8380 N   0  0  0  0  0  0  0  0  0  0  0  0
   -5.9460    7.1530  -20.9550 C   0  0  0  0  0  0  0  0  0  0  0  0
   -6.0040    6.7550  -22.3260 C   0  0  0  0  0  0  0  0  0  0  0  0
   -5.9800    7.6720  -23.4200 C   0  0  0  0  0  0  0  0  0  0  0  0
   -5.8850    9.0550  -23.2100 C   0  0  0  0  0  0  0  0  0  0  0  0
   -5.7940    9.4820  -21.8700 C   0  0  0  0  0  0  0  0  0  0  0  0
   -5.8250    8.5610  -20.7770 C   0  0  0  0  0  0  0  0  0  0  0  0
   -5.8890   10.0420  -24.3710 C   0  0  0  0  0  0  0  0  0  0  0  0
   -5.8730    9.5520  -25.7720 N   0  0  0  0  0  0  0  0  0  0  0  0
   -7.1270    9.2070  -26.4810 C   0  0  0  0  0  0  0  0  0  0  0  0
   -7.4140    7.9410  -26.9200 N   0  0  0  0  0  0  0  0  0  0  0  0
   -8.6510    7.9420  -27.5030 C   0  0  0  0  0  0  0  0  0  0  0  0
   -9.4220    6.9580  -28.0820 C   0  0  0  0  0  0  0  0  0  0  0  0
  -10.6790    7.2730  -28.5810 C   0  0  0  0  0  0  0  0  0  0  0  0
  -11.1450    8.5870  -28.4910 C   0  0  0  0  0  0  0  0  0  0  0  0
  -10.3540    9.5690  -27.9130 C   0  0  0  0  0  0  0  0  0  0  0  0
   -9.0700    9.2610  -27.3980 C   0  0  0  0  0  0  0  0  0  0  0  0
   -8.1110   10.0370  -26.7770 N   0  0  0  0  0  0  0  0  0  0  0  0
   -5.9080   11.2390  -24.0890 O   0  0  0  0  0  0  0  0  0  0  0  0
   -3.2170    3.9460  -18.2490 H   0  0  0  0  0  0  0  0  0  0  0  0
   -1.9590    4.7520  -17.3660 H   0  0  0  0  0  0  0  0  0  0  0  0
   -2.9830    3.6200  -16.5330 H   0  0  0  0  0  0  0  0  0  0  0  0
   -4.0530    4.0930  -15.1810 H   0  0  0  0  0  0  0  0  0  0  0  0
   -4.7070    5.7240  -14.9680 H   0  0  0  0  0  0  0  0  0  0  0  0
   -5.6450    4.5010  -15.8240 H   0  0  0  0  0  0  0  0  0  0  0  0
   -2.7440    6.9520  -17.6980 H   0  0  0  0  0  0  0  0  0  0  0  0
   -2.3890    6.4450  -16.0430 H   0  0  0  0  0  0  0  0  0  0  0  0
   -3.8270    7.4020  -16.3760 H   0  0  0  0  0  0  0  0  0  0  0  0
   -6.7270    6.6350  -17.1390 H   0  0  0  0  0  0  0  0  0  0  0  0
   -6.8210    4.8310  -17.1150 H   0  0  0  0  0  0  0  0  0  0  0  0
   -6.0830    5.6970  -22.5690 H   0  0  0  0  0  0  0  0  0  0  0  0
   -6.0440    7.2790  -24.4330 H   0  0  0  0  0  0  0  0  0  0  0  0
   -5.7080   10.5380  -21.6300 H   0  0  0  0  0  0  0  0  0  0  0  0
   -5.7580    8.9850  -19.7790 H   0  0  0  0  0  0  0  0  0  0  0  0
   -5.0540    9.6040  -26.3610 H   0  0  0  0  0  0  0  0  0  0  0  0
   -6.7890    7.1520  -26.8040 H   0  0  0  0  0  0  0  0  0  0  0  0
   -9.1580    5.9010  -28.2020 H   0  0  0  0  0  0  0  0  0  0  0  0
  -11.2330    6.4380  -29.0230 H   0  0  0  0  0  0  0  0  0  0  0  0
  -12.1300    8.8450  -28.8770 H   0  0  0  0  0  0  0  0  0  0  0  0
  -10.7190   10.5870  -27.8480 H   0  0  0  0  0  0  0  0  0  0  0  0
  1  2  2  0
  2  3  1  0
  3  4  1  0
  3  5  1  0
  3  6  1  0
  2  7  1  0
  7  8  1  0
  8  9  2  0
  8 10  1  0
 10 11  1  0
 11 12  2  0
 12 13  1  0
 13 14  2  0
 14 15  1  0
 15 16  2  0
 14 17  1  0
 17 18  1  0
 18 19  1  0
 19 20  1  0
 20 21  1  0
 21 22  2  0
 22 23  1  0
 23 24  2  0
 24 25  1  0
 25 26  2  0
 26 27  1  0
 17 28  2  0
 10  1  1  0
 11 16  1  0
 19 27  2  0
 26 21  1  0
  4 29  1  0
  4 30  1  0
  4 31  1  0
  5 32  1  0
  5 33  1  0
  5 34  1  0
  6 35  1  0
  6 36  1  0
  6 37  1  0
  7 38  1  0
  7 39  1  0
 12 40  1  0
 13 41  1  0
 15 42  1  0
 16 43  1  0
 18 44  1  0
 20 45  1  0
 22 46  1  0
 23 47  1  0
 24 48  1  0
 25 49  1  0
A    1
 N1 
A    2
 C1 
A    3
 C2 
A    4
 C3 
A    5
 C4 
A    6
 C5 
A    7
 C6 
A    8
 C7 
A    9
 O1 
A   10
 N2 
A   11
 C8 
A   12
 C9 
A   13
 C10
A   14
 C11
A   15
 C12
A   16
 C13
A   17
 C14
A   18
 N3 
A   19
 C15
A   20
 N4 
A   21
 C16
A   22
 C17
A   23
 C18
A   24
 C19
A   25
 C20
A   26
 C21
A   27
 N5 
A   28
 O2 
A   29
 H1 
A   30
 H2 
A   31
 H3 
A   32
 H4 
A   33
 H5 
A   34
 H6 
A   35
 H7 
A   36
 H8 
A   37
 H9 
A   38
 H10
A   39
 H11
A   40
 H12
A   41
 H13
A   42
 H14
A   43
 H15
A   44
 H16
A   45
 H17
A   46
 H18
A   47
 H19
A   48
 H20
A   49
 H21
M  END
>  <ref_pdb>  (53) 
x0051_0B

>  <ref_mols>  (53) 
x0846_1B,x0425_0B

>  <original SMILES>  (53) 
[H]c1c([H])c(N2N=C(C(C([H])([H])[H])(C([H])([H])[H])C([H])([H])[H])C([H])([H])C2=O)c([H])c([H])c1C(=O)N([H])c1nc2c([H])c([H])c([H])c([H])c2n1[H]

>  <index>  (53) 
70

>  <∆∆G>  (53) 
-8.12405

>  <∆G_bound>  (53) 
-7.575921

>  <∆G_unbound>  (53) 
0.548129

>  <comRMSD>  (53) 
0.880331

>  <N_constrained_atoms>  (53) 
26.0

>  <N_unconstrained_atoms>  (53) 
3.0

>  <runtime>  (53) 
64.462032

>  <LE>  (53) 
0.28014

>  <percent_hybrid>  (53) 
31.0

>  <dist>  (53) 
11.0

>  <ecfp4>  (53) 
0.23913

>  <daylight>  (53) 
0.33871

>  <topodist>  (53) 
6.0

>  <mces>  (53) 
29.0

>  <tdn>  (53) 
2.0

>  <tup>  (53) 
2.0

>  <rdn>  (53) 
0.0

>  <rup>  (53) 
0.0

>  <ldn>  (53) 
2.0

>  <lup>  (53) 
0.0

>  <mut>  (53) 
3.0

>  <maj>  (53) 
3.0

>  <min>  (53) 
0.0

>  <hyb>  (53) 
2.0

>  <sub>  (53) 
1.0

>  <query_index>  (53) 
25.0

>  <max_hit_Tanimoto>  (53) 
0.386813

>  <largest_ring>  (53) 
0

>  <N_interactions_kept>  (53) 
1.0

>  <N_interactions_lost>  (53) 
1.5

>  <interaction_uniqueness_metric>  (53) 
0.154571

>  <ad_hoc_penalty>  (53) 
-32.501741

>  <N_rotatable_bonds>  (53) 
3

>  <N_HA>  (53) 
28

>  <cluster>  (53) 
6154

>  <N_interactions>  (53) 
6

>  <Enamine>  (53) 
0

>  <Mcule>  (53) 
1

>  <N_PAINS>  (53) 
0

>  <UFF_Gibbs>  (53) 
141.361836

>  <strain_per_HA>  (53) 
5.048637

>  <saltbridge:HIS:51>  (53) 
0

>  <pistack:HIS:51>  (53) 
0

>  <hydroph_interaction:HIS:51>  (53) 
0

>  <hbond:ALA:132>  (53) 
0

>  <hbond:SER:135>  (53) 
0

>  <hydroph_interaction:TYR:150>  (53) 
0

>  <pistack:TYR:161>  (53) 
0

>  <hydroph_interaction:TYR:161>  (53) 
3

>  <hydroph_interaction:ASP:83>  (53) 
0

>  <hbond:TYR:130>  (53) 
0

>  <hydroph_interaction:ALA:132>  (53) 
0

>  <hbond:HIS:51>  (53) 
0

>  <hbond:ASP:129>  (53) 
0

>  <hbond:TYR:150>  (53) 
0

>  <hbond:GLY:151>  (53) 
0

>  <hbond:TYR:161>  (53) 
0

>  <hydroph_interaction:TYR:130>  (53) 
1

>  <hydroph_interaction:PRO:131>  (53) 
1

>  <hydroph_interaction:ASP:129>  (53) 
0

>  <saltbridge:ASP:75>  (53) 
0

>  <saltbridge:ASP:83>  (53) 
0

>  <hydroph_interaction:ASN:152>  (53) 
0

>  <halogenbond:TYR:150>  (53) 
0

>  <hbond:ASP:83>  (53) 
0

>  <hydroph_interaction:VAL:155>  (53) 
1

>  <pication:TYR:161>  (53) 
0

>  <hbond:PRO:131>  (53) 
0

>  <hbond:LEU:128>  (53) 
0

>  <saltbridge:ASP:129>  (53) 
0

>  <hbond:THR:134>  (53) 
0

>  <pication:HIS:51>  (53) 
0

>  <hbond:SER:81>  (53) 
0

>  <hbond:GLY:159>  (53) 
0

>  <hydroph_interaction:PRO:101>  (53) 
0

>  <hydroph_interaction:THR:134>  (53) 
0

>  <hbond:GLY:82>  (53) 
0

>  <hydroph_interaction:GLU:104>  (53) 
0

>  <hydroph_interaction:VAL:36>  (53) 
0

>  <hydroph_interaction:MET:49>  (53) 
0

>  <halogenbond:GLU:104>  (53) 
0

>  <hydroph_interaction:LYS:107>  (53) 
0

$$$$
CSSB00000645610
     RDKit          3D

 32 34  0  0  0  0  0  0  0  0999 V2000
   -8.9140    6.8960  -13.0480 N   0  0  0  0  0  0  0  0  0  0  0  0
   -8.8150    5.6020  -13.7240 C   0  0  0  0  0  0  0  0  0  0  0  0
   -8.4190    4.5240  -12.7350 C   0  0  0  0  0  0  0  0  0  0  0  0
   -9.7120    3.8740  -12.1030 C   0  0  0  0  0  0  0  0  0  0  0  0
   -9.1310    3.4800  -10.7500 C   0  0  0  0  0  0  0  0  0  0  0  0
  -10.3310    2.8280  -10.1010 C   0  0  0  0  0  0  0  0  0  0  0  0
  -11.6930    2.6500  -10.6630 C   0  0  0  0  0  0  0  0  0  0  0  0
  -12.0470    3.0880  -11.9270 C   0  0  0  0  0  0  0  0  0  0  0  0
  -10.9960    3.7110  -12.6370 C   0  0  0  0  0  0  0  0  0  0  0  0
   -7.9930    5.5410  -15.0100 C   0  0  0  0  0  0  0  0  0  0  0  0
   -6.5990    5.8870  -14.9650 N   0  0  0  0  0  0  0  0  0  0  0  0
   -6.1570    5.7530  -16.2350 N   0  0  0  0  0  0  0  0  0  0  0  0
   -7.1650    5.3620  -17.0140 C   0  0  0  0  0  0  0  0  0  0  0  0
   -7.2720    5.0650  -18.5070 C   0  0  0  0  0  0  0  0  0  0  0  0
   -8.4930    4.6670  -19.0690 C   0  0  0  0  0  0  0  0  0  0  0  0
   -9.6100    4.5410  -18.2390 C   0  0  0  0  0  0  0  0  0  0  0  0
   -9.5310    4.8090  -16.8400 C   0  0  0  0  0  0  0  0  0  0  0  0
   -8.3350    5.2110  -16.2810 N   0  0  0  0  0  0  0  0  0  0  0  0
   -7.9750    7.2690  -12.8980 H   0  0  0  0  0  0  0  0  0  0  0  0
   -9.3880    7.5660  -13.6500 H   0  0  0  0  0  0  0  0  0  0  0  0
   -9.8330    5.3950  -14.0700 H   0  0  0  0  0  0  0  0  0  0  0  0
   -7.7930    4.9580  -11.9550 H   0  0  0  0  0  0  0  0  0  0  0  0
   -7.8540    3.7330  -13.2440 H   0  0  0  0  0  0  0  0  0  0  0  0
   -8.1290    3.6140  -10.3420 H   0  0  0  0  0  0  0  0  0  0  0  0
  -10.1690    2.4470   -9.0980 H   0  0  0  0  0  0  0  0  0  0  0  0
  -12.4430    2.1590  -10.0530 H   0  0  0  0  0  0  0  0  0  0  0  0
  -13.0420    2.9640  -12.3440 H   0  0  0  0  0  0  0  0  0  0  0  0
  -11.2000    4.0730  -13.6370 H   0  0  0  0  0  0  0  0  0  0  0  0
   -6.3820    5.1740  -19.1180 H   0  0  0  0  0  0  0  0  0  0  0  0
   -8.5960    4.4530  -20.1270 H   0  0  0  0  0  0  0  0  0  0  0  0
  -10.5410    4.2340  -18.6860 H   0  0  0  0  0  0  0  0  0  0  0  0
  -10.3760    4.7110  -16.1890 H   0  0  0  0  0  0  0  0  0  0  0  0
  1  2  1  0
  2  3  1  0
  3  4  1  0
  4  5  2  0
  5  6  1  0
  6  7  2  0
  7  8  1  0
  8  9  2  0
  2 10  1  0
 10 11  2  0
 11 12  1  0
 12 13  2  0
 13 14  1  0
 14 15  2  0
 15 16  1  0
 16 17  2  0
 17 18  1  0
  9  4  1  0
 18 10  1  0
 18 13  1  0
  1 19  1  0
  1 20  1  0
  2 21  1  0
  3 22  1  0
  3 23  1  0
  5 24  1  0
  6 25  1  0
  7 26  1  0
  8 27  1  0
  9 28  1  0
 14 29  1  0
 15 30  1  0
 16 31  1  0
 17 32  1  0
A    1
 N1 
A    2
 C1 
A    3
 C2 
A    4
 C3 
A    5
 C4 
A    6
 C5 
A    7
 C6 
A    8
 C7 
A    9
 C8 
A   10
 C9 
A   11
 N2 
A   12
 N3 
A   13
 C10
A   14
 C11
A   15
 C12
A   16
 C13
A   17
 C14
A   18
 N4 
A   19
 H1 
A   20
 H2 
A   21
 H3 
A   22
 H4 
A   23
 H5 
A   24
 H6 
A   25
 H7 
A   26
 H8 
A   27
 H9 
A   28
 H10
A   29
 H11
A   30
 H12
A   31
 H13
A   32
 H14
M  END
>  <ref_pdb>  (54) 
x0051_0B

>  <ref_mols>  (54) 
x0951_0B,x0969_1B

>  <original SMILES>  (54) 
[H]c1c([H])c([H])c(C([H])([H])C([H])(c2nnc3c([H])c([H])c([H])c([H])n23)N([H])[H])c([H])c1[H]

>  <index>  (54) 
230

>  <∆∆G>  (54) 
-6.595268

>  <∆G_bound>  (54) 
-6.212562

>  <∆G_unbound>  (54) 
0.382706

>  <comRMSD>  (54) 
0.926381

>  <N_constrained_atoms>  (54) 
16.0

>  <N_unconstrained_atoms>  (54) 
5.0

>  <runtime>  (54) 
43.062882

>  <LE>  (54) 
0.31406

>  <percent_hybrid>  (54) 
25.0

>  <dist>  (54) 
12.0

>  <ecfp4>  (54) 
0.25

>  <daylight>  (54) 
0.350806

>  <topodist>  (54) 
4.0

>  <mces>  (54) 
20.0

>  <tdn>  (54) 
2.0

>  <tup>  (54) 
0.0

>  <rdn>  (54) 
1.0

>  <rup>  (54) 
0.0

>  <ldn>  (54) 
1.0

>  <lup>  (54) 
0.0

>  <mut>  (54) 
4.0

>  <maj>  (54) 
4.0

>  <min>  (54) 
0.0

>  <hyb>  (54) 
4.0

>  <sub>  (54) 
0.0

>  <query_index>  (54) 
201.0

>  <max_hit_Tanimoto>  (54) 
0.58606

>  <largest_ring>  (54) 
0

>  <N_interactions_kept>  (54) 
1.0

>  <N_interactions_lost>  (54) 
2.0

>  <interaction_uniqueness_metric>  (54) 
0.964943

>  <ad_hoc_penalty>  (54) 
-32.460009

>  <N_rotatable_bonds>  (54) 
4

>  <N_HA>  (54) 
18

>  <cluster>  (54) 
6010

>  <N_interactions>  (54) 
6

>  <Enamine>  (54) 
1

>  <Mcule>  (54) 
0

>  <N_PAINS>  (54) 
0

>  <UFF_Gibbs>  (54) 
106.392914

>  <strain_per_HA>  (54) 
5.910717

>  <saltbridge:HIS:51>  (54) 
0

>  <pistack:HIS:51>  (54) 
0

>  <hydroph_interaction:HIS:51>  (54) 
1

>  <hbond:ALA:132>  (54) 
0

>  <hbond:SER:135>  (54) 
0

>  <hydroph_interaction:TYR:150>  (54) 
1

>  <pistack:TYR:161>  (54) 
2

>  <hydroph_interaction:TYR:161>  (54) 
0

>  <hydroph_interaction:ASP:83>  (54) 
0

>  <hbond:TYR:130>  (54) 
0

>  <hydroph_interaction:ALA:132>  (54) 
0

>  <hbond:HIS:51>  (54) 
0

>  <hbond:ASP:129>  (54) 
0

>  <hbond:TYR:150>  (54) 
0

>  <hbond:GLY:151>  (54) 
0

>  <hbond:TYR:161>  (54) 
0

>  <hydroph_interaction:TYR:130>  (54) 
0

>  <hydroph_interaction:PRO:131>  (54) 
0

>  <hydroph_interaction:ASP:129>  (54) 
0

>  <saltbridge:ASP:75>  (54) 
0

>  <saltbridge:ASP:83>  (54) 
0

>  <hydroph_interaction:ASN:152>  (54) 
1

>  <halogenbond:TYR:150>  (54) 
0

>  <hbond:ASP:83>  (54) 
0

>  <hydroph_interaction:VAL:155>  (54) 
0

>  <pication:TYR:161>  (54) 
0

>  <hbond:PRO:131>  (54) 
0

>  <hbond:LEU:128>  (54) 
0

>  <saltbridge:ASP:129>  (54) 
0

>  <hbond:THR:134>  (54) 
0

>  <pication:HIS:51>  (54) 
0

>  <hbond:SER:81>  (54) 
0

>  <hbond:GLY:159>  (54) 
0

>  <hydroph_interaction:PRO:101>  (54) 
0

>  <hydroph_interaction:THR:134>  (54) 
0

>  <hbond:GLY:82>  (54) 
0

>  <hydroph_interaction:GLU:104>  (54) 
0

>  <hydroph_interaction:VAL:36>  (54) 
0

>  <hydroph_interaction:MET:49>  (54) 
1

>  <halogenbond:GLU:104>  (54) 
0

>  <hydroph_interaction:LYS:107>  (54) 
0

$$$$
AGPUGISCRBNNNN-UHFFFAOYSA-N
     RDKit          3D

 47 50  0  0  0  0  0  0  0  0999 V2000
   -7.7420    5.6540  -13.1880 N   0  0  0  0  0  0  0  0  0  0  0  0
   -8.0280    6.3940  -14.2810 C   0  0  0  0  0  0  0  0  0  0  0  0
   -7.2990    6.0250  -15.5330 C   0  0  0  0  0  0  0  0  0  0  0  0
   -8.0260    5.5080  -16.7150 C   0  0  0  0  0  0  0  0  0  0  0  0
   -6.9500    5.3170  -17.7390 C   0  0  0  0  0  0  0  0  0  0  0  0
   -7.3360    4.8560  -18.9840 C   0  0  0  0  0  0  0  0  0  0  0  0
   -8.6930    4.5810  -19.2360 C   0  0  0  0  0  0  0  0  0  0  0  0
   -9.7510    4.7830  -18.1370 C   0  0  0  0  0  0  0  0  0  0  0  0
   -9.3820    5.2550  -16.8750 C   0  0  0  0  0  0  0  0  0  0  0  0
   -5.6950    5.6450  -17.2470 N   0  0  0  0  0  0  0  0  0  0  0  0
   -4.4150    5.5710  -17.9440 C   0  0  0  0  0  0  0  0  0  0  0  0
   -3.3560    5.1030  -16.9720 C   0  0  0  0  0  0  0  0  0  0  0  0
   -5.9700    6.0750  -15.8950 C   0  0  0  0  0  0  0  0  0  0  0  0
   -8.7960    5.0880  -12.4260 C   0  0  0  0  0  0  0  0  0  0  0  0
   -8.7900    5.4500  -10.9480 C   0  0  0  0  0  0  0  0  0  0  0  0
   -8.9450    4.3810   -9.8970 C   0  0  0  0  0  0  0  0  0  0  0  0
   -8.9150    4.9380   -8.7170 N   0  0  0  0  0  0  0  0  0  0  0  0
   -9.0300    4.2290   -7.4670 C   0  0  0  0  0  0  0  0  0  0  0  0
   -9.5710    2.9460   -7.5830 C   0  0  0  0  0  0  0  0  0  0  0  0
   -9.4780    2.2000   -8.7670 C   0  0  0  0  0  0  0  0  0  0  0  0
   -9.1110    2.9220  -10.0550 C   0  0  0  0  0  0  0  0  0  0  0  0
   -8.7570    6.2960   -8.7800 N   0  0  0  0  0  0  0  0  0  0  0  0
   -8.6860    6.5840  -10.1130 C   0  0  0  0  0  0  0  0  0  0  0  0
   -6.9460    5.0170  -13.1940 H   0  0  0  0  0  0  0  0  0  0  0  0
   -7.8070    7.4460  -14.0620 H   0  0  0  0  0  0  0  0  0  0  0  0
   -9.1050    6.3400  -14.4800 H   0  0  0  0  0  0  0  0  0  0  0  0
   -6.5200    4.7360  -19.7020 H   0  0  0  0  0  0  0  0  0  0  0  0
   -8.9930    4.2170  -20.2220 H   0  0  0  0  0  0  0  0  0  0  0  0
  -10.7980    4.5650  -18.3340 H   0  0  0  0  0  0  0  0  0  0  0  0
  -10.1040    5.4150  -16.0820 H   0  0  0  0  0  0  0  0  0  0  0  0
   -4.5810    4.8990  -18.7830 H   0  0  0  0  0  0  0  0  0  0  0  0
   -4.2750    6.5640  -18.3880 H   0  0  0  0  0  0  0  0  0  0  0  0
   -2.6250    4.5070  -17.5250 H   0  0  0  0  0  0  0  0  0  0  0  0
   -3.6480    4.4980  -16.1170 H   0  0  0  0  0  0  0  0  0  0  0  0
   -2.8260    5.9830  -16.5950 H   0  0  0  0  0  0  0  0  0  0  0  0
   -5.2000    6.4170  -15.2130 H   0  0  0  0  0  0  0  0  0  0  0  0
   -8.7680    3.9920  -12.5140 H   0  0  0  0  0  0  0  0  0  0  0  0
   -9.7550    5.4090  -12.8470 H   0  0  0  0  0  0  0  0  0  0  0  0
   -9.6630    4.8260   -6.8120 H   0  0  0  0  0  0  0  0  0  0  0  0
   -8.0350    4.1610   -7.0240 H   0  0  0  0  0  0  0  0  0  0  0  0
   -9.1110    2.3550   -6.7880 H   0  0  0  0  0  0  0  0  0  0  0  0
  -10.6150    3.0020   -7.3130 H   0  0  0  0  0  0  0  0  0  0  0  0
   -8.7860    1.3690   -8.6470 H   0  0  0  0  0  0  0  0  0  0  0  0
  -10.4350    1.7560   -8.9100 H   0  0  0  0  0  0  0  0  0  0  0  0
   -9.9010    2.7500  -10.7930 H   0  0  0  0  0  0  0  0  0  0  0  0
   -8.2040    2.4960  -10.4880 H   0  0  0  0  0  0  0  0  0  0  0  0
   -8.5600    7.6550  -10.3100 H   0  0  0  0  0  0  0  0  0  0  0  0
  1  2  1  0
  2  3  1  0
  3  4  1  0
  4  5  1  0
  5  6  2  0
  6  7  1  0
  7  8  2  0
  8  9  1  0
  5 10  1  0
 10 11  1  0
 11 12  1  0
 10 13  1  0
  1 14  1  0
 14 15  1  0
 15 16  2  0
 16 17  1  0
 17 18  1  0
 18 19  1  0
 19 20  1  0
 20 21  1  0
 17 22  1  0
 22 23  2  0
  3 13  2  0
  9  4  2  0
 23 15  1  0
 21 16  1  0
  1 24  1  0
  2 25  1  0
  2 26  1  0
  6 27  1  0
  7 28  1  0
  8 29  1  0
  9 30  1  0
 11 31  1  0
 11 32  1  0
 12 33  1  0
 12 34  1  0
 12 35  1  0
 13 36  1  0
 14 37  1  0
 14 38  1  0
 18 39  1  0
 18 40  1  0
 19 41  1  0
 19 42  1  0
 20 43  1  0
 20 44  1  0
 21 45  1  0
 21 46  1  0
 23 47  1  0
A    1
 N1 
A    2
 C1 
A    3
 C2 
A    4
 C3 
A    5
 C4 
A    6
 C5 
A    7
 C6 
A    8
 C7 
A    9
 C8 
A   10
 N2 
A   11
 C9 
A   12
 C10
A   13
 C11
A   14
 C12
A   15
 C13
A   16
 C14
A   17
 N3 
A   18
 C15
A   19
 C16
A   20
 C17
A   21
 C18
A   22
 N4 
A   23
 C19
A   24
 H1 
A   25
 H2 
A   26
 H3 
A   27
 H4 
A   28
 H5 
A   29
 H6 
A   30
 H7 
A   31
 H8 
A   32
 H9 
A   33
 H10
A   34
 H11
A   35
 H12
A   36
 H13
A   37
 H14
A   38
 H15
A   39
 H16
A   40
 H17
A   41
 H18
A   42
 H19
A   43
 H20
A   44
 H21
A   45
 H22
A   46
 H23
A   47
 H24
M  END
>  <ref_pdb>  (55) 
x0051_0B

>  <ref_mols>  (55) 
x0472_0B,x0969_1B

>  <original SMILES>  (55) 
[H]c1nn2c(c1C([H])([H])N([H])C([H])([H])c1c([H])n(C([H])([H])C([H])([H])[H])c3c([H])c([H])c([H])c([H])c13)C([H])([H])C([H])([H])C([H])([H])C2([H])[H]

>  <index>  (55) 
66

>  <∆∆G>  (55) 
-8.075928

>  <∆G_bound>  (55) 
-7.916641

>  <∆G_unbound>  (55) 
0.159288

>  <comRMSD>  (55) 
0.819232

>  <N_constrained_atoms>  (55) 
23.0

>  <N_unconstrained_atoms>  (55) 
3.0

>  <runtime>  (55) 
47.401785

>  <LE>  (55) 
0.310613

>  <percent_hybrid>  (55) 
44.0

>  <dist>  (55) 
11.0

>  <ecfp4>  (55) 
0.208791

>  <daylight>  (55) 
0.274788

>  <topodist>  (55) 
4.0

>  <mces>  (55) 
25.0

>  <tdn>  (55) 
2.0

>  <tup>  (55) 
0.0

>  <rdn>  (55) 
1.0

>  <rup>  (55) 
1.0

>  <ldn>  (55) 
0.0

>  <lup>  (55) 
0.0

>  <mut>  (55) 
4.0

>  <maj>  (55) 
4.0

>  <min>  (55) 
0.0

>  <hyb>  (55) 
3.0

>  <sub>  (55) 
2.0

>  <query_index>  (55) 
24.0

>  <max_hit_Tanimoto>  (55) 
0.324171

>  <largest_ring>  (55) 
0

>  <N_interactions_kept>  (55) 
2.0

>  <N_interactions_lost>  (55) 
1.5

>  <interaction_uniqueness_metric>  (55) 
0.164319

>  <ad_hoc_penalty>  (55) 
-32.313709

>  <N_rotatable_bonds>  (55) 
6

>  <N_HA>  (55) 
23

>  <cluster>  (55) 
6158

>  <N_interactions>  (55) 
8

>  <Enamine>  (55) 
0

>  <Mcule>  (55) 
1

>  <N_PAINS>  (55) 
0

>  <UFF_Gibbs>  (55) 
129.366425

>  <strain_per_HA>  (55) 
5.624627

>  <saltbridge:HIS:51>  (55) 
0

>  <pistack:HIS:51>  (55) 
1

>  <hydroph_interaction:HIS:51>  (55) 
1

>  <hbond:ALA:132>  (55) 
0

>  <hbond:SER:135>  (55) 
0

>  <hydroph_interaction:TYR:150>  (55) 
1

>  <pistack:TYR:161>  (55) 
2

>  <hydroph_interaction:TYR:161>  (55) 
1

>  <hydroph_interaction:ASP:83>  (55) 
0

>  <hbond:TYR:130>  (55) 
0

>  <hydroph_interaction:ALA:132>  (55) 
1

>  <hbond:HIS:51>  (55) 
0

>  <hbond:ASP:129>  (55) 
0

>  <hbond:TYR:150>  (55) 
0

>  <hbond:GLY:151>  (55) 
0

>  <hbond:TYR:161>  (55) 
0

>  <hydroph_interaction:TYR:130>  (55) 
0

>  <hydroph_interaction:PRO:131>  (55) 
0

>  <hydroph_interaction:ASP:129>  (55) 
0

>  <saltbridge:ASP:75>  (55) 
0

>  <saltbridge:ASP:83>  (55) 
0

>  <hydroph_interaction:ASN:152>  (55) 
0

>  <halogenbond:TYR:150>  (55) 
0

>  <hbond:ASP:83>  (55) 
0

>  <hydroph_interaction:VAL:155>  (55) 
1

>  <pication:TYR:161>  (55) 
0

>  <hbond:PRO:131>  (55) 
0

>  <hbond:LEU:128>  (55) 
0

>  <saltbridge:ASP:129>  (55) 
0

>  <hbond:THR:134>  (55) 
0

>  <pication:HIS:51>  (55) 
0

>  <hbond:SER:81>  (55) 
0

>  <hbond:GLY:159>  (55) 
0

>  <hydroph_interaction:PRO:101>  (55) 
0

>  <hydroph_interaction:THR:134>  (55) 
0

>  <hbond:GLY:82>  (55) 
0

>  <hydroph_interaction:GLU:104>  (55) 
0

>  <hydroph_interaction:VAL:36>  (55) 
0

>  <hydroph_interaction:MET:49>  (55) 
0

>  <halogenbond:GLU:104>  (55) 
0

>  <hydroph_interaction:LYS:107>  (55) 
0

$$$$
Z2691848836
     RDKit          3D

 46 49  0  0  0  0  0  0  0  0999 V2000
   -7.8950    7.0710  -12.2560 O   0  0  0  0  0  0  0  0  0  0  0  0
   -8.5160    6.0630  -11.9430 C   0  0  0  0  0  0  0  0  0  0  0  0
   -9.0940    5.1740  -12.9410 N   0  0  0  0  0  0  0  0  0  0  0  0
   -9.0970    5.6980  -14.3240 C   0  0  0  0  0  0  0  0  0  0  0  0
   -8.0770    5.1090  -15.1670 C   0  0  0  0  0  0  0  0  0  0  0  0
   -6.6050    5.3640  -14.9840 C   0  0  0  0  0  0  0  0  0  0  0  0
   -5.9760    6.2170  -16.0870 C   0  0  0  0  0  0  0  0  0  0  0  0
   -6.0300    5.4820  -17.4290 C   0  0  0  0  0  0  0  0  0  0  0  0
   -7.4950    5.2270  -17.5950 C   0  0  0  0  0  0  0  0  0  0  0  0
   -8.0400    5.1280  -18.9940 C   0  0  0  0  0  0  0  0  0  0  0  0
   -9.3910    4.8910  -19.1980 C   0  0  0  0  0  0  0  0  0  0  0  0
  -10.2010    4.7590  -18.0910 C   0  0  0  0  0  0  0  0  0  0  0  0
   -9.7530    4.8450  -16.8060 N   0  0  0  0  0  0  0  0  0  0  0  0
   -8.4210    5.0660  -16.5480 C   0  0  0  0  0  0  0  0  0  0  0  0
   -8.6820    5.7460  -10.5130 C   0  0  0  0  0  0  0  0  0  0  0  0
   -8.8310    4.5500   -9.7850 C   0  0  0  0  0  0  0  0  0  0  0  0
   -8.8760    3.1240  -10.2240 C   0  0  0  0  0  0  0  0  0  0  0  0
   -8.7230    2.2610   -8.9830 C   0  0  0  0  0  0  0  0  0  0  0  0
   -9.5520    2.5720   -7.9020 C   0  0  0  0  0  0  0  0  0  0  0  0
   -9.1120    3.8160   -7.3960 C   0  0  0  0  0  0  0  0  0  0  0  0
   -8.9410    4.8260   -8.4490 N   0  0  0  0  0  0  0  0  0  0  0  0
   -8.8650    6.1720   -8.2580 C   0  0  0  0  0  0  0  0  0  0  0  0
   -8.7110    6.7600   -9.4980 C   0  0  0  0  0  0  0  0  0  0  0  0
   -9.8400    4.5480  -12.6710 H   0  0  0  0  0  0  0  0  0  0  0  0
  -10.0890    5.4600  -14.7280 H   0  0  0  0  0  0  0  0  0  0  0  0
   -8.9890    6.7890  -14.3040 H   0  0  0  0  0  0  0  0  0  0  0  0
   -8.1350    4.0560  -14.8780 H   0  0  0  0  0  0  0  0  0  0  0  0
   -6.0970    4.3990  -14.9230 H   0  0  0  0  0  0  0  0  0  0  0  0
   -6.4450    5.8600  -14.0190 H   0  0  0  0  0  0  0  0  0  0  0  0
   -4.9460    6.4700  -15.8090 H   0  0  0  0  0  0  0  0  0  0  0  0
   -6.5100    7.1700  -16.1690 H   0  0  0  0  0  0  0  0  0  0  0  0
   -5.6870    6.1100  -18.2600 H   0  0  0  0  0  0  0  0  0  0  0  0
   -5.4520    4.5530  -17.4200 H   0  0  0  0  0  0  0  0  0  0  0  0
   -7.4630    5.2270  -19.9220 H   0  0  0  0  0  0  0  0  0  0  0  0
   -9.7970    4.8170  -20.2020 H   0  0  0  0  0  0  0  0  0  0  0  0
  -11.2630    4.5780  -18.2110 H   0  0  0  0  0  0  0  0  0  0  0  0
   -8.0490    2.9220  -10.9150 H   0  0  0  0  0  0  0  0  0  0  0  0
   -9.8200    2.8830  -10.7260 H   0  0  0  0  0  0  0  0  0  0  0  0
   -7.6860    2.3620   -8.6490 H   0  0  0  0  0  0  0  0  0  0  0  0
   -8.8400    1.2190   -9.2430 H   0  0  0  0  0  0  0  0  0  0  0  0
  -10.5560    2.7330   -8.3070 H   0  0  0  0  0  0  0  0  0  0  0  0
   -9.7020    1.7820   -7.1730 H   0  0  0  0  0  0  0  0  0  0  0  0
   -8.1840    3.8080   -6.8260 H   0  0  0  0  0  0  0  0  0  0  0  0
   -9.8910    4.2190   -6.7380 H   0  0  0  0  0  0  0  0  0  0  0  0
   -8.9290    6.6100   -7.2710 H   0  0  0  0  0  0  0  0  0  0  0  0
   -8.6230    7.8240   -9.6790 H   0  0  0  0  0  0  0  0  0  0  0  0
  1  2  2  0
  2  3  1  0
  3  4  1  0
  4  5  1  0
  5  6  1  0
  6  7  1  0
  7  8  1  0
  8  9  1  0
  9 10  2  0
 10 11  1  0
 11 12  2  0
 12 13  1  0
 13 14  2  0
  2 15  1  0
 15 16  2  0
 16 17  1  0
 17 18  1  0
 18 19  1  0
 19 20  1  0
 20 21  1  0
 21 22  1  0
 22 23  2  0
 14  5  1  0
 14  9  1  0
 23 15  1  0
 21 16  1  0
  3 24  1  0
  4 25  1  0
  4 26  1  0
  5 27  1  0
  6 28  1  0
  6 29  1  0
  7 30  1  0
  7 31  1  0
  8 32  1  0
  8 33  1  0
 10 34  1  0
 11 35  1  0
 12 36  1  0
 17 37  1  0
 17 38  1  0
 18 39  1  0
 18 40  1  0
 19 41  1  0
 19 42  1  0
 20 43  1  0
 20 44  1  0
 22 45  1  0
 23 46  1  0
A    1
 O1 
A    2
 C1 
A    3
 N1 
A    4
 C2 
A    5
 C3 
A    6
 C4 
A    7
 C5 
A    8
 C6 
A    9
 C7 
A   10
 C8 
A   11
 C9 
A   12
 C10
A   13
 N2 
A   14
 C11
A   15
 C12
A   16
 C13
A   17
 C14
A   18
 C15
A   19
 C16
A   20
 C17
A   21
 N3 
A   22
 C18
A   23
 C19
A   24
 H1 
A   25
 H2 
A   26
 H3 
A   27
 H4 
A   28
 H5 
A   29
 H6 
A   30
 H7 
A   31
 H8 
A   32
 H9 
A   33
 H10
A   34
 H11
A   35
 H12
A   36
 H13
A   37
 H14
A   38
 H15
A   39
 H16
A   40
 H17
A   41
 H18
A   42
 H19
A   43
 H20
A   44
 H21
A   45
 H22
A   46
 H23
M  END
>  <ref_pdb>  (56) 
x0051_0B

>  <ref_mols>  (56) 
x0969_1B,x0455_0B

>  <original SMILES>  (56) 
[H]c1nc2c(c([H])c1[H])C([H])([H])C([H])([H])C([H])([H])C2([H])C([H])([H])N([H])C(=O)c1c([H])c([H])n2c1C([H])([H])C([H])([H])C([H])([H])C2([H])[H]

>  <index>  (56) 
103

>  <∆∆G>  (56) 
-7.660761

>  <∆G_bound>  (56) 
-5.938911

>  <∆G_unbound>  (56) 
1.72185

>  <comRMSD>  (56) 
0.325776

>  <N_constrained_atoms>  (56) 
20.0

>  <N_unconstrained_atoms>  (56) 
3.0

>  <runtime>  (56) 
41.303773

>  <LE>  (56) 
0.333077

>  <percent_hybrid>  (56) 
50.0

>  <dist>  (56) 
6.0

>  <ecfp4>  (56) 
0.241379

>  <daylight>  (56) 
0.284553

>  <topodist>  (56) 
1.0

>  <mces>  (56) 
25.0

>  <tdn>  (56) 
0.0

>  <tup>  (56) 
1.0

>  <rdn>  (56) 
0.0

>  <rup>  (56) 
0.0

>  <ldn>  (56) 
0.0

>  <lup>  (56) 
0.0

>  <mut>  (56) 
4.0

>  <maj>  (56) 
4.0

>  <min>  (56) 
0.0

>  <hyb>  (56) 
1.0

>  <sub>  (56) 
0.0

>  <query_index>  (56) 
204.0

>  <max_hit_Tanimoto>  (56) 
0.237592

>  <largest_ring>  (56) 
0

>  <N_interactions_kept>  (56) 
1.5

>  <N_interactions_lost>  (56) 
1.0

>  <interaction_uniqueness_metric>  (56) 
0.202929

>  <ad_hoc_penalty>  (56) 
-32.274557

>  <N_rotatable_bonds>  (56) 
3

>  <N_HA>  (56) 
23

>  <cluster>  (56) 
6122

>  <N_interactions>  (56) 
5

>  <Enamine>  (56) 
1

>  <Mcule>  (56) 
0

>  <N_PAINS>  (56) 
0

>  <UFF_Gibbs>  (56) 
80.589604

>  <strain_per_HA>  (56) 
3.503896

>  <saltbridge:HIS:51>  (56) 
0

>  <pistack:HIS:51>  (56) 
1

>  <hydroph_interaction:HIS:51>  (56) 
1

>  <hbond:ALA:132>  (56) 
0

>  <hbond:SER:135>  (56) 
0

>  <hydroph_interaction:TYR:150>  (56) 
1

>  <pistack:TYR:161>  (56) 
0

>  <hydroph_interaction:TYR:161>  (56) 
0

>  <hydroph_interaction:ASP:83>  (56) 
1

>  <hbond:TYR:130>  (56) 
0

>  <hydroph_interaction:ALA:132>  (56) 
0

>  <hbond:HIS:51>  (56) 
0

>  <hbond:ASP:129>  (56) 
0

>  <hbond:TYR:150>  (56) 
0

>  <hbond:GLY:151>  (56) 
1

>  <hbond:TYR:161>  (56) 
0

>  <hydroph_interaction:TYR:130>  (56) 
0

>  <hydroph_interaction:PRO:131>  (56) 
0

>  <hydroph_interaction:ASP:129>  (56) 
0

>  <saltbridge:ASP:75>  (56) 
0

>  <saltbridge:ASP:83>  (56) 
0

>  <hydroph_interaction:ASN:152>  (56) 
0

>  <halogenbond:TYR:150>  (56) 
0

>  <hbond:ASP:83>  (56) 
0

>  <hydroph_interaction:VAL:155>  (56) 
0

>  <pication:TYR:161>  (56) 
0

>  <hbond:PRO:131>  (56) 
0

>  <hbond:LEU:128>  (56) 
0

>  <saltbridge:ASP:129>  (56) 
0

>  <hbond:THR:134>  (56) 
0

>  <pication:HIS:51>  (56) 
0

>  <hbond:SER:81>  (56) 
0

>  <hbond:GLY:159>  (56) 
0

>  <hydroph_interaction:PRO:101>  (56) 
0

>  <hydroph_interaction:THR:134>  (56) 
0

>  <hbond:GLY:82>  (56) 
0

>  <hydroph_interaction:GLU:104>  (56) 
0

>  <hydroph_interaction:VAL:36>  (56) 
0

>  <hydroph_interaction:MET:49>  (56) 
0

>  <halogenbond:GLU:104>  (56) 
0

>  <hydroph_interaction:LYS:107>  (56) 
0

$$$$
NDACBRIAZDQKRJ-UHFFFAOYSA-N
     RDKit          3D

 45 47  0  0  0  0  0  0  0  0999 V2000
   -9.1100    6.6030  -14.1880 C   0  0  0  0  0  0  0  0  0  0  0  0
   -9.5050    5.6380  -15.1040 N   0  0  0  0  0  0  0  0  0  0  0  0
   -8.8060    5.4080  -16.2520 C   0  0  0  0  0  0  0  0  0  0  0  0
   -7.4430    5.6420  -16.2120 C   0  0  0  0  0  0  0  0  0  0  0  0
   -6.5940    5.4800  -17.3050 C   0  0  0  0  0  0  0  0  0  0  0  0
   -4.7320    5.8220  -17.1900 Br  0  0  0  0  0  0  0  0  0  0  0  0
   -7.1850    5.0290  -18.5770 N   0  0  0  0  0  0  0  0  0  0  0  0
   -8.5120    4.8080  -18.5430 C   0  0  0  0  0  0  0  0  0  0  0  0
   -8.9760    4.3830  -19.7720 C   0  0  0  0  0  0  0  0  0  0  0  0
   -9.3550    4.9700  -17.4520 C   0  0  0  0  0  0  0  0  0  0  0  0
   -8.7860    7.7440  -14.4130 O   0  0  0  0  0  0  0  0  0  0  0  0
   -9.0610    6.1420  -12.7910 C   0  0  0  0  0  0  0  0  0  0  0  0
   -8.9370    7.0880  -11.5970 C   0  0  0  0  0  0  0  0  0  0  0  0
   -8.9220    6.4650  -10.3440 C   0  0  0  0  0  0  0  0  0  0  0  0
   -9.0150    5.0740  -10.2020 C   0  0  0  0  0  0  0  0  0  0  0  0
   -9.0220    4.4550   -8.9640 N   0  0  0  0  0  0  0  0  0  0  0  0
   -9.4460    3.0240   -8.9860 C   0  0  0  0  0  0  0  0  0  0  0  0
   -9.7090    2.4550   -7.6060 C   0  0  0  0  0  0  0  0  0  0  0  0
   -9.7680    3.3530   -6.5640 N   0  0  0  0  0  0  0  0  0  0  0  0
  -11.0930    3.5850   -5.9680 C   0  0  0  0  0  0  0  0  0  0  0  0
   -8.8450    4.4990   -6.5550 C   0  0  0  0  0  0  0  0  0  0  0  0
   -8.2880    4.9300   -7.8990 C   0  0  0  0  0  0  0  0  0  0  0  0
   -9.1160    4.2500  -11.3310 C   0  0  0  0  0  0  0  0  0  0  0  0
   -9.1390    4.7810  -12.6000 C   0  0  0  0  0  0  0  0  0  0  0  0
   -9.9470    4.7890  -14.7680 H   0  0  0  0  0  0  0  0  0  0  0  0
   -6.9770    5.9770  -15.2920 H   0  0  0  0  0  0  0  0  0  0  0  0
   -8.1950    4.4400  -20.5380 H   0  0  0  0  0  0  0  0  0  0  0  0
   -9.8680    4.9390  -20.0860 H   0  0  0  0  0  0  0  0  0  0  0  0
   -9.2560    3.3350  -19.6290 H   0  0  0  0  0  0  0  0  0  0  0  0
  -10.4260    4.7600  -17.5690 H   0  0  0  0  0  0  0  0  0  0  0  0
   -8.8710    8.1620  -11.7170 H   0  0  0  0  0  0  0  0  0  0  0  0
   -8.8420    7.0780   -9.4510 H   0  0  0  0  0  0  0  0  0  0  0  0
   -8.6380    2.4370   -9.4320 H   0  0  0  0  0  0  0  0  0  0  0  0
  -10.2640    2.9350   -9.6930 H   0  0  0  0  0  0  0  0  0  0  0  0
  -10.5840    1.8200   -7.5050 H   0  0  0  0  0  0  0  0  0  0  0  0
   -8.8670    1.7890   -7.4100 H   0  0  0  0  0  0  0  0  0  0  0  0
  -11.8620    3.0020   -6.4850 H   0  0  0  0  0  0  0  0  0  0  0  0
  -11.1280    3.3300   -4.9170 H   0  0  0  0  0  0  0  0  0  0  0  0
  -11.3740    4.6400   -6.0520 H   0  0  0  0  0  0  0  0  0  0  0  0
   -9.2950    5.3600   -6.0490 H   0  0  0  0  0  0  0  0  0  0  0  0
   -7.9990    4.2000   -5.9220 H   0  0  0  0  0  0  0  0  0  0  0  0
   -7.2940    4.4820   -7.9910 H   0  0  0  0  0  0  0  0  0  0  0  0
   -8.0800    5.9870   -8.0350 H   0  0  0  0  0  0  0  0  0  0  0  0
   -9.1820    3.1780  -11.1790 H   0  0  0  0  0  0  0  0  0  0  0  0
   -9.2240    4.1130  -13.4540 H   0  0  0  0  0  0  0  0  0  0  0  0
  1  2  1  0
  2  3  1  0
  3  4  2  0
  4  5  1  0
  5  6  1  0
  5  7  2  0
  7  8  1  0
  8  9  1  0
  8 10  2  0
  1 11  2  0
  1 12  1  0
 12 13  2  0
 13 14  1  0
 14 15  2  0
 15 16  1  0
 16 17  1  0
 17 18  1  0
 18 19  1  0
 19 20  1  0
 19 21  1  0
 21 22  1  0
 15 23  1  0
 23 24  2  0
  3 10  1  0
 24 12  1  0
 22 16  1  0
  2 25  1  0
  4 26  1  0
  9 27  1  0
  9 28  1  0
  9 29  1  0
 10 30  1  0
 13 31  1  0
 14 32  1  0
 17 33  1  0
 17 34  1  0
 18 35  1  0
 18 36  1  0
 20 37  1  0
 20 38  1  0
 20 39  1  0
 21 40  1  0
 21 41  1  0
 22 42  1  0
 22 43  1  0
 23 44  1  0
 24 45  1  0
A    1
 C1 
A    2
 N1 
A    3
 C2 
A    4
 C3 
A    5
 C4 
A    6
BR1 
A    7
 N2 
A    8
 C5 
A    9
 C6 
A   10
 C7 
A   11
 O1 
A   12
 C8 
A   13
 C9 
A   14
 C10
A   15
 C11
A   16
 N3 
A   17
 C12
A   18
 C13
A   19
 N4 
A   20
 C14
A   21
 C15
A   22
 C16
A   23
 C17
A   24
 C18
A   25
 H1 
A   26
 H2 
A   27
 H3 
A   28
 H4 
A   29
 H5 
A   30
 H6 
A   31
 H7 
A   32
 H8 
A   33
 H9 
A   34
 H10
A   35
 H11
A   36
 H12
A   37
 H13
A   38
 H14
A   39
 H15
A   40
 H16
A   41
 H17
A   42
 H18
A   43
 H19
A   44
 H20
A   45
 H21
M  END
>  <ref_pdb>  (57) 
x0051_0B

>  <ref_mols>  (57) 
x0589_0B,x0404_0B

>  <original SMILES>  (57) 
[H]c1c([H])c(N2C([H])([H])C([H])([H])N(C([H])([H])[H])C([H])([H])C2([H])[H])c([H])c([H])c1C(=O)N([H])c1c([H])c(Br)nc(C([H])([H])[H])c1[H]

>  <index>  (57) 
96

>  <∆∆G>  (57) 
-7.651295

>  <∆G_bound>  (57) 
-7.209461

>  <∆G_unbound>  (57) 
0.441834

>  <comRMSD>  (57) 
0.724039

>  <N_constrained_atoms>  (57) 
21.0

>  <N_unconstrained_atoms>  (57) 
4.0

>  <runtime>  (57) 
73.311122

>  <LE>  (57) 
0.306052

>  <percent_hybrid>  (57) 
34.0

>  <dist>  (57) 
6.0

>  <ecfp4>  (57) 
0.227848

>  <daylight>  (57) 
0.295

>  <topodist>  (57) 
3.0

>  <mces>  (57) 
25.0

>  <tdn>  (57) 
1.0

>  <tup>  (57) 
1.0

>  <rdn>  (57) 
0.0

>  <rup>  (57) 
0.0

>  <ldn>  (57) 
1.0

>  <lup>  (57) 
0.0

>  <mut>  (57) 
2.0

>  <maj>  (57) 
2.0

>  <min>  (57) 
0.0

>  <hyb>  (57) 
1.0

>  <sub>  (57) 
1.0

>  <query_index>  (57) 
29.0

>  <max_hit_Tanimoto>  (57) 
0.295105

>  <largest_ring>  (57) 
0

>  <N_interactions_kept>  (57) 
1.0

>  <N_interactions_lost>  (57) 
2.5

>  <interaction_uniqueness_metric>  (57) 
0.436357

>  <ad_hoc_penalty>  (57) 
-32.256083

>  <N_rotatable_bonds>  (57) 
5

>  <N_HA>  (57) 
24

>  <cluster>  (57) 
6128

>  <N_interactions>  (57) 
9

>  <Enamine>  (57) 
0

>  <Mcule>  (57) 
1

>  <N_PAINS>  (57) 
0

>  <UFF_Gibbs>  (57) 
166.081001

>  <strain_per_HA>  (57) 
6.920042

>  <saltbridge:HIS:51>  (57) 
0

>  <pistack:HIS:51>  (57) 
1

>  <hydroph_interaction:HIS:51>  (57) 
1

>  <hbond:ALA:132>  (57) 
0

>  <hbond:SER:135>  (57) 
0

>  <hydroph_interaction:TYR:150>  (57) 
1

>  <pistack:TYR:161>  (57) 
1

>  <hydroph_interaction:TYR:161>  (57) 
1

>  <hydroph_interaction:ASP:83>  (57) 
0

>  <hbond:TYR:130>  (57) 
0

>  <hydroph_interaction:ALA:132>  (57) 
1

>  <hbond:HIS:51>  (57) 
1

>  <hbond:ASP:129>  (57) 
0

>  <hbond:TYR:150>  (57) 
0

>  <hbond:GLY:151>  (57) 
0

>  <hbond:TYR:161>  (57) 
0

>  <hydroph_interaction:TYR:130>  (57) 
0

>  <hydroph_interaction:PRO:131>  (57) 
0

>  <hydroph_interaction:ASP:129>  (57) 
0

>  <saltbridge:ASP:75>  (57) 
1

>  <saltbridge:ASP:83>  (57) 
1

>  <hydroph_interaction:ASN:152>  (57) 
0

>  <halogenbond:TYR:150>  (57) 
0

>  <hbond:ASP:83>  (57) 
0

>  <hydroph_interaction:VAL:155>  (57) 
0

>  <pication:TYR:161>  (57) 
0

>  <hbond:PRO:131>  (57) 
0

>  <hbond:LEU:128>  (57) 
0

>  <saltbridge:ASP:129>  (57) 
0

>  <hbond:THR:134>  (57) 
0

>  <pication:HIS:51>  (57) 
0

>  <hbond:SER:81>  (57) 
0

>  <hbond:GLY:159>  (57) 
0

>  <hydroph_interaction:PRO:101>  (57) 
0

>  <hydroph_interaction:THR:134>  (57) 
0

>  <hbond:GLY:82>  (57) 
0

>  <hydroph_interaction:GLU:104>  (57) 
0

>  <hydroph_interaction:VAL:36>  (57) 
0

>  <hydroph_interaction:MET:49>  (57) 
0

>  <halogenbond:GLU:104>  (57) 
0

>  <hydroph_interaction:LYS:107>  (57) 
0

$$$$
NGNAXSUMRCYTPD-UHFFFAOYSA-N
     RDKit          3D

 45 48  0  0  0  0  0  0  0  0999 V2000
   -8.6480    7.1260  -13.9820 C   0  0  0  0  0  0  0  0  0  0  0  0
   -7.8810    6.3680  -14.8670 N   0  0  0  0  0  0  0  0  0  0  0  0
   -8.2170    5.7990  -16.0870 C   0  0  0  0  0  0  0  0  0  0  0  0
   -7.2780    5.6560  -17.1270 C   0  0  0  0  0  0  0  0  0  0  0  0
   -7.6380    5.1380  -18.2980 C   0  0  0  0  0  0  0  0  0  0  0  0
   -6.6110    5.1020  -19.1830 C   0  0  0  0  0  0  0  0  0  0  0  0
   -5.4230    5.5640  -18.5760 C   0  0  0  0  0  0  0  0  0  0  0  0
   -5.8070    5.9820  -17.2620 C   0  0  0  0  0  0  0  0  0  0  0  0
   -6.7130    4.7150  -20.3320 O   0  0  0  0  0  0  0  0  0  0  0  0
   -8.9010    4.6880  -18.6080 C   0  0  0  0  0  0  0  0  0  0  0  0
   -9.8740    4.7880  -17.6050 C   0  0  0  0  0  0  0  0  0  0  0  0
   -9.5270    5.3340  -16.3660 C   0  0  0  0  0  0  0  0  0  0  0  0
   -9.1720    8.2280  -14.1210 O   0  0  0  0  0  0  0  0  0  0  0  0
   -8.7430    6.4410  -12.6790 C   0  0  0  0  0  0  0  0  0  0  0  0
   -8.6640    7.1540  -11.3590 C   0  0  0  0  0  0  0  0  0  0  0  0
   -8.4760    8.8660  -11.1860 Cl  0  0  0  0  0  0  0  0  0  0  0  0
   -8.7390    6.3940  -10.1890 C   0  0  0  0  0  0  0  0  0  0  0  0
   -8.8840    5.0030  -10.2330 C   0  0  0  0  0  0  0  0  0  0  0  0
   -8.9430    4.2670   -9.0810 N   0  0  0  0  0  0  0  0  0  0  0  0
   -9.1280    2.8060   -9.1540 C   0  0  0  0  0  0  0  0  0  0  0  0
   -9.6760    2.3530   -7.9580 C   0  0  0  0  0  0  0  0  0  0  0  0
   -8.8480    2.7160   -6.8490 O   0  0  0  0  0  0  0  0  0  0  0  0
   -8.8630    4.1390   -6.7220 C   0  0  0  0  0  0  0  0  0  0  0  0
   -8.3040    4.7580   -7.8450 C   0  0  0  0  0  0  0  0  0  0  0  0
   -8.9680    4.3650  -11.4830 C   0  0  0  0  0  0  0  0  0  0  0  0
   -8.9010    5.0650  -12.6850 C   0  0  0  0  0  0  0  0  0  0  0  0
   -6.9290    6.1720  -14.5560 H   0  0  0  0  0  0  0  0  0  0  0  0
   -4.7690    4.6970  -18.4640 H   0  0  0  0  0  0  0  0  0  0  0  0
   -4.8600    6.2870  -19.1590 H   0  0  0  0  0  0  0  0  0  0  0  0
   -5.6890    7.0420  -17.0590 H   0  0  0  0  0  0  0  0  0  0  0  0
   -5.2880    5.4750  -16.4510 H   0  0  0  0  0  0  0  0  0  0  0  0
   -9.1280    4.2750  -19.5860 H   0  0  0  0  0  0  0  0  0  0  0  0
  -10.8790    4.4420  -17.8060 H   0  0  0  0  0  0  0  0  0  0  0  0
  -10.2810    5.4160  -15.5920 H   0  0  0  0  0  0  0  0  0  0  0  0
   -8.6770    6.9070   -9.2320 H   0  0  0  0  0  0  0  0  0  0  0  0
   -9.8020    2.5650   -9.9860 H   0  0  0  0  0  0  0  0  0  0  0  0
   -8.1730    2.2890   -9.3070 H   0  0  0  0  0  0  0  0  0  0  0  0
  -10.6710    2.7810   -7.7950 H   0  0  0  0  0  0  0  0  0  0  0  0
   -9.7850    1.2710   -7.9660 H   0  0  0  0  0  0  0  0  0  0  0  0
   -8.3080    4.4010   -5.8140 H   0  0  0  0  0  0  0  0  0  0  0  0
   -9.9040    4.4540   -6.5810 H   0  0  0  0  0  0  0  0  0  0  0  0
   -7.2310    4.5410   -7.8970 H   0  0  0  0  0  0  0  0  0  0  0  0
   -8.4400    5.8320   -7.7290 H   0  0  0  0  0  0  0  0  0  0  0  0
   -9.0880    3.2860  -11.5470 H   0  0  0  0  0  0  0  0  0  0  0  0
   -8.9670    4.5150  -13.6250 H   0  0  0  0  0  0  0  0  0  0  0  0
  1  2  1  0
  2  3  1  0
  3  4  1  0
  4  5  2  0
  5  6  1  0
  6  7  1  0
  7  8  1  0
  6  9  2  0
  5 10  1  0
 10 11  2  0
 11 12  1  0
  1 13  2  0
  1 14  1  0
 14 15  2  0
 15 16  1  0
 15 17  1  0
 17 18  2  0
 18 19  1  0
 19 20  1  0
 20 21  1  0
 21 22  1  0
 22 23  1  0
 23 24  1  0
 18 25  1  0
 25 26  2  0
 12  3  2  0
  8  4  1  0
 26 14  1  0
 24 19  1  0
  2 27  1  0
  7 28  1  0
  7 29  1  0
  8 30  1  0
  8 31  1  0
 10 32  1  0
 11 33  1  0
 12 34  1  0
 17 35  1  0
 20 36  1  0
 20 37  1  0
 21 38  1  0
 21 39  1  0
 23 40  1  0
 23 41  1  0
 24 42  1  0
 24 43  1  0
 25 44  1  0
 26 45  1  0
A    1
 C1 
A    2
 N1 
A    3
 C2 
A    4
 C3 
A    5
 C4 
A    6
 C5 
A    7
 C6 
A    8
 C7 
A    9
 O1 
A   10
 C8 
A   11
 C9 
A   12
 C10
A   13
 O2 
A   14
 C11
A   15
 C12
A   16
CL1 
A   17
 C13
A   18
 C14
A   19
 N2 
A   20
 C15
A   21
 C16
A   22
 O3 
A   23
 C17
A   24
 C18
A   25
 C19
A   26
 C20
A   27
 H1 
A   28
 H2 
A   29
 H3 
A   30
 H4 
A   31
 H5 
A   32
 H6 
A   33
 H7 
A   34
 H8 
A   35
 H9 
A   36
 H10
A   37
 H11
A   38
 H12
A   39
 H13
A   40
 H14
A   41
 H15
A   42
 H16
A   43
 H17
A   44
 H18
A   45
 H19
M  END
>  <ref_pdb>  (58) 
x0051_0B

>  <ref_mols>  (58) 
x0435_0B,x0404_0B

>  <original SMILES>  (58) 
[H]c1c([H])c2c(c(N([H])C(=O)c3c([H])c([H])c(N4C([H])([H])C([H])([H])OC([H])([H])C4([H])[H])c([H])c3Cl)c1[H])C([H])([H])C([H])([H])C2=O

>  <index>  (58) 
97

>  <∆∆G>  (58) 
-7.62368

>  <∆G_bound>  (58) 
-6.748519

>  <∆G_unbound>  (58) 
0.87516

>  <comRMSD>  (58) 
0.502044

>  <N_constrained_atoms>  (58) 
25.0

>  <N_unconstrained_atoms>  (58) 
1.0

>  <runtime>  (58) 
79.669917

>  <LE>  (58) 
0.293218

>  <percent_hybrid>  (58) 
40.0

>  <dist>  (58) 
10.0

>  <ecfp4>  (58) 
0.150538

>  <daylight>  (58) 
0.193878

>  <topodist>  (58) 
3.0

>  <mces>  (58) 
28.0

>  <tdn>  (58) 
1.0

>  <tup>  (58) 
1.0

>  <rdn>  (58) 
0.0

>  <rup>  (58) 
0.0

>  <ldn>  (58) 
1.0

>  <lup>  (58) 
0.0

>  <mut>  (58) 
6.0

>  <maj>  (58) 
6.0

>  <min>  (58) 
0.0

>  <hyb>  (58) 
1.0

>  <sub>  (58) 
1.0

>  <query_index>  (58) 
26.0

>  <max_hit_Tanimoto>  (58) 
0.202595

>  <largest_ring>  (58) 
0

>  <N_interactions_kept>  (58) 
3.0

>  <N_interactions_lost>  (58) 
1.5

>  <interaction_uniqueness_metric>  (58) 
0.104006

>  <ad_hoc_penalty>  (58) 
-32.245883

>  <N_rotatable_bonds>  (58) 
3

>  <N_HA>  (58) 
26

>  <cluster>  (58) 
6127

>  <N_interactions>  (58) 
6

>  <Enamine>  (58) 
0

>  <Mcule>  (58) 
1

>  <N_PAINS>  (58) 
0

>  <UFF_Gibbs>  (58) 
88.604896

>  <strain_per_HA>  (58) 
3.407881

>  <saltbridge:HIS:51>  (58) 
0

>  <pistack:HIS:51>  (58) 
1

>  <hydroph_interaction:HIS:51>  (58) 
1

>  <hbond:ALA:132>  (58) 
0

>  <hbond:SER:135>  (58) 
0

>  <hydroph_interaction:TYR:150>  (58) 
0

>  <pistack:TYR:161>  (58) 
0

>  <hydroph_interaction:TYR:161>  (58) 
3

>  <hydroph_interaction:ASP:83>  (58) 
0

>  <hbond:TYR:130>  (58) 
0

>  <hydroph_interaction:ALA:132>  (58) 
1

>  <hbond:HIS:51>  (58) 
0

>  <hbond:ASP:129>  (58) 
0

>  <hbond:TYR:150>  (58) 
0

>  <hbond:GLY:151>  (58) 
0

>  <hbond:TYR:161>  (58) 
0

>  <hydroph_interaction:TYR:130>  (58) 
0

>  <hydroph_interaction:PRO:131>  (58) 
0

>  <hydroph_interaction:ASP:129>  (58) 
0

>  <saltbridge:ASP:75>  (58) 
0

>  <saltbridge:ASP:83>  (58) 
0

>  <hydroph_interaction:ASN:152>  (58) 
0

>  <halogenbond:TYR:150>  (58) 
0

>  <hbond:ASP:83>  (58) 
0

>  <hydroph_interaction:VAL:155>  (58) 
0

>  <pication:TYR:161>  (58) 
0

>  <hbond:PRO:131>  (58) 
0

>  <hbond:LEU:128>  (58) 
0

>  <saltbridge:ASP:129>  (58) 
0

>  <hbond:THR:134>  (58) 
0

>  <pication:HIS:51>  (58) 
0

>  <hbond:SER:81>  (58) 
0

>  <hbond:GLY:159>  (58) 
0

>  <hydroph_interaction:PRO:101>  (58) 
0

>  <hydroph_interaction:THR:134>  (58) 
0

>  <hbond:GLY:82>  (58) 
0

>  <hydroph_interaction:GLU:104>  (58) 
0

>  <hydroph_interaction:VAL:36>  (58) 
0

>  <hydroph_interaction:MET:49>  (58) 
0

>  <halogenbond:GLU:104>  (58) 
0

>  <hydroph_interaction:LYS:107>  (58) 
0

$$$$
XQLHBAQCEZUXGO-UHFFFAOYSA-N
     RDKit          3D

 38 41  0  0  0  0  0  0  0  0999 V2000
   -8.4130    4.9730  -13.5020 O   0  0  0  0  0  0  0  0  0  0  0  0
   -8.8650    5.8700  -12.5180 C   0  0  0  0  0  0  0  0  0  0  0  0
   -9.2860    6.9740  -12.8520 O   0  0  0  0  0  0  0  0  0  0  0  0
   -8.8590    5.5650  -11.0460 C   0  0  0  0  0  0  0  0  0  0  0  0
   -8.9380    4.4040  -10.2430 C   0  0  0  0  0  0  0  0  0  0  0  0
   -8.8970    4.8460   -8.9220 N   0  0  0  0  0  0  0  0  0  0  0  0
   -8.9680    3.9940   -7.7380 C   0  0  0  0  0  0  0  0  0  0  0  0
   -9.3570    2.5900   -8.1410 C   0  0  0  0  0  0  0  0  0  0  0  0
   -8.5830    2.2900   -9.4140 C   0  0  0  0  0  0  0  0  0  0  0  0
   -9.0410    3.1040  -10.5010 O   0  0  0  0  0  0  0  0  0  0  0  0
   -8.7890    6.1650   -8.7900 N   0  0  0  0  0  0  0  0  0  0  0  0
   -8.7670    6.5940  -10.0590 C   0  0  0  0  0  0  0  0  0  0  0  0
   -7.7830    5.5840  -14.7080 C   0  0  0  0  0  0  0  0  0  0  0  0
   -8.3460    5.2770  -16.1130 C   0  0  0  0  0  0  0  0  0  0  0  0
   -7.4880    5.3070  -17.2370 C   0  0  0  0  0  0  0  0  0  0  0  0
   -7.9570    5.0500  -18.5350 C   0  0  0  0  0  0  0  0  0  0  0  0
   -9.2930    4.7540  -18.7530 C   0  0  0  0  0  0  0  0  0  0  0  0
  -10.1510    4.7190  -17.6670 C   0  0  0  0  0  0  0  0  0  0  0  0
   -9.6900    4.9750  -16.3600 C   0  0  0  0  0  0  0  0  0  0  0  0
   -6.1500    5.5830  -17.1720 O   0  0  0  0  0  0  0  0  0  0  0  0
   -5.6250    5.9090  -15.8770 C   0  0  0  0  0  0  0  0  0  0  0  0
   -6.3140    5.1870  -14.7270 C   0  0  0  0  0  0  0  0  0  0  0  0
   -9.6960    4.4190   -7.0390 H   0  0  0  0  0  0  0  0  0  0  0  0
   -7.9720    4.0070   -7.2790 H   0  0  0  0  0  0  0  0  0  0  0  0
  -10.4390    2.5020   -8.2930 H   0  0  0  0  0  0  0  0  0  0  0  0
   -9.0590    1.8870   -7.3540 H   0  0  0  0  0  0  0  0  0  0  0  0
   -8.6290    1.2450   -9.6920 H   0  0  0  0  0  0  0  0  0  0  0  0
   -7.5250    2.5310   -9.2650 H   0  0  0  0  0  0  0  0  0  0  0  0
   -8.6890    7.6590  -10.2370 H   0  0  0  0  0  0  0  0  0  0  0  0
   -7.7840    6.6740  -14.5900 H   0  0  0  0  0  0  0  0  0  0  0  0
   -7.2690    5.0820  -19.3750 H   0  0  0  0  0  0  0  0  0  0  0  0
   -9.6520    4.5570  -19.7580 H   0  0  0  0  0  0  0  0  0  0  0  0
  -11.1990    4.4930  -17.8330 H   0  0  0  0  0  0  0  0  0  0  0  0
  -10.3880    4.9390  -15.5280 H   0  0  0  0  0  0  0  0  0  0  0  0
   -4.5650    5.6210  -15.8910 H   0  0  0  0  0  0  0  0  0  0  0  0
   -5.6480    7.0010  -15.7490 H   0  0  0  0  0  0  0  0  0  0  0  0
   -5.8330    5.4550  -13.7810 H   0  0  0  0  0  0  0  0  0  0  0  0
   -6.2190    4.1110  -14.8620 H   0  0  0  0  0  0  0  0  0  0  0  0
  1  2  1  0
  2  3  2  0
  2  4  1  0
  4  5  2  0
  5  6  1  0
  6  7  1  0
  7  8  1  0
  8  9  1  0
  9 10  1  0
  6 11  1  0
 11 12  2  0
  1 13  1  0
 13 14  1  0
 14 15  1  0
 15 16  2  0
 16 17  1  0
 17 18  2  0
 18 19  1  0
 15 20  1  0
 20 21  1  0
 21 22  1  0
 12  4  1  0
 10  5  1  0
 22 13  1  0
 19 14  2  0
  7 23  1  0
  7 24  1  0
  8 25  1  0
  8 26  1  0
  9 27  1  0
  9 28  1  0
 12 29  1  0
 13 30  1  0
 16 31  1  0
 17 32  1  0
 18 33  1  0
 19 34  1  0
 21 35  1  0
 21 36  1  0
 22 37  1  0
 22 38  1  0
A    1
 O1 
A    2
 C1 
A    3
 O2 
A    4
 C2 
A    5
 C3 
A    6
 N1 
A    7
 C4 
A    8
 C5 
A    9
 C6 
A   10
 O3 
A   11
 N2 
A   12
 C7 
A   13
 C8 
A   14
 C9 
A   15
 C10
A   16
 C11
A   17
 C12
A   18
 C13
A   19
 C14
A   20
 O4 
A   21
 C15
A   22
 C16
A   23
 H1 
A   24
 H2 
A   25
 H3 
A   26
 H4 
A   27
 H5 
A   28
 H6 
A   29
 H7 
A   30
 H8 
A   31
 H9 
A   32
 H10
A   33
 H11
A   34
 H12
A   35
 H13
A   36
 H14
A   37
 H15
A   38
 H16
M  END
>  <ref_pdb>  (59) 
x0051_0B

>  <ref_mols>  (59) 
x0969_1B,x0455_0B

>  <original SMILES>  (59) 
[H]c1nn2c(c1C(=O)OC1([H])c3c([H])c([H])c([H])c([H])c3OC([H])([H])C1([H])[H])OC([H])([H])C([H])([H])C2([H])[H]

>  <index>  (59) 
118

>  <∆∆G>  (59) 
-6.495939

>  <∆G_bound>  (59) 
-5.287713

>  <∆G_unbound>  (59) 
1.208227

>  <comRMSD>  (59) 
0.51774

>  <N_constrained_atoms>  (59) 
20.0

>  <N_unconstrained_atoms>  (59) 
2.0

>  <runtime>  (59) 
47.401294

>  <LE>  (59) 
0.29527

>  <percent_hybrid>  (59) 
50.0

>  <dist>  (59) 
7.0

>  <ecfp4>  (59) 
0.223529

>  <daylight>  (59) 
0.279133

>  <topodist>  (59) 
2.0

>  <mces>  (59) 
24.0

>  <tdn>  (59) 
0.0

>  <tup>  (59) 
1.0

>  <rdn>  (59) 
0.0

>  <rup>  (59) 
0.0

>  <ldn>  (59) 
1.0

>  <lup>  (59) 
0.0

>  <mut>  (59) 
4.0

>  <maj>  (59) 
4.0

>  <min>  (59) 
0.0

>  <hyb>  (59) 
1.0

>  <sub>  (59) 
0.0

>  <query_index>  (59) 
204.0

>  <max_hit_Tanimoto>  (59) 
0.232745

>  <largest_ring>  (59) 
0

>  <N_interactions_kept>  (59) 
1.5

>  <N_interactions_lost>  (59) 
1.0

>  <interaction_uniqueness_metric>  (59) 
0.145613

>  <ad_hoc_penalty>  (59) 
-32.228028

>  <N_rotatable_bonds>  (59) 
2

>  <N_HA>  (59) 
22

>  <cluster>  (59) 
6109

>  <N_interactions>  (59) 
5

>  <Enamine>  (59) 
0

>  <Mcule>  (59) 
1

>  <N_PAINS>  (59) 
0

>  <UFF_Gibbs>  (59) 
52.905605

>  <strain_per_HA>  (59) 
2.4048

>  <saltbridge:HIS:51>  (59) 
1

>  <pistack:HIS:51>  (59) 
1

>  <hydroph_interaction:HIS:51>  (59) 
0

>  <hbond:ALA:132>  (59) 
0

>  <hbond:SER:135>  (59) 
0

>  <hydroph_interaction:TYR:150>  (59) 
1

>  <pistack:TYR:161>  (59) 
0

>  <hydroph_interaction:TYR:161>  (59) 
2

>  <hydroph_interaction:ASP:83>  (59) 
0

>  <hbond:TYR:130>  (59) 
0

>  <hydroph_interaction:ALA:132>  (59) 
0

>  <hbond:HIS:51>  (59) 
0

>  <hbond:ASP:129>  (59) 
0

>  <hbond:TYR:150>  (59) 
0

>  <hbond:GLY:151>  (59) 
0

>  <hbond:TYR:161>  (59) 
0

>  <hydroph_interaction:TYR:130>  (59) 
0

>  <hydroph_interaction:PRO:131>  (59) 
0

>  <hydroph_interaction:ASP:129>  (59) 
0

>  <saltbridge:ASP:75>  (59) 
0

>  <saltbridge:ASP:83>  (59) 
0

>  <hydroph_interaction:ASN:152>  (59) 
0

>  <halogenbond:TYR:150>  (59) 
0

>  <hbond:ASP:83>  (59) 
0

>  <hydroph_interaction:VAL:155>  (59) 
0

>  <pication:TYR:161>  (59) 
0

>  <hbond:PRO:131>  (59) 
0

>  <hbond:LEU:128>  (59) 
0

>  <saltbridge:ASP:129>  (59) 
0

>  <hbond:THR:134>  (59) 
0

>  <pication:HIS:51>  (59) 
0

>  <hbond:SER:81>  (59) 
0

>  <hbond:GLY:159>  (59) 
0

>  <hydroph_interaction:PRO:101>  (59) 
0

>  <hydroph_interaction:THR:134>  (59) 
0

>  <hbond:GLY:82>  (59) 
0

>  <hydroph_interaction:GLU:104>  (59) 
0

>  <hydroph_interaction:VAL:36>  (59) 
0

>  <hydroph_interaction:MET:49>  (59) 
0

>  <halogenbond:GLU:104>  (59) 
0

>  <hydroph_interaction:LYS:107>  (59) 
0

$$$$
MCULE-4548987726
     RDKit          3D

 33 34  0  0  0  0  0  0  0  0999 V2000
   -7.5460    5.6120  -17.9160 C   0  0  0  0  0  0  0  0  0  0  0  0
   -7.9990    5.4560  -19.2220 C   0  0  0  0  0  0  0  0  0  0  0  0
   -9.2990    4.9810  -19.4690 C   0  0  0  0  0  0  0  0  0  0  0  0
  -10.1990    4.6400  -18.3220 C   0  0  0  0  0  0  0  0  0  0  0  0
   -9.7700    4.7790  -17.0220 C   0  0  0  0  0  0  0  0  0  0  0  0
   -8.4870    5.2480  -16.7790 C   0  0  0  0  0  0  0  0  0  0  0  0
   -8.0700    5.3740  -15.3080 C   0  0  0  0  0  0  0  0  0  0  0  0
   -6.1360    6.1450  -17.6580 C   0  0  0  0  0  0  0  0  0  0  0  0
   -5.1500    5.0380  -17.3510 C   0  0  0  0  0  0  0  0  0  0  0  0
   -4.0390    5.7180  -16.5760 C   0  0  0  0  0  0  0  0  0  0  0  0
   -3.1950    4.7430  -15.7470 C   0  0  0  0  0  0  0  0  0  0  0  0
   -2.3680    3.7970  -16.6090 C   0  0  0  0  0  0  0  0  0  0  0  0
   -4.7300    6.7070  -15.7380 N   0  0  0  0  0  0  0  0  0  0  0  0
   -5.9460    7.1010  -16.4690 C   0  0  0  0  0  0  0  0  0  0  0  0
   -7.3700    5.6990  -20.0770 H   0  0  0  0  0  0  0  0  0  0  0  0
   -9.6450    4.8620  -20.4900 H   0  0  0  0  0  0  0  0  0  0  0  0
  -11.2160    4.2750  -18.5030 H   0  0  0  0  0  0  0  0  0  0  0  0
  -10.4360    4.5250  -16.2010 H   0  0  0  0  0  0  0  0  0  0  0  0
   -8.2570    6.3660  -14.8860 H   0  0  0  0  0  0  0  0  0  0  0  0
   -7.0000    5.1660  -15.2090 H   0  0  0  0  0  0  0  0  0  0  0  0
   -8.6320    4.6640  -14.6910 H   0  0  0  0  0  0  0  0  0  0  0  0
   -5.8170    6.6860  -18.5540 H   0  0  0  0  0  0  0  0  0  0  0  0
   -4.7710    4.5750  -18.2660 H   0  0  0  0  0  0  0  0  0  0  0  0
   -5.5970    4.2550  -16.7490 H   0  0  0  0  0  0  0  0  0  0  0  0
   -3.3850    6.2540  -17.2720 H   0  0  0  0  0  0  0  0  0  0  0  0
   -2.5260    5.2890  -15.0700 H   0  0  0  0  0  0  0  0  0  0  0  0
   -3.8610    4.1410  -15.1140 H   0  0  0  0  0  0  0  0  0  0  0  0
   -2.3710    2.7850  -16.1910 H   0  0  0  0  0  0  0  0  0  0  0  0
   -2.7580    3.7520  -17.6310 H   0  0  0  0  0  0  0  0  0  0  0  0
   -1.3310    4.1330  -16.6570 H   0  0  0  0  0  0  0  0  0  0  0  0
   -4.1430    7.5280  -15.5960 H   0  0  0  0  0  0  0  0  0  0  0  0
   -5.7750    8.1120  -16.8580 H   0  0  0  0  0  0  0  0  0  0  0  0
   -6.8120    7.1640  -15.8040 H   0  0  0  0  0  0  0  0  0  0  0  0
  1  2  2  0
  2  3  1  0
  3  4  2  0
  4  5  1  0
  5  6  2  0
  6  7  1  0
  1  8  1  0
  8  9  1  0
  9 10  1  0
 10 11  1  0
 11 12  1  0
 10 13  1  0
 13 14  1  0
  1  6  1  0
 14  8  1  0
  2 15  1  0
  3 16  1  0
  4 17  1  0
  5 18  1  0
  7 19  1  0
  7 20  1  0
  7 21  1  0
  8 22  1  0
  9 23  1  0
  9 24  1  0
 10 25  1  0
 11 26  1  0
 11 27  1  0
 12 28  1  0
 12 29  1  0
 12 30  1  0
 13 31  1  0
 14 32  1  0
 14 33  1  0
A    1
 C1 
A    2
 C2 
A    3
 C3 
A    4
 C4 
A    5
 C5 
A    6
 C6 
A    7
 C7 
A    8
 C8 
A    9
 C9 
A   10
 C10
A   11
 C11
A   12
 C12
A   13
 N1 
A   14
 C13
A   15
 H1 
A   16
 H2 
A   17
 H3 
A   18
 H4 
A   19
 H5 
A   20
 H6 
A   21
 H7 
A   22
 H8 
A   23
 H9 
A   24
 H10
A   25
 H11
A   26
 H12
A   27
 H13
A   28
 H14
A   29
 H15
A   30
 H16
A   31
 H17
A   32
 H18
A   33
 H19
M  END
>  <ref_pdb>  (60) 
x0051_0B

>  <ref_mols>  (60) 
x0227_0B,x0693_0B

>  <original SMILES>  (60) 
[H]c1c([H])c([H])c(C2([H])C([H])([H])N([H])C([H])(C([H])([H])C([H])([H])[H])C2([H])[H])c(C([H])([H])[H])c1[H]

>  <index>  (60) 
106

>  <∆∆G>  (60) 
-7.474274

>  <∆G_bound>  (60) 
-7.358124

>  <∆G_unbound>  (60) 
0.11615

>  <comRMSD>  (60) 
0.660588

>  <N_constrained_atoms>  (60) 
15.0

>  <N_unconstrained_atoms>  (60) 
2.0

>  <runtime>  (60) 
23.295746

>  <LE>  (60) 
0.439663

>  <percent_hybrid>  (60) 
38.0

>  <dist>  (60) 
4.0

>  <ecfp4>  (60) 
0.226415

>  <daylight>  (60) 
0.383333

>  <topodist>  (60) 
3.0

>  <mces>  (60) 
14.0

>  <tdn>  (60) 
1.0

>  <tup>  (60) 
0.0

>  <rdn>  (60) 
1.0

>  <rup>  (60) 
1.0

>  <ldn>  (60) 
0.0

>  <lup>  (60) 
0.0

>  <mut>  (60) 
1.0

>  <maj>  (60) 
1.0

>  <min>  (60) 
0.0

>  <hyb>  (60) 
0.0

>  <sub>  (60) 
3.0

>  <query_index>  (60) 
291.0

>  <max_hit_Tanimoto>  (60) 
0.269289

>  <largest_ring>  (60) 
0

>  <N_interactions_kept>  (60) 
4.0

>  <N_interactions_lost>  (60) 
2.0

>  <interaction_uniqueness_metric>  (60) 
0.091664

>  <ad_hoc_penalty>  (60) 
-32.159061

>  <N_rotatable_bonds>  (60) 
4

>  <N_HA>  (60) 
14

>  <cluster>  (60) 
6120

>  <N_interactions>  (60) 
8

>  <Enamine>  (60) 
0

>  <Mcule>  (60) 
1

>  <N_PAINS>  (60) 
0

>  <UFF_Gibbs>  (60) 
33.128584

>  <strain_per_HA>  (60) 
2.366327

>  <saltbridge:HIS:51>  (60) 
0

>  <pistack:HIS:51>  (60) 
0

>  <hydroph_interaction:HIS:51>  (60) 
0

>  <hbond:ALA:132>  (60) 
0

>  <hbond:SER:135>  (60) 
0

>  <hydroph_interaction:TYR:150>  (60) 
1

>  <pistack:TYR:161>  (60) 
0

>  <hydroph_interaction:TYR:161>  (60) 
5

>  <hydroph_interaction:ASP:83>  (60) 
0

>  <hbond:TYR:130>  (60) 
0

>  <hydroph_interaction:ALA:132>  (60) 
1

>  <hbond:HIS:51>  (60) 
0

>  <hbond:ASP:129>  (60) 
0

>  <hbond:TYR:150>  (60) 
0

>  <hbond:GLY:151>  (60) 
0

>  <hbond:TYR:161>  (60) 
0

>  <hydroph_interaction:TYR:130>  (60) 
0

>  <hydroph_interaction:PRO:131>  (60) 
0

>  <hydroph_interaction:ASP:129>  (60) 
0

>  <saltbridge:ASP:75>  (60) 
0

>  <saltbridge:ASP:83>  (60) 
0

>  <hydroph_interaction:ASN:152>  (60) 
0

>  <halogenbond:TYR:150>  (60) 
0

>  <hbond:ASP:83>  (60) 
0

>  <hydroph_interaction:VAL:155>  (60) 
1

>  <pication:TYR:161>  (60) 
0

>  <hbond:PRO:131>  (60) 
0

>  <hbond:LEU:128>  (60) 
0

>  <saltbridge:ASP:129>  (60) 
0

>  <hbond:THR:134>  (60) 
0

>  <pication:HIS:51>  (60) 
0

>  <hbond:SER:81>  (60) 
0

>  <hbond:GLY:159>  (60) 
0

>  <hydroph_interaction:PRO:101>  (60) 
0

>  <hydroph_interaction:THR:134>  (60) 
0

>  <hbond:GLY:82>  (60) 
0

>  <hydroph_interaction:GLU:104>  (60) 
0

>  <hydroph_interaction:VAL:36>  (60) 
0

>  <hydroph_interaction:MET:49>  (60) 
0

>  <halogenbond:GLU:104>  (60) 
0

>  <hydroph_interaction:LYS:107>  (60) 
0

$$$$
Z2962752765
     RDKit          3D

 45 48  0  0  0  0  0  0  0  0999 V2000
   -7.1540    3.8270  -12.5790 O   0  0  0  0  0  0  0  0  0  0  0  0
   -7.9960    4.6540  -12.9170 C   0  0  0  0  0  0  0  0  0  0  0  0
   -8.5230    5.6860  -11.9800 C   0  0  0  0  0  0  0  0  0  0  0  0
   -8.6730    5.5240  -10.6040 C   0  0  0  0  0  0  0  0  0  0  0  0
   -9.0130    4.3500   -9.7670 C   0  0  0  0  0  0  0  0  0  0  0  0
   -9.2930    2.9650  -10.3290 C   0  0  0  0  0  0  0  0  0  0  0  0
   -9.5030    1.9890   -9.1600 C   0  0  0  0  0  0  0  0  0  0  0  0
   -9.7800    2.6390   -7.7850 C   0  0  0  0  0  0  0  0  0  0  0  0
   -9.3060    3.8450   -7.3850 C   0  0  0  0  0  0  0  0  0  0  0  0
   -9.0210    4.7320   -8.4860 N   0  0  0  0  0  0  0  0  0  0  0  0
   -8.7310    6.0420   -8.3330 N   0  0  0  0  0  0  0  0  0  0  0  0
   -8.5270    6.5120   -9.5870 C   0  0  0  0  0  0  0  0  0  0  0  0
   -8.5240    4.7310  -14.1880 N   0  0  0  0  0  0  0  0  0  0  0  0
   -7.8320    5.4680  -15.2300 C   0  0  1  0  0  0  0  0  0  0  0  0
   -6.4680    5.1970  -15.1810 C   0  0  0  0  0  0  0  0  0  0  0  0
   -5.6990    5.8160  -16.1650 C   0  0  0  0  0  0  0  0  0  0  0  0
   -6.0890    5.6000  -17.4750 C   0  0  0  0  0  0  0  0  0  0  0  0
   -7.5230    5.2770  -17.7150 C   0  0  0  0  0  0  0  0  0  0  0  0
   -8.0030    5.0530  -18.9980 C   0  0  0  0  0  0  0  0  0  0  0  0
   -9.3390    4.7590  -19.1760 C   0  0  0  0  0  0  0  0  0  0  0  0
  -10.1540    4.7000  -18.0530 C   0  0  0  0  0  0  0  0  0  0  0  0
   -9.7180    4.9120  -16.7870 N   0  0  0  0  0  0  0  0  0  0  0  0
   -8.3970    5.2010  -16.6320 C   0  0  0  0  0  0  0  0  0  0  0  0
   -7.9020    6.5730  -12.1480 H   0  0  0  0  0  0  0  0  0  0  0  0
   -9.4970    5.9650  -12.3920 H   0  0  0  0  0  0  0  0  0  0  0  0
  -10.0350    2.9530  -11.1220 H   0  0  0  0  0  0  0  0  0  0  0  0
   -8.3810    2.6260  -10.8320 H   0  0  0  0  0  0  0  0  0  0  0  0
   -8.6370    1.3340   -9.0900 H   0  0  0  0  0  0  0  0  0  0  0  0
  -10.3470    1.3370   -9.3980 H   0  0  0  0  0  0  0  0  0  0  0  0
  -10.8670    2.6660   -7.6660 H   0  0  0  0  0  0  0  0  0  0  0  0
   -9.4390    1.9210   -7.0370 H   0  0  0  0  0  0  0  0  0  0  0  0
  -10.0300    4.3370   -6.7280 H   0  0  0  0  0  0  0  0  0  0  0  0
   -8.3650    3.7200   -6.8380 H   0  0  0  0  0  0  0  0  0  0  0  0
   -8.2760    7.5600   -9.7120 H   0  0  0  0  0  0  0  0  0  0  0  0
   -9.0450    3.9210  -14.5350 H   0  0  0  0  0  0  0  0  0  0  0  0
   -7.9890    6.5220  -15.0220 H   0  0  0  0  0  0  0  0  0  0  0  0
   -6.1240    5.6730  -14.2520 H   0  0  0  0  0  0  0  0  0  0  0  0
   -6.2140    4.1620  -14.9850 H   0  0  0  0  0  0  0  0  0  0  0  0
   -5.4430    6.8450  -15.9270 H   0  0  0  0  0  0  0  0  0  0  0  0
   -4.7230    5.3150  -16.0840 H   0  0  0  0  0  0  0  0  0  0  0  0
   -5.8070    6.4820  -18.0600 H   0  0  0  0  0  0  0  0  0  0  0  0
   -5.4990    4.7690  -17.8840 H   0  0  0  0  0  0  0  0  0  0  0  0
   -7.3440    5.1060  -19.8590 H   0  0  0  0  0  0  0  0  0  0  0  0
   -9.7310    4.5840  -20.1700 H   0  0  0  0  0  0  0  0  0  0  0  0
  -11.2110    4.4750  -18.1510 H   0  0  0  0  0  0  0  0  0  0  0  0
  1  2  2  0
  2  3  1  0
  3  4  1  0
  4  5  2  0
  5  6  1  0
  6  7  1  0
  7  8  1  0
  8  9  1  0
  9 10  1  0
 10 11  1  0
 11 12  2  0
  2 13  1  0
 13 14  1  0
 14 15  1  0
 15 16  1  0
 16 17  1  0
 17 18  1  0
 18 19  2  0
 19 20  1  0
 20 21  2  0
 21 22  1  0
 22 23  2  0
 12  4  1  0
 10  5  1  0
 23 14  1  0
 23 18  1  0
  3 24  1  0
  3 25  1  0
  6 26  1  0
  6 27  1  0
  7 28  1  0
  7 29  1  0
  8 30  1  0
  8 31  1  0
  9 32  1  0
  9 33  1  0
 12 34  1  0
 13 35  1  0
 14 36  1  1
 15 37  1  0
 15 38  1  0
 16 39  1  0
 16 40  1  0
 17 41  1  0
 17 42  1  0
 19 43  1  0
 20 44  1  0
 21 45  1  0
A    1
 O1 
A    2
 C1 
A    3
 C2 
A    4
 C3 
A    5
 C4 
A    6
 C5 
A    7
 C6 
A    8
 C7 
A    9
 C8 
A   10
 N1 
A   11
 N2 
A   12
 C9 
A   13
 N3 
A   14
 C10
A   15
 C11
A   16
 C12
A   17
 C13
A   18
 C14
A   19
 C15
A   20
 C16
A   21
 C17
A   22
 N4 
A   23
 C18
A   24
 H1 
A   25
 H2 
A   26
 H3 
A   27
 H4 
A   28
 H5 
A   29
 H6 
A   30
 H7 
A   31
 H8 
A   32
 H9 
A   33
 H10
A   34
 H11
A   35
 H12
A   36
 H13
A   37
 H14
A   38
 H15
A   39
 H16
A   40
 H17
A   41
 H18
A   42
 H19
A   43
 H20
A   44
 H21
A   45
 H22
M  END
>  <ref_pdb>  (61) 
x0051_0B

>  <ref_mols>  (61) 
x0969_1B,x0455_0B

>  <original SMILES>  (61) 
[H]c1nc2c(c([H])c1[H])C([H])([H])C([H])([H])C([H])([H])[C@]2([H])N([H])C(=O)C([H])([H])c1c([H])nn2c1C([H])([H])C([H])([H])C([H])([H])C2([H])[H]

>  <index>  (61) 
76

>  <∆∆G>  (61) 
-6.831986

>  <∆G_bound>  (61) 
-4.868696

>  <∆G_unbound>  (61) 
1.96329

>  <comRMSD>  (61) 
0.305308

>  <N_constrained_atoms>  (61) 
20.0

>  <N_unconstrained_atoms>  (61) 
3.0

>  <runtime>  (61) 
43.311539

>  <LE>  (61) 
0.297043

>  <percent_hybrid>  (61) 
50.0

>  <dist>  (61) 
5.0

>  <ecfp4>  (61) 
0.35

>  <daylight>  (61) 
0.327078

>  <topodist>  (61) 
1.0

>  <mces>  (61) 
25.0

>  <tdn>  (61) 
0.0

>  <tup>  (61) 
1.0

>  <rdn>  (61) 
0.0

>  <rup>  (61) 
0.0

>  <ldn>  (61) 
0.0

>  <lup>  (61) 
0.0

>  <mut>  (61) 
4.0

>  <maj>  (61) 
4.0

>  <min>  (61) 
0.0

>  <hyb>  (61) 
0.0

>  <sub>  (61) 
0.0

>  <query_index>  (61) 
204.0

>  <max_hit_Tanimoto>  (61) 
0.318755

>  <largest_ring>  (61) 
0

>  <N_interactions_kept>  (61) 
1.0

>  <N_interactions_lost>  (61) 
1.5

>  <interaction_uniqueness_metric>  (61) 
0.134979

>  <ad_hoc_penalty>  (61) 
-31.991548

>  <N_rotatable_bonds>  (61) 
3

>  <N_HA>  (61) 
23

>  <cluster>  (61) 
6148

>  <N_interactions>  (61) 
7

>  <Enamine>  (61) 
1

>  <Mcule>  (61) 
0

>  <N_PAINS>  (61) 
0

>  <UFF_Gibbs>  (61) 
115.523379

>  <strain_per_HA>  (61) 
5.022756

>  <saltbridge:HIS:51>  (61) 
0

>  <pistack:HIS:51>  (61) 
1

>  <hydroph_interaction:HIS:51>  (61) 
1

>  <hbond:ALA:132>  (61) 
0

>  <hbond:SER:135>  (61) 
0

>  <hydroph_interaction:TYR:150>  (61) 
1

>  <pistack:TYR:161>  (61) 
0

>  <hydroph_interaction:TYR:161>  (61) 
3

>  <hydroph_interaction:ASP:83>  (61) 
0

>  <hbond:TYR:130>  (61) 
0

>  <hydroph_interaction:ALA:132>  (61) 
0

>  <hbond:HIS:51>  (61) 
0

>  <hbond:ASP:129>  (61) 
0

>  <hbond:TYR:150>  (61) 
0

>  <hbond:GLY:151>  (61) 
1

>  <hbond:TYR:161>  (61) 
0

>  <hydroph_interaction:TYR:130>  (61) 
0

>  <hydroph_interaction:PRO:131>  (61) 
0

>  <hydroph_interaction:ASP:129>  (61) 
0

>  <saltbridge:ASP:75>  (61) 
0

>  <saltbridge:ASP:83>  (61) 
0

>  <hydroph_interaction:ASN:152>  (61) 
0

>  <halogenbond:TYR:150>  (61) 
0

>  <hbond:ASP:83>  (61) 
0

>  <hydroph_interaction:VAL:155>  (61) 
0

>  <pication:TYR:161>  (61) 
0

>  <hbond:PRO:131>  (61) 
0

>  <hbond:LEU:128>  (61) 
0

>  <saltbridge:ASP:129>  (61) 
0

>  <hbond:THR:134>  (61) 
0

>  <pication:HIS:51>  (61) 
0

>  <hbond:SER:81>  (61) 
0

>  <hbond:GLY:159>  (61) 
0

>  <hydroph_interaction:PRO:101>  (61) 
0

>  <hydroph_interaction:THR:134>  (61) 
0

>  <hbond:GLY:82>  (61) 
0

>  <hydroph_interaction:GLU:104>  (61) 
0

>  <hydroph_interaction:VAL:36>  (61) 
0

>  <hydroph_interaction:MET:49>  (61) 
0

>  <halogenbond:GLU:104>  (61) 
0

>  <hydroph_interaction:LYS:107>  (61) 
0

$$$$
Z2312665400
     RDKit          3D

 37 39  0  0  0  0  0  0  0  0999 V2000
   -9.1830    4.7420  -19.3990 C   0  0  0  0  0  0  0  0  0  0  0  0
   -8.7240    4.9580  -18.1680 C   0  0  0  0  0  0  0  0  0  0  0  0
   -9.5240    4.9340  -16.9880 C   0  0  0  0  0  0  0  0  0  0  0  0
   -9.0370    5.1650  -15.6940 C   0  0  0  0  0  0  0  0  0  0  0  0
   -9.7120    5.2010  -14.3820 C   0  0  0  0  0  0  0  0  0  0  0  0
   -8.9090    4.8320  -13.2040 O   0  0  0  0  0  0  0  0  0  0  0  0
   -8.6040    5.8700  -12.3370 C   0  0  0  0  0  0  0  0  0  0  0  0
   -8.2020    6.9460  -12.7710 O   0  0  0  0  0  0  0  0  0  0  0  0
   -8.7580    5.7050  -10.8610 C   0  0  0  0  0  0  0  0  0  0  0  0
   -8.9080    4.4670   -9.9840 C   0  0  0  0  0  0  0  0  0  0  0  0
   -8.9470    3.0250  -10.4450 C   0  0  0  0  0  0  0  0  0  0  0  0
   -8.5830    2.1740   -9.2230 C   0  0  0  0  0  0  0  0  0  0  0  0
   -9.2610    2.5850   -8.0970 C   0  0  0  0  0  0  0  0  0  0  0  0
   -9.1650    3.9990   -7.5600 C   0  0  0  0  0  0  0  0  0  0  0  0
   -9.0030    4.8880   -8.6940 N   0  0  0  0  0  0  0  0  0  0  0  0
   -8.9290    6.2410   -8.5760 N   0  0  0  0  0  0  0  0  0  0  0  0
   -8.7920    6.7090   -9.8460 C   0  0  0  0  0  0  0  0  0  0  0  0
   -7.6600    5.4140  -15.6730 C   0  0  0  0  0  0  0  0  0  0  0  0
   -6.9140    5.4260  -16.8540 C   0  0  0  0  0  0  0  0  0  0  0  0
   -5.0520    5.7690  -16.7510 Br  0  0  0  0  0  0  0  0  0  0  0  0
   -7.4090    5.2090  -18.0850 N   0  0  0  0  0  0  0  0  0  0  0  0
   -9.3200    3.6990  -19.6340 H   0  0  0  0  0  0  0  0  0  0  0  0
  -10.0330    5.3390  -19.7190 H   0  0  0  0  0  0  0  0  0  0  0  0
   -8.3890    5.0630  -20.0750 H   0  0  0  0  0  0  0  0  0  0  0  0
  -10.5640    4.7220  -17.1730 H   0  0  0  0  0  0  0  0  0  0  0  0
  -10.1960    6.1710  -14.2320 H   0  0  0  0  0  0  0  0  0  0  0  0
  -10.5510    4.5060  -14.4030 H   0  0  0  0  0  0  0  0  0  0  0  0
   -8.2360    2.8380  -11.2580 H   0  0  0  0  0  0  0  0  0  0  0  0
   -9.9370    2.7680  -10.7960 H   0  0  0  0  0  0  0  0  0  0  0  0
   -8.7600    1.1390   -9.3980 H   0  0  0  0  0  0  0  0  0  0  0  0
   -7.5140    2.2570   -9.0490 H   0  0  0  0  0  0  0  0  0  0  0  0
   -8.9520    1.9170   -7.2860 H   0  0  0  0  0  0  0  0  0  0  0  0
  -10.3260    2.3710   -8.2520 H   0  0  0  0  0  0  0  0  0  0  0  0
  -10.0700    4.2780   -7.0130 H   0  0  0  0  0  0  0  0  0  0  0  0
   -8.3100    4.1090   -6.8820 H   0  0  0  0  0  0  0  0  0  0  0  0
   -8.7220    7.7950   -9.9830 H   0  0  0  0  0  0  0  0  0  0  0  0
   -7.1680    5.6010  -14.7300 H   0  0  0  0  0  0  0  0  0  0  0  0
  1  2  1  0
  2  3  2  0
  3  4  1  0
  4  5  1  0
  5  6  1  0
  6  7  1  0
  7  8  2  0
  7  9  1  0
  9 10  2  0
 10 11  1  0
 11 12  1  0
 12 13  1  0
 13 14  1  0
 14 15  1  0
 15 16  1  0
 16 17  2  0
  4 18  2  0
 18 19  1  0
 19 20  1  0
 19 21  2  0
 21  2  1  0
 17  9  1  0
 15 10  1  0
  1 22  1  0
  1 23  1  0
  1 24  1  0
  3 25  1  0
  5 26  1  0
  5 27  1  0
 11 28  1  0
 11 29  1  0
 12 30  1  0
 12 31  1  0
 13 32  1  0
 13 33  1  0
 14 34  1  0
 14 35  1  0
 17 36  1  0
 18 37  1  0
A    1
 C1 
A    2
 C2 
A    3
 C3 
A    4
 C4 
A    5
 C5 
A    6
 O1 
A    7
 C6 
A    8
 O2 
A    9
 C7 
A   10
 C8 
A   11
 C9 
A   12
 C10
A   13
 C11
A   14
 C12
A   15
 N1 
A   16
 N2 
A   17
 C13
A   18
 C14
A   19
 C15
A   20
BR1 
A   21
 N3 
A   22
 H1 
A   23
 H2 
A   24
 H3 
A   25
 H4 
A   26
 H5 
A   27
 H6 
A   28
 H7 
A   29
 H8 
A   30
 H9 
A   31
 H10
A   32
 H11
A   33
 H12
A   34
 H13
A   35
 H14
A   36
 H15
A   37
 H16
M  END
>  <ref_pdb>  (62) 
x0051_0B

>  <ref_mols>  (62) 
x0969_1B,x0589_0B

>  <original SMILES>  (62) 
[H]c1nn2c(c1C(=O)OC([H])([H])c1c([H])c(Br)nc(C([H])([H])[H])c1[H])C([H])([H])C([H])([H])C([H])([H])C2([H])[H]

>  <index>  (62) 
104

>  <∆∆G>  (62) 
-7.314185

>  <∆G_bound>  (62) 
-6.665988

>  <∆G_unbound>  (62) 
0.648197

>  <comRMSD>  (62) 
0.684716

>  <N_constrained_atoms>  (62) 
17.0

>  <N_unconstrained_atoms>  (62) 
5.0

>  <runtime>  (62) 
41.547318

>  <LE>  (62) 
0.332463

>  <percent_hybrid>  (62) 
42.0

>  <dist>  (62) 
4.0

>  <ecfp4>  (62) 
0.311688

>  <daylight>  (62) 
0.404412

>  <topodist>  (62) 
1.0

>  <mces>  (62) 
22.0

>  <tdn>  (62) 
0.0

>  <tup>  (62) 
1.0

>  <rdn>  (62) 
0.0

>  <rup>  (62) 
0.0

>  <ldn>  (62) 
0.0

>  <lup>  (62) 
0.0

>  <mut>  (62) 
2.0

>  <maj>  (62) 
2.0

>  <min>  (62) 
0.0

>  <hyb>  (62) 
1.0

>  <sub>  (62) 
0.0

>  <query_index>  (62) 
380.0

>  <max_hit_Tanimoto>  (62) 
0.31094

>  <largest_ring>  (62) 
0

>  <N_interactions_kept>  (62) 
1.5

>  <N_interactions_lost>  (62) 
1.0

>  <interaction_uniqueness_metric>  (62) 
0.239017

>  <ad_hoc_penalty>  (62) 
-31.976064

>  <N_rotatable_bonds>  (62) 
4

>  <N_HA>  (62) 
21

>  <cluster>  (62) 
530

>  <N_interactions>  (62) 
6

>  <Enamine>  (62) 
1

>  <Mcule>  (62) 
0

>  <N_PAINS>  (62) 
0

>  <UFF_Gibbs>  (62) 
83.113398

>  <strain_per_HA>  (62) 
3.957781

>  <saltbridge:HIS:51>  (62) 
1

>  <pistack:HIS:51>  (62) 
1

>  <hydroph_interaction:HIS:51>  (62) 
0

>  <hbond:ALA:132>  (62) 
0

>  <hbond:SER:135>  (62) 
0

>  <hydroph_interaction:TYR:150>  (62) 
1

>  <pistack:TYR:161>  (62) 
1

>  <hydroph_interaction:TYR:161>  (62) 
1

>  <hydroph_interaction:ASP:83>  (62) 
1

>  <hbond:TYR:130>  (62) 
0

>  <hydroph_interaction:ALA:132>  (62) 
0

>  <hbond:HIS:51>  (62) 
0

>  <hbond:ASP:129>  (62) 
0

>  <hbond:TYR:150>  (62) 
0

>  <hbond:GLY:151>  (62) 
0

>  <hbond:TYR:161>  (62) 
0

>  <hydroph_interaction:TYR:130>  (62) 
0

>  <hydroph_interaction:PRO:131>  (62) 
0

>  <hydroph_interaction:ASP:129>  (62) 
0

>  <saltbridge:ASP:75>  (62) 
0

>  <saltbridge:ASP:83>  (62) 
0

>  <hydroph_interaction:ASN:152>  (62) 
0

>  <halogenbond:TYR:150>  (62) 
0

>  <hbond:ASP:83>  (62) 
0

>  <hydroph_interaction:VAL:155>  (62) 
0

>  <pication:TYR:161>  (62) 
0

>  <hbond:PRO:131>  (62) 
0

>  <hbond:LEU:128>  (62) 
0

>  <saltbridge:ASP:129>  (62) 
0

>  <hbond:THR:134>  (62) 
0

>  <pication:HIS:51>  (62) 
0

>  <hbond:SER:81>  (62) 
0

>  <hbond:GLY:159>  (62) 
0

>  <hydroph_interaction:PRO:101>  (62) 
0

>  <hydroph_interaction:THR:134>  (62) 
0

>  <hbond:GLY:82>  (62) 
0

>  <hydroph_interaction:GLU:104>  (62) 
0

>  <hydroph_interaction:VAL:36>  (62) 
0

>  <hydroph_interaction:MET:49>  (62) 
0

>  <halogenbond:GLU:104>  (62) 
0

>  <hydroph_interaction:LYS:107>  (62) 
0

$$$$
Z1472555402
     RDKit          3D

 38 39  0  0  0  0  0  0  0  0999 V2000
   -2.2110    4.5920  -19.2110 C   0  0  0  0  0  0  0  0  0  0  0  0
   -3.0120    5.8050  -19.6850 C   0  0  0  0  0  0  0  0  0  0  0  0
   -3.0190    6.9180  -18.6440 C   0  0  0  0  0  0  0  0  0  0  0  0
   -4.3820    5.4310  -20.0270 N   0  0  0  0  0  0  0  0  0  0  0  0
   -5.4160    5.4110  -19.1040 C   0  0  0  0  0  0  0  0  0  0  0  0
   -5.1920    5.2200  -17.9190 O   0  0  0  0  0  0  0  0  0  0  0  0
   -6.6370    5.6070  -19.5970 N   0  0  0  0  0  0  0  0  0  0  0  0
   -7.6480    5.3500  -18.7590 C   0  0  0  0  0  0  0  0  0  0  0  0
   -8.7990    4.6790  -19.1800 C   0  0  0  0  0  0  0  0  0  0  0  0
   -9.8460    4.4010  -18.3390 C   0  0  0  0  0  0  0  0  0  0  0  0
   -9.7690    4.7980  -17.0250 C   0  0  0  0  0  0  0  0  0  0  0  0
   -8.6660    5.4750  -16.5540 C   0  0  0  0  0  0  0  0  0  0  0  0
   -8.6730    5.9300  -15.1030 C   0  0  0  0  0  0  0  0  0  0  0  0
   -9.0170    5.0520  -13.9220 C   0  0  0  0  0  0  0  0  0  0  0  0
   -8.9660    6.0520  -12.8830 N   0  0  0  0  0  0  0  0  0  0  0  0
   -8.2470    7.1440  -13.3270 C   0  0  0  0  0  0  0  0  0  0  0  0
   -8.2430    8.2580  -12.8310 O   0  0  0  0  0  0  0  0  0  0  0  0
   -7.4810    6.6670  -14.5430 C   0  0  0  0  0  0  0  0  0  0  0  0
   -7.5980    5.7480  -17.4170 C   0  0  0  0  0  0  0  0  0  0  0  0
   -1.9810    3.9140  -20.0400 H   0  0  0  0  0  0  0  0  0  0  0  0
   -2.7560    4.0200  -18.4540 H   0  0  0  0  0  0  0  0  0  0  0  0
   -1.2610    4.9020  -18.7600 H   0  0  0  0  0  0  0  0  0  0  0  0
   -2.5070    6.1990  -20.5790 H   0  0  0  0  0  0  0  0  0  0  0  0
   -3.2060    6.5120  -17.6430 H   0  0  0  0  0  0  0  0  0  0  0  0
   -2.0600    7.4470  -18.6250 H   0  0  0  0  0  0  0  0  0  0  0  0
   -3.8060    7.6520  -18.8490 H   0  0  0  0  0  0  0  0  0  0  0  0
   -4.6610    5.5870  -20.9840 H   0  0  0  0  0  0  0  0  0  0  0  0
   -6.7300    6.4260  -20.1820 H   0  0  0  0  0  0  0  0  0  0  0  0
   -8.8020    4.3870  -20.2380 H   0  0  0  0  0  0  0  0  0  0  0  0
  -10.7190    3.8800  -18.7050 H   0  0  0  0  0  0  0  0  0  0  0  0
  -10.5880    4.5770  -16.3630 H   0  0  0  0  0  0  0  0  0  0  0  0
   -9.4620    6.6930  -15.0720 H   0  0  0  0  0  0  0  0  0  0  0  0
   -8.2770    4.2640  -13.7500 H   0  0  0  0  0  0  0  0  0  0  0  0
  -10.0260    4.6280  -13.9500 H   0  0  0  0  0  0  0  0  0  0  0  0
   -9.6390    6.1530  -12.1320 H   0  0  0  0  0  0  0  0  0  0  0  0
   -7.1420    7.4990  -15.1680 H   0  0  0  0  0  0  0  0  0  0  0  0
   -6.6230    6.0430  -14.2600 H   0  0  0  0  0  0  0  0  0  0  0  0
   -6.7270    6.2870  -17.0260 H   0  0  0  0  0  0  0  0  0  0  0  0
  1  2  1  0
  2  3  1  0
  2  4  1  0
  4  5  1  0
  5  6  2  0
  5  7  1  0
  7  8  1  0
  8  9  2  0
  9 10  1  0
 10 11  2  0
 11 12  1  0
 12 13  1  0
 13 14  1  0
 14 15  1  0
 15 16  1  0
 16 17  2  0
 16 18  1  0
 12 19  2  0
 19  8  1  0
 18 13  1  0
  1 20  1  0
  1 21  1  0
  1 22  1  0
  2 23  1  0
  3 24  1  0
  3 25  1  0
  3 26  1  0
  4 27  1  0
  7 28  1  0
  9 29  1  0
 10 30  1  0
 11 31  1  0
 13 32  1  0
 14 33  1  0
 14 34  1  0
 15 35  1  0
 18 36  1  0
 18 37  1  0
 19 38  1  0
A    1
 C1 
A    2
 C2 
A    3
 C3 
A    4
 N1 
A    5
 C4 
A    6
 O1 
A    7
 N2 
A    8
 C5 
A    9
 C6 
A   10
 C7 
A   11
 C8 
A   12
 C9 
A   13
 C10
A   14
 C11
A   15
 N3 
A   16
 C12
A   17
 O2 
A   18
 C13
A   19
 C14
A   20
 H1 
A   21
 H2 
A   22
 H3 
A   23
 H4 
A   24
 H5 
A   25
 H6 
A   26
 H7 
A   27
 H8 
A   28
 H9 
A   29
 H10
A   30
 H11
A   31
 H12
A   32
 H13
A   33
 H14
A   34
 H15
A   35
 H16
A   36
 H17
A   37
 H18
A   38
 H19
M  END
>  <ref_pdb>  (63) 
x0051_0B

>  <ref_mols>  (63) 
x0089_0B,x0951_0B

>  <original SMILES>  (63) 
[H]c1c([H])c(N([H])C(=O)N([H])C([H])(C([H])([H])[H])C([H])([H])[H])c([H])c(C2([H])C([H])([H])C(=O)N([H])C2([H])[H])c1[H]

>  <index>  (63) 
82

>  <∆∆G>  (63) 
-6.668067

>  <∆G_bound>  (63) 
-6.310454

>  <∆G_unbound>  (63) 
0.357613

>  <comRMSD>  (63) 
0.891653

>  <N_constrained_atoms>  (63) 
19.0

>  <N_unconstrained_atoms>  (63) 
1.0

>  <runtime>  (63) 
60.369216

>  <LE>  (63) 
0.333403

>  <percent_hybrid>  (63) 
47.0

>  <dist>  (63) 
6.0

>  <ecfp4>  (63) 
0.28125

>  <daylight>  (63) 
0.544

>  <topodist>  (63) 
1.0

>  <mces>  (63) 
19.0

>  <tdn>  (63) 
0.0

>  <tup>  (63) 
0.0

>  <rdn>  (63) 
0.0

>  <rup>  (63) 
1.0

>  <ldn>  (63) 
0.0

>  <lup>  (63) 
0.0

>  <mut>  (63) 
4.0

>  <maj>  (63) 
4.0

>  <min>  (63) 
0.0

>  <hyb>  (63) 
1.0

>  <sub>  (63) 
1.0

>  <query_index>  (63) 
292.0

>  <max_hit_Tanimoto>  (63) 
0.136038

>  <largest_ring>  (63) 
0

>  <N_interactions_kept>  (63) 
2.0

>  <N_interactions_lost>  (63) 
1.5

>  <interaction_uniqueness_metric>  (63) 
0.185013

>  <ad_hoc_penalty>  (63) 
-31.971499

>  <N_rotatable_bonds>  (63) 
5

>  <N_HA>  (63) 
19

>  <cluster>  (63) 
6142

>  <N_interactions>  (63) 
8

>  <Enamine>  (63) 
1

>  <Mcule>  (63) 
0

>  <N_PAINS>  (63) 
0

>  <UFF_Gibbs>  (63) 
98.21096

>  <strain_per_HA>  (63) 
5.168998

>  <saltbridge:HIS:51>  (63) 
0

>  <pistack:HIS:51>  (63) 
0

>  <hydroph_interaction:HIS:51>  (63) 
0

>  <hbond:ALA:132>  (63) 
0

>  <hbond:SER:135>  (63) 
0

>  <hydroph_interaction:TYR:150>  (63) 
1

>  <pistack:TYR:161>  (63) 
0

>  <hydroph_interaction:TYR:161>  (63) 
3

>  <hydroph_interaction:ASP:83>  (63) 
0

>  <hbond:TYR:130>  (63) 
1

>  <hydroph_interaction:ALA:132>  (63) 
1

>  <hbond:HIS:51>  (63) 
1

>  <hbond:ASP:129>  (63) 
0

>  <hbond:TYR:150>  (63) 
0

>  <hbond:GLY:151>  (63) 
0

>  <hbond:TYR:161>  (63) 
0

>  <hydroph_interaction:TYR:130>  (63) 
0

>  <hydroph_interaction:PRO:131>  (63) 
0

>  <hydroph_interaction:ASP:129>  (63) 
0

>  <saltbridge:ASP:75>  (63) 
0

>  <saltbridge:ASP:83>  (63) 
0

>  <hydroph_interaction:ASN:152>  (63) 
0

>  <halogenbond:TYR:150>  (63) 
0

>  <hbond:ASP:83>  (63) 
0

>  <hydroph_interaction:VAL:155>  (63) 
1

>  <pication:TYR:161>  (63) 
0

>  <hbond:PRO:131>  (63) 
0

>  <hbond:LEU:128>  (63) 
0

>  <saltbridge:ASP:129>  (63) 
0

>  <hbond:THR:134>  (63) 
0

>  <pication:HIS:51>  (63) 
0

>  <hbond:SER:81>  (63) 
0

>  <hbond:GLY:159>  (63) 
0

>  <hydroph_interaction:PRO:101>  (63) 
0

>  <hydroph_interaction:THR:134>  (63) 
0

>  <hbond:GLY:82>  (63) 
0

>  <hydroph_interaction:GLU:104>  (63) 
0

>  <hydroph_interaction:VAL:36>  (63) 
0

>  <hydroph_interaction:MET:49>  (63) 
0

>  <halogenbond:GLU:104>  (63) 
0

>  <hydroph_interaction:LYS:107>  (63) 
0

$$$$
Z1320305091
     RDKit          3D

 46 48  0  0  0  0  0  0  0  0999 V2000
   -6.1370    5.6090  -19.3950 C   0  0  0  0  0  0  0  0  0  0  0  0
   -7.2330    5.3820  -18.5610 C   0  0  0  0  0  0  0  0  0  0  0  0
   -8.4220    4.8400  -19.0670 C   0  0  0  0  0  0  0  0  0  0  0  0
   -9.5110    4.6090  -18.2340 C   0  0  0  0  0  0  0  0  0  0  0  0
   -9.4050    4.9500  -16.7910 C   0  0  0  0  0  0  0  0  0  0  0  0
   -8.1940    5.4980  -16.3410 C   0  0  0  0  0  0  0  0  0  0  0  0
   -8.0760    5.8530  -14.9960 N   0  0  0  0  0  0  0  0  0  0  0  0
   -9.0410    6.8700  -14.8130 N   0  0  0  0  0  0  0  0  0  0  0  0
   -8.9800    7.5370  -13.6540 C   0  0  0  0  0  0  0  0  0  0  0  0
   -8.9970    8.7430  -13.6190 O   0  0  0  0  0  0  0  0  0  0  0  0
   -8.8770    6.7240  -12.5490 C   0  0  0  0  0  0  0  0  0  0  0  0
   -8.6420    7.2890  -11.3010 C   0  0  0  0  0  0  0  0  0  0  0  0
   -8.5260    6.4640  -10.1840 C   0  0  0  0  0  0  0  0  0  0  0  0
   -8.6420    5.0710  -10.3020 C   0  0  0  0  0  0  0  0  0  0  0  0
   -8.5180    4.2600   -9.2110 N   0  0  0  0  0  0  0  0  0  0  0  0
   -8.7290    2.8210   -9.2770 C   0  0  0  0  0  0  0  0  0  0  0  0
   -9.7270    2.4740   -8.1660 C   0  0  0  0  0  0  0  0  0  0  0  0
   -9.4140    2.9400   -6.9000 C   0  0  0  0  0  0  0  0  0  0  0  0
   -8.9750    4.4210   -6.9500 C   0  0  0  0  0  0  0  0  0  0  0  0
   -7.9960    4.7000   -8.0740 C   0  0  0  0  0  0  0  0  0  0  0  0
   -8.8840    4.5310  -11.5690 C   0  0  0  0  0  0  0  0  0  0  0  0
   -9.0020    5.3430  -12.6840 C   0  0  0  0  0  0  0  0  0  0  0  0
   -7.1310    5.7010  -17.2160 C   0  0  0  0  0  0  0  0  0  0  0  0
   -5.2150    5.2750  -18.9050 H   0  0  0  0  0  0  0  0  0  0  0  0
   -6.2760    5.0980  -20.3530 H   0  0  0  0  0  0  0  0  0  0  0  0
   -6.0290    6.6760  -19.6050 H   0  0  0  0  0  0  0  0  0  0  0  0
   -8.4590    4.6070  -20.1260 H   0  0  0  0  0  0  0  0  0  0  0  0
  -10.4260    4.1870  -18.6310 H   0  0  0  0  0  0  0  0  0  0  0  0
  -10.2500    4.7800  -16.1170 H   0  0  0  0  0  0  0  0  0  0  0  0
   -7.1460    6.2500  -14.8150 H   0  0  0  0  0  0  0  0  0  0  0  0
   -9.9340    6.7080  -15.2700 H   0  0  0  0  0  0  0  0  0  0  0  0
   -8.5480    8.3650  -11.1940 H   0  0  0  0  0  0  0  0  0  0  0  0
   -8.3420    6.9440   -9.2280 H   0  0  0  0  0  0  0  0  0  0  0  0
   -7.7850    2.2970   -9.0960 H   0  0  0  0  0  0  0  0  0  0  0  0
   -9.1260    2.4700  -10.2320 H   0  0  0  0  0  0  0  0  0  0  0  0
   -9.8270    1.3890   -8.1240 H   0  0  0  0  0  0  0  0  0  0  0  0
  -10.7130    2.8470   -8.4570 H   0  0  0  0  0  0  0  0  0  0  0  0
   -8.6100    2.3340   -6.4600 H   0  0  0  0  0  0  0  0  0  0  0  0
  -10.3090    2.8560   -6.2760 H   0  0  0  0  0  0  0  0  0  0  0  0
   -8.5240    4.6960   -5.9890 H   0  0  0  0  0  0  0  0  0  0  0  0
   -9.8750    5.0280   -7.0820 H   0  0  0  0  0  0  0  0  0  0  0  0
   -7.7160    5.7490   -8.1000 H   0  0  0  0  0  0  0  0  0  0  0  0
   -7.0600    4.1610   -7.8850 H   0  0  0  0  0  0  0  0  0  0  0  0
   -8.9860    3.4580  -11.7200 H   0  0  0  0  0  0  0  0  0  0  0  0
   -9.1900    4.8720  -13.6540 H   0  0  0  0  0  0  0  0  0  0  0  0
   -6.1980    6.1280  -16.8260 H   0  0  0  0  0  0  0  0  0  0  0  0
  1  2  1  0
  2  3  2  0
  3  4  1  0
  4  5  2  0
  5  6  1  0
  6  7  1  0
  7  8  1  0
  8  9  1  0
  9 10  2  0
  9 11  1  0
 11 12  2  0
 12 13  1  0
 13 14  2  0
 14 15  1  0
 15 16  1  0
 16 17  1  0
 17 18  1  0
 18 19  1  0
 19 20  1  0
 14 21  1  0
 21 22  2  0
  6 23  2  0
 23  2  1  0
 22 11  1  0
 20 15  1  0
  1 24  1  0
  1 25  1  0
  1 26  1  0
  3 27  1  0
  4 28  1  0
  5 29  1  0
  7 30  1  0
  8 31  1  0
 12 32  1  0
 13 33  1  0
 16 34  1  0
 16 35  1  0
 17 36  1  0
 17 37  1  0
 18 38  1  0
 18 39  1  0
 19 40  1  0
 19 41  1  0
 20 42  1  0
 20 43  1  0
 21 44  1  0
 22 45  1  0
 23 46  1  0
A    1
 C1 
A    2
 C2 
A    3
 C3 
A    4
 C4 
A    5
 C5 
A    6
 C6 
A    7
 N1 
A    8
 N2 
A    9
 C7 
A   10
 O1 
A   11
 C8 
A   12
 C9 
A   13
 C10
A   14
 C11
A   15
 N3 
A   16
 C12
A   17
 C13
A   18
 C14
A   19
 C15
A   20
 C16
A   21
 C17
A   22
 C18
A   23
 C19
A   24
 H1 
A   25
 H2 
A   26
 H3 
A   27
 H4 
A   28
 H5 
A   29
 H6 
A   30
 H7 
A   31
 H8 
A   32
 H9 
A   33
 H10
A   34
 H11
A   35
 H12
A   36
 H13
A   37
 H14
A   38
 H15
A   39
 H16
A   40
 H17
A   41
 H18
A   42
 H19
A   43
 H20
A   44
 H21
A   45
 H22
A   46
 H23
M  END
>  <ref_pdb>  (64) 
x0051_0B

>  <ref_mols>  (64) 
x0589_0B,x0404_0B

>  <original SMILES>  (64) 
[H]c1c([H])c(N([H])N([H])C(=O)c2c([H])c([H])c(N3C([H])([H])C([H])([H])C([H])([H])C([H])([H])C3([H])[H])c([H])c2[H])c([H])c(C([H])([H])[H])c1[H]

>  <index>  (64) 
56

>  <∆∆G>  (64) 
-8.518329

>  <∆G_bound>  (64) 
-8.233545

>  <∆G_unbound>  (64) 
0.284784

>  <comRMSD>  (64) 
0.77569

>  <N_constrained_atoms>  (64) 
23.0

>  <N_unconstrained_atoms>  (64) 
1.0

>  <runtime>  (64) 
96.904137

>  <LE>  (64) 
0.35493

>  <percent_hybrid>  (64) 
35.0

>  <dist>  (64) 
6.0

>  <ecfp4>  (64) 
0.246575

>  <daylight>  (64) 
0.185

>  <topodist>  (64) 
2.0

>  <mces>  (64) 
25.0

>  <tdn>  (64) 
2.0

>  <tup>  (64) 
0.0

>  <rdn>  (64) 
0.0

>  <rup>  (64) 
0.0

>  <ldn>  (64) 
0.0

>  <lup>  (64) 
0.0

>  <mut>  (64) 
3.0

>  <maj>  (64) 
3.0

>  <min>  (64) 
0.0

>  <hyb>  (64) 
1.0

>  <sub>  (64) 
1.0

>  <query_index>  (64) 
29.0

>  <max_hit_Tanimoto>  (64) 
0.264368

>  <largest_ring>  (64) 
0

>  <N_interactions_kept>  (64) 
2.0

>  <N_interactions_lost>  (64) 
1.5

>  <interaction_uniqueness_metric>  (64) 
0.17578

>  <ad_hoc_penalty>  (64) 
-31.796364

>  <N_rotatable_bonds>  (64) 
5

>  <N_HA>  (64) 
23

>  <cluster>  (64) 
184

>  <N_interactions>  (64) 
7

>  <Enamine>  (64) 
1

>  <Mcule>  (64) 
0

>  <N_PAINS>  (64) 
0

>  <UFF_Gibbs>  (64) 
152.68737

>  <strain_per_HA>  (64) 
6.638581

>  <saltbridge:HIS:51>  (64) 
0

>  <pistack:HIS:51>  (64) 
1

>  <hydroph_interaction:HIS:51>  (64) 
1

>  <hbond:ALA:132>  (64) 
1

>  <hbond:SER:135>  (64) 
0

>  <hydroph_interaction:TYR:150>  (64) 
1

>  <pistack:TYR:161>  (64) 
0

>  <hydroph_interaction:TYR:161>  (64) 
2

>  <hydroph_interaction:ASP:83>  (64) 
0

>  <hbond:TYR:130>  (64) 
0

>  <hydroph_interaction:ALA:132>  (64) 
1

>  <hbond:HIS:51>  (64) 
0

>  <hbond:ASP:129>  (64) 
0

>  <hbond:TYR:150>  (64) 
0

>  <hbond:GLY:151>  (64) 
0

>  <hbond:TYR:161>  (64) 
0

>  <hydroph_interaction:TYR:130>  (64) 
0

>  <hydroph_interaction:PRO:131>  (64) 
0

>  <hydroph_interaction:ASP:129>  (64) 
0

>  <saltbridge:ASP:75>  (64) 
0

>  <saltbridge:ASP:83>  (64) 
0

>  <hydroph_interaction:ASN:152>  (64) 
0

>  <halogenbond:TYR:150>  (64) 
0

>  <hbond:ASP:83>  (64) 
0

>  <hydroph_interaction:VAL:155>  (64) 
0

>  <pication:TYR:161>  (64) 
0

>  <hbond:PRO:131>  (64) 
0

>  <hbond:LEU:128>  (64) 
0

>  <saltbridge:ASP:129>  (64) 
0

>  <hbond:THR:134>  (64) 
0

>  <pication:HIS:51>  (64) 
0

>  <hbond:SER:81>  (64) 
0

>  <hbond:GLY:159>  (64) 
0

>  <hydroph_interaction:PRO:101>  (64) 
0

>  <hydroph_interaction:THR:134>  (64) 
0

>  <hbond:GLY:82>  (64) 
0

>  <hydroph_interaction:GLU:104>  (64) 
0

>  <hydroph_interaction:VAL:36>  (64) 
0

>  <hydroph_interaction:MET:49>  (64) 
0

>  <halogenbond:GLU:104>  (64) 
0

>  <hydroph_interaction:LYS:107>  (64) 
0

$$$$
Z2783650159
     RDKit          3D

 45 48  0  0  0  0  0  0  0  0999 V2000
   -8.4900    7.4250  -13.3280 O   0  0  0  0  0  0  0  0  0  0  0  0
   -8.5120    6.2410  -13.6390 C   0  0  0  0  0  0  0  0  0  0  0  0
   -8.7420    5.1970  -12.6980 N   0  0  0  0  0  0  0  0  0  0  0  0
   -8.7950    5.3390  -11.2600 C   0  0  0  0  0  0  0  0  0  0  0  0
   -8.9490    4.2820  -10.3230 C   0  0  0  0  0  0  0  0  0  0  0  0
   -9.0950    2.8050  -10.4880 C   0  0  0  0  0  0  0  0  0  0  0  0
   -9.4240    2.0350   -9.1970 C   0  0  0  0  0  0  0  0  0  0  0  0
   -9.6010    2.7680   -7.9680 C   0  0  0  0  0  0  0  0  0  0  0  0
   -9.0730    4.1830   -7.7890 C   0  0  0  0  0  0  0  0  0  0  0  0
   -8.9460    4.8720   -9.0670 N   0  0  0  0  0  0  0  0  0  0  0  0
   -8.8070    6.2030   -9.0970 N   0  0  0  0  0  0  0  0  0  0  0  0
   -8.7190    6.4870  -10.4110 C   0  0  0  0  0  0  0  0  0  0  0  0
   -8.2770    5.9240  -15.0910 C   0  0  0  0  0  0  0  0  0  0  0  0
   -9.0370    5.1390  -16.1100 C   0  0  0  0  0  0  0  0  0  0  0  0
   -8.4100    5.1720  -17.3290 O   0  0  0  0  0  0  0  0  0  0  0  0
   -7.2890    5.9600  -17.0760 C   0  0  0  0  0  0  0  0  0  0  0  0
   -6.3020    6.2750  -18.1950 C   0  0  0  0  0  0  0  0  0  0  0  0
   -6.8920    6.7820  -19.5120 C   0  0  0  0  0  0  0  0  0  0  0  0
   -5.8890    6.6620  -20.6690 C   0  0  0  0  0  0  0  0  0  0  0  0
   -4.4220    6.7430  -20.2380 C   0  0  0  0  0  0  0  0  0  0  0  0
   -4.0780    5.6760  -19.2090 C   0  0  0  0  0  0  0  0  0  0  0  0
   -5.3440    5.1420  -18.5310 C   0  0  0  0  0  0  0  0  0  0  0  0
   -7.1770    6.4010  -15.8100 N   0  0  0  0  0  0  0  0  0  0  0  0
   -9.0960    4.3280  -13.0960 H   0  0  0  0  0  0  0  0  0  0  0  0
   -8.1550    2.4120  -10.8970 H   0  0  0  0  0  0  0  0  0  0  0  0
   -9.8720    2.5880  -11.2310 H   0  0  0  0  0  0  0  0  0  0  0  0
  -10.3360    1.4660   -9.3670 H   0  0  0  0  0  0  0  0  0  0  0  0
   -8.6500    1.2870   -9.0430 H   0  0  0  0  0  0  0  0  0  0  0  0
  -10.6710    2.7790   -7.7320 H   0  0  0  0  0  0  0  0  0  0  0  0
   -9.1470    2.1550   -7.1740 H   0  0  0  0  0  0  0  0  0  0  0  0
   -9.7470    4.7790   -7.1640 H   0  0  0  0  0  0  0  0  0  0  0  0
   -8.0800    4.1600   -7.3160 H   0  0  0  0  0  0  0  0  0  0  0  0
   -8.6030    7.5230  -10.6990 H   0  0  0  0  0  0  0  0  0  0  0  0
   -9.9720    4.6290  -15.8590 H   0  0  0  0  0  0  0  0  0  0  0  0
   -5.6820    7.0970  -17.8170 H   0  0  0  0  0  0  0  0  0  0  0  0
   -7.1410    7.8390  -19.4230 H   0  0  0  0  0  0  0  0  0  0  0  0
   -7.8210    6.2580  -19.7650 H   0  0  0  0  0  0  0  0  0  0  0  0
   -6.0880    7.4550  -21.4040 H   0  0  0  0  0  0  0  0  0  0  0  0
   -6.0770    5.7160  -21.1890 H   0  0  0  0  0  0  0  0  0  0  0  0
   -4.2070    7.7420  -19.8380 H   0  0  0  0  0  0  0  0  0  0  0  0
   -3.7770    6.6150  -21.1180 H   0  0  0  0  0  0  0  0  0  0  0  0
   -3.5410    4.8630  -19.7050 H   0  0  0  0  0  0  0  0  0  0  0  0
   -3.3970    6.0780  -18.4480 H   0  0  0  0  0  0  0  0  0  0  0  0
   -5.8590    4.4720  -19.2220 H   0  0  0  0  0  0  0  0  0  0  0  0
   -5.0630    4.5550  -17.6530 H   0  0  0  0  0  0  0  0  0  0  0  0
  1  2  2  0
  2  3  1  0
  3  4  1  0
  4  5  2  0
  5  6  1  0
  6  7  1  0
  7  8  1  0
  8  9  1  0
  9 10  1  0
 10 11  1  0
 11 12  2  0
  2 13  1  0
 13 14  2  0
 14 15  1  0
 15 16  1  0
 16 17  1  0
 17 18  1  0
 18 19  1  0
 19 20  1  0
 20 21  1  0
 21 22  1  0
 16 23  2  0
 12  4  1  0
 10  5  1  0
 23 13  1  0
 22 17  1  0
  3 24  1  0
  6 25  1  0
  6 26  1  0
  7 27  1  0
  7 28  1  0
  8 29  1  0
  8 30  1  0
  9 31  1  0
  9 32  1  0
 12 33  1  0
 14 34  1  0
 17 35  1  0
 18 36  1  0
 18 37  1  0
 19 38  1  0
 19 39  1  0
 20 40  1  0
 20 41  1  0
 21 42  1  0
 21 43  1  0
 22 44  1  0
 22 45  1  0
A    1
 O1 
A    2
 C1 
A    3
 N1 
A    4
 C2 
A    5
 C3 
A    6
 C4 
A    7
 C5 
A    8
 C6 
A    9
 C7 
A   10
 N2 
A   11
 N3 
A   12
 C8 
A   13
 C9 
A   14
 C10
A   15
 O2 
A   16
 C11
A   17
 C12
A   18
 C13
A   19
 C14
A   20
 C15
A   21
 C16
A   22
 C17
A   23
 N4 
A   24
 H1 
A   25
 H2 
A   26
 H3 
A   27
 H4 
A   28
 H5 
A   29
 H6 
A   30
 H7 
A   31
 H8 
A   32
 H9 
A   33
 H10
A   34
 H11
A   35
 H12
A   36
 H13
A   37
 H14
A   38
 H15
A   39
 H16
A   40
 H17
A   41
 H18
A   42
 H19
A   43
 H20
A   44
 H21
A   45
 H22
M  END
>  <ref_pdb>  (65) 
x0051_0B

>  <ref_mols>  (65) 
x0917_1B,x0969_1B

>  <original SMILES>  (65) 
[H]c1nn2c(c1N([H])C(=O)c1nc(C3([H])C([H])([H])C([H])([H])C([H])([H])C([H])([H])C3([H])[H])oc1[H])C([H])([H])C([H])([H])C([H])([H])C2([H])[H]

>  <index>  (65) 
120

>  <∆∆G>  (65) 
-5.258891

>  <∆G_bound>  (65) 
-4.453638

>  <∆G_unbound>  (65) 
0.805252

>  <comRMSD>  (65) 
0.641572

>  <N_constrained_atoms>  (65) 
24.0

>  <N_unconstrained_atoms>  (65) 
0.0

>  <runtime>  (65) 
70.637223

>  <LE>  (65) 
0.21912

>  <percent_hybrid>  (65) 
40.0

>  <dist>  (65) 
8.0

>  <ecfp4>  (65) 
0.25

>  <daylight>  (65) 
0.287179

>  <topodist>  (65) 
2.0

>  <mces>  (65) 
26.0

>  <tdn>  (65) 
2.0

>  <tup>  (65) 
0.0

>  <rdn>  (65) 
0.0

>  <rup>  (65) 
0.0

>  <ldn>  (65) 
0.0

>  <lup>  (65) 
0.0

>  <mut>  (65) 
5.0

>  <maj>  (65) 
5.0

>  <min>  (65) 
0.0

>  <hyb>  (65) 
1.0

>  <sub>  (65) 
0.0

>  <query_index>  (65) 
298.0

>  <max_hit_Tanimoto>  (65) 
0.272446

>  <largest_ring>  (65) 
0

>  <N_interactions_kept>  (65) 
2.0

>  <N_interactions_lost>  (65) 
1.0

>  <interaction_uniqueness_metric>  (65) 
0.138446

>  <ad_hoc_penalty>  (65) 
-31.667484

>  <N_rotatable_bonds>  (65) 
3

>  <N_HA>  (65) 
23

>  <cluster>  (65) 
6107

>  <N_interactions>  (65) 
6

>  <Enamine>  (65) 
1

>  <Mcule>  (65) 
0

>  <N_PAINS>  (65) 
0

>  <UFF_Gibbs>  (65) 
67.862622

>  <strain_per_HA>  (65) 
2.950549

>  <saltbridge:HIS:51>  (65) 
0

>  <pistack:HIS:51>  (65) 
1

>  <hydroph_interaction:HIS:51>  (65) 
1

>  <hbond:ALA:132>  (65) 
0

>  <hbond:SER:135>  (65) 
0

>  <hydroph_interaction:TYR:150>  (65) 
0

>  <pistack:TYR:161>  (65) 
0

>  <hydroph_interaction:TYR:161>  (65) 
2

>  <hydroph_interaction:ASP:83>  (65) 
0

>  <hbond:TYR:130>  (65) 
0

>  <hydroph_interaction:ALA:132>  (65) 
1

>  <hbond:HIS:51>  (65) 
0

>  <hbond:ASP:129>  (65) 
0

>  <hbond:TYR:150>  (65) 
0

>  <hbond:GLY:151>  (65) 
1

>  <hbond:TYR:161>  (65) 
0

>  <hydroph_interaction:TYR:130>  (65) 
0

>  <hydroph_interaction:PRO:131>  (65) 
0

>  <hydroph_interaction:ASP:129>  (65) 
0

>  <saltbridge:ASP:75>  (65) 
0

>  <saltbridge:ASP:83>  (65) 
0

>  <hydroph_interaction:ASN:152>  (65) 
0

>  <halogenbond:TYR:150>  (65) 
0

>  <hbond:ASP:83>  (65) 
0

>  <hydroph_interaction:VAL:155>  (65) 
0

>  <pication:TYR:161>  (65) 
0

>  <hbond:PRO:131>  (65) 
0

>  <hbond:LEU:128>  (65) 
0

>  <saltbridge:ASP:129>  (65) 
0

>  <hbond:THR:134>  (65) 
0

>  <pication:HIS:51>  (65) 
0

>  <hbond:SER:81>  (65) 
0

>  <hbond:GLY:159>  (65) 
0

>  <hydroph_interaction:PRO:101>  (65) 
0

>  <hydroph_interaction:THR:134>  (65) 
0

>  <hbond:GLY:82>  (65) 
0

>  <hydroph_interaction:GLU:104>  (65) 
0

>  <hydroph_interaction:VAL:36>  (65) 
0

>  <hydroph_interaction:MET:49>  (65) 
0

>  <halogenbond:GLU:104>  (65) 
0

>  <hydroph_interaction:LYS:107>  (65) 
0

$$$$
CSSB00011808445
     RDKit          3D

 27 28  0  0  0  0  0  0  0  0999 V2000
   -3.3290    5.3730  -18.9400 C   0  0  0  0  0  0  0  0  0  0  0  0
   -4.4640    5.0270  -18.0260 C   0  0  0  0  0  0  0  0  0  0  0  0
   -5.0920    6.0890  -17.2070 C   0  0  0  0  0  0  0  0  0  0  0  0
   -6.3280    5.8120  -16.6480 N   0  0  0  0  0  0  0  0  0  0  0  0
   -6.5090    5.8870  -15.2890 N   0  0  0  0  0  0  0  0  0  0  0  0
   -7.9150    5.5250  -15.0710 C   0  0  0  0  0  0  0  0  0  0  0  0
   -8.3760    5.5260  -13.7390 C   0  0  0  0  0  0  0  0  0  0  0  0
   -8.8260    6.6020  -13.3390 O   0  0  0  0  0  0  0  0  0  0  0  0
   -8.3580    4.5880  -12.9530 O   0  0  0  0  0  0  0  0  0  0  0  0
   -8.4940    5.2530  -16.3050 C   0  0  0  0  0  0  0  0  0  0  0  0
   -9.7510    4.8700  -16.7450 C   0  0  0  0  0  0  0  0  0  0  0  0
  -10.0480    4.6690  -18.1020 C   0  0  0  0  0  0  0  0  0  0  0  0
   -9.0610    4.8500  -19.0850 C   0  0  0  0  0  0  0  0  0  0  0  0
   -7.7610    5.2410  -18.7080 C   0  0  0  0  0  0  0  0  0  0  0  0
   -7.4380    5.4490  -17.3600 C   0  0  0  0  0  0  0  0  0  0  0  0
   -3.6680    5.3680  -19.9800 H   0  0  0  0  0  0  0  0  0  0  0  0
   -2.9090    6.3470  -18.6730 H   0  0  0  0  0  0  0  0  0  0  0  0
   -2.5430    4.6180  -18.8330 H   0  0  0  0  0  0  0  0  0  0  0  0
   -4.1090    4.2610  -17.3300 H   0  0  0  0  0  0  0  0  0  0  0  0
   -5.2530    4.5540  -18.6140 H   0  0  0  0  0  0  0  0  0  0  0  0
   -4.3950    6.3140  -16.3870 H   0  0  0  0  0  0  0  0  0  0  0  0
   -5.1850    7.0180  -17.7850 H   0  0  0  0  0  0  0  0  0  0  0  0
   -8.1300    7.2250  -13.6270 H   0  0  0  0  0  0  0  0  0  0  0  0
  -10.4760    4.7370  -15.9400 H   0  0  0  0  0  0  0  0  0  0  0  0
  -11.0520    4.3710  -18.3930 H   0  0  0  0  0  0  0  0  0  0  0  0
   -9.2980    4.6940  -20.1350 H   0  0  0  0  0  0  0  0  0  0  0  0
   -7.0810    5.3490  -19.5620 H   0  0  0  0  0  0  0  0  0  0  0  0
  1  2  1  0
  2  3  1  0
  3  4  1  0
  4  5  1  0
  5  6  2  0
  6  7  1  0
  7  8  1  0
  7  9  2  0
  6 10  1  0
 10 11  2  0
 11 12  1  0
 12 13  2  0
 13 14  1  0
 14 15  2  0
 15  4  1  0
 15 10  1  0
  1 16  1  0
  1 17  1  0
  1 18  1  0
  2 19  1  0
  2 20  1  0
  3 21  1  0
  3 22  1  0
  8 23  1  0
 11 24  1  0
 12 25  1  0
 13 26  1  0
 14 27  1  0
A    1
 C1 
A    2
 C2 
A    3
 C3 
A    4
 N1 
A    5
 N2 
A    6
 C4 
A    7
 C5 
A    8
 O1 
A    9
 O2 
A   10
 C6 
A   11
 C7 
A   12
 C8 
A   13
 C9 
A   14
 C10
A   15
 C11
A   16
 H1 
A   17
 H2 
A   18
 H3 
A   19
 H4 
A   20
 H5 
A   21
 H6 
A   22
 H7 
A   23
 H8 
A   24
 H9 
A   25
 H10
A   26
 H11
A   27
 H12
M  END
>  <ref_pdb>  (66) 
x0051_0B

>  <ref_mols>  (66) 
x0951_0B,x0800_0B

>  <original SMILES>  (66) 
[H]OC(=O)c1nn(C([H])([H])C([H])([H])C([H])([H])[H])c2c([H])c([H])c([H])c([H])c12

>  <index>  (66) 
65

>  <∆∆G>  (66) 
-6.158311

>  <∆G_bound>  (66) 
-5.918086

>  <∆G_unbound>  (66) 
0.240225

>  <comRMSD>  (66) 
0.602813

>  <N_constrained_atoms>  (66) 
17.0

>  <N_unconstrained_atoms>  (66) 
1.0

>  <runtime>  (66) 
19.346815

>  <LE>  (66) 
0.342128

>  <percent_hybrid>  (66) 
50.0

>  <dist>  (66) 
4.0

>  <ecfp4>  (66) 
0.104478

>  <daylight>  (66) 
0.165877

>  <topodist>  (66) 
0.0

>  <mces>  (66) 
16.0

>  <tdn>  (66) 
0.0

>  <tup>  (66) 
0.0

>  <rdn>  (66) 
0.0

>  <rup>  (66) 
0.0

>  <ldn>  (66) 
0.0

>  <lup>  (66) 
0.0

>  <mut>  (66) 
4.0

>  <maj>  (66) 
4.0

>  <min>  (66) 
0.0

>  <hyb>  (66) 
0.0

>  <sub>  (66) 
0.0

>  <query_index>  (66) 
116.0

>  <max_hit_Tanimoto>  (66) 
0.162955

>  <largest_ring>  (66) 
0

>  <N_interactions_kept>  (66) 
2.0

>  <N_interactions_lost>  (66) 
1.5

>  <interaction_uniqueness_metric>  (66) 
0.182402

>  <ad_hoc_penalty>  (66) 
-31.61971

>  <N_rotatable_bonds>  (66) 
4

>  <N_HA>  (66) 
15

>  <cluster>  (66) 
6159

>  <N_interactions>  (66) 
8

>  <Enamine>  (66) 
1

>  <Mcule>  (66) 
0

>  <N_PAINS>  (66) 
0

>  <UFF_Gibbs>  (66) 
98.493149

>  <strain_per_HA>  (66) 
6.56621

>  <saltbridge:HIS:51>  (66) 
1

>  <pistack:HIS:51>  (66) 
0

>  <hydroph_interaction:HIS:51>  (66) 
0

>  <hbond:ALA:132>  (66) 
0

>  <hbond:SER:135>  (66) 
0

>  <hydroph_interaction:TYR:150>  (66) 
1

>  <pistack:TYR:161>  (66) 
0

>  <hydroph_interaction:TYR:161>  (66) 
4

>  <hydroph_interaction:ASP:83>  (66) 
0

>  <hbond:TYR:130>  (66) 
0

>  <hydroph_interaction:ALA:132>  (66) 
0

>  <hbond:HIS:51>  (66) 
0

>  <hbond:ASP:129>  (66) 
0

>  <hbond:TYR:150>  (66) 
0

>  <hbond:GLY:151>  (66) 
0

>  <hbond:TYR:161>  (66) 
2

>  <hydroph_interaction:TYR:130>  (66) 
0

>  <hydroph_interaction:PRO:131>  (66) 
0

>  <hydroph_interaction:ASP:129>  (66) 
0

>  <saltbridge:ASP:75>  (66) 
0

>  <saltbridge:ASP:83>  (66) 
0

>  <hydroph_interaction:ASN:152>  (66) 
0

>  <halogenbond:TYR:150>  (66) 
0

>  <hbond:ASP:83>  (66) 
0

>  <hydroph_interaction:VAL:155>  (66) 
0

>  <pication:TYR:161>  (66) 
0

>  <hbond:PRO:131>  (66) 
0

>  <hbond:LEU:128>  (66) 
0

>  <saltbridge:ASP:129>  (66) 
0

>  <hbond:THR:134>  (66) 
0

>  <pication:HIS:51>  (66) 
0

>  <hbond:SER:81>  (66) 
0

>  <hbond:GLY:159>  (66) 
0

>  <hydroph_interaction:PRO:101>  (66) 
0

>  <hydroph_interaction:THR:134>  (66) 
0

>  <hbond:GLY:82>  (66) 
0

>  <hydroph_interaction:GLU:104>  (66) 
0

>  <hydroph_interaction:VAL:36>  (66) 
0

>  <hydroph_interaction:MET:49>  (66) 
0

>  <halogenbond:GLU:104>  (66) 
0

>  <hydroph_interaction:LYS:107>  (66) 
0

$$$$
YRMMDKDNUOUNTM-UHFFFAOYSA-N
     RDKit          3D

 39 41  0  0  0  0  0  0  0  0999 V2000
   -7.9320    5.1570  -13.3430 O   0  0  0  0  0  0  0  0  0  0  0  0
   -8.1100    6.1270  -14.3010 C   0  0  0  0  0  0  0  0  0  0  0  0
   -8.2830    7.3060  -14.0060 O   0  0  0  0  0  0  0  0  0  0  0  0
   -8.0810    5.7020  -15.8130 C   0  0  0  0  0  0  0  0  0  0  0  0
   -9.3900    5.2640  -16.4340 C   0  0  0  0  0  0  0  0  0  0  0  0
   -9.3830    4.9260  -17.8220 C   0  0  0  0  0  0  0  0  0  0  0  0
  -10.5290    4.5380  -18.5130 C   0  0  0  0  0  0  0  0  0  0  0  0
   -8.2170    4.9850  -18.5670 C   0  0  0  0  0  0  0  0  0  0  0  0
   -6.9250    5.4140  -17.9170 C   0  0  0  0  0  0  0  0  0  0  0  0
   -5.7270    5.4360  -18.8500 C   0  0  0  0  0  0  0  0  0  0  0  0
   -6.8970    5.7570  -16.5650 C   0  0  0  0  0  0  0  0  0  0  0  0
   -9.0760    5.0190  -12.4550 C   0  0  0  0  0  0  0  0  0  0  0  0
   -8.9230    5.3510  -10.9420 C   0  0  0  0  0  0  0  0  0  0  0  0
   -8.9980    4.2790  -10.0810 C   0  0  0  0  0  0  0  0  0  0  0  0
   -8.8680    4.8110   -8.8260 N   0  0  0  0  0  0  0  0  0  0  0  0
   -8.9150    3.9890   -7.6270 C   0  0  0  0  0  0  0  0  0  0  0  0
   -9.3970    2.7170   -7.9300 C   0  0  0  0  0  0  0  0  0  0  0  0
   -8.6930    2.2920   -9.0590 C   0  0  0  0  0  0  0  0  0  0  0  0
   -9.1580    2.9770  -10.2270 O   0  0  0  0  0  0  0  0  0  0  0  0
   -8.6980    6.1560   -8.8040 N   0  0  0  0  0  0  0  0  0  0  0  0
   -8.7340    6.4910  -10.1160 C   0  0  0  0  0  0  0  0  0  0  0  0
  -10.2990    5.2210  -15.8530 H   0  0  0  0  0  0  0  0  0  0  0  0
  -10.3210    3.5680  -18.9640 H   0  0  0  0  0  0  0  0  0  0  0  0
  -10.6730    5.2480  -19.3360 H   0  0  0  0  0  0  0  0  0  0  0  0
  -11.4950    4.4380  -18.0230 H   0  0  0  0  0  0  0  0  0  0  0  0
   -8.2330    4.7240  -19.6230 H   0  0  0  0  0  0  0  0  0  0  0  0
   -5.4600    6.4700  -19.0600 H   0  0  0  0  0  0  0  0  0  0  0  0
   -5.8400    4.9230  -19.8020 H   0  0  0  0  0  0  0  0  0  0  0  0
   -4.8780    4.9600  -18.3460 H   0  0  0  0  0  0  0  0  0  0  0  0
   -5.9660    6.0730  -16.0990 H   0  0  0  0  0  0  0  0  0  0  0  0
   -9.8650    5.6610  -12.8640 H   0  0  0  0  0  0  0  0  0  0  0  0
   -9.4380    3.9860  -12.5320 H   0  0  0  0  0  0  0  0  0  0  0  0
   -7.9140    3.9310   -7.1790 H   0  0  0  0  0  0  0  0  0  0  0  0
   -9.5800    4.4870   -6.9100 H   0  0  0  0  0  0  0  0  0  0  0  0
   -9.4280    2.1770   -6.9940 H   0  0  0  0  0  0  0  0  0  0  0  0
  -10.4480    2.8270   -8.2140 H   0  0  0  0  0  0  0  0  0  0  0  0
   -8.6990    1.2510   -9.2980 H   0  0  0  0  0  0  0  0  0  0  0  0
   -7.6330    2.5520   -8.9370 H   0  0  0  0  0  0  0  0  0  0  0  0
   -8.6280    7.5270  -10.4070 H   0  0  0  0  0  0  0  0  0  0  0  0
  1  2  1  0
  2  3  2  0
  2  4  1  0
  4  5  2  0
  5  6  1  0
  6  7  1  0
  6  8  2  0
  8  9  1  0
  9 10  1  0
  9 11  2  0
  1 12  1  0
 12 13  1  0
 13 14  2  0
 14 15  1  0
 15 16  1  0
 16 17  1  0
 17 18  1  0
 18 19  1  0
 15 20  1  0
 20 21  2  0
  4 11  1  0
 21 13  1  0
 19 14  1  0
  5 22  1  0
  7 23  1  0
  7 24  1  0
  7 25  1  0
  8 26  1  0
 10 27  1  0
 10 28  1  0
 10 29  1  0
 11 30  1  0
 12 31  1  0
 12 32  1  0
 16 33  1  0
 16 34  1  0
 17 35  1  0
 17 36  1  0
 18 37  1  0
 18 38  1  0
 21 39  1  0
A    1
 O1 
A    2
 C1 
A    3
 O2 
A    4
 C2 
A    5
 C3 
A    6
 C4 
A    7
 C5 
A    8
 C6 
A    9
 C7 
A   10
 C8 
A   11
 C9 
A   12
 C10
A   13
 C11
A   14
 C12
A   15
 N1 
A   16
 C13
A   17
 C14
A   18
 C15
A   19
 O3 
A   20
 N2 
A   21
 C16
A   22
 H1 
A   23
 H2 
A   24
 H3 
A   25
 H4 
A   26
 H5 
A   27
 H6 
A   28
 H7 
A   29
 H8 
A   30
 H9 
A   31
 H10
A   32
 H11
A   33
 H12
A   34
 H13
A   35
 H14
A   36
 H15
A   37
 H16
A   38
 H17
A   39
 H18
M  END
>  <ref_pdb>  (67) 
x0051_0B

>  <ref_mols>  (67) 
x0969_1B,x0589_0B

>  <original SMILES>  (67) 
[H]c1nn2c(c1C([H])([H])OC(=O)c1c([H])c(C([H])([H])[H])c([H])c(C([H])([H])[H])c1[H])OC([H])([H])C([H])([H])C2([H])[H]

>  <index>  (67) 
77

>  <∆∆G>  (67) 
-8.79516

>  <∆G_bound>  (67) 
-8.572494

>  <∆G_unbound>  (67) 
0.222667

>  <comRMSD>  (67) 
0.518071

>  <N_constrained_atoms>  (67) 
18.0

>  <N_unconstrained_atoms>  (67) 
3.0

>  <runtime>  (67) 
60.128616

>  <LE>  (67) 
0.418817

>  <percent_hybrid>  (67) 
45.0

>  <dist>  (67) 
5.0

>  <ecfp4>  (67) 
0.333333

>  <daylight>  (67) 
0.381323

>  <topodist>  (67) 
1.0

>  <mces>  (67) 
22.0

>  <tdn>  (67) 
0.0

>  <tup>  (67) 
1.0

>  <rdn>  (67) 
0.0

>  <rup>  (67) 
0.0

>  <ldn>  (67) 
0.0

>  <lup>  (67) 
0.0

>  <mut>  (67) 
3.0

>  <maj>  (67) 
3.0

>  <min>  (67) 
0.0

>  <hyb>  (67) 
1.0

>  <sub>  (67) 
0.0

>  <query_index>  (67) 
380.0

>  <max_hit_Tanimoto>  (67) 
0.244939

>  <largest_ring>  (67) 
0

>  <N_interactions_kept>  (67) 
1.5

>  <N_interactions_lost>  (67) 
1.0

>  <interaction_uniqueness_metric>  (67) 
0.176776

>  <ad_hoc_penalty>  (67) 
-31.594961

>  <N_rotatable_bonds>  (67) 
5

>  <N_HA>  (67) 
21

>  <cluster>  (67) 
6147

>  <N_interactions>  (67) 
6

>  <Enamine>  (67) 
0

>  <Mcule>  (67) 
1

>  <N_PAINS>  (67) 
0

>  <UFF_Gibbs>  (67) 
119.090706

>  <strain_per_HA>  (67) 
5.670986

>  <saltbridge:HIS:51>  (67) 
1

>  <pistack:HIS:51>  (67) 
1

>  <hydroph_interaction:HIS:51>  (67) 
0

>  <hbond:ALA:132>  (67) 
0

>  <hbond:SER:135>  (67) 
0

>  <hydroph_interaction:TYR:150>  (67) 
1

>  <pistack:TYR:161>  (67) 
1

>  <hydroph_interaction:TYR:161>  (67) 
1

>  <hydroph_interaction:ASP:83>  (67) 
0

>  <hbond:TYR:130>  (67) 
0

>  <hydroph_interaction:ALA:132>  (67) 
1

>  <hbond:HIS:51>  (67) 
0

>  <hbond:ASP:129>  (67) 
0

>  <hbond:TYR:150>  (67) 
0

>  <hbond:GLY:151>  (67) 
0

>  <hbond:TYR:161>  (67) 
0

>  <hydroph_interaction:TYR:130>  (67) 
0

>  <hydroph_interaction:PRO:131>  (67) 
0

>  <hydroph_interaction:ASP:129>  (67) 
0

>  <saltbridge:ASP:75>  (67) 
0

>  <saltbridge:ASP:83>  (67) 
0

>  <hydroph_interaction:ASN:152>  (67) 
0

>  <halogenbond:TYR:150>  (67) 
0

>  <hbond:ASP:83>  (67) 
0

>  <hydroph_interaction:VAL:155>  (67) 
0

>  <pication:TYR:161>  (67) 
0

>  <hbond:PRO:131>  (67) 
0

>  <hbond:LEU:128>  (67) 
0

>  <saltbridge:ASP:129>  (67) 
0

>  <hbond:THR:134>  (67) 
0

>  <pication:HIS:51>  (67) 
0

>  <hbond:SER:81>  (67) 
0

>  <hbond:GLY:159>  (67) 
0

>  <hydroph_interaction:PRO:101>  (67) 
0

>  <hydroph_interaction:THR:134>  (67) 
0

>  <hbond:GLY:82>  (67) 
0

>  <hydroph_interaction:GLU:104>  (67) 
0

>  <hydroph_interaction:VAL:36>  (67) 
0

>  <hydroph_interaction:MET:49>  (67) 
0

>  <halogenbond:GLU:104>  (67) 
0

>  <hydroph_interaction:LYS:107>  (67) 
0

$$$$
Z4013376918
     RDKit          3D

 43 46  0  0  0  0  0  0  0  0999 V2000
   -9.2790    6.9960  -12.4070 O   0  0  0  0  0  0  0  0  0  0  0  0
   -8.7170    6.0300  -11.9040 C   0  0  0  0  0  0  0  0  0  0  0  0
   -7.9910    5.1290  -12.6150 O   0  0  0  0  0  0  0  0  0  0  0  0
   -8.5150    4.7460  -13.9060 C   0  0  0  0  0  0  0  0  0  0  0  0
   -7.7870    5.4920  -15.0740 C   0  0  0  0  0  0  0  0  0  0  0  0
   -6.2710    5.2500  -15.0570 C   0  0  0  0  0  0  0  0  0  0  0  0
   -5.5880    6.1450  -16.0740 C   0  0  0  0  0  0  0  0  0  0  0  0
   -5.9460    5.6260  -17.4470 C   0  0  0  0  0  0  0  0  0  0  0  0
   -7.4240    5.3150  -17.5540 C   0  0  0  0  0  0  0  0  0  0  0  0
   -7.9260    5.0800  -18.9540 C   0  0  0  0  0  0  0  0  0  0  0  0
   -9.3290    4.7810  -19.1250 C   0  0  0  0  0  0  0  0  0  0  0  0
  -10.0880    4.7340  -17.9710 C   0  0  0  0  0  0  0  0  0  0  0  0
   -9.6480    4.9450  -16.6920 N   0  0  0  0  0  0  0  0  0  0  0  0
   -8.3260    5.2340  -16.4820 C   0  0  0  0  0  0  0  0  0  0  0  0
   -8.7790    5.7650  -10.4630 C   0  0  0  0  0  0  0  0  0  0  0  0
   -8.8920    4.6080   -9.7700 C   0  0  0  0  0  0  0  0  0  0  0  0
   -8.9700    3.3480  -10.3820 C   0  0  0  0  0  0  0  0  0  0  0  0
   -8.7450    2.0020   -9.2090 S   0  0  0  0  0  0  0  0  0  0  0  0
   -9.6120    2.6830   -7.7790 C   0  0  0  0  0  0  0  0  0  0  0  0
   -9.0410    3.8620   -7.3320 C   0  0  0  0  0  0  0  0  0  0  0  0
   -8.9170    4.8580   -8.4000 N   0  0  0  0  0  0  0  0  0  0  0  0
   -8.8070    6.1960   -8.1950 C   0  0  0  0  0  0  0  0  0  0  0  0
   -8.7210    6.7970   -9.4750 C   0  0  0  0  0  0  0  0  0  0  0  0
   -9.6070    4.8730  -13.9380 H   0  0  0  0  0  0  0  0  0  0  0  0
   -8.3200    3.6780  -13.9680 H   0  0  0  0  0  0  0  0  0  0  0  0
   -7.9280    6.5660  -14.8950 H   0  0  0  0  0  0  0  0  0  0  0  0
   -6.1090    4.2340  -15.4160 H   0  0  0  0  0  0  0  0  0  0  0  0
   -5.8110    5.2190  -14.0730 H   0  0  0  0  0  0  0  0  0  0  0  0
   -5.6750    7.2180  -15.9200 H   0  0  0  0  0  0  0  0  0  0  0  0
   -4.5120    5.9640  -15.9470 H   0  0  0  0  0  0  0  0  0  0  0  0
   -5.6520    6.3660  -18.1990 H   0  0  0  0  0  0  0  0  0  0  0  0
   -5.3800    4.7120  -17.6610 H   0  0  0  0  0  0  0  0  0  0  0  0
   -7.2670    5.1350  -19.8140 H   0  0  0  0  0  0  0  0  0  0  0  0
   -9.8470    4.5920  -20.0640 H   0  0  0  0  0  0  0  0  0  0  0  0
  -11.1470    4.5060  -18.1420 H   0  0  0  0  0  0  0  0  0  0  0  0
   -9.9380    3.2220  -10.8720 H   0  0  0  0  0  0  0  0  0  0  0  0
   -8.2010    3.2100  -11.1450 H   0  0  0  0  0  0  0  0  0  0  0  0
   -9.5950    1.9300   -6.9930 H   0  0  0  0  0  0  0  0  0  0  0  0
  -10.6410    2.8280   -8.0630 H   0  0  0  0  0  0  0  0  0  0  0  0
   -8.0380    3.6590   -6.9340 H   0  0  0  0  0  0  0  0  0  0  0  0
   -9.6320    4.3170   -6.5310 H   0  0  0  0  0  0  0  0  0  0  0  0
   -8.8010    6.6290   -7.2030 H   0  0  0  0  0  0  0  0  0  0  0  0
   -8.6250    7.8580   -9.6700 H   0  0  0  0  0  0  0  0  0  0  0  0
  1  2  2  0
  2  3  1  0
  3  4  1  0
  4  5  1  0
  5  6  1  0
  6  7  1  0
  7  8  1  0
  8  9  1  0
  9 10  2  0
 10 11  1  0
 11 12  2  0
 12 13  1  0
 13 14  2  0
  2 15  1  0
 15 16  2  0
 16 17  1  0
 17 18  1  0
 18 19  1  0
 19 20  1  0
 20 21  1  0
 21 22  1  0
 22 23  2  0
 14  5  1  0
 14  9  1  0
 23 15  1  0
 21 16  1  0
  4 24  1  0
  4 25  1  0
  5 26  1  0
  6 27  1  0
  6 28  1  0
  7 29  1  0
  7 30  1  0
  8 31  1  0
  8 32  1  0
 10 33  1  0
 11 34  1  0
 12 35  1  0
 17 36  1  0
 17 37  1  0
 19 38  1  0
 19 39  1  0
 20 40  1  0
 20 41  1  0
 22 42  1  0
 23 43  1  0
A    1
 O1 
A    2
 C1 
A    3
 O2 
A    4
 C2 
A    5
 C3 
A    6
 C4 
A    7
 C5 
A    8
 C6 
A    9
 C7 
A   10
 C8 
A   11
 C9 
A   12
 C10
A   13
 N1 
A   14
 C11
A   15
 C12
A   16
 C13
A   17
 C14
A   18
 S1 
A   19
 C15
A   20
 C16
A   21
 N2 
A   22
 C17
A   23
 C18
A   24
 H1 
A   25
 H2 
A   26
 H3 
A   27
 H4 
A   28
 H5 
A   29
 H6 
A   30
 H7 
A   31
 H8 
A   32
 H9 
A   33
 H10
A   34
 H11
A   35
 H12
A   36
 H13
A   37
 H14
A   38
 H15
A   39
 H16
A   40
 H17
A   41
 H18
A   42
 H19
A   43
 H20
M  END
>  <ref_pdb>  (68) 
x0051_0B

>  <ref_mols>  (68) 
x0969_1B,x0455_0B

>  <original SMILES>  (68) 
[H]c1nc2c(c([H])c1[H])C([H])([H])C([H])([H])C([H])([H])C2([H])C([H])([H])OC(=O)c1c([H])c([H])n2c1C([H])([H])SC([H])([H])C2([H])[H]

>  <index>  (68) 
132

>  <∆∆G>  (68) 
-7.434509

>  <∆G_bound>  (68) 
-6.269205

>  <∆G_unbound>  (68) 
1.165304

>  <comRMSD>  (68) 
0.367147

>  <N_constrained_atoms>  (68) 
20.0

>  <N_unconstrained_atoms>  (68) 
3.0

>  <runtime>  (68) 
61.714466

>  <LE>  (68) 
0.32324

>  <percent_hybrid>  (68) 
50.0

>  <dist>  (68) 
5.0

>  <ecfp4>  (68) 
0.275862

>  <daylight>  (68) 
0.350543

>  <topodist>  (68) 
1.0

>  <mces>  (68) 
25.0

>  <tdn>  (68) 
0.0

>  <tup>  (68) 
1.0

>  <rdn>  (68) 
0.0

>  <rup>  (68) 
0.0

>  <ldn>  (68) 
0.0

>  <lup>  (68) 
0.0

>  <mut>  (68) 
3.0

>  <maj>  (68) 
3.0

>  <min>  (68) 
0.0

>  <hyb>  (68) 
1.0

>  <sub>  (68) 
0.0

>  <query_index>  (68) 
204.0

>  <max_hit_Tanimoto>  (68) 
0.217286

>  <largest_ring>  (68) 
0

>  <N_interactions_kept>  (68) 
1.0

>  <N_interactions_lost>  (68) 
1.5

>  <interaction_uniqueness_metric>  (68) 
0.157523

>  <ad_hoc_penalty>  (68) 
-31.538014

>  <N_rotatable_bonds>  (68) 
3

>  <N_HA>  (68) 
23

>  <cluster>  (68) 
6096

>  <N_interactions>  (68) 
6

>  <Enamine>  (68) 
1

>  <Mcule>  (68) 
0

>  <N_PAINS>  (68) 
0

>  <UFF_Gibbs>  (68) 
60.564857

>  <strain_per_HA>  (68) 
2.633255

>  <saltbridge:HIS:51>  (68) 
1

>  <pistack:HIS:51>  (68) 
0

>  <hydroph_interaction:HIS:51>  (68) 
1

>  <hbond:ALA:132>  (68) 
0

>  <hbond:SER:135>  (68) 
0

>  <hydroph_interaction:TYR:150>  (68) 
1

>  <pistack:TYR:161>  (68) 
0

>  <hydroph_interaction:TYR:161>  (68) 
3

>  <hydroph_interaction:ASP:83>  (68) 
0

>  <hbond:TYR:130>  (68) 
0

>  <hydroph_interaction:ALA:132>  (68) 
0

>  <hbond:HIS:51>  (68) 
0

>  <hbond:ASP:129>  (68) 
0

>  <hbond:TYR:150>  (68) 
0

>  <hbond:GLY:151>  (68) 
0

>  <hbond:TYR:161>  (68) 
0

>  <hydroph_interaction:TYR:130>  (68) 
0

>  <hydroph_interaction:PRO:131>  (68) 
0

>  <hydroph_interaction:ASP:129>  (68) 
0

>  <saltbridge:ASP:75>  (68) 
0

>  <saltbridge:ASP:83>  (68) 
0

>  <hydroph_interaction:ASN:152>  (68) 
0

>  <halogenbond:TYR:150>  (68) 
0

>  <hbond:ASP:83>  (68) 
0

>  <hydroph_interaction:VAL:155>  (68) 
0

>  <pication:TYR:161>  (68) 
0

>  <hbond:PRO:131>  (68) 
0

>  <hbond:LEU:128>  (68) 
0

>  <saltbridge:ASP:129>  (68) 
0

>  <hbond:THR:134>  (68) 
0

>  <pication:HIS:51>  (68) 
0

>  <hbond:SER:81>  (68) 
0

>  <hbond:GLY:159>  (68) 
0

>  <hydroph_interaction:PRO:101>  (68) 
0

>  <hydroph_interaction:THR:134>  (68) 
0

>  <hbond:GLY:82>  (68) 
0

>  <hydroph_interaction:GLU:104>  (68) 
0

>  <hydroph_interaction:VAL:36>  (68) 
0

>  <hydroph_interaction:MET:49>  (68) 
0

>  <halogenbond:GLU:104>  (68) 
0

>  <hydroph_interaction:LYS:107>  (68) 
0

$$$$
PV-002961301277
     RDKit          3D

 21 22  0  0  0  0  0  0  0  0999 V2000
   -5.8040    5.4100  -16.2040 C   0  0  0  0  0  0  0  0  0  0  0  0
   -5.5120    5.3850  -17.7010 C   0  0  0  0  0  0  0  0  0  0  0  0
   -4.1090    5.5340  -18.2360 C   0  0  0  0  0  0  0  0  0  0  0  0
   -3.9340    5.5000  -19.7020 C   0  0  0  0  0  0  0  0  0  0  0  0
   -4.9700    5.3470  -20.5330 N   0  0  0  0  0  0  0  0  0  0  0  0
   -6.3200    5.1990  -19.9930 C   0  0  0  0  0  0  0  0  0  0  0  0
   -6.5720    5.2150  -18.6250 C   0  0  0  0  0  0  0  0  0  0  0  0
   -8.0550    5.0300  -18.2440 C   0  0  0  0  0  0  0  0  0  0  0  0
   -8.5350    5.0650  -16.9550 C   0  0  0  0  0  0  0  0  0  0  0  0
   -9.8680    4.8650  -17.0100 O   0  0  0  0  0  0  0  0  0  0  0  0
  -10.2060    4.7100  -18.3280 C   0  0  0  0  0  0  0  0  0  0  0  0
   -9.0950    4.8030  -19.1350 C   0  0  0  0  0  0  0  0  0  0  0  0
   -6.4850    4.6530  -15.8370 H   0  0  0  0  0  0  0  0  0  0  0  0
   -4.9230    5.4920  -15.5760 H   0  0  0  0  0  0  0  0  0  0  0  0
   -6.3420    6.3430  -16.0040 H   0  0  0  0  0  0  0  0  0  0  0  0
   -3.3170    5.6590  -17.4900 H   0  0  0  0  0  0  0  0  0  0  0  0
   -2.9540    5.6010  -20.1430 H   0  0  0  0  0  0  0  0  0  0  0  0
   -7.1300    5.0710  -20.7060 H   0  0  0  0  0  0  0  0  0  0  0  0
   -8.1080    5.2060  -15.9720 H   0  0  0  0  0  0  0  0  0  0  0  0
  -11.2570    4.5450  -18.5170 H   0  0  0  0  0  0  0  0  0  0  0  0
   -9.0600    4.7190  -20.2130 H   0  0  0  0  0  0  0  0  0  0  0  0
  1  2  1  0
  2  3  2  0
  3  4  1  0
  4  5  2  0
  5  6  1  0
  6  7  2  0
  7  8  1  0
  8  9  2  0
  9 10  1  0
 10 11  1  0
 11 12  2  0
  7  2  1  0
 12  8  1  0
  1 13  1  0
  1 14  1  0
  1 15  1  0
  3 16  1  0
  4 17  1  0
  6 18  1  0
  9 19  1  0
 11 20  1  0
 12 21  1  0
A    1
 C1 
A    2
 C2 
A    3
 C3 
A    4
 C4 
A    5
 N1 
A    6
 C5 
A    7
 C6 
A    8
 C7 
A    9
 C8 
A   10
 O1 
A   11
 C9 
A   12
 C10
A   13
 H1 
A   14
 H2 
A   15
 H3 
A   16
 H4 
A   17
 H5 
A   18
 H6 
A   19
 H7 
A   20
 H8 
A   21
 H9 
M  END
>  <ref_pdb>  (69) 
x0051_0B

>  <ref_mols>  (69) 
x0680_0B,x0386_0B

>  <original SMILES>  (69) 
[H]c1nc([H])c(-c2c([H])oc([H])c2[H])c(C([H])([H])[H])c1[H]

>  <index>  (69) 
57

>  <∆∆G>  (69) 
-6.460825

>  <∆G_bound>  (69) 
-6.64134

>  <∆G_unbound>  (69) 
-0.180515

>  <comRMSD>  (69) 
0.775182

>  <N_constrained_atoms>  (69) 
13.0

>  <N_unconstrained_atoms>  (69) 
0.0

>  <runtime>  (69) 
22.566052

>  <LE>  (69) 
0.496987

>  <percent_hybrid>  (69) 
25.0

>  <dist>  (69) 
1.0

>  <ecfp4>  (69) 
0.536585

>  <daylight>  (69) 
0.491935

>  <topodist>  (69) 
0.0

>  <mces>  (69) 
13.0

>  <tdn>  (69) 
0.0

>  <tup>  (69) 
0.0

>  <rdn>  (69) 
0.0

>  <rup>  (69) 
0.0

>  <ldn>  (69) 
0.0

>  <lup>  (69) 
0.0

>  <mut>  (69) 
1.0

>  <maj>  (69) 
1.0

>  <min>  (69) 
0.0

>  <hyb>  (69) 
0.0

>  <sub>  (69) 
0.0

>  <query_index>  (69) 
296.0

>  <max_hit_Tanimoto>  (69) 
0.170175

>  <largest_ring>  (69) 
0

>  <N_interactions_kept>  (69) 
3.0

>  <N_interactions_lost>  (69) 
1.0

>  <interaction_uniqueness_metric>  (69) 
0.036522

>  <ad_hoc_penalty>  (69) 
-31.509667

>  <N_rotatable_bonds>  (69) 
2

>  <N_HA>  (69) 
12

>  <cluster>  (69) 
6166

>  <N_interactions>  (69) 
6

>  <Enamine>  (69) 
1

>  <Mcule>  (69) 
0

>  <N_PAINS>  (69) 
0

>  <UFF_Gibbs>  (69) 
64.481082

>  <strain_per_HA>  (69) 
5.373424

>  <saltbridge:HIS:51>  (69) 
0

>  <pistack:HIS:51>  (69) 
0

>  <hydroph_interaction:HIS:51>  (69) 
0

>  <hbond:ALA:132>  (69) 
0

>  <hbond:SER:135>  (69) 
0

>  <hydroph_interaction:TYR:150>  (69) 
1

>  <pistack:TYR:161>  (69) 
0

>  <hydroph_interaction:TYR:161>  (69) 
5

>  <hydroph_interaction:ASP:83>  (69) 
0

>  <hbond:TYR:130>  (69) 
0

>  <hydroph_interaction:ALA:132>  (69) 
0

>  <hbond:HIS:51>  (69) 
0

>  <hbond:ASP:129>  (69) 
0

>  <hbond:TYR:150>  (69) 
0

>  <hbond:GLY:151>  (69) 
0

>  <hbond:TYR:161>  (69) 
0

>  <hydroph_interaction:TYR:130>  (69) 
0

>  <hydroph_interaction:PRO:131>  (69) 
0

>  <hydroph_interaction:ASP:129>  (69) 
0

>  <saltbridge:ASP:75>  (69) 
0

>  <saltbridge:ASP:83>  (69) 
0

>  <hydroph_interaction:ASN:152>  (69) 
0

>  <halogenbond:TYR:150>  (69) 
0

>  <hbond:ASP:83>  (69) 
0

>  <hydroph_interaction:VAL:155>  (69) 
0

>  <pication:TYR:161>  (69) 
0

>  <hbond:PRO:131>  (69) 
0

>  <hbond:LEU:128>  (69) 
0

>  <saltbridge:ASP:129>  (69) 
0

>  <hbond:THR:134>  (69) 
0

>  <pication:HIS:51>  (69) 
0

>  <hbond:SER:81>  (69) 
0

>  <hbond:GLY:159>  (69) 
0

>  <hydroph_interaction:PRO:101>  (69) 
0

>  <hydroph_interaction:THR:134>  (69) 
0

>  <hbond:GLY:82>  (69) 
0

>  <hydroph_interaction:GLU:104>  (69) 
0

>  <hydroph_interaction:VAL:36>  (69) 
0

>  <hydroph_interaction:MET:49>  (69) 
0

>  <halogenbond:GLU:104>  (69) 
0

>  <hydroph_interaction:LYS:107>  (69) 
0

$$$$
Z3520894948
     RDKit          3D

 45 48  0  0  0  0  0  0  0  0999 V2000
   -9.5150    7.3080  -13.7250 O   0  0  0  0  0  0  0  0  0  0  0  0
   -9.4510    6.1110  -13.4500 C   0  0  0  0  0  0  0  0  0  0  0  0
  -10.1630    5.6060  -12.1890 C   0  0  0  0  0  0  0  0  0  0  0  0
   -9.2850    5.7460  -10.8910 C   0  0  0  0  0  0  0  0  0  0  0  0
   -8.8550    4.4530  -10.2370 C   0  0  0  0  0  0  0  0  0  0  0  0
   -9.1460    3.1580  -10.6320 C   0  0  0  0  0  0  0  0  0  0  0  0
   -9.0230    2.2590   -9.5870 C   0  0  0  0  0  0  0  0  0  0  0  0
   -8.1130    2.5620   -8.5760 C   0  0  0  0  0  0  0  0  0  0  0  0
   -7.5210    3.8030   -8.3420 C   0  0  0  0  0  0  0  0  0  0  0  0
   -8.1110    4.7940   -9.1710 N   0  0  0  0  0  0  0  0  0  0  0  0
   -7.9700    6.1370   -8.9710 N   0  0  0  0  0  0  0  0  0  0  0  0
   -8.7330    6.7550  -10.0840 C   0  0  0  0  0  0  0  0  0  0  0  0
   -8.7730    5.1710  -14.2110 N   0  0  0  0  0  0  0  0  0  0  0  0
   -7.8220    5.6550  -15.1930 C   0  0  0  0  0  0  0  0  0  0  0  0
   -6.5370    5.1370  -15.0080 C   0  0  0  0  0  0  0  0  0  0  0  0
   -5.5470    5.6110  -16.0770 C   0  0  0  0  0  0  0  0  0  0  0  0
   -6.1050    5.6150  -17.4370 N   0  0  0  0  0  0  0  0  0  0  0  0
   -7.3850    5.3050  -17.6290 C   0  0  0  0  0  0  0  0  0  0  0  0
   -7.8350    4.9740  -19.0150 C   0  0  0  0  0  0  0  0  0  0  0  0
   -9.2950    4.6180  -19.2930 C   0  0  0  0  0  0  0  0  0  0  0  0
  -10.1150    4.6250  -18.1850 C   0  0  0  0  0  0  0  0  0  0  0  0
   -9.6280    4.9610  -16.7920 C   0  0  0  0  0  0  0  0  0  0  0  0
   -8.2970    5.2940  -16.5670 C   0  0  0  0  0  0  0  0  0  0  0  0
  -10.3550    4.5460  -12.3720 H   0  0  0  0  0  0  0  0  0  0  0  0
  -11.1450    6.0300  -11.9570 H   0  0  0  0  0  0  0  0  0  0  0  0
   -8.5400    2.8730  -11.4920 H   0  0  0  0  0  0  0  0  0  0  0  0
  -10.1220    3.1030  -11.1130 H   0  0  0  0  0  0  0  0  0  0  0  0
   -8.8520    1.2640   -9.9450 H   0  0  0  0  0  0  0  0  0  0  0  0
  -10.0060    2.1900   -9.1270 H   0  0  0  0  0  0  0  0  0  0  0  0
   -8.4170    2.1150   -7.6260 H   0  0  0  0  0  0  0  0  0  0  0  0
   -7.2780    1.9750   -8.8980 H   0  0  0  0  0  0  0  0  0  0  0  0
   -6.4540    3.8750   -8.5390 H   0  0  0  0  0  0  0  0  0  0  0  0
   -7.6420    4.1170   -7.3100 H   0  0  0  0  0  0  0  0  0  0  0  0
   -8.7940    7.8360  -10.1770 H   0  0  0  0  0  0  0  0  0  0  0  0
   -9.2420    4.2840  -14.4410 H   0  0  0  0  0  0  0  0  0  0  0  0
   -7.9030    6.7380  -15.1290 H   0  0  0  0  0  0  0  0  0  0  0  0
   -6.5030    4.0840  -14.7690 H   0  0  0  0  0  0  0  0  0  0  0  0
   -6.1670    5.5870  -14.0770 H   0  0  0  0  0  0  0  0  0  0  0  0
   -5.1700    6.6120  -15.8380 H   0  0  0  0  0  0  0  0  0  0  0  0
   -4.6800    4.9450  -16.0730 H   0  0  0  0  0  0  0  0  0  0  0  0
   -5.8070    6.4080  -18.0050 H   0  0  0  0  0  0  0  0  0  0  0  0
   -7.0330    5.0190  -19.7650 H   0  0  0  0  0  0  0  0  0  0  0  0
   -9.6370    4.3820  -20.2880 H   0  0  0  0  0  0  0  0  0  0  0  0
  -11.1750    4.3760  -18.3260 H   0  0  0  0  0  0  0  0  0  0  0  0
  -10.3800    4.9270  -16.0050 H   0  0  0  0  0  0  0  0  0  0  0  0
  1  2  2  0
  2  3  1  0
  3  4  1  0
  4  5  2  0
  5  6  1  0
  6  7  1  0
  7  8  1  0
  8  9  1  0
  9 10  1  0
 10 11  1  0
 11 12  2  0
  2 13  1  0
 13 14  1  0
 14 15  1  0
 15 16  1  0
 16 17  1  0
 17 18  1  0
 18 19  2  0
 19 20  1  0
 20 21  2  0
 21 22  1  0
 22 23  2  0
 12  4  1  0
 10  5  1  0
 23 14  1  0
 23 18  1  0
  3 24  1  0
  3 25  1  0
  6 26  1  0
  6 27  1  0
  7 28  1  0
  7 29  1  0
  8 30  1  0
  8 31  1  0
  9 32  1  0
  9 33  1  0
 12 34  1  0
 13 35  1  0
 14 36  1  0
 15 37  1  0
 15 38  1  0
 16 39  1  0
 16 40  1  0
 17 41  1  0
 19 42  1  0
 20 43  1  0
 21 44  1  0
 22 45  1  0
A    1
 O1 
A    2
 C1 
A    3
 C2 
A    4
 C3 
A    5
 C4 
A    6
 C5 
A    7
 C6 
A    8
 C7 
A    9
 C8 
A   10
 N1 
A   11
 N2 
A   12
 C9 
A   13
 N3 
A   14
 C10
A   15
 C11
A   16
 C12
A   17
 N4 
A   18
 C13
A   19
 C14
A   20
 C15
A   21
 C16
A   22
 C17
A   23
 C18
A   24
 H1 
A   25
 H2 
A   26
 H3 
A   27
 H4 
A   28
 H5 
A   29
 H6 
A   30
 H7 
A   31
 H8 
A   32
 H9 
A   33
 H10
A   34
 H11
A   35
 H12
A   36
 H13
A   37
 H14
A   38
 H15
A   39
 H16
A   40
 H17
A   41
 H18
A   42
 H19
A   43
 H20
A   44
 H21
A   45
 H22
M  END
>  <ref_pdb>  (70) 
x0051_0B

>  <ref_mols>  (70) 
x0969_1B,x0455_0B

>  <original SMILES>  (70) 
[H]c1nn2c(c1C([H])([H])C(=O)N([H])C1([H])c3c([H])c([H])c([H])c([H])c3N([H])C([H])([H])C1([H])[H])C([H])([H])C([H])([H])C([H])([H])C2([H])[H]

>  <index>  (70) 
52

>  <∆∆G>  (70) 
-6.916073

>  <∆G_bound>  (70) 
-5.647135

>  <∆G_unbound>  (70) 
1.268938

>  <comRMSD>  (70) 
0.891182

>  <N_constrained_atoms>  (70) 
20.0

>  <N_unconstrained_atoms>  (70) 
3.0

>  <runtime>  (70) 
51.923284

>  <LE>  (70) 
0.300699

>  <percent_hybrid>  (70) 
50.0

>  <dist>  (70) 
5.0

>  <ecfp4>  (70) 
0.346154

>  <daylight>  (70) 
0.325967

>  <topodist>  (70) 
1.0

>  <mces>  (70) 
25.0

>  <tdn>  (70) 
0.0

>  <tup>  (70) 
1.0

>  <rdn>  (70) 
0.0

>  <rup>  (70) 
0.0

>  <ldn>  (70) 
0.0

>  <lup>  (70) 
0.0

>  <mut>  (70) 
4.0

>  <maj>  (70) 
4.0

>  <min>  (70) 
0.0

>  <hyb>  (70) 
0.0

>  <sub>  (70) 
0.0

>  <query_index>  (70) 
204.0

>  <max_hit_Tanimoto>  (70) 
0.298366

>  <largest_ring>  (70) 
0

>  <N_interactions_kept>  (70) 
1.0

>  <N_interactions_lost>  (70) 
1.5

>  <interaction_uniqueness_metric>  (70) 
0.225399

>  <ad_hoc_penalty>  (70) 
-31.49862

>  <N_rotatable_bonds>  (70) 
3

>  <N_HA>  (70) 
23

>  <cluster>  (70) 
6170

>  <N_interactions>  (70) 
7

>  <Enamine>  (70) 
1

>  <Mcule>  (70) 
0

>  <N_PAINS>  (70) 
0

>  <UFF_Gibbs>  (70) 
173.786661

>  <strain_per_HA>  (70) 
7.555942

>  <saltbridge:HIS:51>  (70) 
0

>  <pistack:HIS:51>  (70) 
1

>  <hydroph_interaction:HIS:51>  (70) 
1

>  <hbond:ALA:132>  (70) 
0

>  <hbond:SER:135>  (70) 
0

>  <hydroph_interaction:TYR:150>  (70) 
1

>  <pistack:TYR:161>  (70) 
1

>  <hydroph_interaction:TYR:161>  (70) 
1

>  <hydroph_interaction:ASP:83>  (70) 
1

>  <hbond:TYR:130>  (70) 
0

>  <hydroph_interaction:ALA:132>  (70) 
0

>  <hbond:HIS:51>  (70) 
0

>  <hbond:ASP:129>  (70) 
0

>  <hbond:TYR:150>  (70) 
0

>  <hbond:GLY:151>  (70) 
1

>  <hbond:TYR:161>  (70) 
0

>  <hydroph_interaction:TYR:130>  (70) 
0

>  <hydroph_interaction:PRO:131>  (70) 
0

>  <hydroph_interaction:ASP:129>  (70) 
0

>  <saltbridge:ASP:75>  (70) 
0

>  <saltbridge:ASP:83>  (70) 
0

>  <hydroph_interaction:ASN:152>  (70) 
0

>  <halogenbond:TYR:150>  (70) 
0

>  <hbond:ASP:83>  (70) 
0

>  <hydroph_interaction:VAL:155>  (70) 
0

>  <pication:TYR:161>  (70) 
0

>  <hbond:PRO:131>  (70) 
0

>  <hbond:LEU:128>  (70) 
0

>  <saltbridge:ASP:129>  (70) 
0

>  <hbond:THR:134>  (70) 
0

>  <pication:HIS:51>  (70) 
0

>  <hbond:SER:81>  (70) 
0

>  <hbond:GLY:159>  (70) 
0

>  <hydroph_interaction:PRO:101>  (70) 
0

>  <hydroph_interaction:THR:134>  (70) 
0

>  <hbond:GLY:82>  (70) 
0

>  <hydroph_interaction:GLU:104>  (70) 
0

>  <hydroph_interaction:VAL:36>  (70) 
0

>  <hydroph_interaction:MET:49>  (70) 
0

>  <halogenbond:GLU:104>  (70) 
0

>  <hydroph_interaction:LYS:107>  (70) 
0

$$$$
GQCAPQHBNFFLJD-UHFFFAOYSA-N
     RDKit          3D

 44 47  0  0  0  0  0  0  0  0999 V2000
   -8.5780    7.2250  -13.9770 C   0  0  0  0  0  0  0  0  0  0  0  0
   -7.7810    6.5500  -14.8950 N   0  0  0  0  0  0  0  0  0  0  0  0
   -8.2570    5.8900  -16.0970 C   0  0  0  0  0  0  0  0  0  0  0  0
   -7.1910    5.7210  -17.1890 C   0  0  0  0  0  0  0  0  0  0  0  0
   -7.5930    5.1550  -18.3310 C   0  0  0  0  0  0  0  0  0  0  0  0
   -6.3950    5.1040  -19.2620 C   0  0  0  0  0  0  0  0  0  0  0  0
   -5.3480    5.6310  -18.6150 N   0  0  0  0  0  0  0  0  0  0  0  0
   -5.8500    5.9900  -17.3890 N   0  0  0  0  0  0  0  0  0  0  0  0
   -8.9930    4.6560  -18.6400 C   0  0  0  0  0  0  0  0  0  0  0  0
   -9.9160    4.8160  -17.6010 C   0  0  0  0  0  0  0  0  0  0  0  0
   -9.5480    5.4140  -16.3710 C   0  0  0  0  0  0  0  0  0  0  0  0
   -9.1230    8.3230  -14.0640 O   0  0  0  0  0  0  0  0  0  0  0  0
   -8.6800    6.4620  -12.7280 C   0  0  0  0  0  0  0  0  0  0  0  0
   -8.5330    7.1250  -11.5360 C   0  0  0  0  0  0  0  0  0  0  0  0
   -8.5920    6.4410  -10.3550 C   0  0  0  0  0  0  0  0  0  0  0  0
   -8.8030    5.0560  -10.3300 C   0  0  0  0  0  0  0  0  0  0  0  0
   -8.8450    4.3600   -9.1570 N   0  0  0  0  0  0  0  0  0  0  0  0
   -8.7790    2.9030   -9.1760 C   0  0  0  0  0  0  0  0  0  0  0  0
   -9.6350    2.4410   -8.2040 C   0  0  0  0  0  0  0  0  0  0  0  0
   -9.3490    2.8590   -6.9740 C   0  0  0  0  0  0  0  0  0  0  0  0
   -8.8700    4.2000   -6.7500 C   0  0  0  0  0  0  0  0  0  0  0  0
   -8.3460    4.9790   -7.9340 C   0  0  0  0  0  0  0  0  0  0  0  0
   -8.9640    4.4020  -11.5580 C   0  0  0  0  0  0  0  0  0  0  0  0
   -8.9060    5.0920  -12.7550 C   0  0  0  0  0  0  0  0  0  0  0  0
   -6.9150    6.1690  -14.5350 H   0  0  0  0  0  0  0  0  0  0  0  0
   -6.3030    4.7270  -20.2730 H   0  0  0  0  0  0  0  0  0  0  0  0
   -5.2050    6.4200  -16.7370 H   0  0  0  0  0  0  0  0  0  0  0  0
   -9.2610    4.2050  -19.5890 H   0  0  0  0  0  0  0  0  0  0  0  0
  -10.9370    4.4820  -17.7440 H   0  0  0  0  0  0  0  0  0  0  0  0
  -10.3210    5.5100  -15.6170 H   0  0  0  0  0  0  0  0  0  0  0  0
   -8.3620    8.2010  -11.5270 H   0  0  0  0  0  0  0  0  0  0  0  0
   -8.4640    7.0100   -9.4400 H   0  0  0  0  0  0  0  0  0  0  0  0
   -9.0460    2.4380  -10.1300 H   0  0  0  0  0  0  0  0  0  0  0  0
   -7.7520    2.5800   -8.9640 H   0  0  0  0  0  0  0  0  0  0  0  0
   -9.6220    1.3510   -8.1940 H   0  0  0  0  0  0  0  0  0  0  0  0
  -10.6550    2.7300   -8.4700 H   0  0  0  0  0  0  0  0  0  0  0  0
  -10.2720    2.7540   -6.3950 H   0  0  0  0  0  0  0  0  0  0  0  0
   -8.6250    2.1590   -6.5470 H   0  0  0  0  0  0  0  0  0  0  0  0
   -8.0860    4.1700   -5.9840 H   0  0  0  0  0  0  0  0  0  0  0  0
   -9.6920    4.7740   -6.3010 H   0  0  0  0  0  0  0  0  0  0  0  0
   -7.2500    4.9820   -7.8980 H   0  0  0  0  0  0  0  0  0  0  0  0
   -8.7060    6.0140   -7.8680 H   0  0  0  0  0  0  0  0  0  0  0  0
   -9.1360    3.3290  -11.6020 H   0  0  0  0  0  0  0  0  0  0  0  0
   -9.0300    4.5490  -13.6890 H   0  0  0  0  0  0  0  0  0  0  0  0
  1  2  1  0
  2  3  1  0
  3  4  1  0
  4  5  2  0
  5  6  1  0
  6  7  2  0
  7  8  1  0
  5  9  1  0
  9 10  2  0
 10 11  1  0
  1 12  2  0
  1 13  1  0
 13 14  2  0
 14 15  1  0
 15 16  2  0
 16 17  1  0
 17 18  1  0
 18 19  1  0
 19 20  1  0
 20 21  1  0
 21 22  1  0
 16 23  1  0
 23 24  2  0
  3 11  2  0
  8  4  1  0
 24 13  1  0
 22 17  1  0
  2 25  1  0
  6 26  1  0
  8 27  1  0
  9 28  1  0
 10 29  1  0
 11 30  1  0
 14 31  1  0
 15 32  1  0
 18 33  1  0
 18 34  1  0
 19 35  1  0
 19 36  1  0
 20 37  1  0
 20 38  1  0
 21 39  1  0
 21 40  1  0
 22 41  1  0
 22 42  1  0
 23 43  1  0
 24 44  1  0
A    1
 C1 
A    2
 N1 
A    3
 C2 
A    4
 C3 
A    5
 C4 
A    6
 C5 
A    7
 N2 
A    8
 N3 
A    9
 C6 
A   10
 C7 
A   11
 C8 
A   12
 O1 
A   13
 C9 
A   14
 C10
A   15
 C11
A   16
 C12
A   17
 N4 
A   18
 C13
A   19
 C14
A   20
 C15
A   21
 C16
A   22
 C17
A   23
 C18
A   24
 C19
A   25
 H1 
A   26
 H2 
A   27
 H3 
A   28
 H4 
A   29
 H5 
A   30
 H6 
A   31
 H7 
A   32
 H8 
A   33
 H9 
A   34
 H10
A   35
 H11
A   36
 H12
A   37
 H13
A   38
 H14
A   39
 H15
A   40
 H16
A   41
 H17
A   42
 H18
A   43
 H19
A   44
 H20
M  END
>  <ref_pdb>  (71) 
x0051_0B

>  <ref_mols>  (71) 
x0435_0B,x0404_0B

>  <original SMILES>  (71) 
[H]c1c([H])c(N2C([H])([H])C([H])([H])C([H])([H])C([H])([H])C2([H])[H])c([H])c([H])c1C(=O)N([H])c1c([H])c([H])c([H])c2c([H])nn([H])c12

>  <index>  (71) 
51

>  <∆∆G>  (71) 
-8.30127

>  <∆G_bound>  (71) 
-7.945258

>  <∆G_unbound>  (71) 
0.356012

>  <comRMSD>  (71) 
0.533634

>  <N_constrained_atoms>  (71) 
25.0

>  <N_unconstrained_atoms>  (71) 
0.0

>  <runtime>  (71) 
80.057317

>  <LE>  (71) 
0.332051

>  <percent_hybrid>  (71) 
40.0

>  <dist>  (71) 
8.0

>  <ecfp4>  (71) 
0.186047

>  <daylight>  (71) 
0.231373

>  <topodist>  (71) 
3.0

>  <mces>  (71) 
27.0

>  <tdn>  (71) 
2.0

>  <tup>  (71) 
0.0

>  <rdn>  (71) 
0.0

>  <rup>  (71) 
0.0

>  <ldn>  (71) 
1.0

>  <lup>  (71) 
0.0

>  <mut>  (71) 
3.0

>  <maj>  (71) 
3.0

>  <min>  (71) 
0.0

>  <hyb>  (71) 
2.0

>  <sub>  (71) 
1.0

>  <query_index>  (71) 
26.0

>  <max_hit_Tanimoto>  (71) 
0.225182

>  <largest_ring>  (71) 
0

>  <N_interactions_kept>  (71) 
3.5

>  <N_interactions_lost>  (71) 
1.0

>  <interaction_uniqueness_metric>  (71) 
0.079199

>  <ad_hoc_penalty>  (71) 
-31.423956

>  <N_rotatable_bonds>  (71) 
3

>  <N_HA>  (71) 
24

>  <cluster>  (71) 
532

>  <N_interactions>  (71) 
5

>  <Enamine>  (71) 
0

>  <Mcule>  (71) 
1

>  <N_PAINS>  (71) 
0

>  <UFF_Gibbs>  (71) 
150.936404

>  <strain_per_HA>  (71) 
6.289017

>  <saltbridge:HIS:51>  (71) 
0

>  <pistack:HIS:51>  (71) 
1

>  <hydroph_interaction:HIS:51>  (71) 
0

>  <hbond:ALA:132>  (71) 
0

>  <hbond:SER:135>  (71) 
0

>  <hydroph_interaction:TYR:150>  (71) 
1

>  <pistack:TYR:161>  (71) 
0

>  <hydroph_interaction:TYR:161>  (71) 
2

>  <hydroph_interaction:ASP:83>  (71) 
0

>  <hbond:TYR:130>  (71) 
0

>  <hydroph_interaction:ALA:132>  (71) 
1

>  <hbond:HIS:51>  (71) 
0

>  <hbond:ASP:129>  (71) 
0

>  <hbond:TYR:150>  (71) 
0

>  <hbond:GLY:151>  (71) 
0

>  <hbond:TYR:161>  (71) 
0

>  <hydroph_interaction:TYR:130>  (71) 
0

>  <hydroph_interaction:PRO:131>  (71) 
0

>  <hydroph_interaction:ASP:129>  (71) 
0

>  <saltbridge:ASP:75>  (71) 
0

>  <saltbridge:ASP:83>  (71) 
0

>  <hydroph_interaction:ASN:152>  (71) 
0

>  <halogenbond:TYR:150>  (71) 
0

>  <hbond:ASP:83>  (71) 
0

>  <hydroph_interaction:VAL:155>  (71) 
0

>  <pication:TYR:161>  (71) 
0

>  <hbond:PRO:131>  (71) 
0

>  <hbond:LEU:128>  (71) 
0

>  <saltbridge:ASP:129>  (71) 
0

>  <hbond:THR:134>  (71) 
0

>  <pication:HIS:51>  (71) 
0

>  <hbond:SER:81>  (71) 
0

>  <hbond:GLY:159>  (71) 
0

>  <hydroph_interaction:PRO:101>  (71) 
0

>  <hydroph_interaction:THR:134>  (71) 
0

>  <hbond:GLY:82>  (71) 
0

>  <hydroph_interaction:GLU:104>  (71) 
0

>  <hydroph_interaction:VAL:36>  (71) 
0

>  <hydroph_interaction:MET:49>  (71) 
0

>  <halogenbond:GLU:104>  (71) 
0

>  <hydroph_interaction:LYS:107>  (71) 
0

$$$$
CSSB02495339813
     RDKit          3D

 31 33  0  0  0  0  0  0  0  0999 V2000
   -4.0670    7.0170  -19.8610 N   0  0  0  0  0  0  0  0  0  0  0  0
   -3.6690    6.4080  -18.6060 C   0  0  2  0  0  0  0  0  0  0  0  0
   -4.3110    5.0560  -18.3450 C   0  0  0  0  0  0  0  0  0  0  0  0
   -4.9150    5.1700  -16.9680 C   0  0  1  0  0  0  0  0  0  0  0  0
   -4.0400    6.1250  -16.3550 C   0  0  0  0  0  0  0  0  0  0  0  0
   -4.1680    7.1530  -17.3260 C   0  0  2  0  0  0  0  0  0  0  0  0
   -5.5530    7.3200  -17.3690 C   0  0  0  0  0  0  0  0  0  0  0  0
   -6.1370    6.1060  -16.9170 C   0  0  1  0  0  0  0  0  0  0  0  0
   -7.3790    5.6240  -17.3880 C   0  0  0  0  0  0  0  0  0  0  0  0
   -8.3670    5.3640  -16.4390 C   0  0  0  0  0  0  0  0  0  0  0  0
   -9.6170    4.8920  -16.8190 C   0  0  0  0  0  0  0  0  0  0  0  0
   -9.9130    4.6670  -18.1570 C   0  0  0  0  0  0  0  0  0  0  0  0
   -8.9440    4.9170  -19.1320 C   0  0  0  0  0  0  0  0  0  0  0  0
   -7.6800    5.3950  -18.7510 C   0  0  0  0  0  0  0  0  0  0  0  0
   -4.5570    6.3370  -20.4280 H   0  0  0  0  0  0  0  0  0  0  0  0
   -3.2410    7.2910  -20.3890 H   0  0  0  0  0  0  0  0  0  0  0  0
   -2.5750    6.3400  -18.5860 H   0  0  0  0  0  0  0  0  0  0  0  0
   -3.5330    4.2850  -18.3530 H   0  0  0  0  0  0  0  0  0  0  0  0
   -5.0620    4.8190  -19.1080 H   0  0  0  0  0  0  0  0  0  0  0  0
   -4.9520    4.2390  -16.3980 H   0  0  0  0  0  0  0  0  0  0  0  0
   -3.0120    5.7570  -16.2620 H   0  0  0  0  0  0  0  0  0  0  0  0
   -4.3890    6.4360  -15.3630 H   0  0  0  0  0  0  0  0  0  0  0  0
   -3.6220    8.0730  -17.1070 H   0  0  0  0  0  0  0  0  0  0  0  0
   -5.8630    8.2100  -16.8230 H   0  0  0  0  0  0  0  0  0  0  0  0
   -5.8600    7.4840  -18.4120 H   0  0  0  0  0  0  0  0  0  0  0  0
   -6.3270    6.2980  -15.8490 H   0  0  0  0  0  0  0  0  0  0  0  0
   -8.1840    5.5220  -15.3810 H   0  0  0  0  0  0  0  0  0  0  0  0
  -10.3610    4.6990  -16.0540 H   0  0  0  0  0  0  0  0  0  0  0  0
  -10.8910    4.3010  -18.4430 H   0  0  0  0  0  0  0  0  0  0  0  0
   -9.1670    4.7430  -20.1800 H   0  0  0  0  0  0  0  0  0  0  0  0
   -6.9370    5.5850  -19.5230 H   0  0  0  0  0  0  0  0  0  0  0  0
  1  2  1  0
  2  3  1  0
  3  4  1  0
  4  5  1  0
  5  6  1  0
  6  7  1  0
  7  8  1  0
  8  9  1  0
  9 10  2  0
 10 11  1  0
 11 12  2  0
 12 13  1  0
 13 14  2  0
  6  2  1  0
  8  4  1  0
 14  9  1  0
  1 15  1  0
  1 16  1  0
  2 17  1  1
  3 18  1  0
  3 19  1  0
  4 20  1  1
  5 21  1  0
  5 22  1  0
  6 23  1  1
  7 24  1  0
  7 25  1  0
  8 26  1  1
 10 27  1  0
 11 28  1  0
 12 29  1  0
 13 30  1  0
 14 31  1  0
A    1
 N1 
A    2
 C1 
A    3
 C2 
A    4
 C3 
A    5
 C4 
A    6
 C5 
A    7
 C6 
A    8
 C7 
A    9
 C8 
A   10
 C9 
A   11
 C10
A   12
 C11
A   13
 C12
A   14
 C13
A   15
 H1 
A   16
 H2 
A   17
 H3 
A   18
 H4 
A   19
 H5 
A   20
 H6 
A   21
 H7 
A   22
 H8 
A   23
 H9 
A   24
 H10
A   25
 H11
A   26
 H12
A   27
 H13
A   28
 H14
A   29
 H15
A   30
 H16
A   31
 H17
M  END
>  <ref_pdb>  (72) 
x0051_0B

>  <ref_mols>  (72) 
x0227_0B,x0472_0B

>  <original SMILES>  (72) 
[H]c1c([H])c([H])c([C@]2([H])C([H])([H])[C@@]3([H])C([H])([H])[C@]2([H])C([H])([H])[C@@]3([H])N([H])[H])c([H])c1[H]

>  <index>  (72) 
93

>  <∆∆G>  (72) 
-5.830488

>  <∆G_bound>  (72) 
-5.644722

>  <∆G_unbound>  (72) 
0.185767

>  <comRMSD>  (72) 
0.978135

>  <N_constrained_atoms>  (72) 
17.0

>  <N_unconstrained_atoms>  (72) 
2.0

>  <runtime>  (72) 
19.069865

>  <LE>  (72) 
0.306868

>  <percent_hybrid>  (72) 
45.0

>  <dist>  (72) 
5.0

>  <ecfp4>  (72) 
0.160714

>  <daylight>  (72) 
0.453488

>  <topodist>  (72) 
4.0

>  <mces>  (72) 
15.0

>  <tdn>  (72) 
3.0

>  <tup>  (72) 
0.0

>  <rdn>  (72) 
0.0

>  <rup>  (72) 
1.0

>  <ldn>  (72) 
0.0

>  <lup>  (72) 
0.0

>  <mut>  (72) 
1.0

>  <maj>  (72) 
1.0

>  <min>  (72) 
0.0

>  <hyb>  (72) 
0.0

>  <sub>  (72) 
4.0

>  <query_index>  (72) 
191.0

>  <max_hit_Tanimoto>  (72) 
0.266026

>  <largest_ring>  (72) 
0

>  <N_interactions_kept>  (72) 
4.0

>  <N_interactions_lost>  (72) 
1.0

>  <interaction_uniqueness_metric>  (72) 
0.056279

>  <ad_hoc_penalty>  (72) 
-31.24478

>  <N_rotatable_bonds>  (72) 
2

>  <N_HA>  (72) 
14

>  <cluster>  (72) 
6131

>  <N_interactions>  (72) 
6

>  <Enamine>  (72) 
1

>  <Mcule>  (72) 
0

>  <N_PAINS>  (72) 
0

>  <UFF_Gibbs>  (72) 
56.536084

>  <strain_per_HA>  (72) 
4.038292

>  <saltbridge:HIS:51>  (72) 
0

>  <pistack:HIS:51>  (72) 
0

>  <hydroph_interaction:HIS:51>  (72) 
0

>  <hbond:ALA:132>  (72) 
0

>  <hbond:SER:135>  (72) 
0

>  <hydroph_interaction:TYR:150>  (72) 
1

>  <pistack:TYR:161>  (72) 
0

>  <hydroph_interaction:TYR:161>  (72) 
4

>  <hydroph_interaction:ASP:83>  (72) 
0

>  <hbond:TYR:130>  (72) 
0

>  <hydroph_interaction:ALA:132>  (72) 
1

>  <hbond:HIS:51>  (72) 
0

>  <hbond:ASP:129>  (72) 
0

>  <hbond:TYR:150>  (72) 
0

>  <hbond:GLY:151>  (72) 
0

>  <hbond:TYR:161>  (72) 
0

>  <hydroph_interaction:TYR:130>  (72) 
0

>  <hydroph_interaction:PRO:131>  (72) 
0

>  <hydroph_interaction:ASP:129>  (72) 
0

>  <saltbridge:ASP:75>  (72) 
0

>  <saltbridge:ASP:83>  (72) 
0

>  <hydroph_interaction:ASN:152>  (72) 
0

>  <halogenbond:TYR:150>  (72) 
0

>  <hbond:ASP:83>  (72) 
0

>  <hydroph_interaction:VAL:155>  (72) 
0

>  <pication:TYR:161>  (72) 
0

>  <hbond:PRO:131>  (72) 
0

>  <hbond:LEU:128>  (72) 
0

>  <saltbridge:ASP:129>  (72) 
0

>  <hbond:THR:134>  (72) 
0

>  <pication:HIS:51>  (72) 
0

>  <hbond:SER:81>  (72) 
0

>  <hbond:GLY:159>  (72) 
0

>  <hydroph_interaction:PRO:101>  (72) 
0

>  <hydroph_interaction:THR:134>  (72) 
0

>  <hbond:GLY:82>  (72) 
0

>  <hydroph_interaction:GLU:104>  (72) 
0

>  <hydroph_interaction:VAL:36>  (72) 
0

>  <hydroph_interaction:MET:49>  (72) 
0

>  <halogenbond:GLU:104>  (72) 
0

>  <hydroph_interaction:LYS:107>  (72) 
0

$$$$
Z5578368434
     RDKit          3D

 43 46  0  0  0  0  0  0  0  0999 V2000
   -8.2240    7.4690  -13.3470 O   0  0  0  0  0  0  0  0  0  0  0  0
   -8.4300    6.3010  -13.6790 C   0  0  0  0  0  0  0  0  0  0  0  0
   -8.7600    5.3100  -12.6950 N   0  0  0  0  0  0  0  0  0  0  0  0
   -8.7920    5.4750  -11.2560 C   0  0  0  0  0  0  0  0  0  0  0  0
   -8.9430    4.3410  -10.2220 C   0  0  0  0  0  0  0  0  0  0  0  0
   -9.0740    3.0250  -10.3650 O   0  0  0  0  0  0  0  0  0  0  0  0
   -9.3840    2.2160   -9.2050 C   0  0  0  0  0  0  0  0  0  0  0  0
   -9.5700    2.8150   -8.0100 C   0  0  0  0  0  0  0  0  0  0  0  0
   -9.0360    4.2220   -7.7530 C   0  0  0  0  0  0  0  0  0  0  0  0
   -8.9200    4.9500   -8.9990 N   0  0  0  0  0  0  0  0  0  0  0  0
   -8.7820    6.2870   -9.0280 N   0  0  0  0  0  0  0  0  0  0  0  0
   -8.7060    6.6070  -10.3880 C   0  0  0  0  0  0  0  0  0  0  0  0
   -8.3360    5.9190  -15.1320 C   0  0  0  0  0  0  0  0  0  0  0  0
   -9.2650    5.1590  -15.8490 C   0  0  0  0  0  0  0  0  0  0  0  0
   -8.7440    5.0020  -17.4820 S   0  0  0  0  0  0  0  0  0  0  0  0
   -7.3340    5.9420  -17.1740 C   0  0  0  0  0  0  0  0  0  0  0  0
   -6.2710    6.2990  -18.2420 C   0  0  0  0  0  0  0  0  0  0  0  0
   -6.7770    6.9660  -19.5330 C   0  0  0  0  0  0  0  0  0  0  0  0
   -5.8220    6.7570  -20.7210 C   0  0  0  0  0  0  0  0  0  0  0  0
   -4.3610    6.7850  -20.2870 C   0  0  0  0  0  0  0  0  0  0  0  0
   -4.0650    5.7070  -19.2460 C   0  0  0  0  0  0  0  0  0  0  0  0
   -5.3400    5.1540  -18.6030 C   0  0  0  0  0  0  0  0  0  0  0  0
   -7.2410    6.3500  -15.9160 N   0  0  0  0  0  0  0  0  0  0  0  0
   -9.1500    4.4420  -13.0620 H   0  0  0  0  0  0  0  0  0  0  0  0
  -10.3100    1.7330   -9.4550 H   0  0  0  0  0  0  0  0  0  0  0  0
   -8.6360    1.4260   -9.1290 H   0  0  0  0  0  0  0  0  0  0  0  0
   -9.1020    2.1630   -7.2610 H   0  0  0  0  0  0  0  0  0  0  0  0
  -10.6390    2.8050   -7.7790 H   0  0  0  0  0  0  0  0  0  0  0  0
   -8.0550    4.1950   -7.2640 H   0  0  0  0  0  0  0  0  0  0  0  0
   -9.7010    4.7940   -7.0980 H   0  0  0  0  0  0  0  0  0  0  0  0
   -8.5910    7.6510  -10.6640 H   0  0  0  0  0  0  0  0  0  0  0  0
  -10.2080    4.6850  -15.5530 H   0  0  0  0  0  0  0  0  0  0  0  0
   -5.6400    7.0600  -17.7590 H   0  0  0  0  0  0  0  0  0  0  0  0
   -7.7860    6.6310  -19.7930 H   0  0  0  0  0  0  0  0  0  0  0  0
   -6.8390    8.0450  -19.3790 H   0  0  0  0  0  0  0  0  0  0  0  0
   -6.0400    5.8010  -21.2110 H   0  0  0  0  0  0  0  0  0  0  0  0
   -5.9970    7.5350  -21.4720 H   0  0  0  0  0  0  0  0  0  0  0  0
   -4.1250    7.7770  -19.8830 H   0  0  0  0  0  0  0  0  0  0  0  0
   -3.7070    6.6360  -21.1560 H   0  0  0  0  0  0  0  0  0  0  0  0
   -3.5040    4.8970  -19.7190 H   0  0  0  0  0  0  0  0  0  0  0  0
   -3.4090    6.1210  -18.4710 H   0  0  0  0  0  0  0  0  0  0  0  0
   -5.8220    4.4840  -19.3200 H   0  0  0  0  0  0  0  0  0  0  0  0
   -5.1000    4.5680  -17.7100 H   0  0  0  0  0  0  0  0  0  0  0  0
  1  2  2  0
  2  3  1  0
  3  4  1  0
  4  5  2  0
  5  6  1  0
  6  7  1  0
  7  8  1  0
  8  9  1  0
  9 10  1  0
 10 11  1  0
 11 12  2  0
  2 13  1  0
 13 14  2  0
 14 15  1  0
 15 16  1  0
 16 17  1  0
 17 18  1  0
 18 19  1  0
 19 20  1  0
 20 21  1  0
 21 22  1  0
 16 23  2  0
 12  4  1  0
 10  5  1  0
 23 13  1  0
 22 17  1  0
  3 24  1  0
  7 25  1  0
  7 26  1  0
  8 27  1  0
  8 28  1  0
  9 29  1  0
  9 30  1  0
 12 31  1  0
 14 32  1  0
 17 33  1  0
 18 34  1  0
 18 35  1  0
 19 36  1  0
 19 37  1  0
 20 38  1  0
 20 39  1  0
 21 40  1  0
 21 41  1  0
 22 42  1  0
 22 43  1  0
A    1
 O1 
A    2
 C1 
A    3
 N1 
A    4
 C2 
A    5
 C3 
A    6
 O2 
A    7
 C4 
A    8
 C5 
A    9
 C6 
A   10
 N2 
A   11
 N3 
A   12
 C7 
A   13
 C8 
A   14
 C9 
A   15
 S1 
A   16
 C10
A   17
 C11
A   18
 C12
A   19
 C13
A   20
 C14
A   21
 C15
A   22
 C16
A   23
 N4 
A   24
 H1 
A   25
 H2 
A   26
 H3 
A   27
 H4 
A   28
 H5 
A   29
 H6 
A   30
 H7 
A   31
 H8 
A   32
 H9 
A   33
 H10
A   34
 H11
A   35
 H12
A   36
 H13
A   37
 H14
A   38
 H15
A   39
 H16
A   40
 H17
A   41
 H18
A   42
 H19
A   43
 H20
M  END
>  <ref_pdb>  (73) 
x0051_0B

>  <ref_mols>  (73) 
x0917_1B,x0969_1B

>  <original SMILES>  (73) 
[H]c1nn2c(c1N([H])C(=O)c1nc(C3([H])C([H])([H])C([H])([H])C([H])([H])C([H])([H])C3([H])[H])sc1[H])OC([H])([H])C([H])([H])C2([H])[H]

>  <index>  (73) 
125

>  <∆∆G>  (73) 
-5.189605

>  <∆G_bound>  (73) 
-4.370151

>  <∆G_unbound>  (73) 
0.819455

>  <comRMSD>  (73) 
0.602241

>  <N_constrained_atoms>  (73) 
24.0

>  <N_unconstrained_atoms>  (73) 
0.0

>  <runtime>  (73) 
54.733383

>  <LE>  (73) 
0.216234

>  <percent_hybrid>  (73) 
40.0

>  <dist>  (73) 
9.0

>  <ecfp4>  (73) 
0.215909

>  <daylight>  (73) 
0.253731

>  <topodist>  (73) 
2.0

>  <mces>  (73) 
26.0

>  <tdn>  (73) 
2.0

>  <tup>  (73) 
0.0

>  <rdn>  (73) 
0.0

>  <rup>  (73) 
0.0

>  <ldn>  (73) 
0.0

>  <lup>  (73) 
0.0

>  <mut>  (73) 
6.0

>  <maj>  (73) 
6.0

>  <min>  (73) 
0.0

>  <hyb>  (73) 
1.0

>  <sub>  (73) 
0.0

>  <query_index>  (73) 
298.0

>  <max_hit_Tanimoto>  (73) 
0.267898

>  <largest_ring>  (73) 
0

>  <N_interactions_kept>  (73) 
2.0

>  <N_interactions_lost>  (73) 
1.0

>  <interaction_uniqueness_metric>  (73) 
0.138446

>  <ad_hoc_penalty>  (73) 
-31.162602

>  <N_rotatable_bonds>  (73) 
3

>  <N_HA>  (73) 
23

>  <cluster>  (73) 
6103

>  <N_interactions>  (73) 
6

>  <Enamine>  (73) 
1

>  <Mcule>  (73) 
0

>  <N_PAINS>  (73) 
0

>  <UFF_Gibbs>  (73) 
74.589614

>  <strain_per_HA>  (73) 
3.243027

>  <saltbridge:HIS:51>  (73) 
0

>  <pistack:HIS:51>  (73) 
1

>  <hydroph_interaction:HIS:51>  (73) 
1

>  <hbond:ALA:132>  (73) 
0

>  <hbond:SER:135>  (73) 
0

>  <hydroph_interaction:TYR:150>  (73) 
0

>  <pistack:TYR:161>  (73) 
0

>  <hydroph_interaction:TYR:161>  (73) 
2

>  <hydroph_interaction:ASP:83>  (73) 
0

>  <hbond:TYR:130>  (73) 
0

>  <hydroph_interaction:ALA:132>  (73) 
1

>  <hbond:HIS:51>  (73) 
0

>  <hbond:ASP:129>  (73) 
0

>  <hbond:TYR:150>  (73) 
0

>  <hbond:GLY:151>  (73) 
1

>  <hbond:TYR:161>  (73) 
0

>  <hydroph_interaction:TYR:130>  (73) 
0

>  <hydroph_interaction:PRO:131>  (73) 
0

>  <hydroph_interaction:ASP:129>  (73) 
0

>  <saltbridge:ASP:75>  (73) 
0

>  <saltbridge:ASP:83>  (73) 
0

>  <hydroph_interaction:ASN:152>  (73) 
0

>  <halogenbond:TYR:150>  (73) 
0

>  <hbond:ASP:83>  (73) 
0

>  <hydroph_interaction:VAL:155>  (73) 
0

>  <pication:TYR:161>  (73) 
0

>  <hbond:PRO:131>  (73) 
0

>  <hbond:LEU:128>  (73) 
0

>  <saltbridge:ASP:129>  (73) 
0

>  <hbond:THR:134>  (73) 
0

>  <pication:HIS:51>  (73) 
0

>  <hbond:SER:81>  (73) 
0

>  <hbond:GLY:159>  (73) 
0

>  <hydroph_interaction:PRO:101>  (73) 
0

>  <hydroph_interaction:THR:134>  (73) 
0

>  <hbond:GLY:82>  (73) 
0

>  <hydroph_interaction:GLU:104>  (73) 
0

>  <hydroph_interaction:VAL:36>  (73) 
0

>  <hydroph_interaction:MET:49>  (73) 
0

>  <halogenbond:GLU:104>  (73) 
0

>  <hydroph_interaction:LYS:107>  (73) 
0

$$$$
CSSB00121572997
     RDKit          3D

 26 28  0  0  0  0  0  0  0  0999 V2000
   -8.8710    5.2280  -15.9070 C   0  0  0  0  0  0  0  0  0  0  0  0
   -7.5690    5.3480  -16.5590 C   0  0  0  0  0  0  0  0  0  0  0  0
   -7.5720    5.1540  -17.9330 C   0  0  0  0  0  0  0  0  0  0  0  0
   -8.7680    4.8630  -18.6190 C   0  0  0  0  0  0  0  0  0  0  0  0
   -9.9660    4.7660  -17.9240 C   0  0  0  0  0  0  0  0  0  0  0  0
  -10.0740    4.9380  -16.5910 N   0  0  0  0  0  0  0  0  0  0  0  0
   -6.3190    5.2510  -18.6400 C   0  0  0  0  0  0  0  0  0  0  0  0
   -6.3150    5.3740  -20.0460 C   0  0  0  0  0  0  0  0  0  0  0  0
   -5.1150    5.4600  -20.7450 C   0  0  0  0  0  0  0  0  0  0  0  0
   -5.0520    5.5940  -22.2450 C   0  0  0  0  0  0  0  0  0  0  0  0
   -3.6200    5.6640  -22.7690 C   0  0  0  0  0  0  0  0  0  0  0  0
   -2.5090    5.6140  -21.9920 N   0  0  0  0  0  0  0  0  0  0  0  0
   -2.6810    5.4930  -20.6530 C   0  0  0  0  0  0  0  0  0  0  0  0
   -3.9240    5.4200  -20.0390 C   0  0  0  0  0  0  0  0  0  0  0  0
   -3.8890    5.2910  -18.5370 C   0  0  0  0  0  0  0  0  0  0  0  0
   -5.1200    5.2120  -17.8950 C   0  0  0  0  0  0  0  0  0  0  0  0
   -8.9380    5.3690  -14.8240 H   0  0  0  0  0  0  0  0  0  0  0  0
   -6.6700    5.5720  -15.9940 H   0  0  0  0  0  0  0  0  0  0  0  0
   -8.7690    4.7120  -19.6960 H   0  0  0  0  0  0  0  0  0  0  0  0
  -10.8960    4.5440  -18.4400 H   0  0  0  0  0  0  0  0  0  0  0  0
   -7.2580    5.3990  -20.5810 H   0  0  0  0  0  0  0  0  0  0  0  0
   -5.9230    5.6370  -22.8900 H   0  0  0  0  0  0  0  0  0  0  0  0
   -3.4260    5.7600  -23.8330 H   0  0  0  0  0  0  0  0  0  0  0  0
   -1.7600    5.4580  -20.0770 H   0  0  0  0  0  0  0  0  0  0  0  0
   -2.9600    5.2580  -17.9720 H   0  0  0  0  0  0  0  0  0  0  0  0
   -5.1420    5.1160  -16.8120 H   0  0  0  0  0  0  0  0  0  0  0  0
  1  2  2  0
  2  3  1  0
  3  4  2  0
  4  5  1  0
  5  6  2  0
  3  7  1  0
  7  8  2  0
  8  9  1  0
  9 10  2  0
 10 11  1  0
 11 12  2  0
 12 13  1  0
 13 14  2  0
 14 15  1  0
 15 16  2  0
  6  1  1  0
 16  7  1  0
 14  9  1  0
  1 17  1  0
  2 18  1  0
  4 19  1  0
  5 20  1  0
  8 21  1  0
 10 22  1  0
 11 23  1  0
 13 24  1  0
 15 25  1  0
 16 26  1  0
A    1
 C1 
A    2
 C2 
A    3
 C3 
A    4
 C4 
A    5
 C5 
A    6
 N1 
A    7
 C6 
A    8
 C7 
A    9
 C8 
A   10
 C9 
A   11
 C10
A   12
 N2 
A   13
 C11
A   14
 C12
A   15
 C13
A   16
 C14
A   17
 H1 
A   18
 H2 
A   19
 H3 
A   20
 H4 
A   21
 H5 
A   22
 H6 
A   23
 H7 
A   24
 H8 
A   25
 H9 
A   26
 H10
M  END
>  <ref_pdb>  (74) 
x0051_0B

>  <ref_mols>  (74) 
x0852_0B,x0680_0B

>  <original SMILES>  (74) 
[H]c1nc([H])c([H])c(-c2c([H])c([H])c3c([H])nc([H])c([H])c3c2[H])c1[H]

>  <index>  (74) 
99

>  <∆∆G>  (74) 
-5.862751

>  <∆G_bound>  (74) 
-5.821885

>  <∆G_unbound>  (74) 
0.040866

>  <comRMSD>  (74) 
0.595099

>  <N_constrained_atoms>  (74) 
20.0

>  <N_unconstrained_atoms>  (74) 
0.0

>  <runtime>  (74) 
30.304255

>  <LE>  (74) 
0.293138

>  <percent_hybrid>  (74) 
19.0

>  <dist>  (74) 
5.0

>  <ecfp4>  (74) 
0.304348

>  <daylight>  (74) 
0.408696

>  <topodist>  (74) 
4.0

>  <mces>  (74) 
18.0

>  <tdn>  (74) 
3.0

>  <tup>  (74) 
0.0

>  <rdn>  (74) 
1.0

>  <rup>  (74) 
0.0

>  <ldn>  (74) 
0.0

>  <lup>  (74) 
0.0

>  <mut>  (74) 
1.0

>  <maj>  (74) 
1.0

>  <min>  (74) 
0.0

>  <hyb>  (74) 
0.0

>  <sub>  (74) 
4.0

>  <query_index>  (74) 
135.0

>  <max_hit_Tanimoto>  (74) 
0.126316

>  <largest_ring>  (74) 
0

>  <N_interactions_kept>  (74) 
6.0

>  <N_interactions_lost>  (74) 
1.5

>  <interaction_uniqueness_metric>  (74) 
0.057735

>  <ad_hoc_penalty>  (74) 
-31.126221

>  <N_rotatable_bonds>  (74) 
1

>  <N_HA>  (74) 
16

>  <cluster>  (74) 
6125

>  <N_interactions>  (74) 
6

>  <Enamine>  (74) 
1

>  <Mcule>  (74) 
0

>  <N_PAINS>  (74) 
0

>  <UFF_Gibbs>  (74) 
59.888705

>  <strain_per_HA>  (74) 
3.743044

>  <saltbridge:HIS:51>  (74) 
0

>  <pistack:HIS:51>  (74) 
0

>  <hydroph_interaction:HIS:51>  (74) 
0

>  <hbond:ALA:132>  (74) 
0

>  <hbond:SER:135>  (74) 
0

>  <hydroph_interaction:TYR:150>  (74) 
0

>  <pistack:TYR:161>  (74) 
0

>  <hydroph_interaction:TYR:161>  (74) 
5

>  <hydroph_interaction:ASP:83>  (74) 
0

>  <hbond:TYR:130>  (74) 
0

>  <hydroph_interaction:ALA:132>  (74) 
0

>  <hbond:HIS:51>  (74) 
0

>  <hbond:ASP:129>  (74) 
0

>  <hbond:TYR:150>  (74) 
0

>  <hbond:GLY:151>  (74) 
0

>  <hbond:TYR:161>  (74) 
0

>  <hydroph_interaction:TYR:130>  (74) 
0

>  <hydroph_interaction:PRO:131>  (74) 
0

>  <hydroph_interaction:ASP:129>  (74) 
1

>  <saltbridge:ASP:75>  (74) 
0

>  <saltbridge:ASP:83>  (74) 
0

>  <hydroph_interaction:ASN:152>  (74) 
0

>  <halogenbond:TYR:150>  (74) 
0

>  <hbond:ASP:83>  (74) 
0

>  <hydroph_interaction:VAL:155>  (74) 
0

>  <pication:TYR:161>  (74) 
0

>  <hbond:PRO:131>  (74) 
0

>  <hbond:LEU:128>  (74) 
0

>  <saltbridge:ASP:129>  (74) 
0

>  <hbond:THR:134>  (74) 
0

>  <pication:HIS:51>  (74) 
0

>  <hbond:SER:81>  (74) 
0

>  <hbond:GLY:159>  (74) 
0

>  <hydroph_interaction:PRO:101>  (74) 
0

>  <hydroph_interaction:THR:134>  (74) 
0

>  <hbond:GLY:82>  (74) 
0

>  <hydroph_interaction:GLU:104>  (74) 
0

>  <hydroph_interaction:VAL:36>  (74) 
0

>  <hydroph_interaction:MET:49>  (74) 
0

>  <halogenbond:GLU:104>  (74) 
0

>  <hydroph_interaction:LYS:107>  (74) 
0

$$$$
HXSAUNFGWXRDRU-UHFFFAOYSA-N
     RDKit          3D

 39 42  0  0  0  0  0  0  0  0999 V2000
   -8.8000    6.2210  -12.5520 C   0  0  0  0  0  0  0  0  0  0  0  0
   -8.6180    5.2070  -13.5050 N   0  0  0  0  0  0  0  0  0  0  0  0
   -7.8410    5.3080  -14.7280 C   0  0  0  0  0  0  0  0  0  0  0  0
   -8.2760    5.1500  -16.0560 C   0  0  0  0  0  0  0  0  0  0  0  0
   -7.1880    5.3220  -17.0420 C   0  0  0  0  0  0  0  0  0  0  0  0
   -7.4720    5.1830  -18.5460 C   0  0  0  0  0  0  0  0  0  0  0  0
   -8.9180    4.8610  -18.8770 C   0  0  0  0  0  0  0  0  0  0  0  0
   -9.8810    4.7170  -17.8760 C   0  0  0  0  0  0  0  0  0  0  0  0
   -9.5870    4.8560  -16.5000 C   0  0  0  0  0  0  0  0  0  0  0  0
   -6.1520    5.5780  -16.1830 N   0  0  0  0  0  0  0  0  0  0  0  0
   -4.7860    5.8270  -16.5620 C   0  0  0  0  0  0  0  0  0  0  0  0
   -6.5100    5.5780  -14.8370 N   0  0  0  0  0  0  0  0  0  0  0  0
   -8.9130    7.4090  -12.8750 O   0  0  0  0  0  0  0  0  0  0  0  0
   -8.8470    5.8570  -11.0790 C   0  0  0  0  0  0  0  0  0  0  0  0
   -8.9050    4.6470  -10.3220 C   0  0  0  0  0  0  0  0  0  0  0  0
   -8.9360    5.0290   -8.9940 N   0  0  0  0  0  0  0  0  0  0  0  0
   -9.0100    4.1500   -7.8340 C   0  0  0  0  0  0  0  0  0  0  0  0
   -9.5430    2.8760   -8.1070 C   0  0  0  0  0  0  0  0  0  0  0  0
   -9.3740    2.2640   -9.5040 C   0  0  0  0  0  0  0  0  0  0  0  0
   -8.9390    3.1950  -10.6510 C   0  0  0  0  0  0  0  0  0  0  0  0
   -8.8920    6.3470   -8.8060 N   0  0  0  0  0  0  0  0  0  0  0  0
   -8.8420    6.8400  -10.0470 C   0  0  0  0  0  0  0  0  0  0  0  0
   -8.7480    4.2710  -13.1290 H   0  0  0  0  0  0  0  0  0  0  0  0
   -6.7110    5.3010  -19.3120 H   0  0  0  0  0  0  0  0  0  0  0  0
   -9.2090    4.7440  -19.9190 H   0  0  0  0  0  0  0  0  0  0  0  0
  -10.9020    4.4910  -18.1720 H   0  0  0  0  0  0  0  0  0  0  0  0
  -10.3810    4.7310  -15.7750 H   0  0  0  0  0  0  0  0  0  0  0  0
   -4.6820    6.8590  -16.9070 H   0  0  0  0  0  0  0  0  0  0  0  0
   -4.1490    5.6590  -15.6910 H   0  0  0  0  0  0  0  0  0  0  0  0
   -4.5220    5.1380  -17.3690 H   0  0  0  0  0  0  0  0  0  0  0  0
   -9.6210    4.6520   -7.0770 H   0  0  0  0  0  0  0  0  0  0  0  0
   -7.9890    4.0690   -7.4500 H   0  0  0  0  0  0  0  0  0  0  0  0
   -9.0940    2.1720   -7.3940 H   0  0  0  0  0  0  0  0  0  0  0  0
  -10.6090    2.8850   -7.8620 H   0  0  0  0  0  0  0  0  0  0  0  0
  -10.3350    1.8490   -9.7870 H   0  0  0  0  0  0  0  0  0  0  0  0
   -8.6790    1.4240   -9.4460 H   0  0  0  0  0  0  0  0  0  0  0  0
   -7.9660    2.8550  -10.9890 H   0  0  0  0  0  0  0  0  0  0  0  0
   -9.6260    3.0570  -11.4950 H   0  0  0  0  0  0  0  0  0  0  0  0
   -8.8020    7.9160  -10.1730 H   0  0  0  0  0  0  0  0  0  0  0  0
  1  2  1  0
  2  3  1  0
  3  4  1  0
  4  5  1  0
  5  6  2  0
  6  7  1  0
  7  8  2  0
  8  9  1  0
  5 10  1  0
 10 11  1  0
 10 12  1  0
  1 13  2  0
  1 14  1  0
 14 15  2  0
 15 16  1  0
 16 17  1  0
 17 18  1  0
 18 19  1  0
 19 20  1  0
 16 21  1  0
 21 22  2  0
  3 12  2  0
  9  4  2  0
 22 14  1  0
 20 15  1  0
  2 23  1  0
  6 24  1  0
  7 25  1  0
  8 26  1  0
  9 27  1  0
 11 28  1  0
 11 29  1  0
 11 30  1  0
 17 31  1  0
 17 32  1  0
 18 33  1  0
 18 34  1  0
 19 35  1  0
 19 36  1  0
 20 37  1  0
 20 38  1  0
 22 39  1  0
A    1
 C1 
A    2
 N1 
A    3
 C2 
A    4
 C3 
A    5
 C4 
A    6
 C5 
A    7
 C6 
A    8
 C7 
A    9
 C8 
A   10
 N2 
A   11
 C9 
A   12
 N3 
A   13
 O1 
A   14
 C10
A   15
 C11
A   16
 N4 
A   17
 C12
A   18
 C13
A   19
 C14
A   20
 C15
A   21
 N5 
A   22
 C16
A   23
 H1 
A   24
 H2 
A   25
 H3 
A   26
 H4 
A   27
 H5 
A   28
 H6 
A   29
 H7 
A   30
 H8 
A   31
 H9 
A   32
 H10
A   33
 H11
A   34
 H12
A   35
 H13
A   36
 H14
A   37
 H15
A   38
 H16
A   39
 H17
M  END
>  <ref_pdb>  (75) 
x0051_0B

>  <ref_mols>  (75) 
x0951_0B,x0969_1B

>  <original SMILES>  (75) 
[H]c1nn2c(c1C(=O)N([H])c1nn(C([H])([H])[H])c3c([H])c([H])c([H])c([H])c13)C([H])([H])C([H])([H])C([H])([H])C2([H])[H]

>  <index>  (75) 
110

>  <∆∆G>  (75) 
-7.159093

>  <∆G_bound>  (75) 
-6.63203

>  <∆G_unbound>  (75) 
0.527063

>  <comRMSD>  (75) 
0.797805

>  <N_constrained_atoms>  (75) 
22.0

>  <N_unconstrained_atoms>  (75) 
1.0

>  <runtime>  (75) 
50.284319

>  <LE>  (75) 
0.311265

>  <percent_hybrid>  (75) 
46.0

>  <dist>  (75) 
7.0

>  <ecfp4>  (75) 
0.197531

>  <daylight>  (75) 
0.247126

>  <topodist>  (75) 
1.0

>  <mces>  (75) 
24.0

>  <tdn>  (75) 
0.0

>  <tup>  (75) 
1.0

>  <rdn>  (75) 
0.0

>  <rup>  (75) 
0.0

>  <ldn>  (75) 
0.0

>  <lup>  (75) 
0.0

>  <mut>  (75) 
5.0

>  <maj>  (75) 
5.0

>  <min>  (75) 
0.0

>  <hyb>  (75) 
1.0

>  <sub>  (75) 
0.0

>  <query_index>  (75) 
201.0

>  <max_hit_Tanimoto>  (75) 
0.299337

>  <largest_ring>  (75) 
0

>  <N_interactions_kept>  (75) 
1.0

>  <N_interactions_lost>  (75) 
2.0

>  <interaction_uniqueness_metric>  (75) 
0.17943

>  <ad_hoc_penalty>  (75) 
-31.109593

>  <N_rotatable_bonds>  (75) 
3

>  <N_HA>  (75) 
22

>  <cluster>  (75) 
6116

>  <N_interactions>  (75) 
7

>  <Enamine>  (75) 
0

>  <Mcule>  (75) 
1

>  <N_PAINS>  (75) 
0

>  <UFF_Gibbs>  (75) 
91.423789

>  <strain_per_HA>  (75) 
4.155627

>  <saltbridge:HIS:51>  (75) 
0

>  <pistack:HIS:51>  (75) 
1

>  <hydroph_interaction:HIS:51>  (75) 
1

>  <hbond:ALA:132>  (75) 
0

>  <hbond:SER:135>  (75) 
0

>  <hydroph_interaction:TYR:150>  (75) 
1

>  <pistack:TYR:161>  (75) 
2

>  <hydroph_interaction:TYR:161>  (75) 
0

>  <hydroph_interaction:ASP:83>  (75) 
0

>  <hbond:TYR:130>  (75) 
0

>  <hydroph_interaction:ALA:132>  (75) 
0

>  <hbond:HIS:51>  (75) 
0

>  <hbond:ASP:129>  (75) 
0

>  <hbond:TYR:150>  (75) 
0

>  <hbond:GLY:151>  (75) 
1

>  <hbond:TYR:161>  (75) 
1

>  <hydroph_interaction:TYR:130>  (75) 
0

>  <hydroph_interaction:PRO:131>  (75) 
0

>  <hydroph_interaction:ASP:129>  (75) 
0

>  <saltbridge:ASP:75>  (75) 
0

>  <saltbridge:ASP:83>  (75) 
0

>  <hydroph_interaction:ASN:152>  (75) 
0

>  <halogenbond:TYR:150>  (75) 
0

>  <hbond:ASP:83>  (75) 
0

>  <hydroph_interaction:VAL:155>  (75) 
0

>  <pication:TYR:161>  (75) 
0

>  <hbond:PRO:131>  (75) 
0

>  <hbond:LEU:128>  (75) 
0

>  <saltbridge:ASP:129>  (75) 
0

>  <hbond:THR:134>  (75) 
0

>  <pication:HIS:51>  (75) 
0

>  <hbond:SER:81>  (75) 
0

>  <hbond:GLY:159>  (75) 
0

>  <hydroph_interaction:PRO:101>  (75) 
0

>  <hydroph_interaction:THR:134>  (75) 
0

>  <hbond:GLY:82>  (75) 
0

>  <hydroph_interaction:GLU:104>  (75) 
0

>  <hydroph_interaction:VAL:36>  (75) 
0

>  <hydroph_interaction:MET:49>  (75) 
0

>  <halogenbond:GLU:104>  (75) 
0

>  <hydroph_interaction:LYS:107>  (75) 
0

$$$$
MCULE-9984084239
     RDKit          3D

 45 48  0  0  0  0  0  0  0  0999 V2000
   -7.0990    5.3710  -16.8480 C   0  0  0  0  0  0  0  0  0  0  0  0
   -8.0740    5.3130  -15.8260 C   0  0  0  0  0  0  0  0  0  0  0  0
   -9.4760    5.0130  -16.2370 C   0  0  0  0  0  0  0  0  0  0  0  0
   -9.7720    4.8080  -17.5790 C   0  0  0  0  0  0  0  0  0  0  0  0
   -8.7650    4.8820  -18.5560 C   0  0  0  0  0  0  0  0  0  0  0  0
   -7.4500    5.1650  -18.1690 C   0  0  0  0  0  0  0  0  0  0  0  0
   -6.2950    5.2770  -19.0880 C   0  0  0  0  0  0  0  0  0  0  0  0
   -6.2180    5.0990  -20.9480 Br  0  0  0  0  0  0  0  0  0  0  0  0
   -5.1620    5.5680  -18.2020 N   0  0  0  0  0  0  0  0  0  0  0  0
   -5.7190    5.6030  -16.9340 N   0  0  0  0  0  0  0  0  0  0  0  0
   -7.7680    5.5280  -14.4580 C   0  0  0  0  0  0  0  0  0  0  0  0
   -8.8390    5.8430  -13.6220 N   0  0  0  0  0  0  0  0  0  0  0  0
   -8.6400    6.4890  -12.3220 C   0  0  0  0  0  0  0  0  0  0  0  0
   -9.5060    7.5500  -12.1440 C   0  0  0  0  0  0  0  0  0  0  0  0
   -8.7200    5.4180  -11.2550 C   0  0  0  0  0  0  0  0  0  0  0  0
   -8.7300    3.9630  -11.7020 C   0  0  0  0  0  0  0  0  0  0  0  0
   -8.7970    2.8900  -10.6630 C   0  0  0  0  0  0  0  0  0  0  0  0
   -8.8460    3.3300   -9.3580 C   0  0  0  0  0  0  0  0  0  0  0  0
   -8.9050    2.3770   -8.3900 C   0  0  0  0  0  0  0  0  0  0  0  0
   -9.8310    2.7210   -7.4650 C   0  0  0  0  0  0  0  0  0  0  0  0
   -9.4650    3.8960   -6.8050 C   0  0  0  0  0  0  0  0  0  0  0  0
   -8.9010    4.9370   -7.5850 C   0  0  0  0  0  0  0  0  0  0  0  0
   -8.8420    4.6800   -8.9520 C   0  0  0  0  0  0  0  0  0  0  0  0
   -8.7790    5.7280   -9.8840 C   0  0  0  0  0  0  0  0  0  0  0  0
   -6.6100    5.4500  -14.0720 O   0  0  0  0  0  0  0  0  0  0  0  0
  -10.2120    4.9720  -15.4270 H   0  0  0  0  0  0  0  0  0  0  0  0
  -10.8040    4.5880  -17.8720 H   0  0  0  0  0  0  0  0  0  0  0  0
   -9.0170    4.7190  -19.6040 H   0  0  0  0  0  0  0  0  0  0  0  0
   -5.0940    5.7950  -16.1530 H   0  0  0  0  0  0  0  0  0  0  0  0
   -9.7000    5.3170  -13.7310 H   0  0  0  0  0  0  0  0  0  0  0  0
   -7.6290    6.9110  -12.3160 H   0  0  0  0  0  0  0  0  0  0  0  0
  -10.3510    7.5120  -12.8420 H   0  0  0  0  0  0  0  0  0  0  0  0
   -9.8910    7.5530  -11.1170 H   0  0  0  0  0  0  0  0  0  0  0  0
   -8.9750    8.5000  -12.2820 H   0  0  0  0  0  0  0  0  0  0  0  0
   -8.6860    3.6970  -12.7590 H   0  0  0  0  0  0  0  0  0  0  0  0
   -8.8010    1.8500  -11.0000 H   0  0  0  0  0  0  0  0  0  0  0  0
   -7.9380    2.4290   -7.8860 H   0  0  0  0  0  0  0  0  0  0  0  0
   -8.9560    1.3550   -8.7410 H   0  0  0  0  0  0  0  0  0  0  0  0
  -10.7980    2.9310   -7.9010 H   0  0  0  0  0  0  0  0  0  0  0  0
  -10.1120    1.9010   -6.8240 H   0  0  0  0  0  0  0  0  0  0  0  0
   -8.8990    3.7100   -5.8960 H   0  0  0  0  0  0  0  0  0  0  0  0
  -10.4100    4.2960   -6.4230 H   0  0  0  0  0  0  0  0  0  0  0  0
   -9.4630    5.8590   -7.3940 H   0  0  0  0  0  0  0  0  0  0  0  0
   -7.8760    5.1240   -7.2440 H   0  0  0  0  0  0  0  0  0  0  0  0
   -8.7750    6.7620   -9.5510 H   0  0  0  0  0  0  0  0  0  0  0  0
  1  2  1  0
  2  3  2  0
  3  4  1  0
  4  5  2  0
  5  6  1  0
  6  7  1  0
  7  8  1  0
  7  9  2  0
  9 10  1  0
  2 11  1  0
 11 12  1  0
 12 13  1  0
 13 14  1  0
 13 15  1  0
 15 16  2  0
 16 17  1  0
 17 18  2  0
 18 19  1  0
 19 20  1  0
 20 21  1  0
 21 22  1  0
 22 23  1  0
 23 24  2  0
 11 25  2  0
  6  1  2  0
 10  1  1  0
 15 24  1  0
 18 23  1  0
  3 26  1  0
  4 27  1  0
  5 28  1  0
 10 29  1  0
 12 30  1  0
 13 31  1  0
 14 32  1  0
 14 33  1  0
 14 34  1  0
 16 35  1  0
 17 36  1  0
 19 37  1  0
 19 38  1  0
 20 39  1  0
 20 40  1  0
 21 41  1  0
 21 42  1  0
 22 43  1  0
 22 44  1  0
 24 45  1  0
A    1
 C1 
A    2
 C2 
A    3
 C3 
A    4
 C4 
A    5
 C5 
A    6
 C6 
A    7
 C7 
A    8
BR1 
A    9
 N1 
A   10
 N2 
A   11
 C8 
A   12
 N3 
A   13
 C9 
A   14
 C10
A   15
 C11
A   16
 C12
A   17
 C13
A   18
 C14
A   19
 C15
A   20
 C16
A   21
 C17
A   22
 C18
A   23
 C19
A   24
 C20
A   25
 O1 
A   26
 H1 
A   27
 H2 
A   28
 H3 
A   29
 H4 
A   30
 H5 
A   31
 H6 
A   32
 H7 
A   33
 H8 
A   34
 H9 
A   35
 H10
A   36
 H11
A   37
 H12
A   38
 H13
A   39
 H14
A   40
 H15
A   41
 H16
A   42
 H17
A   43
 H18
A   44
 H19
A   45
 H20
M  END
>  <ref_pdb>  (76) 
x0051_0B

>  <ref_mols>  (76) 
x0969_1B,x0435_0B

>  <original SMILES>  (76) 
[H]c1c([H])c(C([H])(N([H])C(=O)c2c([H])c([H])c([H])c3c(Br)nn([H])c23)C([H])([H])[H])c([H])c2c1C([H])([H])C([H])([H])C([H])([H])C2([H])[H]

>  <index>  (76) 
90

>  <∆∆G>  (76) 
-9.300086

>  <∆G_bound>  (76) 
-8.608173

>  <∆G_unbound>  (76) 
0.691914

>  <comRMSD>  (76) 
0.791831

>  <N_constrained_atoms>  (76) 
20.0

>  <N_unconstrained_atoms>  (76) 
5.0

>  <runtime>  (76) 
68.167271

>  <LE>  (76) 
0.372003

>  <percent_hybrid>  (76) 
50.0

>  <dist>  (76) 
11.0

>  <ecfp4>  (76) 
0.042105

>  <daylight>  (76) 
0.210031

>  <topodist>  (76) 
3.0

>  <mces>  (76) 
25.0

>  <tdn>  (76) 
0.0

>  <tup>  (76) 
2.0

>  <rdn>  (76) 
0.0

>  <rup>  (76) 
0.0

>  <ldn>  (76) 
0.0

>  <lup>  (76) 
1.0

>  <mut>  (76) 
6.0

>  <maj>  (76) 
6.0

>  <min>  (76) 
0.0

>  <hyb>  (76) 
2.0

>  <sub>  (76) 
1.0

>  <query_index>  (76) 
343.0

>  <max_hit_Tanimoto>  (76) 
0.211712

>  <largest_ring>  (76) 
0

>  <N_interactions_kept>  (76) 
2.0

>  <N_interactions_lost>  (76) 
1.5

>  <interaction_uniqueness_metric>  (76) 
0.242199

>  <ad_hoc_penalty>  (76) 
-30.987708

>  <N_rotatable_bonds>  (76) 
4

>  <N_HA>  (76) 
25

>  <cluster>  (76) 
6134

>  <N_interactions>  (76) 
6

>  <Enamine>  (76) 
0

>  <Mcule>  (76) 
1

>  <N_PAINS>  (76) 
0

>  <UFF_Gibbs>  (76) 
161.706182

>  <strain_per_HA>  (76) 
6.468247

>  <saltbridge:HIS:51>  (76) 
0

>  <pistack:HIS:51>  (76) 
1

>  <hydroph_interaction:HIS:51>  (76) 
1

>  <hbond:ALA:132>  (76) 
0

>  <hbond:SER:135>  (76) 
0

>  <hydroph_interaction:TYR:150>  (76) 
0

>  <pistack:TYR:161>  (76) 
2

>  <hydroph_interaction:TYR:161>  (76) 
0

>  <hydroph_interaction:ASP:83>  (76) 
1

>  <hbond:TYR:130>  (76) 
0

>  <hydroph_interaction:ALA:132>  (76) 
0

>  <hbond:HIS:51>  (76) 
1

>  <hbond:ASP:129>  (76) 
0

>  <hbond:TYR:150>  (76) 
0

>  <hbond:GLY:151>  (76) 
0

>  <hbond:TYR:161>  (76) 
0

>  <hydroph_interaction:TYR:130>  (76) 
0

>  <hydroph_interaction:PRO:131>  (76) 
0

>  <hydroph_interaction:ASP:129>  (76) 
0

>  <saltbridge:ASP:75>  (76) 
0

>  <saltbridge:ASP:83>  (76) 
0

>  <hydroph_interaction:ASN:152>  (76) 
0

>  <halogenbond:TYR:150>  (76) 
0

>  <hbond:ASP:83>  (76) 
0

>  <hydroph_interaction:VAL:155>  (76) 
0

>  <pication:TYR:161>  (76) 
0

>  <hbond:PRO:131>  (76) 
0

>  <hbond:LEU:128>  (76) 
0

>  <saltbridge:ASP:129>  (76) 
0

>  <hbond:THR:134>  (76) 
0

>  <pication:HIS:51>  (76) 
0

>  <hbond:SER:81>  (76) 
0

>  <hbond:GLY:159>  (76) 
0

>  <hydroph_interaction:PRO:101>  (76) 
0

>  <hydroph_interaction:THR:134>  (76) 
0

>  <hbond:GLY:82>  (76) 
0

>  <hydroph_interaction:GLU:104>  (76) 
0

>  <hydroph_interaction:VAL:36>  (76) 
0

>  <hydroph_interaction:MET:49>  (76) 
0

>  <halogenbond:GLU:104>  (76) 
0

>  <hydroph_interaction:LYS:107>  (76) 
0

$$$$
SRJDXRZUNGNOTA-UHFFFAOYSA-N
     RDKit          3D

 45 48  0  0  0  0  0  0  0  0999 V2000
   -8.6090    6.2080  -14.2960 C   0  0  0  0  0  0  0  0  0  0  0  0
   -8.2720    6.1530  -13.0230 N   0  0  0  0  0  0  0  0  0  0  0  0
   -8.6610    5.1440  -12.1060 C   0  0  0  0  0  0  0  0  0  0  0  0
   -8.7400    5.4050  -10.5970 C   0  0  0  0  0  0  0  0  0  0  0  0
   -8.9180    4.3310   -9.7850 C   0  0  0  0  0  0  0  0  0  0  0  0
   -8.9460    4.8920   -8.5170 N   0  0  0  0  0  0  0  0  0  0  0  0
   -9.1240    4.1040   -7.3090 C   0  0  0  0  0  0  0  0  0  0  0  0
   -9.4160    2.6580   -7.6620 C   0  0  0  0  0  0  0  0  0  0  0  0
   -8.7360    2.2400   -8.7970 C   0  0  0  0  0  0  0  0  0  0  0  0
   -9.0630    2.8740   -9.9880 C   0  0  0  0  0  0  0  0  0  0  0  0
   -8.7950    6.2550   -8.4660 N   0  0  0  0  0  0  0  0  0  0  0  0
   -8.6600    6.5830   -9.8960 C   0  0  0  0  0  0  0  0  0  0  0  0
   -9.4620    7.0850  -14.8090 O   0  0  0  0  0  0  0  0  0  0  0  0
   -7.9270    5.1100  -15.1400 C   0  0  0  0  0  0  0  0  0  0  0  0
   -8.3790    5.0610  -16.4770 C   0  0  0  0  0  0  0  0  0  0  0  0
   -7.4900    5.2750  -17.5590 C   0  0  0  0  0  0  0  0  0  0  0  0
   -8.0200    5.1940  -18.9550 C   0  0  0  0  0  0  0  0  0  0  0  0
   -9.3450    4.9210  -19.1690 C   0  0  0  0  0  0  0  0  0  0  0  0
  -10.2140    4.7180  -18.1020 C   0  0  0  0  0  0  0  0  0  0  0  0
   -9.7280    4.7890  -16.7810 C   0  0  0  0  0  0  0  0  0  0  0  0
   -6.0700    5.5680  -17.3260 C   0  0  0  0  0  0  0  0  0  0  0  0
   -5.2380    5.5380  -18.2320 O   0  0  0  0  0  0  0  0  0  0  0  0
   -5.7380    5.8900  -16.0250 C   0  0  0  0  0  0  0  0  0  0  0  0
   -6.3870    5.2110  -14.9850 C   0  0  0  0  0  0  0  0  0  0  0  0
   -7.2980    6.4360  -12.9170 H   0  0  0  0  0  0  0  0  0  0  0  0
   -9.6600    4.8150  -12.4190 H   0  0  0  0  0  0  0  0  0  0  0  0
   -7.9980    4.2850  -12.2740 H   0  0  0  0  0  0  0  0  0  0  0  0
   -9.9360    4.5380   -6.7140 H   0  0  0  0  0  0  0  0  0  0  0  0
   -8.1980    4.1860   -6.7340 H   0  0  0  0  0  0  0  0  0  0  0  0
   -8.9880    2.0760   -6.8440 H   0  0  0  0  0  0  0  0  0  0  0  0
  -10.4640    2.3820   -7.6270 H   0  0  0  0  0  0  0  0  0  0  0  0
   -7.6470    2.2960   -8.7420 H   0  0  0  0  0  0  0  0  0  0  0  0
   -8.9560    1.1880   -8.9200 H   0  0  0  0  0  0  0  0  0  0  0  0
   -8.3780    2.5430  -10.7790 H   0  0  0  0  0  0  0  0  0  0  0  0
  -10.0830    2.6100  -10.2930 H   0  0  0  0  0  0  0  0  0  0  0  0
   -8.5250    7.6440  -10.1460 H   0  0  0  0  0  0  0  0  0  0  0  0
   -8.2040    4.1590  -14.6730 H   0  0  0  0  0  0  0  0  0  0  0  0
   -7.2970    5.3640  -19.7580 H   0  0  0  0  0  0  0  0  0  0  0  0
   -9.8140    4.8480  -20.1580 H   0  0  0  0  0  0  0  0  0  0  0  0
  -11.2620    4.5060  -18.2900 H   0  0  0  0  0  0  0  0  0  0  0  0
  -10.4390    4.6200  -15.9780 H   0  0  0  0  0  0  0  0  0  0  0  0
   -4.6640    5.7070  -15.9180 H   0  0  0  0  0  0  0  0  0  0  0  0
   -5.8970    6.9680  -15.9160 H   0  0  0  0  0  0  0  0  0  0  0  0
   -5.9590    4.2020  -14.9060 H   0  0  0  0  0  0  0  0  0  0  0  0
   -6.1470    5.7110  -14.0390 H   0  0  0  0  0  0  0  0  0  0  0  0
  1  2  1  0
  2  3  1  0
  3  4  1  0
  4  5  2  0
  5  6  1  0
  6  7  1  0
  7  8  1  0
  8  9  1  0
  9 10  1  0
  6 11  1  0
 11 12  2  0
  1 13  2  0
  1 14  1  0
 14 15  1  0
 15 16  1  0
 16 17  2  0
 17 18  1  0
 18 19  2  0
 19 20  1  0
 16 21  1  0
 21 22  2  0
 21 23  1  0
 23 24  1  0
 12  4  1  0
 10  5  1  0
 24 14  1  0
 20 15  2  0
  2 25  1  0
  3 26  1  0
  3 27  1  0
  7 28  1  0
  7 29  1  0
  8 30  1  0
  8 31  1  0
  9 32  1  0
  9 33  1  0
 10 34  1  0
 10 35  1  0
 12 36  1  0
 14 37  1  0
 17 38  1  0
 18 39  1  0
 19 40  1  0
 20 41  1  0
 23 42  1  0
 23 43  1  0
 24 44  1  0
 24 45  1  0
A    1
 C1 
A    2
 N1 
A    3
 C2 
A    4
 C3 
A    5
 C4 
A    6
 N2 
A    7
 C5 
A    8
 C6 
A    9
 C7 
A   10
 C8 
A   11
 N3 
A   12
 C9 
A   13
 O1 
A   14
 C10
A   15
 C11
A   16
 C12
A   17
 C13
A   18
 C14
A   19
 C15
A   20
 C16
A   21
 C17
A   22
 O2 
A   23
 C18
A   24
 C19
A   25
 H1 
A   26
 H2 
A   27
 H3 
A   28
 H4 
A   29
 H5 
A   30
 H6 
A   31
 H7 
A   32
 H8 
A   33
 H9 
A   34
 H10
A   35
 H11
A   36
 H12
A   37
 H13
A   38
 H14
A   39
 H15
A   40
 H16
A   41
 H17
A   42
 H18
A   43
 H19
A   44
 H20
A   45
 H21
M  END
>  <ref_pdb>  (77) 
x0051_0B

>  <ref_mols>  (77) 
x0969_1B,x0455_0B

>  <original SMILES>  (77) 
[H]c1nn2c(c1C([H])([H])N([H])C(=O)C1([H])c3c([H])c([H])c([H])c([H])c3C(=O)C([H])([H])C1([H])[H])C([H])([H])C([H])([H])C([H])([H])C2([H])[H]

>  <index>  (77) 
88

>  <∆∆G>  (77) 
-8.295385

>  <∆G_bound>  (77) 
-7.448462

>  <∆G_unbound>  (77) 
0.846923

>  <comRMSD>  (77) 
0.318803

>  <N_constrained_atoms>  (77) 
20.0

>  <N_unconstrained_atoms>  (77) 
4.0

>  <runtime>  (77) 
56.267198

>  <LE>  (77) 
0.345641

>  <percent_hybrid>  (77) 
50.0

>  <dist>  (77) 
7.0

>  <ecfp4>  (77) 
0.261905

>  <daylight>  (77) 
0.258856

>  <topodist>  (77) 
2.0

>  <mces>  (77) 
25.0

>  <tdn>  (77) 
0.0

>  <tup>  (77) 
2.0

>  <rdn>  (77) 
0.0

>  <rup>  (77) 
0.0

>  <ldn>  (77) 
0.0

>  <lup>  (77) 
0.0

>  <mut>  (77) 
4.0

>  <maj>  (77) 
4.0

>  <min>  (77) 
0.0

>  <hyb>  (77) 
1.0

>  <sub>  (77) 
0.0

>  <query_index>  (77) 
204.0

>  <max_hit_Tanimoto>  (77) 
0.314879

>  <largest_ring>  (77) 
0

>  <N_interactions_kept>  (77) 
1.0

>  <N_interactions_lost>  (77) 
1.5

>  <interaction_uniqueness_metric>  (77) 
0.178786

>  <ad_hoc_penalty>  (77) 
-30.973525

>  <N_rotatable_bonds>  (77) 
3

>  <N_HA>  (77) 
24

>  <cluster>  (77) 
6136

>  <N_interactions>  (77) 
6

>  <Enamine>  (77) 
0

>  <Mcule>  (77) 
1

>  <N_PAINS>  (77) 
0

>  <UFF_Gibbs>  (77) 
139.277404

>  <strain_per_HA>  (77) 
5.803225

>  <saltbridge:HIS:51>  (77) 
0

>  <pistack:HIS:51>  (77) 
1

>  <hydroph_interaction:HIS:51>  (77) 
1

>  <hbond:ALA:132>  (77) 
0

>  <hbond:SER:135>  (77) 
0

>  <hydroph_interaction:TYR:150>  (77) 
1

>  <pistack:TYR:161>  (77) 
0

>  <hydroph_interaction:TYR:161>  (77) 
2

>  <hydroph_interaction:ASP:83>  (77) 
1

>  <hbond:TYR:130>  (77) 
0

>  <hydroph_interaction:ALA:132>  (77) 
0

>  <hbond:HIS:51>  (77) 
0

>  <hbond:ASP:129>  (77) 
0

>  <hbond:TYR:150>  (77) 
0

>  <hbond:GLY:151>  (77) 
0

>  <hbond:TYR:161>  (77) 
0

>  <hydroph_interaction:TYR:130>  (77) 
0

>  <hydroph_interaction:PRO:131>  (77) 
0

>  <hydroph_interaction:ASP:129>  (77) 
0

>  <saltbridge:ASP:75>  (77) 
0

>  <saltbridge:ASP:83>  (77) 
0

>  <hydroph_interaction:ASN:152>  (77) 
0

>  <halogenbond:TYR:150>  (77) 
0

>  <hbond:ASP:83>  (77) 
0

>  <hydroph_interaction:VAL:155>  (77) 
0

>  <pication:TYR:161>  (77) 
0

>  <hbond:PRO:131>  (77) 
0

>  <hbond:LEU:128>  (77) 
0

>  <saltbridge:ASP:129>  (77) 
0

>  <hbond:THR:134>  (77) 
0

>  <pication:HIS:51>  (77) 
0

>  <hbond:SER:81>  (77) 
0

>  <hbond:GLY:159>  (77) 
0

>  <hydroph_interaction:PRO:101>  (77) 
0

>  <hydroph_interaction:THR:134>  (77) 
0

>  <hbond:GLY:82>  (77) 
0

>  <hydroph_interaction:GLU:104>  (77) 
0

>  <hydroph_interaction:VAL:36>  (77) 
0

>  <hydroph_interaction:MET:49>  (77) 
0

>  <halogenbond:GLU:104>  (77) 
0

>  <hydroph_interaction:LYS:107>  (77) 
0

$$$$
YXCWEGQWTGZWLW-UHFFFAOYSA-N
     RDKit          3D

 33 34  0  0  0  0  0  0  0  0999 V2000
   -5.9340    5.0460  -20.8590 S   0  0  0  0  0  0  0  0  0  0  0  0
   -5.8920    5.4230  -19.0960 C   0  0  0  0  0  0  0  0  0  0  0  0
   -7.2780    5.2200  -18.6510 C   0  0  0  0  0  0  0  0  0  0  0  0
   -7.6630    5.2480  -17.3430 C   0  0  0  0  0  0  0  0  0  0  0  0
   -9.0280    5.0270  -17.0830 C   0  0  0  0  0  0  0  0  0  0  0  0
   -9.4280    5.0540  -15.7700 C   0  0  0  0  0  0  0  0  0  0  0  0
   -8.5170    5.2890  -14.7370 C   0  0  0  0  0  0  0  0  0  0  0  0
   -7.1750    5.5060  -15.0190 C   0  0  0  0  0  0  0  0  0  0  0  0
   -6.7460    5.4850  -16.3190 C   0  0  0  0  0  0  0  0  0  0  0  0
   -9.9140    4.7980  -18.1510 C   0  0  0  0  0  0  0  0  0  0  0  0
   -9.3760    4.8110  -19.4160 C   0  0  0  0  0  0  0  0  0  0  0  0
   -8.1000    5.0070  -19.6780 N   0  0  0  0  0  0  0  0  0  0  0  0
   -4.5190    6.0640  -21.3460 C   0  0  0  0  0  0  0  0  0  0  0  0
   -4.7340    7.5160  -20.8930 C   0  0  0  0  0  0  0  0  0  0  0  0
   -3.2150    5.4970  -20.7490 C   0  0  0  0  0  0  0  0  0  0  0  0
   -4.4920    5.9700  -22.8580 C   0  0  0  0  0  0  0  0  0  0  0  0
   -5.5950    6.4610  -18.9260 H   0  0  0  0  0  0  0  0  0  0  0  0
   -5.2140    4.7640  -18.5430 H   0  0  0  0  0  0  0  0  0  0  0  0
  -10.4650    4.8910  -15.4980 H   0  0  0  0  0  0  0  0  0  0  0  0
   -8.8650    5.3010  -13.7080 H   0  0  0  0  0  0  0  0  0  0  0  0
   -6.4710    5.6880  -14.2130 H   0  0  0  0  0  0  0  0  0  0  0  0
   -5.6940    5.6540  -16.5240 H   0  0  0  0  0  0  0  0  0  0  0  0
  -10.9730    4.6260  -18.0040 H   0  0  0  0  0  0  0  0  0  0  0  0
   -9.9600    4.6670  -20.2970 H   0  0  0  0  0  0  0  0  0  0  0  0
   -4.2330    8.2150  -21.5740 H   0  0  0  0  0  0  0  0  0  0  0  0
   -4.3490    7.7010  -19.8860 H   0  0  0  0  0  0  0  0  0  0  0  0
   -5.8020    7.7750  -20.8940 H   0  0  0  0  0  0  0  0  0  0  0  0
   -3.3390    5.1930  -19.7050 H   0  0  0  0  0  0  0  0  0  0  0  0
   -2.8910    4.6050  -21.3000 H   0  0  0  0  0  0  0  0  0  0  0  0
   -2.4020    6.2290  -20.8030 H   0  0  0  0  0  0  0  0  0  0  0  0
   -4.0250    5.0370  -23.1970 H   0  0  0  0  0  0  0  0  0  0  0  0
   -5.5130    6.0040  -23.2600 H   0  0  0  0  0  0  0  0  0  0  0  0
   -3.9460    6.8030  -23.3100 H   0  0  0  0  0  0  0  0  0  0  0  0
  1  2  1  0
  2  3  1  0
  3  4  2  0
  4  5  1  0
  5  6  1  0
  6  7  2  0
  7  8  1  0
  8  9  2  0
  5 10  2  0
 10 11  1  0
 11 12  2  0
  1 13  1  0
 13 14  1  0
 13 15  1  0
 13 16  1  0
  3 12  1  0
  4  9  1  0
  2 17  1  0
  2 18  1  0
  6 19  1  0
  7 20  1  0
  8 21  1  0
  9 22  1  0
 10 23  1  0
 11 24  1  0
 14 25  1  0
 14 26  1  0
 14 27  1  0
 15 28  1  0
 15 29  1  0
 15 30  1  0
 16 31  1  0
 16 32  1  0
 16 33  1  0
A    1
 S1 
A    2
 C1 
A    3
 C2 
A    4
 C3 
A    5
 C4 
A    6
 C5 
A    7
 C6 
A    8
 C7 
A    9
 C8 
A   10
 C9 
A   11
 C10
A   12
 N1 
A   13
 C11
A   14
 C12
A   15
 C13
A   16
 C14
A   17
 H1 
A   18
 H2 
A   19
 H3 
A   20
 H4 
A   21
 H5 
A   22
 H6 
A   23
 H7 
A   24
 H8 
A   25
 H9 
A   26
 H10
A   27
 H11
A   28
 H12
A   29
 H13
A   30
 H14
A   31
 H15
A   32
 H16
A   33
 H17
M  END
>  <ref_pdb>  (78) 
x0051_0B

>  <ref_mols>  (78) 
x0101_0B,x0969_0B

>  <original SMILES>  (78) 
[H]c1nc(C([H])([H])SC(C([H])([H])[H])(C([H])([H])[H])C([H])([H])[H])c2c([H])c([H])c([H])c([H])c2c1[H]

>  <index>  (78) 
115

>  <∆∆G>  (78) 
-6.816529

>  <∆G_bound>  (78) 
-6.814672

>  <∆G_unbound>  (78) 
0.001857

>  <comRMSD>  (78) 
0.960007

>  <N_constrained_atoms>  (78) 
17.0

>  <N_unconstrained_atoms>  (78) 
1.0

>  <runtime>  (78) 
36.284372

>  <LE>  (78) 
0.378696

>  <percent_hybrid>  (78) 
23.0

>  <dist>  (78) 
5.0

>  <ecfp4>  (78) 
0.125

>  <daylight>  (78) 
0.273504

>  <topodist>  (78) 
3.0

>  <mces>  (78) 
16.0

>  <tdn>  (78) 
2.0

>  <tup>  (78) 
0.0

>  <rdn>  (78) 
0.0

>  <rup>  (78) 
0.0

>  <ldn>  (78) 
0.0

>  <lup>  (78) 
1.0

>  <mut>  (78) 
2.0

>  <maj>  (78) 
2.0

>  <min>  (78) 
0.0

>  <hyb>  (78) 
0.0

>  <sub>  (78) 
2.0

>  <query_index>  (78) 
325.0

>  <max_hit_Tanimoto>  (78) 
0.15461

>  <largest_ring>  (78) 
0

>  <N_interactions_kept>  (78) 
3.0

>  <N_interactions_lost>  (78) 
1.0

>  <interaction_uniqueness_metric>  (78) 
0.068525

>  <ad_hoc_penalty>  (78) 
-30.96526

>  <N_rotatable_bonds>  (78) 
2

>  <N_HA>  (78) 
16

>  <cluster>  (78) 
6111

>  <N_interactions>  (78) 
5

>  <Enamine>  (78) 
0

>  <Mcule>  (78) 
1

>  <N_PAINS>  (78) 
0

>  <UFF_Gibbs>  (78) 
46.550874

>  <strain_per_HA>  (78) 
2.90943

>  <saltbridge:HIS:51>  (78) 
0

>  <pistack:HIS:51>  (78) 
0

>  <hydroph_interaction:HIS:51>  (78) 
0

>  <hbond:ALA:132>  (78) 
0

>  <hbond:SER:135>  (78) 
0

>  <hydroph_interaction:TYR:150>  (78) 
1

>  <pistack:TYR:161>  (78) 
0

>  <hydroph_interaction:TYR:161>  (78) 
3

>  <hydroph_interaction:ASP:83>  (78) 
0

>  <hbond:TYR:130>  (78) 
0

>  <hydroph_interaction:ALA:132>  (78) 
0

>  <hbond:HIS:51>  (78) 
0

>  <hbond:ASP:129>  (78) 
0

>  <hbond:TYR:150>  (78) 
0

>  <hbond:GLY:151>  (78) 
0

>  <hbond:TYR:161>  (78) 
0

>  <hydroph_interaction:TYR:130>  (78) 
0

>  <hydroph_interaction:PRO:131>  (78) 
0

>  <hydroph_interaction:ASP:129>  (78) 
1

>  <saltbridge:ASP:75>  (78) 
0

>  <saltbridge:ASP:83>  (78) 
0

>  <hydroph_interaction:ASN:152>  (78) 
0

>  <halogenbond:TYR:150>  (78) 
0

>  <hbond:ASP:83>  (78) 
0

>  <hydroph_interaction:VAL:155>  (78) 
0

>  <pication:TYR:161>  (78) 
0

>  <hbond:PRO:131>  (78) 
0

>  <hbond:LEU:128>  (78) 
0

>  <saltbridge:ASP:129>  (78) 
0

>  <hbond:THR:134>  (78) 
0

>  <pication:HIS:51>  (78) 
0

>  <hbond:SER:81>  (78) 
0

>  <hbond:GLY:159>  (78) 
0

>  <hydroph_interaction:PRO:101>  (78) 
0

>  <hydroph_interaction:THR:134>  (78) 
0

>  <hbond:GLY:82>  (78) 
0

>  <hydroph_interaction:GLU:104>  (78) 
0

>  <hydroph_interaction:VAL:36>  (78) 
0

>  <hydroph_interaction:MET:49>  (78) 
0

>  <halogenbond:GLU:104>  (78) 
0

>  <hydroph_interaction:LYS:107>  (78) 
0

$$$$
PV-002432888144
     RDKit          3D

 51 54  0  0  0  0  0  0  0  0999 V2000
   -6.7270    6.1180  -17.3890 C   0  0  0  0  0  0  0  0  0  0  0  0
   -6.7120    6.4420  -16.0920 N   0  0  0  0  0  0  0  0  0  0  0  0
   -7.7560    6.0680  -15.3410 C   0  0  0  0  0  0  0  0  0  0  0  0
   -7.7520    6.4080  -13.9650 N   0  0  0  0  0  0  0  0  0  0  0  0
   -8.9920    6.2390  -13.1950 C   0  0  0  0  0  0  0  0  0  0  0  0
   -8.7650    5.3480  -12.1550 C   0  0  0  0  0  0  0  0  0  0  0  0
   -8.8030    5.5740  -10.6760 C   0  0  0  0  0  0  0  0  0  0  0  0
   -8.9460    4.4100   -9.7500 C   0  0  0  0  0  0  0  0  0  0  0  0
   -9.0530    2.9700  -10.1910 C   0  0  0  0  0  0  0  0  0  0  0  0
   -8.6740    2.1810   -8.9500 C   0  0  0  0  0  0  0  0  0  0  0  0
   -9.5020    2.6380   -7.7460 C   0  0  0  0  0  0  0  0  0  0  0  0
   -9.0950    4.0550   -7.3210 C   0  0  0  0  0  0  0  0  0  0  0  0
   -8.9580    4.8980   -8.4960 N   0  0  0  0  0  0  0  0  0  0  0  0
   -8.8320    6.2530   -8.4650 N   0  0  0  0  0  0  0  0  0  0  0  0
   -8.7410    6.6590   -9.7710 C   0  0  0  0  0  0  0  0  0  0  0  0
   -8.8110    5.3660  -15.8990 C   0  0  0  0  0  0  0  0  0  0  0  0
   -8.7160    5.0810  -17.2530 C   0  0  0  0  0  0  0  0  0  0  0  0
   -9.6580    4.3710  -17.8930 C   0  0  0  0  0  0  0  0  0  0  0  0
  -10.5590    5.0030  -18.9770 C   0  0  0  0  0  0  0  0  0  0  0  0
  -10.9240    3.9880  -20.0130 C   0  0  0  0  0  0  0  0  0  0  0  0
   -9.6190    3.7320  -20.6940 C   0  0  0  0  0  0  0  0  0  0  0  0
   -8.8410    2.7690  -19.8520 C   0  0  0  0  0  0  0  0  0  0  0  0
   -8.8510    3.1430  -18.3700 C   0  0  0  0  0  0  0  0  0  0  0  0
   -7.6840    5.4510  -18.0150 N   0  0  0  0  0  0  0  0  0  0  0  0
   -5.8730    6.4310  -17.9850 H   0  0  0  0  0  0  0  0  0  0  0  0
   -6.9670    5.9400  -13.5200 H   0  0  0  0  0  0  0  0  0  0  0  0
   -9.7960    5.8540  -13.8360 H   0  0  0  0  0  0  0  0  0  0  0  0
   -9.3190    7.2010  -12.7810 H   0  0  0  0  0  0  0  0  0  0  0  0
   -9.4550    4.5150  -12.3380 H   0  0  0  0  0  0  0  0  0  0  0  0
   -7.7820    4.9050  -12.3530 H   0  0  0  0  0  0  0  0  0  0  0  0
   -8.3520    2.7660  -11.0100 H   0  0  0  0  0  0  0  0  0  0  0  0
  -10.0630    2.7120  -10.5250 H   0  0  0  0  0  0  0  0  0  0  0  0
   -8.8300    1.1280   -9.1030 H   0  0  0  0  0  0  0  0  0  0  0  0
   -7.6170    2.3400   -8.7350 H   0  0  0  0  0  0  0  0  0  0  0  0
   -9.3380    1.9500   -6.9320 H   0  0  0  0  0  0  0  0  0  0  0  0
  -10.5720    2.6080   -7.9830 H   0  0  0  0  0  0  0  0  0  0  0  0
   -9.8660    4.5110   -6.6880 H   0  0  0  0  0  0  0  0  0  0  0  0
   -8.1440    4.0440   -6.7800 H   0  0  0  0  0  0  0  0  0  0  0  0
   -8.6370    7.7160   -9.9870 H   0  0  0  0  0  0  0  0  0  0  0  0
   -9.6600    5.0520  -15.3050 H   0  0  0  0  0  0  0  0  0  0  0  0
  -10.3100    4.1120  -17.0690 H   0  0  0  0  0  0  0  0  0  0  0  0
  -11.4630    5.4770  -18.5850 H   0  0  0  0  0  0  0  0  0  0  0  0
  -10.0000    5.7680  -19.5140 H   0  0  0  0  0  0  0  0  0  0  0  0
  -11.6830    4.3520  -20.6990 H   0  0  0  0  0  0  0  0  0  0  0  0
  -11.3020    3.0790  -19.5350 H   0  0  0  0  0  0  0  0  0  0  0  0
   -9.7390    3.3830  -21.7120 H   0  0  0  0  0  0  0  0  0  0  0  0
   -9.0500    4.6520  -20.7490 H   0  0  0  0  0  0  0  0  0  0  0  0
   -9.2250    1.7490  -19.9510 H   0  0  0  0  0  0  0  0  0  0  0  0
   -7.8120    2.7470  -20.2240 H   0  0  0  0  0  0  0  0  0  0  0  0
   -7.8140    3.3420  -18.1020 H   0  0  0  0  0  0  0  0  0  0  0  0
   -9.1200    2.2520  -17.8070 H   0  0  0  0  0  0  0  0  0  0  0  0
  1  2  2  0
  2  3  1  0
  3  4  1  0
  4  5  1  0
  5  6  1  0
  6  7  1  0
  7  8  2  0
  8  9  1  0
  9 10  1  0
 10 11  1  0
 11 12  1  0
 12 13  1  0
 13 14  1  0
 14 15  2  0
  3 16  2  0
 16 17  1  0
 17 18  1  0
 18 19  1  0
 19 20  1  0
 20 21  1  0
 21 22  1  0
 22 23  1  0
 17 24  2  0
 24  1  1  0
 15  7  1  0
 13  8  1  0
 23 18  1  0
  1 25  1  0
  4 26  1  0
  5 27  1  0
  5 28  1  0
  6 29  1  0
  6 30  1  0
  9 31  1  0
  9 32  1  0
 10 33  1  0
 10 34  1  0
 11 35  1  0
 11 36  1  0
 12 37  1  0
 12 38  1  0
 15 39  1  0
 16 40  1  0
 18 41  1  0
 19 42  1  0
 19 43  1  0
 20 44  1  0
 20 45  1  0
 21 46  1  0
 21 47  1  0
 22 48  1  0
 22 49  1  0
 23 50  1  0
 23 51  1  0
A    1
 C1 
A    2
 N1 
A    3
 C2 
A    4
 N2 
A    5
 C3 
A    6
 C4 
A    7
 C5 
A    8
 C6 
A    9
 C7 
A   10
 C8 
A   11
 C9 
A   12
 C10
A   13
 N3 
A   14
 N4 
A   15
 C11
A   16
 C12
A   17
 C13
A   18
 C14
A   19
 C15
A   20
 C16
A   21
 C17
A   22
 C18
A   23
 C19
A   24
 N5 
A   25
 H1 
A   26
 H2 
A   27
 H3 
A   28
 H4 
A   29
 H5 
A   30
 H6 
A   31
 H7 
A   32
 H8 
A   33
 H9 
A   34
 H10
A   35
 H11
A   36
 H12
A   37
 H13
A   38
 H14
A   39
 H15
A   40
 H16
A   41
 H17
A   42
 H18
A   43
 H19
A   44
 H20
A   45
 H21
A   46
 H22
A   47
 H23
A   48
 H24
A   49
 H25
A   50
 H26
A   51
 H27
M  END
>  <ref_pdb>  (79) 
x0051_0B

>  <ref_mols>  (79) 
x0945_0B,x0969_1B

>  <original SMILES>  (79) 
[H]c1nc(N([H])C([H])([H])C([H])([H])c2c([H])nn3c2C([H])([H])C([H])([H])C([H])([H])C3([H])[H])c([H])c(C2([H])C([H])([H])C([H])([H])C([H])([H])C([H])([H])C2([H])[H])n1

>  <index>  (79) 
60

>  <∆∆G>  (79) 
-5.943495

>  <∆G_bound>  (79) 
-5.150322

>  <∆G_unbound>  (79) 
0.793173

>  <comRMSD>  (79) 
0.556263

>  <N_constrained_atoms>  (79) 
19.0

>  <N_unconstrained_atoms>  (79) 
6.0

>  <runtime>  (79) 
68.043602

>  <LE>  (79) 
0.23774

>  <percent_hybrid>  (79) 
48.0

>  <dist>  (79) 
8.0

>  <ecfp4>  (79) 
0.298701

>  <daylight>  (79) 
0.276398

>  <topodist>  (79) 
2.0

>  <mces>  (79) 
27.0

>  <tdn>  (79) 
2.0

>  <tup>  (79) 
0.0

>  <rdn>  (79) 
0.0

>  <rup>  (79) 
0.0

>  <ldn>  (79) 
0.0

>  <lup>  (79) 
0.0

>  <mut>  (79) 
6.0

>  <maj>  (79) 
6.0

>  <min>  (79) 
0.0

>  <hyb>  (79) 
0.0

>  <sub>  (79) 
1.0

>  <query_index>  (79) 
347.0

>  <max_hit_Tanimoto>  (79) 
0.311348

>  <largest_ring>  (79) 
0

>  <N_interactions_kept>  (79) 
1.0

>  <N_interactions_lost>  (79) 
1.0

>  <interaction_uniqueness_metric>  (79) 
0.243164

>  <ad_hoc_penalty>  (79) 
-30.918804

>  <N_rotatable_bonds>  (79) 
5

>  <N_HA>  (79) 
24

>  <cluster>  (79) 
6163

>  <N_interactions>  (79) 
8

>  <Enamine>  (79) 
1

>  <Mcule>  (79) 
0

>  <N_PAINS>  (79) 
0

>  <UFF_Gibbs>  (79) 
189.271264

>  <strain_per_HA>  (79) 
7.886303

>  <saltbridge:HIS:51>  (79) 
0

>  <pistack:HIS:51>  (79) 
1

>  <hydroph_interaction:HIS:51>  (79) 
1

>  <hbond:ALA:132>  (79) 
0

>  <hbond:SER:135>  (79) 
0

>  <hydroph_interaction:TYR:150>  (79) 
1

>  <pistack:TYR:161>  (79) 
1

>  <hydroph_interaction:TYR:161>  (79) 
2

>  <hydroph_interaction:ASP:83>  (79) 
1

>  <hbond:TYR:130>  (79) 
0

>  <hydroph_interaction:ALA:132>  (79) 
0

>  <hbond:HIS:51>  (79) 
0

>  <hbond:ASP:129>  (79) 
0

>  <hbond:TYR:150>  (79) 
0

>  <hbond:GLY:151>  (79) 
0

>  <hbond:TYR:161>  (79) 
0

>  <hydroph_interaction:TYR:130>  (79) 
1

>  <hydroph_interaction:PRO:131>  (79) 
0

>  <hydroph_interaction:ASP:129>  (79) 
0

>  <saltbridge:ASP:75>  (79) 
0

>  <saltbridge:ASP:83>  (79) 
0

>  <hydroph_interaction:ASN:152>  (79) 
0

>  <halogenbond:TYR:150>  (79) 
0

>  <hbond:ASP:83>  (79) 
0

>  <hydroph_interaction:VAL:155>  (79) 
0

>  <pication:TYR:161>  (79) 
0

>  <hbond:PRO:131>  (79) 
0

>  <hbond:LEU:128>  (79) 
0

>  <saltbridge:ASP:129>  (79) 
0

>  <hbond:THR:134>  (79) 
0

>  <pication:HIS:51>  (79) 
0

>  <hbond:SER:81>  (79) 
0

>  <hbond:GLY:159>  (79) 
0

>  <hydroph_interaction:PRO:101>  (79) 
0

>  <hydroph_interaction:THR:134>  (79) 
0

>  <hbond:GLY:82>  (79) 
0

>  <hydroph_interaction:GLU:104>  (79) 
0

>  <hydroph_interaction:VAL:36>  (79) 
0

>  <hydroph_interaction:MET:49>  (79) 
0

>  <halogenbond:GLU:104>  (79) 
0

>  <hydroph_interaction:LYS:107>  (79) 
0

$$$$
PFJSYGBLOVTNTD-UHFFFAOYSA-N
     RDKit          3D

 37 38  0  0  0  0  0  0  0  0999 V2000
   -6.0040    5.5540  -19.0940 C   0  0  0  0  0  0  0  0  0  0  0  0
   -6.0050    5.5330  -20.4370 N   0  0  0  0  0  0  0  0  0  0  0  0
   -4.8830    6.0800  -21.1280 C   0  0  0  0  0  0  0  0  0  0  0  0
   -4.8910    7.6110  -21.0630 C   0  0  0  0  0  0  0  0  0  0  0  0
   -3.5560    5.5000  -20.6030 C   0  0  0  0  0  0  0  0  0  0  0  0
   -5.0520    5.6560  -22.5730 C   0  0  0  0  0  0  0  0  0  0  0  0
   -5.0520    5.7960  -18.3550 O   0  0  0  0  0  0  0  0  0  0  0  0
   -7.2960    5.2540  -18.4860 C   0  0  0  0  0  0  0  0  0  0  0  0
   -8.3940    4.6950  -19.1370 C   0  0  0  0  0  0  0  0  0  0  0  0
   -9.5660    4.4540  -18.4080 C   0  0  0  0  0  0  0  0  0  0  0  0
   -9.5960    4.8100  -16.9750 C   0  0  0  0  0  0  0  0  0  0  0  0
   -8.4650    5.3770  -16.4020 C   0  0  0  0  0  0  0  0  0  0  0  0
   -8.3810    5.7700  -15.1430 C   0  0  0  0  0  0  0  0  0  0  0  0
   -7.1720    6.3400  -14.9210 N   0  0  0  0  0  0  0  0  0  0  0  0
   -6.9320    6.8320  -13.7200 C   0  0  0  0  0  0  0  0  0  0  0  0
   -7.9070    6.7960  -12.6060 C   0  0  0  0  0  0  0  0  0  0  0  0
   -9.1250    6.2140  -12.7960 C   0  0  0  0  0  0  0  0  0  0  0  0
   -9.3700    5.6580  -14.1780 C   0  0  0  0  0  0  0  0  0  0  0  0
   -7.3450    5.5790  -17.1690 C   0  0  0  0  0  0  0  0  0  0  0  0
   -6.5720    4.8430  -20.9050 H   0  0  0  0  0  0  0  0  0  0  0  0
   -4.1270    8.0560  -21.7070 H   0  0  0  0  0  0  0  0  0  0  0  0
   -5.8650    8.0220  -21.3650 H   0  0  0  0  0  0  0  0  0  0  0  0
   -4.6890    7.9310  -20.0320 H   0  0  0  0  0  0  0  0  0  0  0  0
   -3.1990    4.6880  -21.2510 H   0  0  0  0  0  0  0  0  0  0  0  0
   -2.7600    6.2570  -20.5700 H   0  0  0  0  0  0  0  0  0  0  0  0
   -3.6690    5.0980  -19.5930 H   0  0  0  0  0  0  0  0  0  0  0  0
   -6.0970    5.3810  -22.7780 H   0  0  0  0  0  0  0  0  0  0  0  0
   -4.7700    6.4600  -23.2650 H   0  0  0  0  0  0  0  0  0  0  0  0
   -4.4280    4.7830  -22.7930 H   0  0  0  0  0  0  0  0  0  0  0  0
   -8.3630    4.4370  -20.1930 H   0  0  0  0  0  0  0  0  0  0  0  0
  -10.4340    4.0190  -18.8740 H   0  0  0  0  0  0  0  0  0  0  0  0
  -10.4880    4.6370  -16.3800 H   0  0  0  0  0  0  0  0  0  0  0  0
   -5.9600    7.2910  -13.5540 H   0  0  0  0  0  0  0  0  0  0  0  0
   -7.6170    7.2350  -11.6550 H   0  0  0  0  0  0  0  0  0  0  0  0
   -9.8590    6.1590  -12.0090 H   0  0  0  0  0  0  0  0  0  0  0  0
  -10.3630    5.2030  -14.3020 H   0  0  0  0  0  0  0  0  0  0  0  0
   -6.4470    6.0220  -16.7220 H   0  0  0  0  0  0  0  0  0  0  0  0
  1  2  1  0
  2  3  1  0
  3  4  1  0
  3  5  1  0
  3  6  1  0
  1  7  2  0
  1  8  1  0
  8  9  2  0
  9 10  1  0
 10 11  2  0
 11 12  1  0
 12 13  1  0
 13 14  2  0
 14 15  1  0
 15 16  2  0
 16 17  1  0
 17 18  2  0
 12 19  2  0
 19  8  1  0
 18 13  1  0
  2 20  1  0
  4 21  1  0
  4 22  1  0
  4 23  1  0
  5 24  1  0
  5 25  1  0
  5 26  1  0
  6 27  1  0
  6 28  1  0
  6 29  1  0
  9 30  1  0
 10 31  1  0
 11 32  1  0
 15 33  1  0
 16 34  1  0
 17 35  1  0
 18 36  1  0
 19 37  1  0
A    1
 C1 
A    2
 N1 
A    3
 C2 
A    4
 C3 
A    5
 C4 
A    6
 C5 
A    7
 O1 
A    8
 C6 
A    9
 C7 
A   10
 C8 
A   11
 C9 
A   12
 C10
A   13
 C11
A   14
 N2 
A   15
 C12
A   16
 C13
A   17
 C14
A   18
 C15
A   19
 C16
A   20
 H1 
A   21
 H2 
A   22
 H3 
A   23
 H4 
A   24
 H5 
A   25
 H6 
A   26
 H7 
A   27
 H8 
A   28
 H9 
A   29
 H10
A   30
 H11
A   31
 H12
A   32
 H13
A   33
 H14
A   34
 H15
A   35
 H16
A   36
 H17
A   37
 H18
M  END
>  <ref_pdb>  (80) 
x0051_0B

>  <ref_mols>  (80) 
x0101_0B,x0951_0B

>  <original SMILES>  (80) 
[H]c1nc(-c2c([H])c([H])c([H])c(C(=O)N([H])C(C([H])([H])[H])(C([H])([H])[H])C([H])([H])[H])c2[H])c([H])c([H])c1[H]

>  <index>  (80) 
55

>  <∆∆G>  (80) 
-7.295279

>  <∆G_bound>  (80) 
-7.395745

>  <∆G_unbound>  (80) 
-0.100466

>  <comRMSD>  (80) 
0.98815

>  <N_constrained_atoms>  (80) 
21.0

>  <N_unconstrained_atoms>  (80) 
0.0

>  <runtime>  (80) 
45.289669

>  <LE>  (80) 
0.347394

>  <percent_hybrid>  (80) 
40.0

>  <dist>  (80) 
8.0

>  <ecfp4>  (80) 
0.180556

>  <daylight>  (80) 
0.260204

>  <topodist>  (80) 
4.0

>  <mces>  (80) 
19.0

>  <tdn>  (80) 
2.0

>  <tup>  (80) 
0.0

>  <rdn>  (80) 
1.0

>  <rup>  (80) 
1.0

>  <ldn>  (80) 
0.0

>  <lup>  (80) 
0.0

>  <mut>  (80) 
2.0

>  <maj>  (80) 
2.0

>  <min>  (80) 
0.0

>  <hyb>  (80) 
2.0

>  <sub>  (80) 
3.0

>  <query_index>  (80) 
30.0

>  <max_hit_Tanimoto>  (80) 
0.353796

>  <largest_ring>  (80) 
0

>  <N_interactions_kept>  (80) 
2.0

>  <N_interactions_lost>  (80) 
2.0

>  <interaction_uniqueness_metric>  (80) 
0.11486

>  <ad_hoc_penalty>  (80) 
-30.826616

>  <N_rotatable_bonds>  (80) 
2

>  <N_HA>  (80) 
19

>  <cluster>  (80) 
6167

>  <N_interactions>  (80) 
7

>  <Enamine>  (80) 
0

>  <Mcule>  (80) 
1

>  <N_PAINS>  (80) 
0

>  <UFF_Gibbs>  (80) 
131.294132

>  <strain_per_HA>  (80) 
6.910217

>  <saltbridge:HIS:51>  (80) 
0

>  <pistack:HIS:51>  (80) 
0

>  <hydroph_interaction:HIS:51>  (80) 
0

>  <hbond:ALA:132>  (80) 
0

>  <hbond:SER:135>  (80) 
0

>  <hydroph_interaction:TYR:150>  (80) 
1

>  <pistack:TYR:161>  (80) 
0

>  <hydroph_interaction:TYR:161>  (80) 
3

>  <hydroph_interaction:ASP:83>  (80) 
0

>  <hbond:TYR:130>  (80) 
1

>  <hydroph_interaction:ALA:132>  (80) 
1

>  <hbond:HIS:51>  (80) 
0

>  <hbond:ASP:129>  (80) 
0

>  <hbond:TYR:150>  (80) 
0

>  <hbond:GLY:151>  (80) 
0

>  <hbond:TYR:161>  (80) 
0

>  <hydroph_interaction:TYR:130>  (80) 
0

>  <hydroph_interaction:PRO:131>  (80) 
0

>  <hydroph_interaction:ASP:129>  (80) 
1

>  <saltbridge:ASP:75>  (80) 
0

>  <saltbridge:ASP:83>  (80) 
0

>  <hydroph_interaction:ASN:152>  (80) 
0

>  <halogenbond:TYR:150>  (80) 
0

>  <hbond:ASP:83>  (80) 
0

>  <hydroph_interaction:VAL:155>  (80) 
0

>  <pication:TYR:161>  (80) 
0

>  <hbond:PRO:131>  (80) 
0

>  <hbond:LEU:128>  (80) 
0

>  <saltbridge:ASP:129>  (80) 
0

>  <hbond:THR:134>  (80) 
0

>  <pication:HIS:51>  (80) 
0

>  <hbond:SER:81>  (80) 
0

>  <hbond:GLY:159>  (80) 
0

>  <hydroph_interaction:PRO:101>  (80) 
0

>  <hydroph_interaction:THR:134>  (80) 
0

>  <hbond:GLY:82>  (80) 
0

>  <hydroph_interaction:GLU:104>  (80) 
0

>  <hydroph_interaction:VAL:36>  (80) 
0

>  <hydroph_interaction:MET:49>  (80) 
0

>  <halogenbond:GLU:104>  (80) 
0

>  <hydroph_interaction:LYS:107>  (80) 
0

$$$$
LQNBUOURHDSZTG-UHFFFAOYSA-N
     RDKit          3D

 40 42  0  0  0  0  0  0  0  0999 V2000
   -9.0720    6.0370  -13.5340 N   0  0  0  0  0  0  0  0  0  0  0  0
   -9.7580    5.5740  -14.7930 C   0  0  0  0  0  0  0  0  0  0  0  0
   -8.8410    5.4140  -16.0340 C   0  0  0  0  0  0  0  0  0  0  0  0
   -9.2830    5.0860  -17.4720 C   0  0  0  0  0  0  0  0  0  0  0  0
  -10.6130    4.8320  -18.0200 C   0  0  0  0  0  0  0  0  0  0  0  0
   -8.3300    5.0020  -18.4970 C   0  0  0  0  0  0  0  0  0  0  0  0
   -6.8500    5.2140  -18.2700 C   0  0  0  0  0  0  0  0  0  0  0  0
   -6.4010    5.5220  -16.8500 C   0  0  0  0  0  0  0  0  0  0  0  0
   -7.4830    5.6050  -15.7830 C   0  0  0  0  0  0  0  0  0  0  0  0
   -8.8080    4.9350  -12.5830 C   0  0  0  0  0  0  0  0  0  0  0  0
   -8.8400    5.2780  -11.0780 C   0  0  0  0  0  0  0  0  0  0  0  0
   -8.9600    4.2710  -10.1240 C   0  0  0  0  0  0  0  0  0  0  0  0
   -8.9510    4.9410   -8.8390 N   0  0  0  0  0  0  0  0  0  0  0  0
   -9.0620    4.2440   -7.5670 C   0  0  0  0  0  0  0  0  0  0  0  0
   -9.5080    2.8010   -7.8000 C   0  0  0  0  0  0  0  0  0  0  0  0
   -8.7400    2.2270   -8.8100 C   0  0  0  0  0  0  0  0  0  0  0  0
   -9.0800    2.8000  -10.1810 C   0  0  0  0  0  0  0  0  0  0  0  0
   -8.8320    6.2710   -8.9560 N   0  0  0  0  0  0  0  0  0  0  0  0
   -8.7680    6.4800  -10.2990 C   0  0  0  0  0  0  0  0  0  0  0  0
   -9.5190    6.8010  -13.0450 H   0  0  0  0  0  0  0  0  0  0  0  0
  -10.2910    4.6410  -14.6060 H   0  0  0  0  0  0  0  0  0  0  0  0
  -10.5360    6.2980  -15.0510 H   0  0  0  0  0  0  0  0  0  0  0  0
  -10.5370    4.1060  -18.8160 H   0  0  0  0  0  0  0  0  0  0  0  0
  -11.0930    5.7210  -18.4300 H   0  0  0  0  0  0  0  0  0  0  0  0
  -11.2200    4.4070  -17.2490 H   0  0  0  0  0  0  0  0  0  0  0  0
   -8.6660    4.7740  -19.5150 H   0  0  0  0  0  0  0  0  0  0  0  0
   -6.1380    5.1440  -19.0870 H   0  0  0  0  0  0  0  0  0  0  0  0
   -5.3540    5.6800  -16.6090 H   0  0  0  0  0  0  0  0  0  0  0  0
   -7.1630    5.8310  -14.7690 H   0  0  0  0  0  0  0  0  0  0  0  0
   -9.5400    4.1340  -12.7480 H   0  0  0  0  0  0  0  0  0  0  0  0
   -7.8280    4.5010  -12.8110 H   0  0  0  0  0  0  0  0  0  0  0  0
   -9.7960    4.7910   -6.9620 H   0  0  0  0  0  0  0  0  0  0  0  0
   -8.0890    4.2760   -7.0660 H   0  0  0  0  0  0  0  0  0  0  0  0
   -9.3800    2.2180   -6.8840 H   0  0  0  0  0  0  0  0  0  0  0  0
  -10.5710    2.7650   -8.0610 H   0  0  0  0  0  0  0  0  0  0  0  0
   -7.6790    2.3980   -8.6080 H   0  0  0  0  0  0  0  0  0  0  0  0
   -8.8930    1.1550   -8.8030 H   0  0  0  0  0  0  0  0  0  0  0  0
   -8.3850    2.4050  -10.9320 H   0  0  0  0  0  0  0  0  0  0  0  0
  -10.0910    2.4920  -10.4720 H   0  0  0  0  0  0  0  0  0  0  0  0
   -8.6700    7.4970  -10.6600 H   0  0  0  0  0  0  0  0  0  0  0  0
  1  2  1  0
  2  3  1  0
  3  4  2  0
  4  5  1  0
  4  6  1  0
  6  7  2  0
  7  8  1  0
  8  9  2  0
  1 10  1  0
 10 11  1  0
 11 12  2  0
 12 13  1  0
 13 14  1  0
 14 15  1  0
 15 16  1  0
 16 17  1  0
 13 18  1  0
 18 19  2  0
  9  3  1  0
 19 11  1  0
 17 12  1  0
  1 20  1  0
  2 21  1  0
  2 22  1  0
  5 23  1  0
  5 24  1  0
  5 25  1  0
  6 26  1  0
  7 27  1  0
  8 28  1  0
  9 29  1  0
 10 30  1  0
 10 31  1  0
 14 32  1  0
 14 33  1  0
 15 34  1  0
 15 35  1  0
 16 36  1  0
 16 37  1  0
 17 38  1  0
 17 39  1  0
 19 40  1  0
A    1
 N1 
A    2
 C1 
A    3
 C2 
A    4
 C3 
A    5
 C4 
A    6
 C5 
A    7
 C6 
A    8
 C7 
A    9
 C8 
A   10
 C9 
A   11
 C10
A   12
 C11
A   13
 N2 
A   14
 C12
A   15
 C13
A   16
 C14
A   17
 C15
A   18
 N3 
A   19
 C16
A   20
 H1 
A   21
 H2 
A   22
 H3 
A   23
 H4 
A   24
 H5 
A   25
 H6 
A   26
 H7 
A   27
 H8 
A   28
 H9 
A   29
 H10
A   30
 H11
A   31
 H12
A   32
 H13
A   33
 H14
A   34
 H15
A   35
 H16
A   36
 H17
A   37
 H18
A   38
 H19
A   39
 H20
A   40
 H21
M  END
>  <ref_pdb>  (81) 
x0051_0B

>  <ref_mols>  (81) 
x0553_0B,x0969_1B

>  <original SMILES>  (81) 
[H]c1nn2c(c1C([H])([H])N([H])C([H])([H])c1c([H])c([H])c([H])c([H])c1C([H])([H])[H])C([H])([H])C([H])([H])C([H])([H])C2([H])[H]

>  <index>  (81) 
112

>  <∆∆G>  (81) 
-7.595472

>  <∆G_bound>  (81) 
-7.338854

>  <∆G_unbound>  (81) 
0.256618

>  <comRMSD>  (81) 
0.728912

>  <N_constrained_atoms>  (81) 
19.0

>  <N_unconstrained_atoms>  (81) 
2.0

>  <runtime>  (81) 
49.18239

>  <LE>  (81) 
0.361689

>  <percent_hybrid>  (81) 
48.0

>  <dist>  (81) 
5.0

>  <ecfp4>  (81) 
0.371429

>  <daylight>  (81) 
0.335938

>  <topodist>  (81) 
2.0

>  <mces>  (81) 
21.0

>  <tdn>  (81) 
2.0

>  <tup>  (81) 
0.0

>  <rdn>  (81) 
0.0

>  <rup>  (81) 
0.0

>  <ldn>  (81) 
0.0

>  <lup>  (81) 
0.0

>  <mut>  (81) 
3.0

>  <maj>  (81) 
3.0

>  <min>  (81) 
0.0

>  <hyb>  (81) 
0.0

>  <sub>  (81) 
1.0

>  <query_index>  (81) 
375.0

>  <max_hit_Tanimoto>  (81) 
0.384896

>  <largest_ring>  (81) 
0

>  <N_interactions_kept>  (81) 
1.5

>  <N_interactions_lost>  (81) 
1.0

>  <interaction_uniqueness_metric>  (81) 
0.236933

>  <ad_hoc_penalty>  (81) 
-30.785785

>  <N_rotatable_bonds>  (81) 
5

>  <N_HA>  (81) 
19

>  <cluster>  (81) 
6114

>  <N_interactions>  (81) 
6

>  <Enamine>  (81) 
0

>  <Mcule>  (81) 
1

>  <N_PAINS>  (81) 
0

>  <UFF_Gibbs>  (81) 
93.559595

>  <strain_per_HA>  (81) 
4.924189

>  <saltbridge:HIS:51>  (81) 
0

>  <pistack:HIS:51>  (81) 
1

>  <hydroph_interaction:HIS:51>  (81) 
0

>  <hbond:ALA:132>  (81) 
0

>  <hbond:SER:135>  (81) 
0

>  <hydroph_interaction:TYR:150>  (81) 
1

>  <pistack:TYR:161>  (81) 
1

>  <hydroph_interaction:TYR:161>  (81) 
0

>  <hydroph_interaction:ASP:83>  (81) 
1

>  <hbond:TYR:130>  (81) 
0

>  <hydroph_interaction:ALA:132>  (81) 
1

>  <hbond:HIS:51>  (81) 
1

>  <hbond:ASP:129>  (81) 
0

>  <hbond:TYR:150>  (81) 
0

>  <hbond:GLY:151>  (81) 
0

>  <hbond:TYR:161>  (81) 
0

>  <hydroph_interaction:TYR:130>  (81) 
0

>  <hydroph_interaction:PRO:131>  (81) 
0

>  <hydroph_interaction:ASP:129>  (81) 
0

>  <saltbridge:ASP:75>  (81) 
0

>  <saltbridge:ASP:83>  (81) 
0

>  <hydroph_interaction:ASN:152>  (81) 
0

>  <halogenbond:TYR:150>  (81) 
0

>  <hbond:ASP:83>  (81) 
0

>  <hydroph_interaction:VAL:155>  (81) 
0

>  <pication:TYR:161>  (81) 
0

>  <hbond:PRO:131>  (81) 
0

>  <hbond:LEU:128>  (81) 
0

>  <saltbridge:ASP:129>  (81) 
0

>  <hbond:THR:134>  (81) 
0

>  <pication:HIS:51>  (81) 
0

>  <hbond:SER:81>  (81) 
0

>  <hbond:GLY:159>  (81) 
0

>  <hydroph_interaction:PRO:101>  (81) 
0

>  <hydroph_interaction:THR:134>  (81) 
0

>  <hbond:GLY:82>  (81) 
0

>  <hydroph_interaction:GLU:104>  (81) 
0

>  <hydroph_interaction:VAL:36>  (81) 
0

>  <hydroph_interaction:MET:49>  (81) 
0

>  <halogenbond:GLU:104>  (81) 
0

>  <hydroph_interaction:LYS:107>  (81) 
0

$$$$
CSSB00011406335
     RDKit          3D

 24 25  0  0  0  0  0  0  0  0999 V2000
   -9.8410    5.4120  -15.2460 C   0  0  0  0  0  0  0  0  0  0  0  0
   -9.4060    5.2020  -16.6970 C   0  0  0  0  0  0  0  0  0  0  0  0
   -8.0020    5.3890  -16.9010 N   0  0  0  0  0  0  0  0  0  0  0  0
   -7.7800    5.1700  -18.2320 C   0  0  0  0  0  0  0  0  0  0  0  0
   -8.9110    4.8430  -19.0060 C   0  0  0  0  0  0  0  0  0  0  0  0
  -10.3500    4.7910  -18.0720 S   0  0  0  0  0  0  0  0  0  0  0  0
   -6.4330    5.2750  -18.7220 C   0  0  0  0  0  0  0  0  0  0  0  0
   -6.2060    5.2560  -20.0890 C   0  0  0  0  0  0  0  0  0  0  0  0
   -4.8580    5.3450  -20.6540 C   0  0  0  0  0  0  0  0  0  0  0  0
   -3.8460    5.4460  -19.6950 C   0  0  0  0  0  0  0  0  0  0  0  0
   -4.0050    5.4700  -18.3050 C   0  0  0  0  0  0  0  0  0  0  0  0
   -5.3390    5.3840  -17.8340 C   0  0  0  0  0  0  0  0  0  0  0  0
   -5.4680    5.4170  -16.3110 C   0  0  0  0  0  0  0  0  0  0  0  0
  -10.2450    6.4210  -15.0970 H   0  0  0  0  0  0  0  0  0  0  0  0
  -10.6240    4.7030  -14.9600 H   0  0  0  0  0  0  0  0  0  0  0  0
   -9.0040    5.2780  -14.5540 H   0  0  0  0  0  0  0  0  0  0  0  0
   -8.8660    4.6450  -20.0750 H   0  0  0  0  0  0  0  0  0  0  0  0
   -7.0520    5.1700  -20.7690 H   0  0  0  0  0  0  0  0  0  0  0  0
   -4.6670    5.3300  -21.7240 H   0  0  0  0  0  0  0  0  0  0  0  0
   -2.8280    5.5120  -20.0710 H   0  0  0  0  0  0  0  0  0  0  0  0
   -3.2420    5.5470  -17.5460 H   0  0  0  0  0  0  0  0  0  0  0  0
   -6.2070    4.6900  -15.9630 H   0  0  0  0  0  0  0  0  0  0  0  0
   -5.7480    6.4210  -15.9740 H   0  0  0  0  0  0  0  0  0  0  0  0
   -4.5190    5.1520  -15.8310 H   0  0  0  0  0  0  0  0  0  0  0  0
  1  2  1  0
  2  3  2  0
  3  4  1  0
  4  5  2  0
  5  6  1  0
  4  7  1  0
  7  8  2  0
  8  9  1  0
  9 10  2  0
 10 11  1  0
 11 12  2  0
 12 13  1  0
  6  2  1  0
 12  7  1  0
  1 14  1  0
  1 15  1  0
  1 16  1  0
  5 17  1  0
  8 18  1  0
  9 19  1  0
 10 20  1  0
 11 21  1  0
 13 22  1  0
 13 23  1  0
 13 24  1  0
A    1
 C1 
A    2
 C2 
A    3
 N1 
A    4
 C3 
A    5
 C4 
A    6
 S1 
A    7
 C5 
A    8
 C6 
A    9
 C7 
A   10
 C8 
A   11
 C9 
A   12
 C10
A   13
 C11
A   14
 H1 
A   15
 H2 
A   16
 H3 
A   17
 H4 
A   18
 H5 
A   19
 H6 
A   20
 H7 
A   21
 H8 
A   22
 H9 
A   23
 H10
A   24
 H11
M  END
>  <ref_pdb>  (82) 
x0051_0B

>  <ref_mols>  (82) 
x0680_0B,x0386_0B

>  <original SMILES>  (82) 
[H]c1sc(C([H])([H])[H])nc1-c1c([H])c([H])c([H])c([H])c1C([H])([H])[H]

>  <index>  (82) 
107

>  <∆∆G>  (82) 
-8.476416

>  <∆G_bound>  (82) 
-8.661677

>  <∆G_unbound>  (82) 
-0.18526

>  <comRMSD>  (82) 
0.626385

>  <N_constrained_atoms>  (82) 
12.0

>  <N_unconstrained_atoms>  (82) 
1.0

>  <runtime>  (82) 
27.33742

>  <LE>  (82) 
0.652032

>  <percent_hybrid>  (82) 
17.0

>  <dist>  (82) 
3.0

>  <ecfp4>  (82) 
0.265306

>  <daylight>  (82) 
0.212903

>  <topodist>  (82) 
1.0

>  <mces>  (82) 
13.0

>  <tdn>  (82) 
0.0

>  <tup>  (82) 
1.0

>  <rdn>  (82) 
0.0

>  <rup>  (82) 
0.0

>  <ldn>  (82) 
0.0

>  <lup>  (82) 
0.0

>  <mut>  (82) 
2.0

>  <maj>  (82) 
1.0

>  <min>  (82) 
1.0

>  <hyb>  (82) 
0.0

>  <sub>  (82) 
1.0

>  <query_index>  (82) 
296.0

>  <max_hit_Tanimoto>  (82) 
0.112444

>  <largest_ring>  (82) 
0

>  <N_interactions_kept>  (82) 
3.5

>  <N_interactions_lost>  (82) 
0.5

>  <interaction_uniqueness_metric>  (82) 
0.018782

>  <ad_hoc_penalty>  (82) 
-30.71427

>  <N_rotatable_bonds>  (82) 
3

>  <N_HA>  (82) 
13

>  <cluster>  (82) 
6119

>  <N_interactions>  (82) 
4

>  <Enamine>  (82) 
1

>  <Mcule>  (82) 
0

>  <N_PAINS>  (82) 
0

>  <UFF_Gibbs>  (82) 
40.339831

>  <strain_per_HA>  (82) 
3.103064

>  <saltbridge:HIS:51>  (82) 
0

>  <pistack:HIS:51>  (82) 
0

>  <hydroph_interaction:HIS:51>  (82) 
0

>  <hbond:ALA:132>  (82) 
0

>  <hbond:SER:135>  (82) 
0

>  <hydroph_interaction:TYR:150>  (82) 
0

>  <pistack:TYR:161>  (82) 
0

>  <hydroph_interaction:TYR:161>  (82) 
4

>  <hydroph_interaction:ASP:83>  (82) 
0

>  <hbond:TYR:130>  (82) 
0

>  <hydroph_interaction:ALA:132>  (82) 
0

>  <hbond:HIS:51>  (82) 
0

>  <hbond:ASP:129>  (82) 
0

>  <hbond:TYR:150>  (82) 
0

>  <hbond:GLY:151>  (82) 
0

>  <hbond:TYR:161>  (82) 
0

>  <hydroph_interaction:TYR:130>  (82) 
0

>  <hydroph_interaction:PRO:131>  (82) 
0

>  <hydroph_interaction:ASP:129>  (82) 
0

>  <saltbridge:ASP:75>  (82) 
0

>  <saltbridge:ASP:83>  (82) 
0

>  <hydroph_interaction:ASN:152>  (82) 
0

>  <halogenbond:TYR:150>  (82) 
0

>  <hbond:ASP:83>  (82) 
0

>  <hydroph_interaction:VAL:155>  (82) 
0

>  <pication:TYR:161>  (82) 
0

>  <hbond:PRO:131>  (82) 
0

>  <hbond:LEU:128>  (82) 
0

>  <saltbridge:ASP:129>  (82) 
0

>  <hbond:THR:134>  (82) 
0

>  <pication:HIS:51>  (82) 
0

>  <hbond:SER:81>  (82) 
0

>  <hbond:GLY:159>  (82) 
0

>  <hydroph_interaction:PRO:101>  (82) 
0

>  <hydroph_interaction:THR:134>  (82) 
0

>  <hbond:GLY:82>  (82) 
0

>  <hydroph_interaction:GLU:104>  (82) 
0

>  <hydroph_interaction:VAL:36>  (82) 
0

>  <hydroph_interaction:MET:49>  (82) 
0

>  <halogenbond:GLU:104>  (82) 
0

>  <hydroph_interaction:LYS:107>  (82) 
0

$$$$
MCULE-7150437755
     RDKit          3D

 25 25  0  0  0  0  0  0  0  0999 V2000
   -9.0280    6.5910  -13.2170 O   0  0  0  0  0  0  0  0  0  0  0  0
   -8.8580    5.4330  -13.9860 N   0  0  0  0  0  0  0  0  0  0  0  0
   -7.8470    5.5240  -14.9250 C   0  0  0  0  0  0  0  0  0  0  0  0
   -6.6160    5.7950  -14.5910 N   0  0  0  0  0  0  0  0  0  0  0  0
   -8.1650    5.3190  -16.2570 C   0  0  0  0  0  0  0  0  0  0  0  0
   -7.1880    5.5060  -17.2270 C   0  0  0  0  0  0  0  0  0  0  0  0
   -7.4440    5.3080  -18.6730 C   0  0  0  0  0  0  0  0  0  0  0  0
   -6.4260    5.5100  -19.6030 C   0  0  0  0  0  0  0  0  0  0  0  0
   -6.5050    4.8860  -21.0360 C   0  0  0  0  0  0  0  0  0  0  0  0
   -7.6400    4.0390  -21.2450 O   0  0  0  0  0  0  0  0  0  0  0  0
   -8.7370    4.9170  -19.0280 C   0  0  0  0  0  0  0  0  0  0  0  0
   -9.7330    4.7270  -18.0370 C   0  0  0  0  0  0  0  0  0  0  0  0
   -9.4440    4.9260  -16.6780 C   0  0  0  0  0  0  0  0  0  0  0  0
   -9.9970    6.7300  -13.2690 H   0  0  0  0  0  0  0  0  0  0  0  0
   -8.8520    4.5780  -13.4270 H   0  0  0  0  0  0  0  0  0  0  0  0
   -6.6220    5.9020  -13.5690 H   0  0  0  0  0  0  0  0  0  0  0  0
   -6.1820    5.8130  -16.9180 H   0  0  0  0  0  0  0  0  0  0  0  0
   -5.4930    5.1560  -19.1410 H   0  0  0  0  0  0  0  0  0  0  0  0
   -6.2890    6.5940  -19.7180 H   0  0  0  0  0  0  0  0  0  0  0  0
   -5.6130    4.2930  -21.2460 H   0  0  0  0  0  0  0  0  0  0  0  0
   -6.5020    5.6810  -21.7850 H   0  0  0  0  0  0  0  0  0  0  0  0
   -7.3010    3.1410  -21.4220 H   0  0  0  0  0  0  0  0  0  0  0  0
   -9.0810    4.7330  -20.0540 H   0  0  0  0  0  0  0  0  0  0  0  0
  -10.7590    4.4240  -18.2660 H   0  0  0  0  0  0  0  0  0  0  0  0
  -10.2910    4.7470  -16.0090 H   0  0  0  0  0  0  0  0  0  0  0  0
  1  2  1  0
  2  3  1  0
  3  4  2  3
  3  5  1  0
  5  6  2  0
  6  7  1  0
  7  8  1  0
  8  9  1  0
  9 10  1  0
  7 11  2  0
 11 12  1  0
 12 13  2  0
 13  5  1  0
  1 14  1  0
  2 15  1  0
  4 16  1  0
  6 17  1  0
  8 18  1  0
  8 19  1  0
  9 20  1  0
  9 21  1  0
 10 22  1  0
 11 23  1  0
 12 24  1  0
 13 25  1  0
A    1
 O1 
A    2
 N1 
A    3
 C1 
A    4
 N2 
A    5
 C2 
A    6
 C3 
A    7
 C4 
A    8
 C5 
A    9
 C6 
A   10
 O2 
A   11
 C7 
A   12
 C8 
A   13
 C9 
A   14
 H1 
A   15
 H2 
A   16
 H3 
A   17
 H4 
A   18
 H5 
A   19
 H6 
A   20
 H7 
A   21
 H8 
A   22
 H9 
A   23
 H10
A   24
 H11
A   25
 H12
M  END
>  <ref_pdb>  (83) 
x0051_0B

>  <ref_mols>  (83) 
x0951_0B,x0693_0B

>  <original SMILES>  (83) 
[H]N=C(c1c([H])c([H])c([H])c(C([H])([H])C([H])([H])O[H])c1[H])N([H])O[H]

>  <index>  (83) 
469

>  <∆∆G>  (83) 
-5.192695

>  <∆G_bound>  (83) 
-4.796275

>  <∆G_unbound>  (83) 
0.39642

>  <comRMSD>  (83) 
0.538531

>  <N_constrained_atoms>  (83) 
14.0

>  <N_unconstrained_atoms>  (83) 
1.0

>  <runtime>  (83) 
28.605692

>  <LE>  (83) 
0.34618

>  <percent_hybrid>  (83) 
34.0

>  <dist>  (83) 
5.0

>  <ecfp4>  (83) 
0.114754

>  <daylight>  (83) 
0.152542

>  <topodist>  (83) 
3.0

>  <mces>  (83) 
13.0

>  <tdn>  (83) 
1.0

>  <tup>  (83) 
0.0

>  <rdn>  (83) 
1.0

>  <rup>  (83) 
0.0

>  <ldn>  (83) 
1.0

>  <lup>  (83) 
0.0

>  <mut>  (83) 
2.0

>  <maj>  (83) 
2.0

>  <min>  (83) 
0.0

>  <hyb>  (83) 
0.0

>  <sub>  (83) 
2.0

>  <query_index>  (83) 
138.0

>  <max_hit_Tanimoto>  (83) 
0.129897

>  <largest_ring>  (83) 
0

>  <N_interactions_kept>  (83) 
2.5

>  <N_interactions_lost>  (83) 
2.0

>  <interaction_uniqueness_metric>  (83) 
0.880606

>  <ad_hoc_penalty>  (83) 
-30.514681

>  <N_rotatable_bonds>  (83) 
5

>  <N_HA>  (83) 
13

>  <cluster>  (83) 
5792

>  <N_interactions>  (83) 
7

>  <Enamine>  (83) 
0

>  <Mcule>  (83) 
1

>  <N_PAINS>  (83) 
0

>  <UFF_Gibbs>  (83) 
66.370481

>  <strain_per_HA>  (83) 
5.105422

>  <saltbridge:HIS:51>  (83) 
0

>  <pistack:HIS:51>  (83) 
0

>  <hydroph_interaction:HIS:51>  (83) 
0

>  <hbond:ALA:132>  (83) 
0

>  <hbond:SER:135>  (83) 
0

>  <hydroph_interaction:TYR:150>  (83) 
1

>  <pistack:TYR:161>  (83) 
1

>  <hydroph_interaction:TYR:161>  (83) 
1

>  <hydroph_interaction:ASP:83>  (83) 
0

>  <hbond:TYR:130>  (83) 
1

>  <hydroph_interaction:ALA:132>  (83) 
0

>  <hbond:HIS:51>  (83) 
1

>  <hbond:ASP:129>  (83) 
0

>  <hbond:TYR:150>  (83) 
0

>  <hbond:GLY:151>  (83) 
1

>  <hbond:TYR:161>  (83) 
0

>  <hydroph_interaction:TYR:130>  (83) 
0

>  <hydroph_interaction:PRO:131>  (83) 
0

>  <hydroph_interaction:ASP:129>  (83) 
0

>  <saltbridge:ASP:75>  (83) 
0

>  <saltbridge:ASP:83>  (83) 
0

>  <hydroph_interaction:ASN:152>  (83) 
0

>  <halogenbond:TYR:150>  (83) 
0

>  <hbond:ASP:83>  (83) 
0

>  <hydroph_interaction:VAL:155>  (83) 
0

>  <pication:TYR:161>  (83) 
0

>  <hbond:PRO:131>  (83) 
0

>  <hbond:LEU:128>  (83) 
1

>  <saltbridge:ASP:129>  (83) 
0

>  <hbond:THR:134>  (83) 
0

>  <pication:HIS:51>  (83) 
0

>  <hbond:SER:81>  (83) 
0

>  <hbond:GLY:159>  (83) 
0

>  <hydroph_interaction:PRO:101>  (83) 
0

>  <hydroph_interaction:THR:134>  (83) 
0

>  <hbond:GLY:82>  (83) 
0

>  <hydroph_interaction:GLU:104>  (83) 
0

>  <hydroph_interaction:VAL:36>  (83) 
0

>  <hydroph_interaction:MET:49>  (83) 
0

>  <halogenbond:GLU:104>  (83) 
0

>  <hydroph_interaction:LYS:107>  (83) 
0

$$$$
CSSS00012181354
     RDKit          3D

 21 21  0  0  0  0  0  0  0  0999 V2000
   -3.3270    5.0220  -16.7200 C   0  0  0  0  0  0  0  0  0  0  0  0
   -4.0710    5.3870  -17.9880 C   0  0  0  0  0  0  0  0  0  0  0  0
   -5.4290    5.7280  -17.6910 O   0  0  0  0  0  0  0  0  0  0  0  0
   -6.3520    5.5740  -18.6910 C   0  0  0  0  0  0  0  0  0  0  0  0
   -6.0580    5.6830  -19.8740 O   0  0  0  0  0  0  0  0  0  0  0  0
   -7.7660    5.2750  -18.2850 C   0  0  0  0  0  0  0  0  0  0  0  0
   -8.0490    5.3650  -16.8750 C   0  0  0  0  0  0  0  0  0  0  0  0
   -7.1240    5.6950  -15.8780 C   0  0  0  0  0  0  0  0  0  0  0  0
   -9.6810    5.0140  -16.5600 S   0  0  0  0  0  0  0  0  0  0  0  0
  -10.0350    4.7400  -18.2160 C   0  0  0  0  0  0  0  0  0  0  0  0
   -8.9320    4.9100  -19.0350 C   0  0  0  0  0  0  0  0  0  0  0  0
   -3.0000    5.9150  -16.1820 H   0  0  0  0  0  0  0  0  0  0  0  0
   -3.9740    4.4210  -16.0760 H   0  0  0  0  0  0  0  0  0  0  0  0
   -2.4290    4.4500  -16.9560 H   0  0  0  0  0  0  0  0  0  0  0  0
   -4.0840    4.5300  -18.6610 H   0  0  0  0  0  0  0  0  0  0  0  0
   -3.5420    6.2000  -18.4980 H   0  0  0  0  0  0  0  0  0  0  0  0
   -7.5110    5.6880  -14.8600 H   0  0  0  0  0  0  0  0  0  0  0  0
   -6.3280    4.9420  -15.8710 H   0  0  0  0  0  0  0  0  0  0  0  0
   -6.6000    6.6410  -15.9740 H   0  0  0  0  0  0  0  0  0  0  0  0
  -11.0370    4.4690  -18.5140 H   0  0  0  0  0  0  0  0  0  0  0  0
   -8.9640    4.7790  -20.1100 H   0  0  0  0  0  0  0  0  0  0  0  0
  1  2  1  0
  2  3  1  0
  3  4  1  0
  4  5  2  0
  4  6  1  0
  6  7  2  0
  7  8  1  0
  7  9  1  0
  9 10  1  0
 10 11  2  0
 11  6  1  0
  1 12  1  0
  1 13  1  0
  1 14  1  0
  2 15  1  0
  2 16  1  0
  8 17  1  0
  8 18  1  0
  8 19  1  0
 10 20  1  0
 11 21  1  0
A    1
 C1 
A    2
 C2 
A    3
 O1 
A    4
 C3 
A    5
 O2 
A    6
 C4 
A    7
 C5 
A    8
 C6 
A    9
 S1 
A   10
 C7 
A   11
 C8 
A   12
 H1 
A   13
 H2 
A   14
 H3 
A   15
 H4 
A   16
 H5 
A   17
 H6 
A   18
 H7 
A   19
 H8 
A   20
 H9 
A   21
 H10
M  END
>  <ref_pdb>  (84) 
x0051_0B

>  <ref_mols>  (84) 
x0472_0B,x0386_0B

>  <original SMILES>  (84) 
[H]c1sc(C([H])([H])[H])c(C(=O)OC([H])([H])C([H])([H])[H])c1[H]

>  <index>  (84) 
123

>  <∆∆G>  (84) 
-7.089047

>  <∆G_bound>  (84) 
-7.105832

>  <∆G_unbound>  (84) 
-0.016785

>  <comRMSD>  (84) 
0.482461

>  <N_constrained_atoms>  (84) 
14.0

>  <N_unconstrained_atoms>  (84) 
0.0

>  <runtime>  (84) 
18.885444

>  <LE>  (84) 
0.50636

>  <percent_hybrid>  (84) 
13.0

>  <dist>  (84) 
7.0

>  <ecfp4>  (84) 
0.160714

>  <daylight>  (84) 
0.228188

>  <topodist>  (84) 
4.0

>  <mces>  (84) 
11.0

>  <tdn>  (84) 
3.0

>  <tup>  (84) 
0.0

>  <rdn>  (84) 
1.0

>  <rup>  (84) 
0.0

>  <ldn>  (84) 
0.0

>  <lup>  (84) 
0.0

>  <mut>  (84) 
2.0

>  <maj>  (84) 
2.0

>  <min>  (84) 
0.0

>  <hyb>  (84) 
1.0

>  <sub>  (84) 
2.0

>  <query_index>  (84) 
75.0

>  <max_hit_Tanimoto>  (84) 
0.224036

>  <largest_ring>  (84) 
0

>  <N_interactions_kept>  (84) 
3.0

>  <N_interactions_lost>  (84) 
0.0

>  <interaction_uniqueness_metric>  (84) 
0.061972

>  <ad_hoc_penalty>  (84) 
-30.280876

>  <N_rotatable_bonds>  (84) 
4

>  <N_HA>  (84) 
11

>  <cluster>  (84) 
6105

>  <N_interactions>  (84) 
4

>  <Enamine>  (84) 
1

>  <Mcule>  (84) 
0

>  <N_PAINS>  (84) 
0

>  <UFF_Gibbs>  (84) 
35.747095

>  <strain_per_HA>  (84) 
3.249736

>  <saltbridge:HIS:51>  (84) 
0

>  <pistack:HIS:51>  (84) 
0

>  <hydroph_interaction:HIS:51>  (84) 
0

>  <hbond:ALA:132>  (84) 
0

>  <hbond:SER:135>  (84) 
0

>  <hydroph_interaction:TYR:150>  (84) 
1

>  <pistack:TYR:161>  (84) 
0

>  <hydroph_interaction:TYR:161>  (84) 
2

>  <hydroph_interaction:ASP:83>  (84) 
0

>  <hbond:TYR:130>  (84) 
0

>  <hydroph_interaction:ALA:132>  (84) 
0

>  <hbond:HIS:51>  (84) 
0

>  <hbond:ASP:129>  (84) 
0

>  <hbond:TYR:150>  (84) 
0

>  <hbond:GLY:151>  (84) 
0

>  <hbond:TYR:161>  (84) 
0

>  <hydroph_interaction:TYR:130>  (84) 
0

>  <hydroph_interaction:PRO:131>  (84) 
0

>  <hydroph_interaction:ASP:129>  (84) 
0

>  <saltbridge:ASP:75>  (84) 
0

>  <saltbridge:ASP:83>  (84) 
0

>  <hydroph_interaction:ASN:152>  (84) 
0

>  <halogenbond:TYR:150>  (84) 
0

>  <hbond:ASP:83>  (84) 
0

>  <hydroph_interaction:VAL:155>  (84) 
1

>  <pication:TYR:161>  (84) 
0

>  <hbond:PRO:131>  (84) 
0

>  <hbond:LEU:128>  (84) 
0

>  <saltbridge:ASP:129>  (84) 
0

>  <hbond:THR:134>  (84) 
0

>  <pication:HIS:51>  (84) 
0

>  <hbond:SER:81>  (84) 
0

>  <hbond:GLY:159>  (84) 
0

>  <hydroph_interaction:PRO:101>  (84) 
0

>  <hydroph_interaction:THR:134>  (84) 
0

>  <hbond:GLY:82>  (84) 
0

>  <hydroph_interaction:GLU:104>  (84) 
0

>  <hydroph_interaction:VAL:36>  (84) 
0

>  <hydroph_interaction:MET:49>  (84) 
0

>  <halogenbond:GLU:104>  (84) 
0

>  <hydroph_interaction:LYS:107>  (84) 
0

$$$$
MCULE-8467533850
     RDKit          3D

 46 48  0  0  0  0  0  0  0  0999 V2000
   -8.5990    6.9920  -14.0260 C   0  0  0  0  0  0  0  0  0  0  0  0
   -7.8170    6.1700  -14.8200 N   0  0  0  0  0  0  0  0  0  0  0  0
   -8.0740    5.7230  -16.0800 C   0  0  0  0  0  0  0  0  0  0  0  0
   -9.3400    5.5260  -16.6050 C   0  0  0  0  0  0  0  0  0  0  0  0
   -9.5190    5.0850  -17.9580 C   0  0  0  0  0  0  0  0  0  0  0  0
  -10.8430    4.8990  -18.6460 C   0  0  0  0  0  0  0  0  0  0  0  0
   -8.4150    4.8360  -18.7490 C   0  0  0  0  0  0  0  0  0  0  0  0
   -7.1270    4.9940  -18.3000 C   0  0  0  0  0  0  0  0  0  0  0  0
   -6.9310    5.4620  -16.8800 C   0  0  0  0  0  0  0  0  0  0  0  0
   -5.6280    5.6270  -16.4030 C   0  0  0  0  0  0  0  0  0  0  0  0
   -9.1390    8.0650  -14.2680 O   0  0  0  0  0  0  0  0  0  0  0  0
   -8.6600    6.3980  -12.6820 C   0  0  0  0  0  0  0  0  0  0  0  0
   -8.6450    7.1910  -11.5330 C   0  0  0  0  0  0  0  0  0  0  0  0
   -8.6630    6.5450  -10.1650 C   0  0  0  0  0  0  0  0  0  0  0  0
   -8.6930    5.0250  -10.2550 C   0  0  0  0  0  0  0  0  0  0  0  0
   -8.6920    4.2890   -9.1620 N   0  0  0  0  0  0  0  0  0  0  0  0
   -8.8240    2.8450   -9.2560 C   0  0  0  0  0  0  0  0  0  0  0  0
   -9.7760    2.4050   -8.1730 C   0  0  0  0  0  0  0  0  0  0  0  0
   -9.4170    3.0060   -6.8230 C   0  0  0  0  0  0  0  0  0  0  0  0
   -9.0070    4.4680   -6.8050 C   0  0  0  0  0  0  0  0  0  0  0  0
   -8.0860    4.8100   -7.9510 C   0  0  0  0  0  0  0  0  0  0  0  0
   -8.7180    4.4330  -11.5200 C   0  0  0  0  0  0  0  0  0  0  0  0
   -8.7060    5.0560  -12.7050 N   0  0  0  0  0  0  0  0  0  0  0  0
   -7.1030    5.6740  -14.2880 H   0  0  0  0  0  0  0  0  0  0  0  0
  -10.2050    5.7300  -15.9750 H   0  0  0  0  0  0  0  0  0  0  0  0
  -11.5850    5.5410  -18.2090 H   0  0  0  0  0  0  0  0  0  0  0  0
  -10.7540    5.2040  -19.6930 H   0  0  0  0  0  0  0  0  0  0  0  0
  -11.1950    3.8920  -18.5990 H   0  0  0  0  0  0  0  0  0  0  0  0
   -8.4380    4.5010  -19.7950 H   0  0  0  0  0  0  0  0  0  0  0  0
   -6.2870    4.7850  -18.9560 H   0  0  0  0  0  0  0  0  0  0  0  0
   -5.3390    6.6400  -16.1350 H   0  0  0  0  0  0  0  0  0  0  0  0
   -5.5460    5.0460  -15.4760 H   0  0  0  0  0  0  0  0  0  0  0  0
   -4.8320    5.2390  -17.0340 H   0  0  0  0  0  0  0  0  0  0  0  0
   -8.6130    8.2700  -11.7160 H   0  0  0  0  0  0  0  0  0  0  0  0
   -8.6510    7.0690   -9.2140 H   0  0  0  0  0  0  0  0  0  0  0  0
   -9.2420    2.5250  -10.2190 H   0  0  0  0  0  0  0  0  0  0  0  0
   -7.8580    2.3470   -9.1020 H   0  0  0  0  0  0  0  0  0  0  0  0
  -10.7800    2.7200   -8.4340 H   0  0  0  0  0  0  0  0  0  0  0  0
   -9.7430    1.3190   -8.0920 H   0  0  0  0  0  0  0  0  0  0  0  0
   -8.6060    2.4200   -6.3740 H   0  0  0  0  0  0  0  0  0  0  0  0
  -10.2960    2.9100   -6.1810 H   0  0  0  0  0  0  0  0  0  0  0  0
   -9.9040    5.0960   -6.8500 H   0  0  0  0  0  0  0  0  0  0  0  0
   -8.5100    4.6930   -5.8520 H   0  0  0  0  0  0  0  0  0  0  0  0
   -7.9620    5.8960   -8.0310 H   0  0  0  0  0  0  0  0  0  0  0  0
   -7.0960    4.3650   -7.7810 H   0  0  0  0  0  0  0  0  0  0  0  0
   -8.7490    3.3510  -11.6210 H   0  0  0  0  0  0  0  0  0  0  0  0
  1  2  1  0
  2  3  1  0
  3  4  2  0
  4  5  1  0
  5  6  1  0
  5  7  2  0
  7  8  1  0
  8  9  2  0
  9 10  1  0
  1 11  2  0
  1 12  1  0
 12 13  2  0
 13 14  1  0
 14 15  2  0
 15 16  1  0
 16 17  1  0
 17 18  1  0
 18 19  1  0
 19 20  1  0
 20 21  1  0
 15 22  1  0
 22 23  2  0
  3  9  1  0
 12 23  1  0
 21 16  1  0
  2 24  1  0
  4 25  1  0
  6 26  1  0
  6 27  1  0
  6 28  1  0
  7 29  1  0
  8 30  1  0
 10 31  1  0
 10 32  1  0
 10 33  1  0
 13 34  1  0
 14 35  1  0
 17 36  1  0
 17 37  1  0
 18 38  1  0
 18 39  1  0
 19 40  1  0
 19 41  1  0
 20 42  1  0
 20 43  1  0
 21 44  1  0
 21 45  1  0
 22 46  1  0
A    1
 C1 
A    2
 N1 
A    3
 C2 
A    4
 C3 
A    5
 C4 
A    6
 C5 
A    7
 C6 
A    8
 C7 
A    9
 C8 
A   10
 C9 
A   11
 O1 
A   12
 C10
A   13
 C11
A   14
 C12
A   15
 C13
A   16
 N2 
A   17
 C14
A   18
 C15
A   19
 C16
A   20
 C17
A   21
 C18
A   22
 C19
A   23
 N3 
A   24
 H1 
A   25
 H2 
A   26
 H3 
A   27
 H4 
A   28
 H5 
A   29
 H6 
A   30
 H7 
A   31
 H8 
A   32
 H9 
A   33
 H10
A   34
 H11
A   35
 H12
A   36
 H13
A   37
 H14
A   38
 H15
A   39
 H16
A   40
 H17
A   41
 H18
A   42
 H19
A   43
 H20
A   44
 H21
A   45
 H22
A   46
 H23
M  END
>  <ref_pdb>  (85) 
x0051_0B

>  <ref_mols>  (85) 
x0553_0B,x0404_0B

>  <original SMILES>  (85) 
[H]c1nc(C(=O)N([H])c2c([H])c(C([H])([H])[H])c([H])c([H])c2C([H])([H])[H])c([H])c([H])c1N1C([H])([H])C([H])([H])C([H])([H])C([H])([H])C1([H])[H]

>  <index>  (85) 
84

>  <∆∆G>  (85) 
-8.125386

>  <∆G_bound>  (85) 
-7.660961

>  <∆G_unbound>  (85) 
0.464425

>  <comRMSD>  (85) 
0.606361

>  <N_constrained_atoms>  (85) 
24.0

>  <N_unconstrained_atoms>  (85) 
0.0

>  <runtime>  (85) 
83.783421

>  <LE>  (85) 
0.338558

>  <percent_hybrid>  (85) 
38.0

>  <dist>  (85) 
8.0

>  <ecfp4>  (85) 
0.222222

>  <daylight>  (85) 
0.1893

>  <topodist>  (85) 
3.0

>  <mces>  (85) 
25.0

>  <tdn>  (85) 
2.0

>  <tup>  (85) 
0.0

>  <rdn>  (85) 
0.0

>  <rup>  (85) 
0.0

>  <ldn>  (85) 
1.0

>  <lup>  (85) 
0.0

>  <mut>  (85) 
3.0

>  <maj>  (85) 
3.0

>  <min>  (85) 
0.0

>  <hyb>  (85) 
2.0

>  <sub>  (85) 
0.0

>  <query_index>  (85) 
112.0

>  <max_hit_Tanimoto>  (85) 
0.209026

>  <largest_ring>  (85) 
0

>  <N_interactions_kept>  (85) 
2.5

>  <N_interactions_lost>  (85) 
1.0

>  <interaction_uniqueness_metric>  (85) 
0.082184

>  <ad_hoc_penalty>  (85) 
-29.946163

>  <N_rotatable_bonds>  (85) 
5

>  <N_HA>  (85) 
23

>  <cluster>  (85) 
6140

>  <N_interactions>  (85) 
6

>  <Enamine>  (85) 
0

>  <Mcule>  (85) 
1

>  <N_PAINS>  (85) 
0

>  <UFF_Gibbs>  (85) 
139.902026

>  <strain_per_HA>  (85) 
6.082697

>  <saltbridge:HIS:51>  (85) 
0

>  <pistack:HIS:51>  (85) 
1

>  <hydroph_interaction:HIS:51>  (85) 
0

>  <hbond:ALA:132>  (85) 
0

>  <hbond:SER:135>  (85) 
0

>  <hydroph_interaction:TYR:150>  (85) 
1

>  <pistack:TYR:161>  (85) 
0

>  <hydroph_interaction:TYR:161>  (85) 
3

>  <hydroph_interaction:ASP:83>  (85) 
0

>  <hbond:TYR:130>  (85) 
0

>  <hydroph_interaction:ALA:132>  (85) 
1

>  <hbond:HIS:51>  (85) 
0

>  <hbond:ASP:129>  (85) 
0

>  <hbond:TYR:150>  (85) 
0

>  <hbond:GLY:151>  (85) 
0

>  <hbond:TYR:161>  (85) 
0

>  <hydroph_interaction:TYR:130>  (85) 
0

>  <hydroph_interaction:PRO:131>  (85) 
0

>  <hydroph_interaction:ASP:129>  (85) 
0

>  <saltbridge:ASP:75>  (85) 
0

>  <saltbridge:ASP:83>  (85) 
0

>  <hydroph_interaction:ASN:152>  (85) 
0

>  <halogenbond:TYR:150>  (85) 
0

>  <hbond:ASP:83>  (85) 
0

>  <hydroph_interaction:VAL:155>  (85) 
0

>  <pication:TYR:161>  (85) 
0

>  <hbond:PRO:131>  (85) 
0

>  <hbond:LEU:128>  (85) 
0

>  <saltbridge:ASP:129>  (85) 
0

>  <hbond:THR:134>  (85) 
0

>  <pication:HIS:51>  (85) 
0

>  <hbond:SER:81>  (85) 
0

>  <hbond:GLY:159>  (85) 
0

>  <hydroph_interaction:PRO:101>  (85) 
0

>  <hydroph_interaction:THR:134>  (85) 
0

>  <hbond:GLY:82>  (85) 
0

>  <hydroph_interaction:GLU:104>  (85) 
0

>  <hydroph_interaction:VAL:36>  (85) 
0

>  <hydroph_interaction:MET:49>  (85) 
0

>  <halogenbond:GLU:104>  (85) 
0

>  <hydroph_interaction:LYS:107>  (85) 
0

$$$$
Z1627678280
     RDKit          3D

 35 37  0  0  0  0  0  0  0  0999 V2000
   -9.0110    4.6450  -19.8430 C   0  0  0  0  0  0  0  0  0  0  0  0
   -8.8410    4.9600  -18.4220 C   0  0  0  0  0  0  0  0  0  0  0  0
   -9.9120    4.8840  -17.5250 C   0  0  0  0  0  0  0  0  0  0  0  0
   -9.5300    5.2890  -15.9000 S   0  0  0  0  0  0  0  0  0  0  0  0
   -7.9180    5.5830  -16.2960 C   0  0  0  0  0  0  0  0  0  0  0  0
   -7.6480    5.3650  -17.7720 C   0  0  0  0  0  0  0  0  0  0  0  0
   -6.2400    5.5990  -18.2750 C   0  0  0  0  0  0  0  0  0  0  0  0
   -5.2510    5.7000  -17.2820 N   0  0  0  0  0  0  0  0  0  0  0  0
   -3.6520    5.9290  -17.8140 S   0  0  0  0  0  6  0  0  0  0  0  0
   -3.4420    5.0420  -18.9290 O   0  0  0  0  0  0  0  0  0  0  0  0
   -3.3930    7.3490  -17.9010 O   0  0  0  0  0  0  0  0  0  0  0  0
   -2.7390    5.3400  -16.4140 C   0  0  0  0  0  0  0  0  0  0  0  0
   -3.4530    4.4860  -15.4340 C   0  0  0  0  0  0  0  0  0  0  0  0
   -2.7380    4.0210  -14.3230 C   0  0  0  0  0  0  0  0  0  0  0  0
   -1.4040    4.3620  -14.1610 C   0  0  0  0  0  0  0  0  0  0  0  0
   -0.7500    5.1590  -15.0820 C   0  0  0  0  0  0  0  0  0  0  0  0
   -1.3910    5.6580  -16.2120 C   0  0  0  0  0  0  0  0  0  0  0  0
   -0.6110    6.4720  -17.1000 C   0  0  0  0  0  0  0  0  0  0  0  0
    0.0820    7.1140  -17.7730 N   0  0  0  0  0  0  0  0  0  0  0  0
   -5.6780    6.6100  -16.1510 C   0  0  0  0  0  0  0  0  0  0  0  0
   -6.8550    6.0090  -15.3480 C   0  0  0  0  0  0  0  0  0  0  0  0
   -9.8770    5.1630  -20.2620 H   0  0  0  0  0  0  0  0  0  0  0  0
   -9.1610    3.5800  -19.9420 H   0  0  0  0  0  0  0  0  0  0  0  0
   -8.1040    4.8980  -20.3950 H   0  0  0  0  0  0  0  0  0  0  0  0
  -10.9140    4.5950  -17.8270 H   0  0  0  0  0  0  0  0  0  0  0  0
   -5.9810    4.7770  -18.9440 H   0  0  0  0  0  0  0  0  0  0  0  0
   -6.2550    6.5220  -18.8630 H   0  0  0  0  0  0  0  0  0  0  0  0
   -4.5000    4.2210  -15.5620 H   0  0  0  0  0  0  0  0  0  0  0  0
   -3.2240    3.3920  -13.5810 H   0  0  0  0  0  0  0  0  0  0  0  0
   -0.8510    4.0020  -13.3000 H   0  0  0  0  0  0  0  0  0  0  0  0
    0.2970    5.3930  -14.9020 H   0  0  0  0  0  0  0  0  0  0  0  0
   -5.9600    7.5880  -16.5590 H   0  0  0  0  0  0  0  0  0  0  0  0
   -4.8500    6.7700  -15.4510 H   0  0  0  0  0  0  0  0  0  0  0  0
   -6.5080    5.1280  -14.7900 H   0  0  0  0  0  0  0  0  0  0  0  0
   -7.2330    6.7430  -14.6280 H   0  0  0  0  0  0  0  0  0  0  0  0
  1  2  1  0
  2  3  2  0
  3  4  1  0
  4  5  1  0
  5  6  2  0
  6  7  1  0
  7  8  1  0
  8  9  1  0
  9 10  2  0
  9 11  2  0
  9 12  1  0
 12 13  2  0
 13 14  1  0
 14 15  2  0
 15 16  1  0
 16 17  2  0
 17 18  1  0
 18 19  3  0
  8 20  1  0
 20 21  1  0
  6  2  1  0
 21  5  1  0
 17 12  1  0
  1 22  1  0
  1 23  1  0
  1 24  1  0
  3 25  1  0
  7 26  1  0
  7 27  1  0
 13 28  1  0
 14 29  1  0
 15 30  1  0
 16 31  1  0
 20 32  1  0
 20 33  1  0
 21 34  1  0
 21 35  1  0
A    1
 C1 
A    2
 C2 
A    3
 C3 
A    4
 S1 
A    5
 C4 
A    6
 C5 
A    7
 C6 
A    8
 N1 
A    9
 S2 
A   10
 O1 
A   11
 O2 
A   12
 C7 
A   13
 C8 
A   14
 C9 
A   15
 C10
A   16
 C11
A   17
 C12
A   18
 C13
A   19
 N2 
A   20
 C14
A   21
 C15
A   22
 H1 
A   23
 H2 
A   24
 H3 
A   25
 H4 
A   26
 H5 
A   27
 H6 
A   28
 H7 
A   29
 H8 
A   30
 H9 
A   31
 H10
A   32
 H11
A   33
 H12
A   34
 H13
A   35
 H14
M  END
>  <ref_pdb>  (86) 
x0051_0B

>  <ref_mols>  (86) 
x0472_0B,x0852_0B

>  <original SMILES>  (86) 
[H]c1sc2c(c1C([H])([H])[H])C([H])([H])N(S(=O)(=O)c1c([H])c([H])c([H])c([H])c1C#N)C([H])([H])C2([H])[H]

>  <index>  (86) 
145

>  <∆∆G>  (86) 
-8.355254

>  <∆G_bound>  (86) 
-7.676029

>  <∆G_unbound>  (86) 
0.679224

>  <comRMSD>  (86) 
0.692398

>  <N_constrained_atoms>  (86) 
15.0

>  <N_unconstrained_atoms>  (86) 
7.0

>  <runtime>  (86) 
30.427614

>  <LE>  (86) 
0.379784

>  <percent_hybrid>  (86) 
34.0

>  <dist>  (86) 
9.0

>  <ecfp4>  (86) 
0.188889

>  <daylight>  (86) 
0.300595

>  <topodist>  (86) 
2.0

>  <mces>  (86) 
23.0

>  <tdn>  (86) 
1.0

>  <tup>  (86) 
0.0

>  <rdn>  (86) 
1.0

>  <rup>  (86) 
0.0

>  <ldn>  (86) 
0.0

>  <lup>  (86) 
0.0

>  <mut>  (86) 
6.0

>  <maj>  (86) 
6.0

>  <min>  (86) 
0.0

>  <hyb>  (86) 
1.0

>  <sub>  (86) 
1.0

>  <query_index>  (86) 
178.0

>  <max_hit_Tanimoto>  (86) 
0.352415

>  <largest_ring>  (86) 
0

>  <N_interactions_kept>  (86) 
5.5

>  <N_interactions_lost>  (86) 
1.0

>  <interaction_uniqueness_metric>  (86) 
0.064957

>  <ad_hoc_penalty>  (86) 
-29.94206

>  <N_rotatable_bonds>  (86) 
3

>  <N_HA>  (86) 
21

>  <cluster>  (86) 
6086

>  <N_interactions>  (86) 
5

>  <Enamine>  (86) 
1

>  <Mcule>  (86) 
0

>  <N_PAINS>  (86) 
0

>  <UFF_Gibbs>  (86) 
47.780217

>  <strain_per_HA>  (86) 
2.275248

>  <saltbridge:HIS:51>  (86) 
0

>  <pistack:HIS:51>  (86) 
0

>  <hydroph_interaction:HIS:51>  (86) 
0

>  <hbond:ALA:132>  (86) 
0

>  <hbond:SER:135>  (86) 
0

>  <hydroph_interaction:TYR:150>  (86) 
1

>  <pistack:TYR:161>  (86) 
0

>  <hydroph_interaction:TYR:161>  (86) 
3

>  <hydroph_interaction:ASP:83>  (86) 
0

>  <hbond:TYR:130>  (86) 
0

>  <hydroph_interaction:ALA:132>  (86) 
0

>  <hbond:HIS:51>  (86) 
0

>  <hbond:ASP:129>  (86) 
0

>  <hbond:TYR:150>  (86) 
0

>  <hbond:GLY:151>  (86) 
0

>  <hbond:TYR:161>  (86) 
0

>  <hydroph_interaction:TYR:130>  (86) 
0

>  <hydroph_interaction:PRO:131>  (86) 
0

>  <hydroph_interaction:ASP:129>  (86) 
0

>  <saltbridge:ASP:75>  (86) 
0

>  <saltbridge:ASP:83>  (86) 
0

>  <hydroph_interaction:ASN:152>  (86) 
0

>  <halogenbond:TYR:150>  (86) 
0

>  <hbond:ASP:83>  (86) 
0

>  <hydroph_interaction:VAL:155>  (86) 
1

>  <pication:TYR:161>  (86) 
0

>  <hbond:PRO:131>  (86) 
0

>  <hbond:LEU:128>  (86) 
0

>  <saltbridge:ASP:129>  (86) 
0

>  <hbond:THR:134>  (86) 
0

>  <pication:HIS:51>  (86) 
0

>  <hbond:SER:81>  (86) 
0

>  <hbond:GLY:159>  (86) 
0

>  <hydroph_interaction:PRO:101>  (86) 
0

>  <hydroph_interaction:THR:134>  (86) 
0

>  <hbond:GLY:82>  (86) 
0

>  <hydroph_interaction:GLU:104>  (86) 
0

>  <hydroph_interaction:VAL:36>  (86) 
0

>  <hydroph_interaction:MET:49>  (86) 
0

>  <halogenbond:GLU:104>  (86) 
0

>  <hydroph_interaction:LYS:107>  (86) 
0

$$$$
IJJFMMVVJWHIPH-UHFFFAOYSA-N
     RDKit          3D

 39 41  0  0  0  0  0  0  0  0999 V2000
   -7.5660    5.0310  -14.2950 C   0  0  0  0  0  0  0  0  0  0  0  0
   -8.5430    4.8360  -13.3000 N   0  0  0  0  0  0  0  0  0  0  0  0
   -8.8300    5.9040  -12.3330 C   0  0  0  0  0  0  0  0  0  0  0  0
   -8.8480    5.6280  -10.7890 C   0  0  0  0  0  0  0  0  0  0  0  0
   -8.9140    4.4380  -10.0220 C   0  0  0  0  0  0  0  0  0  0  0  0
   -8.9110    4.8930   -8.7070 N   0  0  0  0  0  0  0  0  0  0  0  0
   -8.9840    4.0270   -7.5510 C   0  0  0  0  0  0  0  0  0  0  0  0
   -8.7330    2.6920   -7.9640 C   0  0  0  0  0  0  0  0  0  0  0  0
   -9.2920    2.2790   -9.1150 C   0  0  0  0  0  0  0  0  0  0  0  0
   -8.9820    2.9820  -10.2930 C   0  0  0  0  0  0  0  0  0  0  0  0
   -8.8370    6.2360   -8.5450 N   0  0  0  0  0  0  0  0  0  0  0  0
   -8.7980    6.7250   -9.9390 C   0  0  0  0  0  0  0  0  0  0  0  0
   -6.2560    5.2180  -13.9540 O   0  0  0  0  0  0  0  0  0  0  0  0
   -7.8980    5.0590  -15.7880 C   0  0  0  0  0  0  0  0  0  0  0  0
   -6.8340    5.1910  -16.6990 C   0  0  0  0  0  0  0  0  0  0  0  0
   -5.1830    5.3210  -16.2320 Cl  0  0  0  0  0  0  0  0  0  0  0  0
   -7.0600    5.2270  -18.0790 C   0  0  0  0  0  0  0  0  0  0  0  0
   -8.3450    5.1360  -18.5960 C   0  0  0  0  0  0  0  0  0  0  0  0
   -9.4130    5.0130  -17.7160 C   0  0  0  0  0  0  0  0  0  0  0  0
  -10.7410    4.9580  -18.4870 C   0  0  0  0  0  0  0  0  0  0  0  0
   -9.2170    4.9690  -16.3110 C   0  0  0  0  0  0  0  0  0  0  0  0
   -9.3040    4.1990  -13.5050 H   0  0  0  0  0  0  0  0  0  0  0  0
   -9.8300    6.2710  -12.5950 H   0  0  0  0  0  0  0  0  0  0  0  0
   -8.1610    6.7490  -12.5280 H   0  0  0  0  0  0  0  0  0  0  0  0
   -9.9420    4.2390   -7.0860 H   0  0  0  0  0  0  0  0  0  0  0  0
   -8.1930    4.3430   -6.8640 H   0  0  0  0  0  0  0  0  0  0  0  0
   -7.6550    2.6230   -7.9700 H   0  0  0  0  0  0  0  0  0  0  0  0
   -9.0110    2.0790   -7.1090 H   0  0  0  0  0  0  0  0  0  0  0  0
  -10.3410    2.0390   -9.0160 H   0  0  0  0  0  0  0  0  0  0  0  0
   -8.8260    1.3060   -9.2660 H   0  0  0  0  0  0  0  0  0  0  0  0
   -7.9990    2.6350  -10.6330 H   0  0  0  0  0  0  0  0  0  0  0  0
   -9.6450    2.8510  -11.1480 H   0  0  0  0  0  0  0  0  0  0  0  0
   -8.7420    7.7880  -10.1570 H   0  0  0  0  0  0  0  0  0  0  0  0
   -6.2230    5.3290  -18.7680 H   0  0  0  0  0  0  0  0  0  0  0  0
   -8.5060    5.1670  -19.6750 H   0  0  0  0  0  0  0  0  0  0  0  0
  -11.3990    5.7470  -18.1600 H   0  0  0  0  0  0  0  0  0  0  0  0
  -10.5280    5.1820  -19.5400 H   0  0  0  0  0  0  0  0  0  0  0  0
  -11.2570    4.0220  -18.4270 H   0  0  0  0  0  0  0  0  0  0  0  0
  -10.0760    4.8700  -15.6360 H   0  0  0  0  0  0  0  0  0  0  0  0
  1  2  1  0
  2  3  1  0
  3  4  1  0
  4  5  2  0
  5  6  1  0
  6  7  1  0
  7  8  1  0
  8  9  1  0
  9 10  1  0
  6 11  1  0
 11 12  2  0
  1 13  2  0
  1 14  1  0
 14 15  2  0
 15 16  1  0
 15 17  1  0
 17 18  2  0
 18 19  1  0
 19 20  1  0
 19 21  2  0
 12  4  1  0
 10  5  1  0
 14 21  1  0
  2 22  1  0
  3 23  1  0
  3 24  1  0
  7 25  1  0
  7 26  1  0
  8 27  1  0
  8 28  1  0
  9 29  1  0
  9 30  1  0
 10 31  1  0
 10 32  1  0
 12 33  1  0
 17 34  1  0
 18 35  1  0
 20 36  1  0
 20 37  1  0
 20 38  1  0
 21 39  1  0
A    1
 C1 
A    2
 N1 
A    3
 C2 
A    4
 C3 
A    5
 C4 
A    6
 N2 
A    7
 C5 
A    8
 C6 
A    9
 C7 
A   10
 C8 
A   11
 N3 
A   12
 C9 
A   13
 O1 
A   14
 C10
A   15
 C11
A   16
CL1 
A   17
 C12
A   18
 C13
A   19
 C14
A   20
 C15
A   21
 C16
A   22
 H1 
A   23
 H2 
A   24
 H3 
A   25
 H4 
A   26
 H5 
A   27
 H6 
A   28
 H7 
A   29
 H8 
A   30
 H9 
A   31
 H10
A   32
 H11
A   33
 H12
A   34
 H13
A   35
 H14
A   36
 H15
A   37
 H16
A   38
 H17
A   39
 H18
M  END
>  <ref_pdb>  (87) 
x0051_0B

>  <ref_mols>  (87) 
x0553_0B,x0969_1B

>  <original SMILES>  (87) 
[H]c1nn2c(c1C([H])([H])N([H])C(=O)c1c([H])c(C([H])([H])[H])c([H])c([H])c1Cl)C([H])([H])C([H])([H])C([H])([H])C2([H])[H]

>  <index>  (87) 
111

>  <∆∆G>  (87) 
-8.49923

>  <∆G_bound>  (87) 
-7.589219

>  <∆G_unbound>  (87) 
0.910011

>  <comRMSD>  (87) 
0.50036

>  <N_constrained_atoms>  (87) 
19.0

>  <N_unconstrained_atoms>  (87) 
3.0

>  <runtime>  (87) 
58.840242

>  <LE>  (87) 
0.386329

>  <percent_hybrid>  (87) 
48.0

>  <dist>  (87) 
7.0

>  <ecfp4>  (87) 
0.283951

>  <daylight>  (87) 
0.327402

>  <topodist>  (87) 
2.0

>  <mces>  (87) 
22.0

>  <tdn>  (87) 
1.0

>  <tup>  (87) 
1.0

>  <rdn>  (87) 
0.0

>  <rup>  (87) 
0.0

>  <ldn>  (87) 
0.0

>  <lup>  (87) 
0.0

>  <mut>  (87) 
4.0

>  <maj>  (87) 
4.0

>  <min>  (87) 
0.0

>  <hyb>  (87) 
1.0

>  <sub>  (87) 
0.0

>  <query_index>  (87) 
375.0

>  <max_hit_Tanimoto>  (87) 
0.339487

>  <largest_ring>  (87) 
0

>  <N_interactions_kept>  (87) 
1.0

>  <N_interactions_lost>  (87) 
1.5

>  <interaction_uniqueness_metric>  (87) 
0.216008

>  <ad_hoc_penalty>  (87) 
-29.938377

>  <N_rotatable_bonds>  (87) 
4

>  <N_HA>  (87) 
21

>  <cluster>  (87) 
6115

>  <N_interactions>  (87) 
6

>  <Enamine>  (87) 
0

>  <Mcule>  (87) 
1

>  <N_PAINS>  (87) 
0

>  <UFF_Gibbs>  (87) 
115.898103

>  <strain_per_HA>  (87) 
5.518957

>  <saltbridge:HIS:51>  (87) 
0

>  <pistack:HIS:51>  (87) 
1

>  <hydroph_interaction:HIS:51>  (87) 
1

>  <hbond:ALA:132>  (87) 
0

>  <hbond:SER:135>  (87) 
0

>  <hydroph_interaction:TYR:150>  (87) 
1

>  <pistack:TYR:161>  (87) 
1

>  <hydroph_interaction:TYR:161>  (87) 
0

>  <hydroph_interaction:ASP:83>  (87) 
1

>  <hbond:TYR:130>  (87) 
0

>  <hydroph_interaction:ALA:132>  (87) 
0

>  <hbond:HIS:51>  (87) 
0

>  <hbond:ASP:129>  (87) 
0

>  <hbond:TYR:150>  (87) 
0

>  <hbond:GLY:151>  (87) 
1

>  <hbond:TYR:161>  (87) 
0

>  <hydroph_interaction:TYR:130>  (87) 
0

>  <hydroph_interaction:PRO:131>  (87) 
0

>  <hydroph_interaction:ASP:129>  (87) 
0

>  <saltbridge:ASP:75>  (87) 
0

>  <saltbridge:ASP:83>  (87) 
0

>  <hydroph_interaction:ASN:152>  (87) 
0

>  <halogenbond:TYR:150>  (87) 
0

>  <hbond:ASP:83>  (87) 
0

>  <hydroph_interaction:VAL:155>  (87) 
0

>  <pication:TYR:161>  (87) 
0

>  <hbond:PRO:131>  (87) 
0

>  <hbond:LEU:128>  (87) 
0

>  <saltbridge:ASP:129>  (87) 
0

>  <hbond:THR:134>  (87) 
0

>  <pication:HIS:51>  (87) 
0

>  <hbond:SER:81>  (87) 
0

>  <hbond:GLY:159>  (87) 
0

>  <hydroph_interaction:PRO:101>  (87) 
0

>  <hydroph_interaction:THR:134>  (87) 
0

>  <hbond:GLY:82>  (87) 
0

>  <hydroph_interaction:GLU:104>  (87) 
0

>  <hydroph_interaction:VAL:36>  (87) 
0

>  <hydroph_interaction:MET:49>  (87) 
0

>  <halogenbond:GLU:104>  (87) 
0

>  <hydroph_interaction:LYS:107>  (87) 
0

$$$$
PRYMTGVLYRAFCX-UHFFFAOYSA-N
     RDKit          3D

 39 41  0  0  0  0  0  0  0  0999 V2000
   -8.3080    5.9020  -13.3540 O   0  0  0  0  0  0  0  0  0  0  0  0
   -8.6270    4.9210  -12.4250 C   0  0  0  0  0  0  0  0  0  0  0  0
   -8.8300    3.7590  -12.7420 O   0  0  0  0  0  0  0  0  0  0  0  0
   -8.7020    5.3610  -10.9240 C   0  0  0  0  0  0  0  0  0  0  0  0
   -8.8890    4.3410   -9.8710 C   0  0  0  0  0  0  0  0  0  0  0  0
   -8.9220    4.9330   -8.6800 N   0  0  0  0  0  0  0  0  0  0  0  0
   -9.0870    4.1740   -7.5750 C   0  0  0  0  0  0  0  0  0  0  0  0
   -9.2670    2.8120   -7.7960 C   0  0  0  0  0  0  0  0  0  0  0  0
   -8.6330    2.2830   -8.9110 C   0  0  0  0  0  0  0  0  0  0  0  0
   -9.0150    2.9630  -10.0700 C   0  0  0  0  0  0  0  0  0  0  0  0
   -8.7750    6.3010   -8.7670 N   0  0  0  0  0  0  0  0  0  0  0  0
   -8.6460    6.5470  -10.1220 C   0  0  0  0  0  0  0  0  0  0  0  0
   -7.3980    5.4690  -14.4280 C   0  0  0  0  0  0  0  0  0  0  0  0
   -8.0180    5.2630  -15.8320 C   0  0  0  0  0  0  0  0  0  0  0  0
   -7.1090    5.3170  -16.9360 C   0  0  0  0  0  0  0  0  0  0  0  0
   -5.7930    5.5390  -16.6480 O   0  0  0  0  0  0  0  0  0  0  0  0
   -4.8810    5.3580  -17.7280 C   0  0  0  0  0  0  0  0  0  0  0  0
   -7.5480    5.1450  -18.2640 C   0  0  0  0  0  0  0  0  0  0  0  0
   -6.7010    5.1990  -19.3000 F   0  0  0  0  0  0  0  0  0  0  0  0
   -8.9680    4.8940  -18.5680 C   0  0  0  0  0  0  0  0  0  0  0  0
   -9.9680    4.8270  -17.4550 C   0  0  0  0  0  0  0  0  0  0  0  0
   -9.4010    5.0310  -16.0450 C   0  0  0  0  0  0  0  0  0  0  0  0
   -8.1830    4.3290   -6.9770 H   0  0  0  0  0  0  0  0  0  0  0  0
   -9.9340    4.5760   -7.0110 H   0  0  0  0  0  0  0  0  0  0  0  0
   -8.9030    2.2640   -6.9180 H   0  0  0  0  0  0  0  0  0  0  0  0
  -10.3390    2.5980   -7.8590 H   0  0  0  0  0  0  0  0  0  0  0  0
   -8.9410    1.2560   -8.8700 H   0  0  0  0  0  0  0  0  0  0  0  0
   -7.5670    2.1440   -8.9100 H   0  0  0  0  0  0  0  0  0  0  0  0
  -10.0740    2.8430  -10.3140 H   0  0  0  0  0  0  0  0  0  0  0  0
   -8.5070    2.5960  -10.9610 H   0  0  0  0  0  0  0  0  0  0  0  0
   -8.5170    7.5810  -10.4570 H   0  0  0  0  0  0  0  0  0  0  0  0
   -6.6190    6.2330  -14.5070 H   0  0  0  0  0  0  0  0  0  0  0  0
   -6.9010    4.5440  -14.1080 H   0  0  0  0  0  0  0  0  0  0  0  0
   -5.2270    4.6110  -18.4420 H   0  0  0  0  0  0  0  0  0  0  0  0
   -4.7110    6.2800  -18.2780 H   0  0  0  0  0  0  0  0  0  0  0  0
   -3.9240    5.0200  -17.3220 H   0  0  0  0  0  0  0  0  0  0  0  0
   -9.3930    4.7460  -19.5700 H   0  0  0  0  0  0  0  0  0  0  0  0
  -11.0080    4.6400  -17.7370 H   0  0  0  0  0  0  0  0  0  0  0  0
  -10.0920    4.9910  -15.2040 H   0  0  0  0  0  0  0  0  0  0  0  0
  1  2  1  0
  2  3  2  0
  2  4  1  0
  4  5  2  0
  5  6  1  0
  6  7  1  0
  7  8  1  0
  8  9  1  0
  9 10  1  0
  6 11  1  0
 11 12  2  0
  1 13  1  0
 13 14  1  0
 14 15  2  0
 15 16  1  0
 16 17  1  0
 15 18  1  0
 18 19  1  0
 18 20  2  0
 20 21  1  0
 21 22  2  0
 12  4  1  0
 10  5  1  0
 22 14  1  0
  7 23  1  0
  7 24  1  0
  8 25  1  0
  8 26  1  0
  9 27  1  0
  9 28  1  0
 10 29  1  0
 10 30  1  0
 12 31  1  0
 13 32  1  0
 13 33  1  0
 17 34  1  0
 17 35  1  0
 17 36  1  0
 20 37  1  0
 21 38  1  0
 22 39  1  0
A    1
 O1 
A    2
 C1 
A    3
 O2 
A    4
 C2 
A    5
 C3 
A    6
 N1 
A    7
 C4 
A    8
 C5 
A    9
 C6 
A   10
 C7 
A   11
 N2 
A   12
 C8 
A   13
 C9 
A   14
 C10
A   15
 C11
A   16
 O3 
A   17
 C12
A   18
 C13
A   19
 F1 
A   20
 C14
A   21
 C15
A   22
 C16
A   23
 H1 
A   24
 H2 
A   25
 H3 
A   26
 H4 
A   27
 H5 
A   28
 H6 
A   29
 H7 
A   30
 H8 
A   31
 H9 
A   32
 H10
A   33
 H11
A   34
 H12
A   35
 H13
A   36
 H14
A   37
 H15
A   38
 H16
A   39
 H17
M  END
>  <ref_pdb>  (88) 
x0051_0B

>  <ref_mols>  (88) 
x0969_1B,x0435_0B

>  <original SMILES>  (88) 
[H]c1nn2c(c1C(=O)OC([H])([H])c1c([H])c([H])c([H])c(F)c1OC([H])([H])[H])C([H])([H])C([H])([H])C([H])([H])C2([H])[H]

>  <index>  (88) 
91

>  <∆∆G>  (88) 
-6.57213

>  <∆G_bound>  (88) 
-6.11408

>  <∆G_unbound>  (88) 
0.45805

>  <comRMSD>  (88) 
0.482921

>  <N_constrained_atoms>  (88) 
19.0

>  <N_unconstrained_atoms>  (88) 
3.0

>  <runtime>  (88) 
52.437913

>  <LE>  (88) 
0.298733

>  <percent_hybrid>  (88) 
48.0

>  <dist>  (88) 
9.0

>  <ecfp4>  (88) 
0.157303

>  <daylight>  (88) 
0.318885

>  <topodist>  (88) 
3.0

>  <mces>  (88) 
23.0

>  <tdn>  (88) 
1.0

>  <tup>  (88) 
1.0

>  <rdn>  (88) 
1.0

>  <rup>  (88) 
0.0

>  <ldn>  (88) 
0.0

>  <lup>  (88) 
0.0

>  <mut>  (88) 
5.0

>  <maj>  (88) 
5.0

>  <min>  (88) 
0.0

>  <hyb>  (88) 
1.0

>  <sub>  (88) 
0.0

>  <query_index>  (88) 
343.0

>  <max_hit_Tanimoto>  (88) 
0.302093

>  <largest_ring>  (88) 
0

>  <N_interactions_kept>  (88) 
3.5

>  <N_interactions_lost>  (88) 
0.0

>  <interaction_uniqueness_metric>  (88) 
0.252636

>  <ad_hoc_penalty>  (88) 
-29.833214

>  <N_rotatable_bonds>  (88) 
5

>  <N_HA>  (88) 
22

>  <cluster>  (88) 
6133

>  <N_interactions>  (88) 
5

>  <Enamine>  (88) 
0

>  <Mcule>  (88) 
1

>  <N_PAINS>  (88) 
0

>  <UFF_Gibbs>  (88) 
165.835598

>  <strain_per_HA>  (88) 
7.537982

>  <saltbridge:HIS:51>  (88) 
1

>  <pistack:HIS:51>  (88) 
1

>  <hydroph_interaction:HIS:51>  (88) 
0

>  <hbond:ALA:132>  (88) 
0

>  <hbond:SER:135>  (88) 
0

>  <hydroph_interaction:TYR:150>  (88) 
0

>  <pistack:TYR:161>  (88) 
0

>  <hydroph_interaction:TYR:161>  (88) 
1

>  <hydroph_interaction:ASP:83>  (88) 
1

>  <hbond:TYR:130>  (88) 
0

>  <hydroph_interaction:ALA:132>  (88) 
0

>  <hbond:HIS:51>  (88) 
0

>  <hbond:ASP:129>  (88) 
0

>  <hbond:TYR:150>  (88) 
0

>  <hbond:GLY:151>  (88) 
0

>  <hbond:TYR:161>  (88) 
1

>  <hydroph_interaction:TYR:130>  (88) 
0

>  <hydroph_interaction:PRO:131>  (88) 
0

>  <hydroph_interaction:ASP:129>  (88) 
0

>  <saltbridge:ASP:75>  (88) 
0

>  <saltbridge:ASP:83>  (88) 
0

>  <hydroph_interaction:ASN:152>  (88) 
0

>  <halogenbond:TYR:150>  (88) 
0

>  <hbond:ASP:83>  (88) 
0

>  <hydroph_interaction:VAL:155>  (88) 
0

>  <pication:TYR:161>  (88) 
0

>  <hbond:PRO:131>  (88) 
0

>  <hbond:LEU:128>  (88) 
0

>  <saltbridge:ASP:129>  (88) 
0

>  <hbond:THR:134>  (88) 
0

>  <pication:HIS:51>  (88) 
0

>  <hbond:SER:81>  (88) 
0

>  <hbond:GLY:159>  (88) 
0

>  <hydroph_interaction:PRO:101>  (88) 
0

>  <hydroph_interaction:THR:134>  (88) 
0

>  <hbond:GLY:82>  (88) 
0

>  <hydroph_interaction:GLU:104>  (88) 
0

>  <hydroph_interaction:VAL:36>  (88) 
0

>  <hydroph_interaction:MET:49>  (88) 
0

>  <halogenbond:GLU:104>  (88) 
0

>  <hydroph_interaction:LYS:107>  (88) 
0

$$$$
Z1331703140
     RDKit          3D

 42 45  0  0  0  0  0  0  0  0999 V2000
   -9.7590    4.4130  -18.5380 C   0  0  0  0  0  0  0  0  0  0  0  0
   -8.5540    4.9670  -18.4780 C   0  0  0  0  0  0  0  0  0  0  0  0
   -8.0750    5.3400  -17.2930 N   0  0  0  0  0  0  0  0  0  0  0  0
   -6.5760    6.0050  -17.5320 S   0  0  0  0  0  0  0  0  0  0  0  0
   -6.5560    5.8140  -19.2260 C   0  0  0  0  0  0  0  0  0  0  0  0
   -5.4520    6.2730  -19.9320 N   0  0  0  0  0  0  0  0  0  0  0  0
   -5.3530    6.2170  -21.3300 C   0  0  0  0  0  0  0  0  0  0  0  0
   -5.1180    5.2030  -21.9690 O   0  0  0  0  0  0  0  0  0  0  0  0
   -5.5340    7.3890  -22.0760 C   0  0  0  0  0  0  0  0  0  0  0  0
   -6.0980    7.2500  -23.3470 C   0  0  0  0  0  0  0  0  0  0  0  0
   -6.3090    8.3490  -24.1450 C   0  0  0  0  0  0  0  0  0  0  0  0
   -5.9590    9.6240  -23.6940 C   0  0  0  0  0  0  0  0  0  0  0  0
   -6.2050   10.7980  -24.6010 C   0  0  0  0  0  0  0  0  0  0  0  0
   -5.8310   10.3970  -26.3370 S   0  0  0  0  0  0  0  0  0  0  0  0
   -7.2360    9.5810  -26.9170 C   0  0  0  0  0  0  0  0  0  0  0  0
   -7.3490    8.3180  -27.2440 N   0  0  0  0  0  0  0  0  0  0  0  0
   -8.6570    8.1720  -27.6340 C   0  0  0  0  0  0  0  0  0  0  0  0
   -9.3390    7.0320  -28.0780 C   0  0  0  0  0  0  0  0  0  0  0  0
  -10.6940    7.1440  -28.4100 C   0  0  0  0  0  0  0  0  0  0  0  0
  -11.3560    8.3700  -28.3020 C   0  0  0  0  0  0  0  0  0  0  0  0
  -10.6930    9.5220  -27.8660 C   0  0  0  0  0  0  0  0  0  0  0  0
   -9.3430    9.3820  -27.5400 C   0  0  0  0  0  0  0  0  0  0  0  0
   -8.4000   10.2650  -27.0820 N   0  0  0  0  0  0  0  0  0  0  0  0
   -5.3880    9.7770  -22.4150 C   0  0  0  0  0  0  0  0  0  0  0  0
   -5.1710    8.6590  -21.5980 C   0  0  0  0  0  0  0  0  0  0  0  0
   -7.7180    5.2060  -19.6050 C   0  0  0  0  0  0  0  0  0  0  0  0
   -9.7770    3.3710  -18.8220 H   0  0  0  0  0  0  0  0  0  0  0  0
  -10.4810    4.9950  -19.1040 H   0  0  0  0  0  0  0  0  0  0  0  0
  -10.1260    4.3980  -17.5070 H   0  0  0  0  0  0  0  0  0  0  0  0
   -4.7650    6.7870  -19.3970 H   0  0  0  0  0  0  0  0  0  0  0  0
   -6.3820    6.2740  -23.7270 H   0  0  0  0  0  0  0  0  0  0  0  0
   -6.7500    8.2200  -25.1250 H   0  0  0  0  0  0  0  0  0  0  0  0
   -5.5410   11.6180  -24.3050 H   0  0  0  0  0  0  0  0  0  0  0  0
   -7.2160   11.1880  -24.4810 H   0  0  0  0  0  0  0  0  0  0  0  0
   -8.8200    6.0820  -28.1580 H   0  0  0  0  0  0  0  0  0  0  0  0
  -11.2350    6.2660  -28.7530 H   0  0  0  0  0  0  0  0  0  0  0  0
  -12.4110    8.4300  -28.5660 H   0  0  0  0  0  0  0  0  0  0  0  0
  -11.2140   10.4720  -27.7870 H   0  0  0  0  0  0  0  0  0  0  0  0
   -8.5320   11.2460  -26.8940 H   0  0  0  0  0  0  0  0  0  0  0  0
   -5.1090   10.7650  -22.0500 H   0  0  0  0  0  0  0  0  0  0  0  0
   -4.7320    8.7780  -20.6100 H   0  0  0  0  0  0  0  0  0  0  0  0
   -7.9780    4.9480  -20.6170 H   0  0  0  0  0  0  0  0  0  0  0  0
  1  2  1  0
  2  3  2  0
  3  4  1  0
  4  5  1  0
  5  6  1  0
  6  7  1  0
  7  8  2  0
  7  9  1  0
  9 10  2  0
 10 11  1  0
 11 12  2  0
 12 13  1  0
 13 14  1  0
 14 15  1  0
 15 16  2  0
 16 17  1  0
 17 18  2  0
 18 19  1  0
 19 20  2  0
 20 21  1  0
 21 22  2  0
 22 23  1  0
 12 24  1  0
 24 25  2  0
  5 26  2  0
 26  2  1  0
 25  9  1  0
 23 15  1  0
 22 17  1  0
  1 27  1  0
  1 28  1  0
  1 29  1  0
  6 30  1  0
 10 31  1  0
 11 32  1  0
 13 33  1  0
 13 34  1  0
 18 35  1  0
 19 36  1  0
 20 37  1  0
 21 38  1  0
 23 39  1  0
 24 40  1  0
 25 41  1  0
 26 42  1  0
A    1
 C1 
A    2
 C2 
A    3
 N1 
A    4
 S1 
A    5
 C3 
A    6
 N2 
A    7
 C4 
A    8
 O1 
A    9
 C5 
A   10
 C6 
A   11
 C7 
A   12
 C8 
A   13
 C9 
A   14
 S2 
A   15
 C10
A   16
 N3 
A   17
 C11
A   18
 C12
A   19
 C13
A   20
 C14
A   21
 C15
A   22
 C16
A   23
 N4 
A   24
 C17
A   25
 C18
A   26
 C19
A   27
 H1 
A   28
 H2 
A   29
 H3 
A   30
 H4 
A   31
 H5 
A   32
 H6 
A   33
 H7 
A   34
 H8 
A   35
 H9 
A   36
 H10
A   37
 H11
A   38
 H12
A   39
 H13
A   40
 H14
A   41
 H15
A   42
 H16
M  END
>  <ref_pdb>  (89) 
x0051_0B

>  <ref_mols>  (89) 
x0559_0B,x0846_1B

>  <original SMILES>  (89) 
[H]c1c(C([H])([H])[H])nsc1N([H])C(=O)c1c([H])c([H])c(C([H])([H])Sc2nc3c([H])c([H])c([H])c([H])c3n2[H])c([H])c1[H]

>  <index>  (89) 
169

>  <∆∆G>  (89) 
-9.204951

>  <∆G_bound>  (89) 
-8.57835

>  <∆G_unbound>  (89) 
0.626601

>  <comRMSD>  (89) 
0.714132

>  <N_constrained_atoms>  (89) 
25.0

>  <N_unconstrained_atoms>  (89) 
2.0

>  <runtime>  (89) 
36.492398

>  <LE>  (89) 
0.340924

>  <percent_hybrid>  (89) 
28.0

>  <dist>  (89) 
9.0

>  <ecfp4>  (89) 
0.21978

>  <daylight>  (89) 
0.263566

>  <topodist>  (89) 
3.0

>  <mces>  (89) 
28.0

>  <tdn>  (89) 
2.0

>  <tup>  (89) 
1.0

>  <rdn>  (89) 
0.0

>  <rup>  (89) 
0.0

>  <ldn>  (89) 
0.0

>  <lup>  (89) 
0.0

>  <mut>  (89) 
4.0

>  <maj>  (89) 
4.0

>  <min>  (89) 
0.0

>  <hyb>  (89) 
2.0

>  <sub>  (89) 
1.0

>  <query_index>  (89) 
315.0

>  <max_hit_Tanimoto>  (89) 
0.304833

>  <largest_ring>  (89) 
0

>  <N_interactions_kept>  (89) 
2.0

>  <N_interactions_lost>  (89) 
1.5

>  <interaction_uniqueness_metric>  (89) 
0.173014

>  <ad_hoc_penalty>  (89) 
-29.831043

>  <N_rotatable_bonds>  (89) 
6

>  <N_HA>  (89) 
26

>  <cluster>  (89) 
6066

>  <N_interactions>  (89) 
6

>  <Enamine>  (89) 
1

>  <Mcule>  (89) 
0

>  <N_PAINS>  (89) 
0

>  <UFF_Gibbs>  (89) 
66.272121

>  <strain_per_HA>  (89) 
2.548928

>  <saltbridge:HIS:51>  (89) 
0

>  <pistack:HIS:51>  (89) 
0

>  <hydroph_interaction:HIS:51>  (89) 
0

>  <hbond:ALA:132>  (89) 
0

>  <hbond:SER:135>  (89) 
0

>  <hydroph_interaction:TYR:150>  (89) 
1

>  <pistack:TYR:161>  (89) 
0

>  <hydroph_interaction:TYR:161>  (89) 
2

>  <hydroph_interaction:ASP:83>  (89) 
0

>  <hbond:TYR:130>  (89) 
0

>  <hydroph_interaction:ALA:132>  (89) 
0

>  <hbond:HIS:51>  (89) 
0

>  <hbond:ASP:129>  (89) 
1

>  <hbond:TYR:150>  (89) 
0

>  <hbond:GLY:151>  (89) 
0

>  <hbond:TYR:161>  (89) 
0

>  <hydroph_interaction:TYR:130>  (89) 
1

>  <hydroph_interaction:PRO:131>  (89) 
1

>  <hydroph_interaction:ASP:129>  (89) 
0

>  <saltbridge:ASP:75>  (89) 
0

>  <saltbridge:ASP:83>  (89) 
0

>  <hydroph_interaction:ASN:152>  (89) 
0

>  <halogenbond:TYR:150>  (89) 
0

>  <hbond:ASP:83>  (89) 
0

>  <hydroph_interaction:VAL:155>  (89) 
0

>  <pication:TYR:161>  (89) 
0

>  <hbond:PRO:131>  (89) 
0

>  <hbond:LEU:128>  (89) 
0

>  <saltbridge:ASP:129>  (89) 
0

>  <hbond:THR:134>  (89) 
0

>  <pication:HIS:51>  (89) 
0

>  <hbond:SER:81>  (89) 
0

>  <hbond:GLY:159>  (89) 
0

>  <hydroph_interaction:PRO:101>  (89) 
0

>  <hydroph_interaction:THR:134>  (89) 
0

>  <hbond:GLY:82>  (89) 
0

>  <hydroph_interaction:GLU:104>  (89) 
0

>  <hydroph_interaction:VAL:36>  (89) 
0

>  <hydroph_interaction:MET:49>  (89) 
0

>  <halogenbond:GLU:104>  (89) 
0

>  <hydroph_interaction:LYS:107>  (89) 
0

$$$$
MCULE-9198712822
     RDKit          3D

 34 35  0  0  0  0  0  0  0  0999 V2000
   -3.5510    4.3890  -15.9470 C   0  0  0  0  0  0  0  0  0  0  0  0
   -3.2470    5.4300  -16.8140 C   0  0  0  0  0  0  0  0  0  0  0  0
   -4.1650    5.6170  -17.8520 C   0  0  0  0  0  0  0  0  0  0  0  0
   -5.5230    5.7140  -17.5290 N   0  0  0  0  0  0  0  0  0  0  0  0
   -6.4710    5.9060  -18.6690 C   0  0  0  0  0  0  0  0  0  0  0  0
   -6.0490    5.2910  -19.8300 C   0  0  0  0  0  0  0  0  0  0  0  0
   -7.7260    5.4920  -18.1860 C   0  0  0  0  0  0  0  0  0  0  0  0
   -8.8110    5.0730  -18.9780 C   0  0  0  0  0  0  0  0  0  0  0  0
   -9.9710    4.7270  -18.2430 C   0  0  0  0  0  0  0  0  0  0  0  0
   -9.6390    4.9400  -16.5760 S   0  0  0  0  0  0  0  0  0  0  0  0
   -8.0480    5.4510  -16.8660 C   0  0  0  0  0  0  0  0  0  0  0  0
   -7.1410    5.7900  -15.8870 C   0  0  0  0  0  0  0  0  0  0  0  0
   -5.9200    6.2930  -16.3330 C   0  0  0  0  0  0  0  0  0  0  0  0
   -3.7200    5.7370  -19.1410 O   0  0  0  0  0  0  0  0  0  0  0  0
   -1.9120    5.4620  -17.2250 C   0  0  0  0  0  0  0  0  0  0  0  0
   -0.9390    5.5240  -16.1390 N   0  0  0  0  0  0  0  0  0  0  0  0
   -4.6300    4.2210  -15.9430 H   0  0  0  0  0  0  0  0  0  0  0  0
   -3.0520    3.4800  -16.2640 H   0  0  0  0  0  0  0  0  0  0  0  0
   -3.2310    4.6490  -14.9380 H   0  0  0  0  0  0  0  0  0  0  0  0
   -3.3600    6.3410  -16.2210 H   0  0  0  0  0  0  0  0  0  0  0  0
   -6.5880    6.9840  -18.7480 H   0  0  0  0  0  0  0  0  0  0  0  0
   -6.7760    4.6570  -20.3320 H   0  0  0  0  0  0  0  0  0  0  0  0
   -5.1450    4.7110  -19.7510 H   0  0  0  0  0  0  0  0  0  0  0  0
   -5.8110    6.0660  -20.5650 H   0  0  0  0  0  0  0  0  0  0  0  0
   -8.7700    5.0280  -20.0610 H   0  0  0  0  0  0  0  0  0  0  0  0
  -10.9360    4.3860  -18.5880 H   0  0  0  0  0  0  0  0  0  0  0  0
   -7.6090    6.5490  -15.2520 H   0  0  0  0  0  0  0  0  0  0  0  0
   -6.9410    4.9270  -15.2440 H   0  0  0  0  0  0  0  0  0  0  0  0
   -6.0510    7.3690  -16.4920 H   0  0  0  0  0  0  0  0  0  0  0  0
   -5.2360    6.2430  -15.4970 H   0  0  0  0  0  0  0  0  0  0  0  0
   -1.6760    4.5860  -17.8350 H   0  0  0  0  0  0  0  0  0  0  0  0
   -1.7680    6.3410  -17.8590 H   0  0  0  0  0  0  0  0  0  0  0  0
   -0.0050    5.3360  -16.4990 H   0  0  0  0  0  0  0  0  0  0  0  0
   -1.1270    4.8000  -15.4450 H   0  0  0  0  0  0  0  0  0  0  0  0
  1  2  1  0
  2  3  1  0
  3  4  1  0
  4  5  1  0
  5  6  1  0
  5  7  1  0
  7  8  1  0
  8  9  2  0
  9 10  1  0
 10 11  1  0
 11 12  1  0
 12 13  1  0
  3 14  2  0
  2 15  1  0
 15 16  1  0
 13  4  1  0
  7 11  2  0
  1 17  1  0
  1 18  1  0
  1 19  1  0
  2 20  1  0
  5 21  1  0
  6 22  1  0
  6 23  1  0
  6 24  1  0
  8 25  1  0
  9 26  1  0
 12 27  1  0
 12 28  1  0
 13 29  1  0
 13 30  1  0
 15 31  1  0
 15 32  1  0
 16 33  1  0
 16 34  1  0
A    1
 C1 
A    2
 C2 
A    3
 C3 
A    4
 N1 
A    5
 C4 
A    6
 C5 
A    7
 C6 
A    8
 C7 
A    9
 C8 
A   10
 S1 
A   11
 C9 
A   12
 C10
A   13
 C11
A   14
 O1 
A   15
 C12
A   16
 N2 
A   17
 H1 
A   18
 H2 
A   19
 H3 
A   20
 H4 
A   21
 H5 
A   22
 H6 
A   23
 H7 
A   24
 H8 
A   25
 H9 
A   26
 H10
A   27
 H11
A   28
 H12
A   29
 H13
A   30
 H14
A   31
 H15
A   32
 H16
A   33
 H17
A   34
 H18
M  END
>  <ref_pdb>  (90) 
x0051_0B

>  <ref_mols>  (90) 
x0472_0B,x0386_0B

>  <original SMILES>  (90) 
[H]c1sc2c(c1[H])C([H])(C([H])([H])[H])N(C(=O)C([H])(C([H])([H])[H])C([H])([H])N([H])[H])C([H])([H])C2([H])[H]

>  <index>  (90) 
37

>  <∆∆G>  (90) 
-8.4967

>  <∆G_bound>  (90) 
-8.369638

>  <∆G_unbound>  (90) 
0.127062

>  <comRMSD>  (90) 
0.430801

>  <N_constrained_atoms>  (90) 
14.0

>  <N_unconstrained_atoms>  (90) 
2.0

>  <runtime>  (90) 
28.112936

>  <LE>  (90) 
0.531044

>  <percent_hybrid>  (90) 
13.0

>  <dist>  (90) 
3.0

>  <ecfp4>  (90) 
0.461538

>  <daylight>  (90) 
0.639456

>  <topodist>  (90) 
2.0

>  <mces>  (90) 
15.0

>  <tdn>  (90) 
0.0

>  <tup>  (90) 
1.0

>  <rdn>  (90) 
0.0

>  <rup>  (90) 
0.0

>  <ldn>  (90) 
0.0

>  <lup>  (90) 
1.0

>  <mut>  (90) 
1.0

>  <maj>  (90) 
1.0

>  <min>  (90) 
0.0

>  <hyb>  (90) 
0.0

>  <sub>  (90) 
0.0

>  <query_index>  (90) 
75.0

>  <max_hit_Tanimoto>  (90) 
0.56407

>  <largest_ring>  (90) 
0

>  <N_interactions_kept>  (90) 
3.0

>  <N_interactions_lost>  (90) 
0.0

>  <interaction_uniqueness_metric>  (90) 
0.071408

>  <ad_hoc_penalty>  (90) 
-29.689937

>  <N_rotatable_bonds>  (90) 
5

>  <N_HA>  (90) 
16

>  <cluster>  (90) 
6182

>  <N_interactions>  (90) 
5

>  <Enamine>  (90) 
0

>  <Mcule>  (90) 
1

>  <N_PAINS>  (90) 
0

>  <UFF_Gibbs>  (90) 
153.478188

>  <strain_per_HA>  (90) 
9.592387

>  <saltbridge:HIS:51>  (90) 
0

>  <pistack:HIS:51>  (90) 
0

>  <hydroph_interaction:HIS:51>  (90) 
0

>  <hbond:ALA:132>  (90) 
0

>  <hbond:SER:135>  (90) 
0

>  <hydroph_interaction:TYR:150>  (90) 
0

>  <pistack:TYR:161>  (90) 
0

>  <hydroph_interaction:TYR:161>  (90) 
3

>  <hydroph_interaction:ASP:83>  (90) 
0

>  <hbond:TYR:130>  (90) 
0

>  <hydroph_interaction:ALA:132>  (90) 
1

>  <hbond:HIS:51>  (90) 
0

>  <hbond:ASP:129>  (90) 
0

>  <hbond:TYR:150>  (90) 
0

>  <hbond:GLY:151>  (90) 
0

>  <hbond:TYR:161>  (90) 
0

>  <hydroph_interaction:TYR:130>  (90) 
0

>  <hydroph_interaction:PRO:131>  (90) 
0

>  <hydroph_interaction:ASP:129>  (90) 
0

>  <saltbridge:ASP:75>  (90) 
0

>  <saltbridge:ASP:83>  (90) 
0

>  <hydroph_interaction:ASN:152>  (90) 
0

>  <halogenbond:TYR:150>  (90) 
0

>  <hbond:ASP:83>  (90) 
0

>  <hydroph_interaction:VAL:155>  (90) 
1

>  <pication:TYR:161>  (90) 
0

>  <hbond:PRO:131>  (90) 
0

>  <hbond:LEU:128>  (90) 
0

>  <saltbridge:ASP:129>  (90) 
0

>  <hbond:THR:134>  (90) 
0

>  <pication:HIS:51>  (90) 
0

>  <hbond:SER:81>  (90) 
0

>  <hbond:GLY:159>  (90) 
0

>  <hydroph_interaction:PRO:101>  (90) 
0

>  <hydroph_interaction:THR:134>  (90) 
0

>  <hbond:GLY:82>  (90) 
0

>  <hydroph_interaction:GLU:104>  (90) 
0

>  <hydroph_interaction:VAL:36>  (90) 
0

>  <hydroph_interaction:MET:49>  (90) 
0

>  <halogenbond:GLU:104>  (90) 
0

>  <hydroph_interaction:LYS:107>  (90) 
0

$$$$
AWBDERPDCJVSKA-UHFFFAOYSA-N
     RDKit          3D

 43 46  0  0  0  0  0  0  0  0999 V2000
   -8.1460    6.2430  -12.9450 O   0  0  0  0  0  0  0  0  0  0  0  0
   -8.5590    6.3050  -14.2480 C   0  0  0  0  0  0  0  0  0  0  0  0
   -9.3950    7.0840  -14.6680 O   0  0  0  0  0  0  0  0  0  0  0  0
   -7.8600    5.2900  -15.1120 C   0  0  0  0  0  0  0  0  0  0  0  0
   -8.3410    5.1540  -16.4310 C   0  0  0  0  0  0  0  0  0  0  0  0
   -7.4670    5.2950  -17.5110 C   0  0  0  0  0  0  0  0  0  0  0  0
   -7.9690    5.1500  -18.7970 C   0  0  0  0  0  0  0  0  0  0  0  0
   -9.3560    4.8590  -19.0740 C   0  0  0  0  0  0  0  0  0  0  0  0
  -10.2200    4.7220  -18.0000 C   0  0  0  0  0  0  0  0  0  0  0  0
   -9.7050    4.8680  -16.6910 C   0  0  0  0  0  0  0  0  0  0  0  0
   -6.0140    5.5930  -17.3150 C   0  0  0  0  0  0  0  0  0  0  0  0
   -5.7090    5.9680  -16.0050 C   0  0  0  0  0  0  0  0  0  0  0  0
   -6.4610    5.2550  -15.0500 C   0  0  0  0  0  0  0  0  0  0  0  0
   -8.7300    5.1680  -12.1900 C   0  0  0  0  0  0  0  0  0  0  0  0
   -8.7850    5.3860  -10.6600 C   0  0  0  0  0  0  0  0  0  0  0  0
   -8.9350    4.2860   -9.8800 C   0  0  0  0  0  0  0  0  0  0  0  0
   -8.9470    4.8520   -8.6300 N   0  0  0  0  0  0  0  0  0  0  0  0
   -9.0980    4.0590   -7.4180 C   0  0  0  0  0  0  0  0  0  0  0  0
   -9.4450    2.7500   -7.8060 C   0  0  0  0  0  0  0  0  0  0  0  0
   -8.7280    2.2730   -8.9000 C   0  0  0  0  0  0  0  0  0  0  0  0
   -9.0520    2.9890  -10.0900 O   0  0  0  0  0  0  0  0  0  0  0  0
   -8.8070    6.2220   -8.6210 N   0  0  0  0  0  0  0  0  0  0  0  0
   -8.7060    6.5530   -9.9360 C   0  0  0  0  0  0  0  0  0  0  0  0
   -8.1290    4.3440  -14.6240 H   0  0  0  0  0  0  0  0  0  0  0  0
   -7.2270    5.2740  -19.5930 H   0  0  0  0  0  0  0  0  0  0  0  0
   -9.7900    4.7400  -20.0690 H   0  0  0  0  0  0  0  0  0  0  0  0
  -11.2720    4.5050  -18.1640 H   0  0  0  0  0  0  0  0  0  0  0  0
  -10.3900    4.7560  -15.8560 H   0  0  0  0  0  0  0  0  0  0  0  0
   -5.7030    6.3830  -17.9900 H   0  0  0  0  0  0  0  0  0  0  0  0
   -5.4460    4.6920  -17.5740 H   0  0  0  0  0  0  0  0  0  0  0  0
   -4.6420    5.8030  -15.8230 H   0  0  0  0  0  0  0  0  0  0  0  0
   -5.8820    7.0460  -15.8780 H   0  0  0  0  0  0  0  0  0  0  0  0
   -6.1470    5.6000  -14.0580 H   0  0  0  0  0  0  0  0  0  0  0  0
   -6.1590    4.2060  -15.0880 H   0  0  0  0  0  0  0  0  0  0  0  0
   -8.1680    4.2450  -12.3830 H   0  0  0  0  0  0  0  0  0  0  0  0
   -9.7500    5.0240  -12.5600 H   0  0  0  0  0  0  0  0  0  0  0  0
   -8.1260    4.0420   -6.9180 H   0  0  0  0  0  0  0  0  0  0  0  0
   -9.7800    4.6250   -6.7940 H   0  0  0  0  0  0  0  0  0  0  0  0
   -9.4820    2.0480   -6.9790 H   0  0  0  0  0  0  0  0  0  0  0  0
  -10.4820    2.7950   -8.1240 H   0  0  0  0  0  0  0  0  0  0  0  0
   -7.6580    2.4130   -8.7290 H   0  0  0  0  0  0  0  0  0  0  0  0
   -8.8930    1.2140   -9.0540 H   0  0  0  0  0  0  0  0  0  0  0  0
   -8.5890    7.5780  -10.2600 H   0  0  0  0  0  0  0  0  0  0  0  0
  1  2  1  0
  2  3  2  0
  2  4  1  0
  4  5  1  0
  5  6  1  0
  6  7  2  0
  7  8  1  0
  8  9  2  0
  9 10  1  0
  6 11  1  0
 11 12  1  0
 12 13  1  0
  1 14  1  0
 14 15  1  0
 15 16  2  0
 16 17  1  0
 17 18  1  0
 18 19  1  0
 19 20  1  0
 20 21  1  0
 17 22  1  0
 22 23  2  0
 13  4  1  0
 10  5  2  0
 23 15  1  0
 21 16  1  0
  4 24  1  0
  7 25  1  0
  8 26  1  0
  9 27  1  0
 10 28  1  0
 11 29  1  0
 11 30  1  0
 12 31  1  0
 12 32  1  0
 13 33  1  0
 13 34  1  0
 14 35  1  0
 14 36  1  0
 18 37  1  0
 18 38  1  0
 19 39  1  0
 19 40  1  0
 20 41  1  0
 20 42  1  0
 23 43  1  0
A    1
 O1 
A    2
 C1 
A    3
 O2 
A    4
 C2 
A    5
 C3 
A    6
 C4 
A    7
 C5 
A    8
 C6 
A    9
 C7 
A   10
 C8 
A   11
 C9 
A   12
 C10
A   13
 C11
A   14
 C12
A   15
 C13
A   16
 C14
A   17
 N1 
A   18
 C15
A   19
 C16
A   20
 C17
A   21
 O3 
A   22
 N2 
A   23
 C18
A   24
 H1 
A   25
 H2 
A   26
 H3 
A   27
 H4 
A   28
 H5 
A   29
 H6 
A   30
 H7 
A   31
 H8 
A   32
 H9 
A   33
 H10
A   34
 H11
A   35
 H12
A   36
 H13
A   37
 H14
A   38
 H15
A   39
 H16
A   40
 H17
A   41
 H18
A   42
 H19
A   43
 H20
M  END
>  <ref_pdb>  (91) 
x0051_0B

>  <ref_mols>  (91) 
x0969_1B,x0455_0B

>  <original SMILES>  (91) 
[H]c1nn2c(c1C([H])([H])OC(=O)C1([H])c3c([H])c([H])c([H])c([H])c3C([H])([H])C([H])([H])C1([H])[H])OC([H])([H])C([H])([H])C2([H])[H]

>  <index>  (91) 
127

>  <∆∆G>  (91) 
-7.417422

>  <∆G_bound>  (91) 
-6.780605

>  <∆G_unbound>  (91) 
0.636818

>  <comRMSD>  (91) 
0.340014

>  <N_constrained_atoms>  (91) 
20.0

>  <N_unconstrained_atoms>  (91) 
3.0

>  <runtime>  (91) 
61.329285

>  <LE>  (91) 
0.322497

>  <percent_hybrid>  (91) 
50.0

>  <dist>  (91) 
6.0

>  <ecfp4>  (91) 
0.253012

>  <daylight>  (91) 
0.319209

>  <topodist>  (91) 
1.0

>  <mces>  (91) 
25.0

>  <tdn>  (91) 
0.0

>  <tup>  (91) 
1.0

>  <rdn>  (91) 
0.0

>  <rup>  (91) 
0.0

>  <ldn>  (91) 
0.0

>  <lup>  (91) 
0.0

>  <mut>  (91) 
4.0

>  <maj>  (91) 
4.0

>  <min>  (91) 
0.0

>  <hyb>  (91) 
1.0

>  <sub>  (91) 
0.0

>  <query_index>  (91) 
204.0

>  <max_hit_Tanimoto>  (91) 
0.241935

>  <largest_ring>  (91) 
0

>  <N_interactions_kept>  (91) 
1.0

>  <N_interactions_lost>  (91) 
1.5

>  <interaction_uniqueness_metric>  (91) 
0.182959

>  <ad_hoc_penalty>  (91) 
-29.653219

>  <N_rotatable_bonds>  (91) 
3

>  <N_HA>  (91) 
23

>  <cluster>  (91) 
6101

>  <N_interactions>  (91) 
6

>  <Enamine>  (91) 
0

>  <Mcule>  (91) 
1

>  <N_PAINS>  (91) 
0

>  <UFF_Gibbs>  (91) 
115.003761

>  <strain_per_HA>  (91) 
5.000164

>  <saltbridge:HIS:51>  (91) 
1

>  <pistack:HIS:51>  (91) 
1

>  <hydroph_interaction:HIS:51>  (91) 
1

>  <hbond:ALA:132>  (91) 
0

>  <hbond:SER:135>  (91) 
0

>  <hydroph_interaction:TYR:150>  (91) 
1

>  <pistack:TYR:161>  (91) 
0

>  <hydroph_interaction:TYR:161>  (91) 
2

>  <hydroph_interaction:ASP:83>  (91) 
0

>  <hbond:TYR:130>  (91) 
0

>  <hydroph_interaction:ALA:132>  (91) 
0

>  <hbond:HIS:51>  (91) 
0

>  <hbond:ASP:129>  (91) 
0

>  <hbond:TYR:150>  (91) 
0

>  <hbond:GLY:151>  (91) 
0

>  <hbond:TYR:161>  (91) 
0

>  <hydroph_interaction:TYR:130>  (91) 
0

>  <hydroph_interaction:PRO:131>  (91) 
0

>  <hydroph_interaction:ASP:129>  (91) 
0

>  <saltbridge:ASP:75>  (91) 
0

>  <saltbridge:ASP:83>  (91) 
0

>  <hydroph_interaction:ASN:152>  (91) 
0

>  <halogenbond:TYR:150>  (91) 
0

>  <hbond:ASP:83>  (91) 
0

>  <hydroph_interaction:VAL:155>  (91) 
0

>  <pication:TYR:161>  (91) 
0

>  <hbond:PRO:131>  (91) 
0

>  <hbond:LEU:128>  (91) 
0

>  <saltbridge:ASP:129>  (91) 
0

>  <hbond:THR:134>  (91) 
0

>  <pication:HIS:51>  (91) 
0

>  <hbond:SER:81>  (91) 
0

>  <hbond:GLY:159>  (91) 
0

>  <hydroph_interaction:PRO:101>  (91) 
0

>  <hydroph_interaction:THR:134>  (91) 
0

>  <hbond:GLY:82>  (91) 
0

>  <hydroph_interaction:GLU:104>  (91) 
0

>  <hydroph_interaction:VAL:36>  (91) 
0

>  <hydroph_interaction:MET:49>  (91) 
0

>  <halogenbond:GLU:104>  (91) 
0

>  <hydroph_interaction:LYS:107>  (91) 
0

$$$$
MCULE-4267446163
     RDKit          3D

 25 27  0  0  0  0  0  0  0  0999 V2000
   -5.5680    5.8540  -18.0880 C   0  0  0  0  0  0  0  0  0  0  0  0
   -4.3650    6.1170  -18.7210 C   0  0  0  0  0  0  0  0  0  0  0  0
   -4.4570    5.8820  -20.0410 N   0  0  0  0  0  0  0  0  0  0  0  0
   -5.7410    5.4640  -20.2280 N   0  0  0  0  0  0  0  0  0  0  0  0
   -6.1930    5.1060  -21.5460 C   0  0  0  0  0  0  0  0  0  0  0  0
   -6.4260    5.4470  -19.0770 C   0  0  0  0  0  0  0  0  0  0  0  0
   -7.7180    5.1510  -18.5520 C   0  0  0  0  0  0  0  0  0  0  0  0
   -7.6260    5.4000  -17.1560 C   0  0  0  0  0  0  0  0  0  0  0  0
   -8.7150    5.2240  -16.3530 C   0  0  0  0  0  0  0  0  0  0  0  0
   -9.8770    4.7820  -16.9430 C   0  0  0  0  0  0  0  0  0  0  0  0
   -9.9760    4.5330  -18.3090 C   0  0  0  0  0  0  0  0  0  0  0  0
   -8.8850    4.7180  -19.1500 C   0  0  0  0  0  0  0  0  0  0  0  0
   -8.7280    5.5300  -14.6320 S   0  0  0  0  0  6  0  0  0  0  0  0
   -7.3730    7.0260  -14.4090 Cl  0  0  0  0  0  0  0  0  0  0  0  0
   -8.2960    4.3780  -13.8890 O   0  0  0  0  0  0  0  0  0  0  0  0
   -9.9800    6.1920  -14.3330 O   0  0  0  0  0  0  0  0  0  0  0  0
   -6.2310    5.8380  -16.8340 C   0  0  0  0  0  0  0  0  0  0  0  0
   -5.7460    6.0900  -15.7610 O   0  0  0  0  0  0  0  0  0  0  0  0
   -3.4250    6.4610  -18.3060 H   0  0  0  0  0  0  0  0  0  0  0  0
   -6.2730    6.0130  -22.1480 H   0  0  0  0  0  0  0  0  0  0  0  0
   -5.4680    4.4150  -21.9870 H   0  0  0  0  0  0  0  0  0  0  0  0
   -7.1670    4.6170  -21.4730 H   0  0  0  0  0  0  0  0  0  0  0  0
  -10.7400    4.6190  -16.3240 H   0  0  0  0  0  0  0  0  0  0  0  0
  -10.9210    4.1920  -18.7060 H   0  0  0  0  0  0  0  0  0  0  0  0
   -8.9640    4.5270  -20.2140 H   0  0  0  0  0  0  0  0  0  0  0  0
  1  2  1  0
  2  3  2  0
  3  4  1  0
  4  5  1  0
  4  6  1  0
  6  7  1  0
  7  8  2  0
  8  9  1  0
  9 10  2  0
 10 11  1  0
 11 12  2  0
  9 13  1  0
 13 14  1  0
 13 15  2  0
 13 16  2  0
  8 17  1  0
 17 18  2  0
  1  6  2  0
 17  1  1  0
 12  7  1  0
  2 19  1  0
  5 20  1  0
  5 21  1  0
  5 22  1  0
 10 23  1  0
 11 24  1  0
 12 25  1  0
A    1
 C1 
A    2
 C2 
A    3
 N1 
A    4
 N2 
A    5
 C3 
A    6
 C4 
A    7
 C5 
A    8
 C6 
A    9
 C7 
A   10
 C8 
A   11
 C9 
A   12
 C10
A   13
 S1 
A   14
CL1 
A   15
 O1 
A   16
 O2 
A   17
 C11
A   18
 O3 
A   19
 H1 
A   20
 H2 
A   21
 H3 
A   22
 H4 
A   23
 H5 
A   24
 H6 
A   25
 H7 
M  END
>  <ref_pdb>  (92) 
x0051_0B

>  <ref_mols>  (92) 
x1098_0B,x0386_0B

>  <original SMILES>  (92) 
[H]c1nn(C([H])([H])[H])c2c1C(=O)c1c-2c([H])c([H])c([H])c1S(=O)(=O)Cl

>  <index>  (92) 
133

>  <∆∆G>  (92) 
-7.310572

>  <∆G_bound>  (92) 
-6.032371

>  <∆G_unbound>  (92) 
1.278201

>  <comRMSD>  (92) 
0.774214

>  <N_constrained_atoms>  (92) 
14.0

>  <N_unconstrained_atoms>  (92) 
4.0

>  <runtime>  (92) 
37.684619

>  <LE>  (92) 
0.406143

>  <percent_hybrid>  (92) 
13.0

>  <dist>  (92) 
7.0

>  <ecfp4>  (92) 
0.213333

>  <daylight>  (92) 
0.175439

>  <topodist>  (92) 
3.0

>  <mces>  (92) 
19.0

>  <tdn>  (92) 
1.0

>  <tup>  (92) 
0.0

>  <rdn>  (92) 
0.0

>  <rup>  (92) 
1.0

>  <ldn>  (92) 
1.0

>  <lup>  (92) 
0.0

>  <mut>  (92) 
3.0

>  <maj>  (92) 
2.0

>  <min>  (92) 
1.0

>  <hyb>  (92) 
1.0

>  <sub>  (92) 
2.0

>  <query_index>  (92) 
61.0

>  <max_hit_Tanimoto>  (92) 
0.262663

>  <largest_ring>  (92) 
0

>  <N_interactions_kept>  (92) 
4.5

>  <N_interactions_lost>  (92) 
0.5

>  <interaction_uniqueness_metric>  (92) 
0.055993

>  <ad_hoc_penalty>  (92) 
-29.585781

>  <N_rotatable_bonds>  (92) 
2

>  <N_HA>  (92) 
18

>  <cluster>  (92) 
6095

>  <N_interactions>  (92) 
4

>  <Enamine>  (92) 
0

>  <Mcule>  (92) 
1

>  <N_PAINS>  (92) 
0

>  <UFF_Gibbs>  (92) 
63.512384

>  <strain_per_HA>  (92) 
3.528466

>  <saltbridge:HIS:51>  (92) 
0

>  <pistack:HIS:51>  (92) 
0

>  <hydroph_interaction:HIS:51>  (92) 
0

>  <hbond:ALA:132>  (92) 
0

>  <hbond:SER:135>  (92) 
0

>  <hydroph_interaction:TYR:150>  (92) 
1

>  <pistack:TYR:161>  (92) 
2

>  <hydroph_interaction:TYR:161>  (92) 
0

>  <hydroph_interaction:ASP:83>  (92) 
0

>  <hbond:TYR:130>  (92) 
0

>  <hydroph_interaction:ALA:132>  (92) 
1

>  <hbond:HIS:51>  (92) 
0

>  <hbond:ASP:129>  (92) 
0

>  <hbond:TYR:150>  (92) 
0

>  <hbond:GLY:151>  (92) 
0

>  <hbond:TYR:161>  (92) 
0

>  <hydroph_interaction:TYR:130>  (92) 
0

>  <hydroph_interaction:PRO:131>  (92) 
0

>  <hydroph_interaction:ASP:129>  (92) 
0

>  <saltbridge:ASP:75>  (92) 
0

>  <saltbridge:ASP:83>  (92) 
0

>  <hydroph_interaction:ASN:152>  (92) 
0

>  <halogenbond:TYR:150>  (92) 
0

>  <hbond:ASP:83>  (92) 
0

>  <hydroph_interaction:VAL:155>  (92) 
0

>  <pication:TYR:161>  (92) 
0

>  <hbond:PRO:131>  (92) 
0

>  <hbond:LEU:128>  (92) 
0

>  <saltbridge:ASP:129>  (92) 
0

>  <hbond:THR:134>  (92) 
0

>  <pication:HIS:51>  (92) 
0

>  <hbond:SER:81>  (92) 
0

>  <hbond:GLY:159>  (92) 
0

>  <hydroph_interaction:PRO:101>  (92) 
0

>  <hydroph_interaction:THR:134>  (92) 
0

>  <hbond:GLY:82>  (92) 
0

>  <hydroph_interaction:GLU:104>  (92) 
0

>  <hydroph_interaction:VAL:36>  (92) 
0

>  <hydroph_interaction:MET:49>  (92) 
0

>  <halogenbond:GLU:104>  (92) 
0

>  <hydroph_interaction:LYS:107>  (92) 
0

$$$$
WHROXXKZTHJNDS-UHFFFAOYSA-N
     RDKit          3D

 30 31  0  0  0  0  0  0  0  0999 V2000
   -5.3530    5.9160  -17.5310 N   0  0  0  0  0  0  0  0  0  0  0  0
   -3.8960    5.8620  -17.8470 C   0  0  0  0  0  0  0  0  0  0  0  0
   -3.2710    4.9000  -16.9100 C   0  0  0  0  0  0  0  0  0  0  0  0
   -3.4930    5.4760  -19.2530 C   0  0  0  0  0  0  0  0  0  0  0  0
   -6.2220    5.4810  -18.6370 C   0  0  0  0  0  0  0  0  0  0  0  0
   -6.2570    6.4390  -19.6500 C   0  0  0  0  0  0  0  0  0  0  0  0
   -7.6440    5.2450  -18.1700 C   0  0  0  0  0  0  0  0  0  0  0  0
   -8.0160    5.3440  -16.8330 C   0  0  0  0  0  0  0  0  0  0  0  0
   -9.6580    5.0440  -16.5660 S   0  0  0  0  0  0  0  0  0  0  0  0
   -9.9540    4.7570  -18.2280 C   0  0  0  0  0  0  0  0  0  0  0  0
   -8.7860    4.9000  -18.9600 C   0  0  0  0  0  0  0  0  0  0  0  0
   -7.0680    5.6810  -15.7480 C   0  0  0  0  0  0  0  0  0  0  0  0
   -5.9810    6.5510  -16.3780 C   0  0  0  0  0  0  0  0  0  0  0  0
   -3.4340    6.8430  -17.6690 H   0  0  0  0  0  0  0  0  0  0  0  0
   -4.0040    4.5150  -16.1940 H   0  0  0  0  0  0  0  0  0  0  0  0
   -2.4640    5.3780  -16.3540 H   0  0  0  0  0  0  0  0  0  0  0  0
   -2.8570    4.0730  -17.4800 H   0  0  0  0  0  0  0  0  0  0  0  0
   -3.0920    6.3540  -19.7730 H   0  0  0  0  0  0  0  0  0  0  0  0
   -4.3820    5.1470  -19.8030 H   0  0  0  0  0  0  0  0  0  0  0  0
   -2.7220    4.7000  -19.2790 H   0  0  0  0  0  0  0  0  0  0  0  0
   -5.8430    4.5440  -19.0380 H   0  0  0  0  0  0  0  0  0  0  0  0
   -7.2300    6.9440  -19.6870 H   0  0  0  0  0  0  0  0  0  0  0  0
   -6.0700    5.9860  -20.6310 H   0  0  0  0  0  0  0  0  0  0  0  0
   -5.5020    7.2100  -19.4840 H   0  0  0  0  0  0  0  0  0  0  0  0
  -10.9430    4.5060  -18.5760 H   0  0  0  0  0  0  0  0  0  0  0  0
   -8.8740    4.7360  -20.0460 H   0  0  0  0  0  0  0  0  0  0  0  0
   -6.7480    4.7660  -15.2370 H   0  0  0  0  0  0  0  0  0  0  0  0
   -7.6060    6.2820  -15.0080 H   0  0  0  0  0  0  0  0  0  0  0  0
   -6.4070    7.5060  -16.6720 H   0  0  0  0  0  0  0  0  0  0  0  0
   -5.2080    6.7850  -15.6390 H   0  0  0  0  0  0  0  0  0  0  0  0
  1  2  1  0
  2  3  1  0
  2  4  1  0
  1  5  1  0
  5  6  1  0
  5  7  1  0
  7  8  2  0
  8  9  1  0
  9 10  1  0
 10 11  2  0
  8 12  1  0
 12 13  1  0
 13  1  1  0
 11  7  1  0
  2 14  1  0
  3 15  1  0
  3 16  1  0
  3 17  1  0
  4 18  1  0
  4 19  1  0
  4 20  1  0
  5 21  1  0
  6 22  1  0
  6 23  1  0
  6 24  1  0
 10 25  1  0
 11 26  1  0
 12 27  1  0
 12 28  1  0
 13 29  1  0
 13 30  1  0
A    1
 N1 
A    2
 C1 
A    3
 C2 
A    4
 C3 
A    5
 C4 
A    6
 C5 
A    7
 C6 
A    8
 C7 
A    9
 S1 
A   10
 C8 
A   11
 C9 
A   12
 C10
A   13
 C11
A   14
 H1 
A   15
 H2 
A   16
 H3 
A   17
 H4 
A   18
 H5 
A   19
 H6 
A   20
 H7 
A   21
 H8 
A   22
 H9 
A   23
 H10
A   24
 H11
A   25
 H12
A   26
 H13
A   27
 H14
A   28
 H15
A   29
 H16
A   30
 H17
M  END
>  <ref_pdb>  (93) 
x0051_0B

>  <ref_mols>  (93) 
x0472_0B,x0386_0B

>  <original SMILES>  (93) 
[H]c1sc2c(c1[H])C([H])(C([H])([H])[H])N(C([H])(C([H])([H])[H])C([H])([H])[H])C([H])([H])C2([H])[H]

>  <index>  (93) 
78

>  <∆∆G>  (93) 
-7.778657

>  <∆G_bound>  (93) 
-8.103471

>  <∆G_unbound>  (93) 
-0.324814

>  <comRMSD>  (93) 
0.549593

>  <N_constrained_atoms>  (93) 
14.0

>  <N_unconstrained_atoms>  (93) 
0.0

>  <runtime>  (93) 
22.779081

>  <LE>  (93) 
0.555618

>  <percent_hybrid>  (93) 
13.0

>  <dist>  (93) 
2.0

>  <ecfp4>  (93) 
0.5

>  <daylight>  (93) 
0.770492

>  <topodist>  (93) 
1.0

>  <mces>  (93) 
14.0

>  <tdn>  (93) 
1.0

>  <tup>  (93) 
0.0

>  <rdn>  (93) 
0.0

>  <rup>  (93) 
0.0

>  <ldn>  (93) 
0.0

>  <lup>  (93) 
0.0

>  <mut>  (93) 
1.0

>  <maj>  (93) 
1.0

>  <min>  (93) 
0.0

>  <hyb>  (93) 
0.0

>  <sub>  (93) 
1.0

>  <query_index>  (93) 
75.0

>  <max_hit_Tanimoto>  (93) 
0.719493

>  <largest_ring>  (93) 
0

>  <N_interactions_kept>  (93) 
3.0

>  <N_interactions_lost>  (93) 
0.0

>  <interaction_uniqueness_metric>  (93) 
0.049434

>  <ad_hoc_penalty>  (93) 
-29.354667

>  <N_rotatable_bonds>  (93) 
4

>  <N_HA>  (93) 
13

>  <cluster>  (93) 
6146

>  <N_interactions>  (93) 
4

>  <Enamine>  (93) 
0

>  <Mcule>  (93) 
1

>  <N_PAINS>  (93) 
0

>  <UFF_Gibbs>  (93) 
84.363096

>  <strain_per_HA>  (93) 
6.489469

>  <saltbridge:HIS:51>  (93) 
0

>  <pistack:HIS:51>  (93) 
0

>  <hydroph_interaction:HIS:51>  (93) 
0

>  <hbond:ALA:132>  (93) 
0

>  <hbond:SER:135>  (93) 
0

>  <hydroph_interaction:TYR:150>  (93) 
0

>  <pistack:TYR:161>  (93) 
0

>  <hydroph_interaction:TYR:161>  (93) 
3

>  <hydroph_interaction:ASP:83>  (93) 
0

>  <hbond:TYR:130>  (93) 
0

>  <hydroph_interaction:ALA:132>  (93) 
0

>  <hbond:HIS:51>  (93) 
0

>  <hbond:ASP:129>  (93) 
0

>  <hbond:TYR:150>  (93) 
0

>  <hbond:GLY:151>  (93) 
0

>  <hbond:TYR:161>  (93) 
0

>  <hydroph_interaction:TYR:130>  (93) 
0

>  <hydroph_interaction:PRO:131>  (93) 
0

>  <hydroph_interaction:ASP:129>  (93) 
0

>  <saltbridge:ASP:75>  (93) 
0

>  <saltbridge:ASP:83>  (93) 
0

>  <hydroph_interaction:ASN:152>  (93) 
0

>  <halogenbond:TYR:150>  (93) 
0

>  <hbond:ASP:83>  (93) 
0

>  <hydroph_interaction:VAL:155>  (93) 
1

>  <pication:TYR:161>  (93) 
0

>  <hbond:PRO:131>  (93) 
0

>  <hbond:LEU:128>  (93) 
0

>  <saltbridge:ASP:129>  (93) 
0

>  <hbond:THR:134>  (93) 
0

>  <pication:HIS:51>  (93) 
0

>  <hbond:SER:81>  (93) 
0

>  <hbond:GLY:159>  (93) 
0

>  <hydroph_interaction:PRO:101>  (93) 
0

>  <hydroph_interaction:THR:134>  (93) 
0

>  <hbond:GLY:82>  (93) 
0

>  <hydroph_interaction:GLU:104>  (93) 
0

>  <hydroph_interaction:VAL:36>  (93) 
0

>  <hydroph_interaction:MET:49>  (93) 
0

>  <halogenbond:GLU:104>  (93) 
0

>  <hydroph_interaction:LYS:107>  (93) 
0

$$$$
Z5484429475
     RDKit          3D

 40 43  0  0  0  0  0  0  0  0999 V2000
   -6.4700    5.0420  -20.5130 C   0  0  0  0  0  0  0  0  0  0  0  0
   -6.4830    5.1990  -18.9980 C   0  0  0  0  0  0  0  0  0  0  0  0
   -5.3400    5.4640  -18.2780 N   0  0  0  0  0  0  0  0  0  0  0  0
   -5.7210    5.5430  -16.9110 N   0  0  0  0  0  0  0  0  0  0  0  0
   -7.1150    5.3140  -16.8950 C   0  0  0  0  0  0  0  0  0  0  0  0
   -7.9800    5.2980  -15.7550 C   0  0  0  0  0  0  0  0  0  0  0  0
   -7.4310    5.5480  -14.4480 C   0  0  0  0  0  0  0  0  0  0  0  0
   -6.2170    5.4880  -14.3180 O   0  0  0  0  0  0  0  0  0  0  0  0
   -8.2920    5.8630  -13.4040 N   0  0  0  0  0  0  0  0  0  0  0  0
   -8.7500    4.8490  -12.4450 C   0  0  0  0  0  0  0  0  0  0  0  0
   -8.7810    5.2020  -11.0550 C   0  0  0  0  0  0  0  0  0  0  0  0
   -8.9640    4.2340  -10.0610 C   0  0  0  0  0  0  0  0  0  0  0  0
   -9.1260    2.8780  -10.2890 C   0  0  0  0  0  0  0  0  0  0  0  0
   -8.8300    2.2280   -8.9850 C   0  0  0  0  0  0  0  0  0  0  0  0
   -9.4780    2.7280   -7.7100 C   0  0  0  0  0  0  0  0  0  0  0  0
   -9.1240    4.2090   -7.5450 C   0  0  0  0  0  0  0  0  0  0  0  0
   -8.9570    4.8610   -8.8410 N   0  0  0  0  0  0  0  0  0  0  0  0
   -8.7770    6.1940   -8.9570 N   0  0  0  0  0  0  0  0  0  0  0  0
   -8.6720    6.4060  -10.2940 C   0  0  0  0  0  0  0  0  0  0  0  0
   -9.2740    5.0650  -15.9010 N   0  0  0  0  0  0  0  0  0  0  0  0
   -9.7620    4.8320  -17.1850 C   0  0  0  0  0  0  0  0  0  0  0  0
   -8.8920    4.8460  -18.4140 C   0  0  0  0  0  0  0  0  0  0  0  0
   -7.5730    5.0990  -18.1800 N   0  0  0  0  0  0  0  0  0  0  0  0
   -7.3400    4.4650  -20.8500 H   0  0  0  0  0  0  0  0  0  0  0  0
   -5.5410    4.5810  -20.8590 H   0  0  0  0  0  0  0  0  0  0  0  0
   -6.5300    6.0270  -20.9820 H   0  0  0  0  0  0  0  0  0  0  0  0
   -8.8060    6.7340  -13.4560 H   0  0  0  0  0  0  0  0  0  0  0  0
   -9.7430    4.5670  -12.7710 H   0  0  0  0  0  0  0  0  0  0  0  0
   -8.1260    3.9590  -12.5730 H   0  0  0  0  0  0  0  0  0  0  0  0
   -8.4990    2.5160  -11.1040 H   0  0  0  0  0  0  0  0  0  0  0  0
  -10.1050    2.5920  -10.6590 H   0  0  0  0  0  0  0  0  0  0  0  0
   -8.8410    1.1520   -9.0570 H   0  0  0  0  0  0  0  0  0  0  0  0
   -7.7640    2.4220   -8.8360 H   0  0  0  0  0  0  0  0  0  0  0  0
   -9.0980    2.1560   -6.8580 H   0  0  0  0  0  0  0  0  0  0  0  0
  -10.5660    2.5960   -7.7460 H   0  0  0  0  0  0  0  0  0  0  0  0
   -9.9180    4.7140   -6.9820 H   0  0  0  0  0  0  0  0  0  0  0  0
   -8.1860    4.3310   -6.9930 H   0  0  0  0  0  0  0  0  0  0  0  0
   -8.5220    7.4310  -10.6570 H   0  0  0  0  0  0  0  0  0  0  0  0
  -10.8240    4.6330  -17.2790 H   0  0  0  0  0  0  0  0  0  0  0  0
   -9.2410    4.6710  -19.4240 H   0  0  0  0  0  0  0  0  0  0  0  0
  1  2  1  0
  2  3  2  0
  3  4  1  0
  4  5  2  0
  5  6  1  0
  6  7  1  0
  7  8  2  0
  7  9  1  0
  9 10  1  0
 10 11  1  0
 11 12  2  0
 12 13  1  0
 13 14  1  0
 14 15  1  0
 15 16  1  0
 16 17  1  0
 17 18  1  0
 18 19  2  0
  6 20  2  0
 20 21  1  0
 21 22  2  0
 22 23  1  0
 23  2  1  0
 23  5  1  0
 19 11  1  0
 17 12  1  0
  1 24  1  0
  1 25  1  0
  1 26  1  0
  9 27  1  0
 10 28  1  0
 10 29  1  0
 13 30  1  0
 13 31  1  0
 14 32  1  0
 14 33  1  0
 15 34  1  0
 15 35  1  0
 16 36  1  0
 16 37  1  0
 19 38  1  0
 21 39  1  0
 22 40  1  0
A    1
 C1 
A    2
 C2 
A    3
 N1 
A    4
 N2 
A    5
 C3 
A    6
 C4 
A    7
 C5 
A    8
 O1 
A    9
 N3 
A   10
 C6 
A   11
 C7 
A   12
 C8 
A   13
 C9 
A   14
 C10
A   15
 C11
A   16
 C12
A   17
 N4 
A   18
 N5 
A   19
 C13
A   20
 N6 
A   21
 C14
A   22
 C15
A   23
 N7 
A   24
 H1 
A   25
 H2 
A   26
 H3 
A   27
 H4 
A   28
 H5 
A   29
 H6 
A   30
 H7 
A   31
 H8 
A   32
 H9 
A   33
 H10
A   34
 H11
A   35
 H12
A   36
 H13
A   37
 H14
A   38
 H15
A   39
 H16
A   40
 H17
M  END
>  <ref_pdb>  (94) 
x0051_0B

>  <ref_mols>  (94) 
x0435_0B,x0969_1B

>  <original SMILES>  (94) 
[H]c1nn2c(c1C([H])([H])N([H])C(=O)c1nc([H])c([H])n3c(C([H])([H])[H])nnc13)C([H])([H])C([H])([H])C([H])([H])C2([H])[H]

>  <index>  (94) 
164

>  <∆∆G>  (94) 
-6.011745

>  <∆G_bound>  (94) 
-4.884782

>  <∆G_unbound>  (94) 
1.126962

>  <comRMSD>  (94) 
0.465215

>  <N_constrained_atoms>  (94) 
20.0

>  <N_unconstrained_atoms>  (94) 
3.0

>  <runtime>  (94) 
70.246014

>  <LE>  (94) 
0.26138

>  <percent_hybrid>  (94) 
50.0

>  <dist>  (94) 
6.0

>  <ecfp4>  (94) 
0.271605

>  <daylight>  (94) 
0.290503

>  <topodist>  (94) 
1.0

>  <mces>  (94) 
25.0

>  <tdn>  (94) 
0.0

>  <tup>  (94) 
1.0

>  <rdn>  (94) 
0.0

>  <rup>  (94) 
0.0

>  <ldn>  (94) 
0.0

>  <lup>  (94) 
0.0

>  <mut>  (94) 
5.0

>  <maj>  (94) 
5.0

>  <min>  (94) 
0.0

>  <hyb>  (94) 
0.0

>  <sub>  (94) 
0.0

>  <query_index>  (94) 
311.0

>  <max_hit_Tanimoto>  (94) 
0.292256

>  <largest_ring>  (94) 
0

>  <N_interactions_kept>  (94) 
2.5

>  <N_interactions_lost>  (94) 
1.0

>  <interaction_uniqueness_metric>  (94) 
0.182744

>  <ad_hoc_penalty>  (94) 
-29.291714

>  <N_rotatable_bonds>  (94) 
4

>  <N_HA>  (94) 
23

>  <cluster>  (94) 
6069

>  <N_interactions>  (94) 
6

>  <Enamine>  (94) 
1

>  <Mcule>  (94) 
0

>  <N_PAINS>  (94) 
0

>  <UFF_Gibbs>  (94) 
73.384901

>  <strain_per_HA>  (94) 
3.190648

>  <saltbridge:HIS:51>  (94) 
0

>  <pistack:HIS:51>  (94) 
1

>  <hydroph_interaction:HIS:51>  (94) 
0

>  <hbond:ALA:132>  (94) 
0

>  <hbond:SER:135>  (94) 
0

>  <hydroph_interaction:TYR:150>  (94) 
0

>  <pistack:TYR:161>  (94) 
2

>  <hydroph_interaction:TYR:161>  (94) 
1

>  <hydroph_interaction:ASP:83>  (94) 
1

>  <hbond:TYR:130>  (94) 
0

>  <hydroph_interaction:ALA:132>  (94) 
0

>  <hbond:HIS:51>  (94) 
0

>  <hbond:ASP:129>  (94) 
0

>  <hbond:TYR:150>  (94) 
0

>  <hbond:GLY:151>  (94) 
0

>  <hbond:TYR:161>  (94) 
1

>  <hydroph_interaction:TYR:130>  (94) 
0

>  <hydroph_interaction:PRO:131>  (94) 
0

>  <hydroph_interaction:ASP:129>  (94) 
0

>  <saltbridge:ASP:75>  (94) 
0

>  <saltbridge:ASP:83>  (94) 
0

>  <hydroph_interaction:ASN:152>  (94) 
0

>  <halogenbond:TYR:150>  (94) 
0

>  <hbond:ASP:83>  (94) 
0

>  <hydroph_interaction:VAL:155>  (94) 
0

>  <pication:TYR:161>  (94) 
0

>  <hbond:PRO:131>  (94) 
0

>  <hbond:LEU:128>  (94) 
0

>  <saltbridge:ASP:129>  (94) 
0

>  <hbond:THR:134>  (94) 
0

>  <pication:HIS:51>  (94) 
0

>  <hbond:SER:81>  (94) 
0

>  <hbond:GLY:159>  (94) 
0

>  <hydroph_interaction:PRO:101>  (94) 
0

>  <hydroph_interaction:THR:134>  (94) 
0

>  <hbond:GLY:82>  (94) 
0

>  <hydroph_interaction:GLU:104>  (94) 
0

>  <hydroph_interaction:VAL:36>  (94) 
0

>  <hydroph_interaction:MET:49>  (94) 
0

>  <halogenbond:GLU:104>  (94) 
0

>  <hydroph_interaction:LYS:107>  (94) 
0

$$$$
LKKQXQQTFARGTR-UHFFFAOYSA-N
     RDKit          3D

 52 56  0  0  0  0  0  0  0  0999 V2000
   -5.5890    6.0770  -21.0800 C   0  0  0  0  0  0  0  0  0  0  0  0
   -6.0960    6.1020  -19.7860 N   0  0  0  0  0  0  0  0  0  0  0  0
   -7.2300    5.2540  -19.3630 C   0  0  0  0  0  0  0  0  0  0  0  0
   -7.4770    5.3530  -17.8550 C   0  0  0  0  0  0  0  0  0  0  0  0
   -8.7500    5.2100  -17.2650 C   0  0  0  0  0  0  0  0  0  0  0  0
   -8.8270    5.3650  -15.7190 C   0  0  0  0  0  0  0  0  0  0  0  0
  -10.1010    5.2630  -14.9340 C   0  0  0  0  0  0  0  0  0  0  0  0
   -7.6670    5.6140  -15.0250 C   0  0  0  0  0  0  0  0  0  0  0  0
   -6.4670    5.7300  -15.6600 C   0  0  0  0  0  0  0  0  0  0  0  0
   -6.3850    5.6060  -17.0260 C   0  0  0  0  0  0  0  0  0  0  0  0
   -5.1060    5.7580  -17.5350 C   0  0  0  0  0  0  0  0  0  0  0  0
   -5.2080    6.6630  -18.7550 C   0  0  0  0  0  0  0  0  0  0  0  0
   -5.0810    5.1080  -21.6180 O   0  0  0  0  0  0  0  0  0  0  0  0
   -5.6520    7.3020  -21.9320 C   0  0  0  0  0  0  0  0  0  0  0  0
   -6.1320    7.1440  -23.3150 C   0  0  0  0  0  0  0  0  0  0  0  0
   -6.2190    8.2540  -24.1440 C   0  0  0  0  0  0  0  0  0  0  0  0
   -5.8550    9.5080  -23.6850 C   0  0  0  0  0  0  0  0  0  0  0  0
   -5.9800   10.6730  -24.6580 C   0  0  0  0  0  0  0  0  0  0  0  0
   -5.5760   10.1560  -26.3540 S   0  0  0  0  0  0  0  0  0  0  0  0
   -7.1250    9.5980  -26.9350 C   0  0  0  0  0  0  0  0  0  0  0  0
   -8.4090   10.6880  -27.1590 S   0  0  0  0  0  0  0  0  0  0  0  0
   -9.4200    9.3920  -27.6450 C   0  0  0  0  0  0  0  0  0  0  0  0
   -8.6850    8.2040  -27.6280 C   0  0  0  0  0  0  0  0  0  0  0  0
   -9.3020    6.9910  -28.0010 C   0  0  0  0  0  0  0  0  0  0  0  0
  -10.6420    6.9860  -28.3760 C   0  0  0  0  0  0  0  0  0  0  0  0
  -11.3980    8.2750  -28.3720 C   0  0  0  0  0  0  0  0  0  0  0  0
  -10.7720    9.4410  -28.0100 C   0  0  0  0  0  0  0  0  0  0  0  0
   -7.3690    8.3400  -27.2210 N   0  0  0  0  0  0  0  0  0  0  0  0
   -5.3850    9.6790  -22.3610 C   0  0  0  0  0  0  0  0  0  0  0  0
   -5.2820    8.5850  -21.4810 C   0  0  0  0  0  0  0  0  0  0  0  0
   -8.1310    5.5910  -19.8880 H   0  0  0  0  0  0  0  0  0  0  0  0
   -6.9860    4.2300  -19.6610 H   0  0  0  0  0  0  0  0  0  0  0  0
   -9.6360    5.0080  -17.8660 H   0  0  0  0  0  0  0  0  0  0  0  0
   -9.8280    4.9800  -13.9090 H   0  0  0  0  0  0  0  0  0  0  0  0
  -10.6460    6.1960  -14.8260 H   0  0  0  0  0  0  0  0  0  0  0  0
  -10.8100    4.5120  -15.2430 H   0  0  0  0  0  0  0  0  0  0  0  0
   -7.6190    5.7360  -13.9360 H   0  0  0  0  0  0  0  0  0  0  0  0
   -5.6210    5.9270  -14.9910 H   0  0  0  0  0  0  0  0  0  0  0  0
   -4.5040    6.2810  -16.7910 H   0  0  0  0  0  0  0  0  0  0  0  0
   -4.5300    4.8720  -17.8200 H   0  0  0  0  0  0  0  0  0  0  0  0
   -5.5140    7.6990  -18.5840 H   0  0  0  0  0  0  0  0  0  0  0  0
   -4.2150    6.7020  -19.2200 H   0  0  0  0  0  0  0  0  0  0  0  0
   -6.4220    6.1720  -23.6900 H   0  0  0  0  0  0  0  0  0  0  0  0
   -6.5790    8.1250  -25.1640 H   0  0  0  0  0  0  0  0  0  0  0  0
   -7.0150   11.0400  -24.6510 H   0  0  0  0  0  0  0  0  0  0  0  0
   -5.3600   11.5170  -24.3400 H   0  0  0  0  0  0  0  0  0  0  0  0
   -8.7250    6.0710  -27.9890 H   0  0  0  0  0  0  0  0  0  0  0  0
  -11.1300    6.0550  -28.6650 H   0  0  0  0  0  0  0  0  0  0  0  0
  -12.4480    8.2950  -28.6590 H   0  0  0  0  0  0  0  0  0  0  0  0
  -11.3180   10.3820  -28.0070 H   0  0  0  0  0  0  0  0  0  0  0  0
   -5.1000   10.6670  -22.0110 H   0  0  0  0  0  0  0  0  0  0  0  0
   -4.9210    8.7330  -20.4670 H   0  0  0  0  0  0  0  0  0  0  0  0
  1  2  1  0
  2  3  1  0
  3  4  1  0
  4  5  2  0
  5  6  1  0
  6  7  1  0
  6  8  2  0
  8  9  1  0
  9 10  2  0
 10 11  1  0
 11 12  1  0
  1 13  2  0
  1 14  1  0
 14 15  2  0
 15 16  1  0
 16 17  2  0
 17 18  1  0
 18 19  1  0
 19 20  1  0
 20 21  1  0
 21 22  1  0
 22 23  2  0
 23 24  1  0
 24 25  2  0
 25 26  1  0
 26 27  2  0
 23 28  1  0
 17 29  1  0
 29 30  2  0
 12  2  1  0
 10  4  1  0
 30 14  1  0
 20 28  2  0
 27 22  1  0
  3 31  1  0
  3 32  1  0
  5 33  1  0
  7 34  1  0
  7 35  1  0
  7 36  1  0
  8 37  1  0
  9 38  1  0
 11 39  1  0
 11 40  1  0
 12 41  1  0
 12 42  1  0
 15 43  1  0
 16 44  1  0
 18 45  1  0
 18 46  1  0
 24 47  1  0
 25 48  1  0
 26 49  1  0
 27 50  1  0
 29 51  1  0
 30 52  1  0
A    1
 C1 
A    2
 N1 
A    3
 C2 
A    4
 C3 
A    5
 C4 
A    6
 C5 
A    7
 C6 
A    8
 C7 
A    9
 C8 
A   10
 C9 
A   11
 C10
A   12
 C11
A   13
 O1 
A   14
 C12
A   15
 C13
A   16
 C14
A   17
 C15
A   18
 C16
A   19
 S1 
A   20
 C17
A   21
 S2 
A   22
 C18
A   23
 C19
A   24
 C20
A   25
 C21
A   26
 C22
A   27
 C23
A   28
 N2 
A   29
 C24
A   30
 C25
A   31
 H1 
A   32
 H2 
A   33
 H3 
A   34
 H4 
A   35
 H5 
A   36
 H6 
A   37
 H7 
A   38
 H8 
A   39
 H9 
A   40
 H10
A   41
 H11
A   42
 H12
A   43
 H13
A   44
 H14
A   45
 H15
A   46
 H16
A   47
 H17
A   48
 H18
A   49
 H19
A   50
 H20
A   51
 H21
A   52
 H22
M  END
>  <ref_pdb>  (95) 
x0051_0B

>  <ref_mols>  (95) 
x0846_1B,x0969_0B

>  <original SMILES>  (95) 
[H]c1c([H])c(C([H])([H])Sc2nc3c([H])c([H])c([H])c([H])c3s2)c([H])c([H])c1C(=O)N1C([H])([H])c2c([H])c(C([H])([H])[H])c([H])c([H])c2C([H])([H])C1([H])[H]

>  <index>  (95) 
189

>  <∆∆G>  (95) 
-9.786413

>  <∆G_bound>  (95) 
-9.626279

>  <∆G_unbound>  (95) 
0.160134

>  <comRMSD>  (95) 
0.874252

>  <N_constrained_atoms>  (95) 
28.0

>  <N_unconstrained_atoms>  (95) 
4.0

>  <runtime>  (95) 
56.977567

>  <LE>  (95) 
0.305825

>  <percent_hybrid>  (95) 
36.0

>  <dist>  (95) 
10.0

>  <ecfp4>  (95) 
0.18

>  <daylight>  (95) 
0.208696

>  <topodist>  (95) 
5.0

>  <mces>  (95) 
31.0

>  <tdn>  (95) 
2.0

>  <tup>  (95) 
2.0

>  <rdn>  (95) 
0.0

>  <rup>  (95) 
0.0

>  <ldn>  (95) 
0.0

>  <lup>  (95) 
1.0

>  <mut>  (95) 
5.0

>  <maj>  (95) 
5.0

>  <min>  (95) 
0.0

>  <hyb>  (95) 
0.0

>  <sub>  (95) 
3.0

>  <query_index>  (95) 
45.0

>  <max_hit_Tanimoto>  (95) 
0.207671

>  <largest_ring>  (95) 
0

>  <N_interactions_kept>  (95) 
0.5

>  <N_interactions_lost>  (95) 
2.0

>  <interaction_uniqueness_metric>  (95) 
0.188654

>  <ad_hoc_penalty>  (95) 
-29.281325

>  <N_rotatable_bonds>  (95) 
5

>  <N_HA>  (95) 
30

>  <cluster>  (95) 
6047

>  <N_interactions>  (95) 
6

>  <Enamine>  (95) 
0

>  <Mcule>  (95) 
1

>  <N_PAINS>  (95) 
0

>  <UFF_Gibbs>  (95) 
79.760129

>  <strain_per_HA>  (95) 
2.658671

>  <saltbridge:HIS:51>  (95) 
0

>  <pistack:HIS:51>  (95) 
0

>  <hydroph_interaction:HIS:51>  (95) 
0

>  <hbond:ALA:132>  (95) 
0

>  <hbond:SER:135>  (95) 
0

>  <hydroph_interaction:TYR:150>  (95) 
0

>  <pistack:TYR:161>  (95) 
1

>  <hydroph_interaction:TYR:161>  (95) 
1

>  <hydroph_interaction:ASP:83>  (95) 
0

>  <hbond:TYR:130>  (95) 
0

>  <hydroph_interaction:ALA:132>  (95) 
1

>  <hbond:HIS:51>  (95) 
0

>  <hbond:ASP:129>  (95) 
1

>  <hbond:TYR:150>  (95) 
0

>  <hbond:GLY:151>  (95) 
0

>  <hbond:TYR:161>  (95) 
0

>  <hydroph_interaction:TYR:130>  (95) 
1

>  <hydroph_interaction:PRO:131>  (95) 
1

>  <hydroph_interaction:ASP:129>  (95) 
0

>  <saltbridge:ASP:75>  (95) 
0

>  <saltbridge:ASP:83>  (95) 
0

>  <hydroph_interaction:ASN:152>  (95) 
0

>  <halogenbond:TYR:150>  (95) 
0

>  <hbond:ASP:83>  (95) 
0

>  <hydroph_interaction:VAL:155>  (95) 
0

>  <pication:TYR:161>  (95) 
0

>  <hbond:PRO:131>  (95) 
0

>  <hbond:LEU:128>  (95) 
0

>  <saltbridge:ASP:129>  (95) 
0

>  <hbond:THR:134>  (95) 
0

>  <pication:HIS:51>  (95) 
0

>  <hbond:SER:81>  (95) 
0

>  <hbond:GLY:159>  (95) 
0

>  <hydroph_interaction:PRO:101>  (95) 
0

>  <hydroph_interaction:THR:134>  (95) 
0

>  <hbond:GLY:82>  (95) 
0

>  <hydroph_interaction:GLU:104>  (95) 
0

>  <hydroph_interaction:VAL:36>  (95) 
0

>  <hydroph_interaction:MET:49>  (95) 
0

>  <halogenbond:GLU:104>  (95) 
0

>  <hydroph_interaction:LYS:107>  (95) 
0

$$$$
CSSB03552410615
     RDKit          3D

 27 28  0  0  0  0  0  0  0  0999 V2000
   -3.3880    5.1200  -16.6130 C   0  0  0  0  0  0  0  0  0  0  0  0
   -4.1550    5.2810  -17.9250 C   0  0  0  0  0  0  0  0  0  0  0  0
   -3.1830    5.4590  -19.0840 C   0  0  0  0  0  0  0  0  0  0  0  0
   -5.1660    6.4350  -17.8420 C   0  0  2  0  0  0  0  0  0  0  0  0
   -6.0270    6.3200  -16.5760 C   0  0  0  0  0  0  0  0  0  0  0  0
   -7.3200    5.7320  -16.8610 N   0  0  0  0  0  0  0  0  0  0  0  0
   -8.2500    5.5140  -15.9160 N   0  0  0  0  0  0  0  0  0  0  0  0
   -9.2710    4.9660  -16.6020 C   0  0  0  0  0  0  0  0  0  0  0  0
   -9.0060    4.8360  -17.9650 C   0  0  0  0  0  0  0  0  0  0  0  0
   -7.7240    5.3490  -18.0840 C   0  0  0  0  0  0  0  0  0  0  0  0
   -6.9610    5.4660  -19.2370 C   0  0  0  0  0  0  0  0  0  0  0  0
   -5.9830    6.5510  -19.0800 N   0  0  0  0  0  0  0  0  0  0  0  0
   -3.2400    6.0870  -16.1250 H   0  0  0  0  0  0  0  0  0  0  0  0
   -2.4050    4.6660  -16.7780 H   0  0  0  0  0  0  0  0  0  0  0  0
   -3.9420    4.4770  -15.9200 H   0  0  0  0  0  0  0  0  0  0  0  0
   -4.7080    4.3630  -18.0930 H   0  0  0  0  0  0  0  0  0  0  0  0
   -3.7150    5.4390  -20.0410 H   0  0  0  0  0  0  0  0  0  0  0  0
   -2.6500    6.4130  -19.0230 H   0  0  0  0  0  0  0  0  0  0  0  0
   -2.4390    4.6530  -19.0970 H   0  0  0  0  0  0  0  0  0  0  0  0
   -4.6050    7.3730  -17.7540 H   0  0  0  0  0  0  0  0  0  0  0  0
   -5.5700    5.6770  -15.8160 H   0  0  0  0  0  0  0  0  0  0  0  0
   -6.2060    7.3100  -16.1440 H   0  0  0  0  0  0  0  0  0  0  0  0
  -10.1680    4.6880  -16.0650 H   0  0  0  0  0  0  0  0  0  0  0  0
   -9.6390    4.4360  -18.7440 H   0  0  0  0  0  0  0  0  0  0  0  0
   -6.4380    4.5340  -19.4620 H   0  0  0  0  0  0  0  0  0  0  0  0
   -7.6070    5.6920  -20.0870 H   0  0  0  0  0  0  0  0  0  0  0  0
   -6.4810    7.4400  -19.0980 H   0  0  0  0  0  0  0  0  0  0  0  0
  1  2  1  0
  2  3  1  0
  2  4  1  0
  4  5  1  0
  5  6  1  0
  6  7  1  0
  7  8  2  0
  8  9  1  0
  9 10  2  0
 10 11  1  0
 11 12  1  0
 12  4  1  0
 10  6  1  0
  1 13  1  0
  1 14  1  0
  1 15  1  0
  2 16  1  0
  3 17  1  0
  3 18  1  0
  3 19  1  0
  4 20  1  1
  5 21  1  0
  5 22  1  0
  8 23  1  0
  9 24  1  0
 11 25  1  0
 11 26  1  0
 12 27  1  0
A    1
 C1 
A    2
 C2 
A    3
 C3 
A    4
 C4 
A    5
 C5 
A    6
 N1 
A    7
 N2 
A    8
 C6 
A    9
 C7 
A   10
 C8 
A   11
 C9 
A   12
 N3 
A   13
 H1 
A   14
 H2 
A   15
 H3 
A   16
 H4 
A   17
 H5 
A   18
 H6 
A   19
 H7 
A   20
 H8 
A   21
 H9 
A   22
 H10
A   23
 H11
A   24
 H12
A   25
 H13
A   26
 H14
A   27
 H15
M  END
>  <ref_pdb>  (96) 
x0051_0B

>  <ref_mols>  (96) 
x0969_0B,x0472_0B

>  <original SMILES>  (96) 
[H]c1nn2c(c1[H])C([H])([H])N([H])[C@]([H])(C([H])(C([H])([H])[H])C([H])([H])[H])C2([H])[H]

>  <index>  (96) 
179

>  <∆∆G>  (96) 
-5.12871

>  <∆G_bound>  (96) 
-5.16177

>  <∆G_unbound>  (96) 
-0.03306

>  <comRMSD>  (96) 
0.544189

>  <N_constrained_atoms>  (96) 
14.0

>  <N_unconstrained_atoms>  (96) 
0.0

>  <runtime>  (96) 
16.32806

>  <LE>  (96) 
0.366336

>  <percent_hybrid>  (96) 
20.0

>  <dist>  (96) 
2.0

>  <ecfp4>  (96) 
0.34

>  <daylight>  (96) 
0.817568

>  <topodist>  (96) 
2.0

>  <mces>  (96) 
13.0

>  <tdn>  (96) 
2.0

>  <tup>  (96) 
0.0

>  <rdn>  (96) 
0.0

>  <rup>  (96) 
0.0

>  <ldn>  (96) 
0.0

>  <lup>  (96) 
0.0

>  <mut>  (96) 
0.0

>  <maj>  (96) 
0.0

>  <min>  (96) 
0.0

>  <hyb>  (96) 
0.0

>  <sub>  (96) 
2.0

>  <query_index>  (96) 
126.0

>  <max_hit_Tanimoto>  (96) 
0.565217

>  <largest_ring>  (96) 
0

>  <N_interactions_kept>  (96) 
3.5

>  <N_interactions_lost>  (96) 
0.0

>  <interaction_uniqueness_metric>  (96) 
0.049434

>  <ad_hoc_penalty>  (96) 
-29.198601

>  <N_rotatable_bonds>  (96) 
3

>  <N_HA>  (96) 
12

>  <cluster>  (96) 
6057

>  <N_interactions>  (96) 
4

>  <Enamine>  (96) 
1

>  <Mcule>  (96) 
0

>  <N_PAINS>  (96) 
0

>  <UFF_Gibbs>  (96) 
18.497015

>  <strain_per_HA>  (96) 
1.541418

>  <saltbridge:HIS:51>  (96) 
0

>  <pistack:HIS:51>  (96) 
0

>  <hydroph_interaction:HIS:51>  (96) 
0

>  <hbond:ALA:132>  (96) 
0

>  <hbond:SER:135>  (96) 
0

>  <hydroph_interaction:TYR:150>  (96) 
0

>  <pistack:TYR:161>  (96) 
0

>  <hydroph_interaction:TYR:161>  (96) 
3

>  <hydroph_interaction:ASP:83>  (96) 
0

>  <hbond:TYR:130>  (96) 
0

>  <hydroph_interaction:ALA:132>  (96) 
0

>  <hbond:HIS:51>  (96) 
0

>  <hbond:ASP:129>  (96) 
0

>  <hbond:TYR:150>  (96) 
0

>  <hbond:GLY:151>  (96) 
0

>  <hbond:TYR:161>  (96) 
0

>  <hydroph_interaction:TYR:130>  (96) 
0

>  <hydroph_interaction:PRO:131>  (96) 
0

>  <hydroph_interaction:ASP:129>  (96) 
0

>  <saltbridge:ASP:75>  (96) 
0

>  <saltbridge:ASP:83>  (96) 
0

>  <hydroph_interaction:ASN:152>  (96) 
0

>  <halogenbond:TYR:150>  (96) 
0

>  <hbond:ASP:83>  (96) 
0

>  <hydroph_interaction:VAL:155>  (96) 
1

>  <pication:TYR:161>  (96) 
0

>  <hbond:PRO:131>  (96) 
0

>  <hbond:LEU:128>  (96) 
0

>  <saltbridge:ASP:129>  (96) 
0

>  <hbond:THR:134>  (96) 
0

>  <pication:HIS:51>  (96) 
0

>  <hbond:SER:81>  (96) 
0

>  <hbond:GLY:159>  (96) 
0

>  <hydroph_interaction:PRO:101>  (96) 
0

>  <hydroph_interaction:THR:134>  (96) 
0

>  <hbond:GLY:82>  (96) 
0

>  <hydroph_interaction:GLU:104>  (96) 
0

>  <hydroph_interaction:VAL:36>  (96) 
0

>  <hydroph_interaction:MET:49>  (96) 
0

>  <halogenbond:GLU:104>  (96) 
0

>  <hydroph_interaction:LYS:107>  (96) 
0

$$$$
BOLHGPCYUBOTID-UHFFFAOYSA-N
     RDKit          3D

 41 44  0  0  0  0  0  0  0  0999 V2000
   -7.9930    4.4880  -13.7570 C   0  0  0  0  0  0  0  0  0  0  0  0
   -8.8950    4.9280  -12.8030 N   0  0  0  0  0  0  0  0  0  0  0  0
   -8.5020    5.9670  -11.8840 C   0  0  0  0  0  0  0  0  0  0  0  0
   -8.6780    5.6940  -10.5230 C   0  0  0  0  0  0  0  0  0  0  0  0
   -8.9390    4.5130   -9.7940 C   0  0  0  0  0  0  0  0  0  0  0  0
   -9.0020    4.8900   -8.4770 N   0  0  0  0  0  0  0  0  0  0  0  0
   -9.2550    3.9940   -7.3630 C   0  0  0  0  0  0  0  0  0  0  0  0
   -9.6080    2.7490   -7.8360 C   0  0  0  0  0  0  0  0  0  0  0  0
   -9.4980    2.2570   -9.1300 C   0  0  0  0  0  0  0  0  0  0  0  0
   -9.1310    3.0950  -10.1910 C   0  0  0  0  0  0  0  0  0  0  0  0
   -8.8070    6.1950   -8.2760 N   0  0  0  0  0  0  0  0  0  0  0  0
   -8.6160    6.6780   -9.5040 C   0  0  0  0  0  0  0  0  0  0  0  0
   -7.3840    3.4400  -13.6270 O   0  0  0  0  0  0  0  0  0  0  0  0
   -7.8020    5.4360  -14.9400 C   0  0  0  0  0  0  0  0  0  0  0  0
   -8.4340    5.1430  -16.3150 C   0  0  0  0  0  0  0  0  0  0  0  0
   -7.3480    5.2880  -17.3460 C   0  0  0  0  0  0  0  0  0  0  0  0
   -7.7170    5.0660  -18.6810 C   0  0  0  0  0  0  0  0  0  0  0  0
   -9.0390    4.7330  -18.9840 C   0  0  0  0  0  0  0  0  0  0  0  0
  -10.0250    4.6070  -18.0220 C   0  0  0  0  0  0  0  0  0  0  0  0
   -9.7200    4.8090  -16.6740 C   0  0  0  0  0  0  0  0  0  0  0  0
   -6.1340    5.6250  -16.8040 O   0  0  0  0  0  0  0  0  0  0  0  0
   -6.3170    5.4100  -15.3650 C   0  0  0  0  0  0  0  0  0  0  0  0
   -9.8870    4.7800  -12.9590 H   0  0  0  0  0  0  0  0  0  0  0  0
   -7.4440    6.1880  -12.0370 H   0  0  0  0  0  0  0  0  0  0  0  0
   -9.0750    6.8590  -12.1520 H   0  0  0  0  0  0  0  0  0  0  0  0
   -9.9630    4.4940   -6.7040 H   0  0  0  0  0  0  0  0  0  0  0  0
   -8.3030    3.9190   -6.8250 H   0  0  0  0  0  0  0  0  0  0  0  0
  -10.6510    2.6230   -7.5780 H   0  0  0  0  0  0  0  0  0  0  0  0
   -9.0850    2.0330   -7.1940 H   0  0  0  0  0  0  0  0  0  0  0  0
  -10.4650    1.8610   -9.4010 H   0  0  0  0  0  0  0  0  0  0  0  0
   -8.7830    1.4350   -9.1160 H   0  0  0  0  0  0  0  0  0  0  0  0
   -9.8880    3.0220  -10.9830 H   0  0  0  0  0  0  0  0  0  0  0  0
   -8.1920    2.7070  -10.6040 H   0  0  0  0  0  0  0  0  0  0  0  0
   -8.4310    7.7510   -9.6150 H   0  0  0  0  0  0  0  0  0  0  0  0
   -8.0980    6.4480  -14.6360 H   0  0  0  0  0  0  0  0  0  0  0  0
   -6.9810    5.1540  -19.4710 H   0  0  0  0  0  0  0  0  0  0  0  0
   -9.2060    4.5870  -20.0570 H   0  0  0  0  0  0  0  0  0  0  0  0
  -11.0340    4.3500  -18.3180 H   0  0  0  0  0  0  0  0  0  0  0  0
  -10.4790    4.7080  -15.9120 H   0  0  0  0  0  0  0  0  0  0  0  0
   -5.8650    4.4480  -15.1050 H   0  0  0  0  0  0  0  0  0  0  0  0
   -5.7310    6.1830  -14.8510 H   0  0  0  0  0  0  0  0  0  0  0  0
  1  2  1  0
  2  3  1  0
  3  4  1  0
  4  5  2  0
  5  6  1  0
  6  7  1  0
  7  8  1  0
  8  9  1  0
  9 10  1  0
  6 11  1  0
 11 12  2  0
  1 13  2  0
  1 14  1  0
 14 15  1  0
 15 16  1  0
 16 17  2  0
 17 18  1  0
 18 19  2  0
 19 20  1  0
 16 21  1  0
 21 22  1  0
 12  4  1  0
 10  5  1  0
 22 14  1  0
 20 15  2  0
  2 23  1  0
  3 24  1  0
  3 25  1  0
  7 26  1  0
  7 27  1  0
  8 28  1  0
  8 29  1  0
  9 30  1  0
  9 31  1  0
 10 32  1  0
 10 33  1  0
 12 34  1  0
 14 35  1  0
 17 36  1  0
 18 37  1  0
 19 38  1  0
 20 39  1  0
 22 40  1  0
 22 41  1  0
A    1
 C1 
A    2
 N1 
A    3
 C2 
A    4
 C3 
A    5
 C4 
A    6
 N2 
A    7
 C5 
A    8
 C6 
A    9
 C7 
A   10
 C8 
A   11
 N3 
A   12
 C9 
A   13
 O1 
A   14
 C10
A   15
 C11
A   16
 C12
A   17
 C13
A   18
 C14
A   19
 C15
A   20
 C16
A   21
 O2 
A   22
 C17
A   23
 H1 
A   24
 H2 
A   25
 H3 
A   26
 H4 
A   27
 H5 
A   28
 H6 
A   29
 H7 
A   30
 H8 
A   31
 H9 
A   32
 H10
A   33
 H11
A   34
 H12
A   35
 H13
A   36
 H14
A   37
 H15
A   38
 H16
A   39
 H17
A   40
 H18
A   41
 H19
M  END
>  <ref_pdb>  (97) 
x0051_0B

>  <ref_mols>  (97) 
x0969_1B,x0455_0B

>  <original SMILES>  (97) 
[H]c1nn2c(c1C([H])([H])N([H])C(=O)C1([H])c3c([H])c([H])c([H])c([H])c3OC1([H])[H])C([H])([H])C([H])([H])C([H])([H])C2([H])[H]

>  <index>  (97) 
136

>  <∆∆G>  (97) 
-5.654858

>  <∆G_bound>  (97) 
-4.982492

>  <∆G_unbound>  (97) 
0.672366

>  <comRMSD>  (97) 
0.419098

>  <N_constrained_atoms>  (97) 
19.0

>  <N_unconstrained_atoms>  (97) 
3.0

>  <runtime>  (97) 
59.604866

>  <LE>  (97) 
0.257039

>  <percent_hybrid>  (97) 
48.0

>  <dist>  (97) 
7.0

>  <ecfp4>  (97) 
0.280488

>  <daylight>  (97) 
0.292818

>  <topodist>  (97) 
2.0

>  <mces>  (97) 
24.0

>  <tdn>  (97) 
0.0

>  <tup>  (97) 
1.0

>  <rdn>  (97) 
0.0

>  <rup>  (97) 
0.0

>  <ldn>  (97) 
1.0

>  <lup>  (97) 
0.0

>  <mut>  (97) 
4.0

>  <maj>  (97) 
4.0

>  <min>  (97) 
0.0

>  <hyb>  (97) 
1.0

>  <sub>  (97) 
0.0

>  <query_index>  (97) 
204.0

>  <max_hit_Tanimoto>  (97) 
0.315044

>  <largest_ring>  (97) 
0

>  <N_interactions_kept>  (97) 
1.5

>  <N_interactions_lost>  (97) 
1.0

>  <interaction_uniqueness_metric>  (97) 
0.179862

>  <ad_hoc_penalty>  (97) 
-29.159351

>  <N_rotatable_bonds>  (97) 
3

>  <N_HA>  (97) 
22

>  <cluster>  (97) 
6093

>  <N_interactions>  (97) 
6

>  <Enamine>  (97) 
0

>  <Mcule>  (97) 
1

>  <N_PAINS>  (97) 
0

>  <UFF_Gibbs>  (97) 
110.385158

>  <strain_per_HA>  (97) 
5.017507

>  <saltbridge:HIS:51>  (97) 
0

>  <pistack:HIS:51>  (97) 
2

>  <hydroph_interaction:HIS:51>  (97) 
1

>  <hbond:ALA:132>  (97) 
0

>  <hbond:SER:135>  (97) 
0

>  <hydroph_interaction:TYR:150>  (97) 
1

>  <pistack:TYR:161>  (97) 
1

>  <hydroph_interaction:TYR:161>  (97) 
0

>  <hydroph_interaction:ASP:83>  (97) 
0

>  <hbond:TYR:130>  (97) 
0

>  <hydroph_interaction:ALA:132>  (97) 
0

>  <hbond:HIS:51>  (97) 
1

>  <hbond:ASP:129>  (97) 
0

>  <hbond:TYR:150>  (97) 
0

>  <hbond:GLY:151>  (97) 
0

>  <hbond:TYR:161>  (97) 
0

>  <hydroph_interaction:TYR:130>  (97) 
0

>  <hydroph_interaction:PRO:131>  (97) 
0

>  <hydroph_interaction:ASP:129>  (97) 
0

>  <saltbridge:ASP:75>  (97) 
0

>  <saltbridge:ASP:83>  (97) 
0

>  <hydroph_interaction:ASN:152>  (97) 
0

>  <halogenbond:TYR:150>  (97) 
0

>  <hbond:ASP:83>  (97) 
0

>  <hydroph_interaction:VAL:155>  (97) 
0

>  <pication:TYR:161>  (97) 
0

>  <hbond:PRO:131>  (97) 
0

>  <hbond:LEU:128>  (97) 
0

>  <saltbridge:ASP:129>  (97) 
0

>  <hbond:THR:134>  (97) 
0

>  <pication:HIS:51>  (97) 
0

>  <hbond:SER:81>  (97) 
0

>  <hbond:GLY:159>  (97) 
0

>  <hydroph_interaction:PRO:101>  (97) 
0

>  <hydroph_interaction:THR:134>  (97) 
0

>  <hbond:GLY:82>  (97) 
0

>  <hydroph_interaction:GLU:104>  (97) 
0

>  <hydroph_interaction:VAL:36>  (97) 
0

>  <hydroph_interaction:MET:49>  (97) 
0

>  <halogenbond:GLU:104>  (97) 
0

>  <hydroph_interaction:LYS:107>  (97) 
0

$$$$
PVFDMSGBIDVRNR-UHFFFAOYSA-N
     RDKit          3D

 26 27  0  0  0  0  0  0  0  0999 V2000
   -4.0050    5.3150  -17.7290 C   0  0  0  0  0  0  0  0  0  0  0  0
   -5.3670    5.5860  -17.6010 N   0  0  0  0  0  0  0  0  0  0  0  0
   -5.8480    6.4330  -16.4900 C   0  0  0  0  0  0  0  0  0  0  0  0
   -7.0550    5.7750  -15.8150 C   0  0  0  0  0  0  0  0  0  0  0  0
   -8.0250    5.3820  -16.8830 C   0  0  0  0  0  0  0  0  0  0  0  0
   -7.7150    5.2310  -18.2230 C   0  0  0  0  0  0  0  0  0  0  0  0
   -8.8740    4.8460  -18.9730 C   0  0  0  0  0  0  0  0  0  0  0  0
   -9.9900    4.7300  -18.1790 C   0  0  0  0  0  0  0  0  0  0  0  0
   -9.6440    5.0780  -16.5430 S   0  0  0  0  0  0  0  0  0  0  0  0
   -6.3140    5.4580  -18.7510 C   0  0  0  0  0  0  0  0  0  0  0  0
   -6.2820    6.4700  -19.8880 C   0  0  0  0  0  0  0  0  0  0  0  0
   -3.2660    4.9630  -16.8050 O   0  0  0  0  0  0  0  0  0  0  0  0
   -3.4090    5.4860  -19.1020 C   0  0  0  0  0  0  0  0  0  0  0  0
   -5.0260    6.5380  -15.7730 H   0  0  0  0  0  0  0  0  0  0  0  0
   -6.1060    7.4400  -16.8230 H   0  0  0  0  0  0  0  0  0  0  0  0
   -6.7380    4.8750  -15.2780 H   0  0  0  0  0  0  0  0  0  0  0  0
   -7.5060    6.4660  -15.0930 H   0  0  0  0  0  0  0  0  0  0  0  0
   -8.8940    4.6620  -20.0430 H   0  0  0  0  0  0  0  0  0  0  0  0
  -10.9910    4.4580  -18.4750 H   0  0  0  0  0  0  0  0  0  0  0  0
   -6.0170    4.5270  -19.2360 H   0  0  0  0  0  0  0  0  0  0  0  0
   -5.4250    7.1440  -19.7950 H   0  0  0  0  0  0  0  0  0  0  0  0
   -6.2520    5.9900  -20.8710 H   0  0  0  0  0  0  0  0  0  0  0  0
   -7.1870    7.0870  -19.8780 H   0  0  0  0  0  0  0  0  0  0  0  0
   -2.5850    4.7830  -19.2480 H   0  0  0  0  0  0  0  0  0  0  0  0
   -3.0760    6.5150  -19.2470 H   0  0  0  0  0  0  0  0  0  0  0  0
   -4.1740    5.2710  -19.8560 H   0  0  0  0  0  0  0  0  0  0  0  0
  1  2  1  0
  2  3  1  0
  3  4  1  0
  4  5  1  0
  5  6  2  0
  6  7  1  0
  7  8  2  0
  8  9  1  0
  6 10  1  0
 10 11  1  0
  1 12  2  0
  1 13  1  0
 10  2  1  0
  9  5  1  0
  3 14  1  0
  3 15  1  0
  4 16  1  0
  4 17  1  0
  7 18  1  0
  8 19  1  0
 10 20  1  0
 11 21  1  0
 11 22  1  0
 11 23  1  0
 13 24  1  0
 13 25  1  0
 13 26  1  0
A    1
 C1 
A    2
 N1 
A    3
 C2 
A    4
 C3 
A    5
 C4 
A    6
 C5 
A    7
 C6 
A    8
 C7 
A    9
 S1 
A   10
 C8 
A   11
 C9 
A   12
 O1 
A   13
 C10
A   14
 H1 
A   15
 H2 
A   16
 H3 
A   17
 H4 
A   18
 H5 
A   19
 H6 
A   20
 H7 
A   21
 H8 
A   22
 H9 
A   23
 H10
A   24
 H11
A   25
 H12
A   26
 H13
M  END
>  <ref_pdb>  (98) 
x0051_0B

>  <ref_mols>  (98) 
x0472_0B,x0386_0B

>  <original SMILES>  (98) 
[H]c1sc2c(c1[H])C([H])(C([H])([H])[H])N(C(=O)C([H])([H])[H])C([H])([H])C2([H])[H]

>  <index>  (98) 
156

>  <∆∆G>  (98) 
-7.939358

>  <∆G_bound>  (98) 
-8.014017

>  <∆G_unbound>  (98) 
-0.074659

>  <comRMSD>  (98) 
0.445265

>  <N_constrained_atoms>  (98) 
13.0

>  <N_unconstrained_atoms>  (98) 
0.0

>  <runtime>  (98) 
26.064494

>  <LE>  (98) 
0.61072

>  <percent_hybrid>  (98) 
15.0

>  <dist>  (98) 
4.0

>  <ecfp4>  (98) 
0.4

>  <daylight>  (98) 
0.686131

>  <topodist>  (98) 
1.0

>  <mces>  (98) 
14.0

>  <tdn>  (98) 
1.0

>  <tup>  (98) 
0.0

>  <rdn>  (98) 
0.0

>  <rup>  (98) 
0.0

>  <ldn>  (98) 
0.0

>  <lup>  (98) 
0.0

>  <mut>  (98) 
2.0

>  <maj>  (98) 
2.0

>  <min>  (98) 
0.0

>  <hyb>  (98) 
1.0

>  <sub>  (98) 
1.0

>  <query_index>  (98) 
75.0

>  <max_hit_Tanimoto>  (98) 
0.598621

>  <largest_ring>  (98) 
0

>  <N_interactions_kept>  (98) 
3.0

>  <N_interactions_lost>  (98) 
0.0

>  <interaction_uniqueness_metric>  (98) 
0.013281

>  <ad_hoc_penalty>  (98) 
-29.054467

>  <N_rotatable_bonds>  (98) 
2

>  <N_HA>  (98) 
13

>  <cluster>  (98) 
6076

>  <N_interactions>  (98) 
2

>  <Enamine>  (98) 
0

>  <Mcule>  (98) 
1

>  <N_PAINS>  (98) 
0

>  <UFF_Gibbs>  (98) 
28.961988

>  <strain_per_HA>  (98) 
2.227845

>  <saltbridge:HIS:51>  (98) 
0

>  <pistack:HIS:51>  (98) 
0

>  <hydroph_interaction:HIS:51>  (98) 
0

>  <hbond:ALA:132>  (98) 
0

>  <hbond:SER:135>  (98) 
0

>  <hydroph_interaction:TYR:150>  (98) 
0

>  <pistack:TYR:161>  (98) 
0

>  <hydroph_interaction:TYR:161>  (98) 
2

>  <hydroph_interaction:ASP:83>  (98) 
0

>  <hbond:TYR:130>  (98) 
0

>  <hydroph_interaction:ALA:132>  (98) 
0

>  <hbond:HIS:51>  (98) 
0

>  <hbond:ASP:129>  (98) 
0

>  <hbond:TYR:150>  (98) 
0

>  <hbond:GLY:151>  (98) 
0

>  <hbond:TYR:161>  (98) 
0

>  <hydroph_interaction:TYR:130>  (98) 
0

>  <hydroph_interaction:PRO:131>  (98) 
0

>  <hydroph_interaction:ASP:129>  (98) 
0

>  <saltbridge:ASP:75>  (98) 
0

>  <saltbridge:ASP:83>  (98) 
0

>  <hydroph_interaction:ASN:152>  (98) 
0

>  <halogenbond:TYR:150>  (98) 
0

>  <hbond:ASP:83>  (98) 
0

>  <hydroph_interaction:VAL:155>  (98) 
0

>  <pication:TYR:161>  (98) 
0

>  <hbond:PRO:131>  (98) 
0

>  <hbond:LEU:128>  (98) 
0

>  <saltbridge:ASP:129>  (98) 
0

>  <hbond:THR:134>  (98) 
0

>  <pication:HIS:51>  (98) 
0

>  <hbond:SER:81>  (98) 
0

>  <hbond:GLY:159>  (98) 
0

>  <hydroph_interaction:PRO:101>  (98) 
0

>  <hydroph_interaction:THR:134>  (98) 
0

>  <hbond:GLY:82>  (98) 
0

>  <hydroph_interaction:GLU:104>  (98) 
0

>  <hydroph_interaction:VAL:36>  (98) 
0

>  <hydroph_interaction:MET:49>  (98) 
0

>  <halogenbond:GLU:104>  (98) 
0

>  <hydroph_interaction:LYS:107>  (98) 
0

$$$$
MCULE-6944238997
     RDKit          3D

 21 22  0  0  0  0  0  0  0  0999 V2000
   -7.9940    5.4350  -16.8000 N   0  0  0  0  0  0  0  0  0  0  0  0
   -9.2430    5.2750  -16.5640 C   0  0  0  0  0  0  0  0  0  0  0  0
   -9.8400    5.5300  -14.9780 Cl  0  0  0  0  0  0  0  0  0  0  0  0
  -10.2360    4.8130  -17.8810 S   0  0  0  0  0  0  0  0  0  0  0  0
   -8.8780    4.8140  -18.9280 C   0  0  0  0  0  0  0  0  0  0  0  0
   -7.7640    5.1640  -18.1930 C   0  0  0  0  0  0  0  0  0  0  0  0
   -6.3550    5.2750  -18.7000 C   0  0  0  0  0  0  0  0  0  0  0  0
   -6.1400    5.2460  -20.1910 C   0  0  0  0  0  0  0  0  0  0  0  0
   -4.8430    5.3350  -20.6710 C   0  0  0  0  0  0  0  0  0  0  0  0
   -3.7630    5.4470  -19.7750 C   0  0  0  0  0  0  0  0  0  0  0  0
   -3.9830    5.4740  -18.3870 C   0  0  0  0  0  0  0  0  0  0  0  0
   -5.2600    5.3930  -17.8340 C   0  0  0  0  0  0  0  0  0  0  0  0
   -5.4040    5.4270  -16.4520 C   0  0  0  0  0  0  0  0  0  0  0  0
   -8.9620    4.5640  -19.9960 H   0  0  0  0  0  0  0  0  0  0  0  0
   -6.9780    5.1550  -20.8810 H   0  0  0  0  0  0  0  0  0  0  0  0
   -4.6650    5.3130  -21.7440 H   0  0  0  0  0  0  0  0  0  0  0  0
   -2.7460    5.5130  -20.1590 H   0  0  0  0  0  0  0  0  0  0  0  0
   -3.1200    5.5610  -17.7330 H   0  0  0  0  0  0  0  0  0  0  0  0
   -6.1260    4.6800  -16.1150 H   0  0  0  0  0  0  0  0  0  0  0  0
   -4.4590    5.1950  -15.9480 H   0  0  0  0  0  0  0  0  0  0  0  0
   -5.7260    6.4220  -16.1320 H   0  0  0  0  0  0  0  0  0  0  0  0
  1  2  2  0
  2  3  1  0
  2  4  1  0
  4  5  1  0
  5  6  2  0
  6  7  1  0
  7  8  2  0
  8  9  1  0
  9 10  2  0
 10 11  1  0
 11 12  2  0
 12 13  1  0
  6  1  1  0
  7 12  1  0
  5 14  1  0
  8 15  1  0
  9 16  1  0
 10 17  1  0
 11 18  1  0
 13 19  1  0
 13 20  1  0
 13 21  1  0
A    1
 N1 
A    2
 C1 
A    3
CL1 
A    4
 S1 
A    5
 C2 
A    6
 C3 
A    7
 C4 
A    8
 C5 
A    9
 C6 
A   10
 C7 
A   11
 C8 
A   12
 C9 
A   13
 C10
A   14
 H1 
A   15
 H2 
A   16
 H3 
A   17
 H4 
A   18
 H5 
A   19
 H6 
A   20
 H7 
A   21
 H8 
M  END
>  <ref_pdb>  (99) 
x0051_0B

>  <ref_mols>  (99) 
x0680_0B,x0386_0B

>  <original SMILES>  (99) 
[H]c1sc(Cl)nc1-c1c([H])c([H])c([H])c([H])c1C([H])([H])[H]

>  <index>  (99) 
149

>  <∆∆G>  (99) 
-6.691587

>  <∆G_bound>  (99) 
-6.829613

>  <∆G_unbound>  (99) 
-0.138026

>  <comRMSD>  (99) 
0.659682

>  <N_constrained_atoms>  (99) 
12.0

>  <N_unconstrained_atoms>  (99) 
1.0

>  <runtime>  (99) 
26.406347

>  <LE>  (99) 
0.514737

>  <percent_hybrid>  (99) 
17.0

>  <dist>  (99) 
3.0

>  <ecfp4>  (99) 
0.26

>  <daylight>  (99) 
0.2

>  <topodist>  (99) 
1.0

>  <mces>  (99) 
13.0

>  <tdn>  (99) 
0.0

>  <tup>  (99) 
1.0

>  <rdn>  (99) 
0.0

>  <rup>  (99) 
0.0

>  <ldn>  (99) 
0.0

>  <lup>  (99) 
0.0

>  <mut>  (99) 
2.0

>  <maj>  (99) 
1.0

>  <min>  (99) 
1.0

>  <hyb>  (99) 
0.0

>  <sub>  (99) 
1.0

>  <query_index>  (99) 
296.0

>  <max_hit_Tanimoto>  (99) 
0.11437

>  <largest_ring>  (99) 
0

>  <N_interactions_kept>  (99) 
3.5

>  <N_interactions_lost>  (99) 
0.5

>  <interaction_uniqueness_metric>  (99) 
0.018782

>  <ad_hoc_penalty>  (99) 
-28.865152

>  <N_rotatable_bonds>  (99) 
2

>  <N_HA>  (99) 
13

>  <cluster>  (99) 
6082

>  <N_interactions>  (99) 
4

>  <Enamine>  (99) 
0

>  <Mcule>  (99) 
1

>  <N_PAINS>  (99) 
0

>  <UFF_Gibbs>  (99) 
33.795034

>  <strain_per_HA>  (99) 
2.599618

>  <saltbridge:HIS:51>  (99) 
0

>  <pistack:HIS:51>  (99) 
0

>  <hydroph_interaction:HIS:51>  (99) 
0

>  <hbond:ALA:132>  (99) 
0

>  <hbond:SER:135>  (99) 
0

>  <hydroph_interaction:TYR:150>  (99) 
0

>  <pistack:TYR:161>  (99) 
0

>  <hydroph_interaction:TYR:161>  (99) 
4

>  <hydroph_interaction:ASP:83>  (99) 
0

>  <hbond:TYR:130>  (99) 
0

>  <hydroph_interaction:ALA:132>  (99) 
0

>  <hbond:HIS:51>  (99) 
0

>  <hbond:ASP:129>  (99) 
0

>  <hbond:TYR:150>  (99) 
0

>  <hbond:GLY:151>  (99) 
0

>  <hbond:TYR:161>  (99) 
0

>  <hydroph_interaction:TYR:130>  (99) 
0

>  <hydroph_interaction:PRO:131>  (99) 
0

>  <hydroph_interaction:ASP:129>  (99) 
0

>  <saltbridge:ASP:75>  (99) 
0

>  <saltbridge:ASP:83>  (99) 
0

>  <hydroph_interaction:ASN:152>  (99) 
0

>  <halogenbond:TYR:150>  (99) 
0

>  <hbond:ASP:83>  (99) 
0

>  <hydroph_interaction:VAL:155>  (99) 
0

>  <pication:TYR:161>  (99) 
0

>  <hbond:PRO:131>  (99) 
0

>  <hbond:LEU:128>  (99) 
0

>  <saltbridge:ASP:129>  (99) 
0

>  <hbond:THR:134>  (99) 
0

>  <pication:HIS:51>  (99) 
0

>  <hbond:SER:81>  (99) 
0

>  <hbond:GLY:159>  (99) 
0

>  <hydroph_interaction:PRO:101>  (99) 
0

>  <hydroph_interaction:THR:134>  (99) 
0

>  <hbond:GLY:82>  (99) 
0

>  <hydroph_interaction:GLU:104>  (99) 
0

>  <hydroph_interaction:VAL:36>  (99) 
0

>  <hydroph_interaction:MET:49>  (99) 
0

>  <halogenbond:GLU:104>  (99) 
0

>  <hydroph_interaction:LYS:107>  (99) 
0

$$$$
YNWMZRNWSADURW-UHFFFAOYSA-N
     RDKit          3D

 48 51  0  0  0  0  0  0  0  0999 V2000
   -9.0360    7.2540  -13.9480 C   0  0  0  0  0  0  0  0  0  0  0  0
   -7.8460    7.3280  -14.5850 N   0  0  0  0  0  0  0  0  0  0  0  0
   -7.4220    5.9410  -14.9090 C   0  0  0  0  0  0  0  0  0  0  0  0
   -8.0900    5.5270  -16.2360 C   0  0  0  0  0  0  0  0  0  0  0  0
   -7.1290    5.4960  -17.4040 C   0  0  0  0  0  0  0  0  0  0  0  0
   -7.7660    5.1200  -18.7210 C   0  0  0  0  0  0  0  0  0  0  0  0
   -6.8320    5.0860  -19.9320 C   0  0  0  0  0  0  0  0  0  0  0  0
   -5.3470    5.4170  -19.7070 C   0  0  0  0  0  0  0  0  0  0  0  0
   -4.9130    5.7380  -18.4230 C   0  0  0  0  0  0  0  0  0  0  0  0
   -5.7580    5.7790  -17.3230 C   0  0  0  0  0  0  0  0  0  0  0  0
   -9.1280    4.8210  -18.8280 C   0  0  0  0  0  0  0  0  0  0  0  0
  -10.0150    4.8660  -17.5880 C   0  0  0  0  0  0  0  0  0  0  0  0
   -9.4630    5.2170  -16.3550 C   0  0  0  0  0  0  0  0  0  0  0  0
  -10.0680    7.6910  -14.4080 O   0  0  0  0  0  0  0  0  0  0  0  0
   -8.9800    6.5660  -12.6460 C   0  0  0  0  0  0  0  0  0  0  0  0
   -8.8180    7.2120  -11.3140 C   0  0  0  0  0  0  0  0  0  0  0  0
   -8.6830    8.9240  -11.0860 Cl  0  0  0  0  0  0  0  0  0  0  0  0
   -8.7670    6.4210  -10.1750 C   0  0  0  0  0  0  0  0  0  0  0  0
   -8.8650    5.0190  -10.2590 C   0  0  0  0  0  0  0  0  0  0  0  0
   -8.8090    4.2380   -9.1380 N   0  0  0  0  0  0  0  0  0  0  0  0
   -9.0510    2.7890   -9.2190 C   0  0  0  0  0  0  0  0  0  0  0  0
   -9.7020    2.3180   -7.9180 C   0  0  0  0  0  0  0  0  0  0  0  0
   -8.9610    2.6980   -6.7600 O   0  0  0  0  0  0  0  0  0  0  0  0
   -8.8140    4.1090   -6.6690 C   0  0  0  0  0  0  0  0  0  0  0  0
   -8.1500    4.7170   -7.9100 C   0  0  0  0  0  0  0  0  0  0  0  0
   -9.0230    4.4300  -11.5250 C   0  0  0  0  0  0  0  0  0  0  0  0
   -9.0810    5.1780  -12.6970 C   0  0  0  0  0  0  0  0  0  0  0  0
   -7.1440    7.9870  -14.2720 H   0  0  0  0  0  0  0  0  0  0  0  0
   -6.3310    5.8800  -15.0220 H   0  0  0  0  0  0  0  0  0  0  0  0
   -7.6850    5.2670  -14.0880 H   0  0  0  0  0  0  0  0  0  0  0  0
   -7.1930    4.8290  -20.9260 H   0  0  0  0  0  0  0  0  0  0  0  0
   -4.6480    5.3980  -20.5400 H   0  0  0  0  0  0  0  0  0  0  0  0
   -3.8620    5.9690  -18.2740 H   0  0  0  0  0  0  0  0  0  0  0  0
   -5.3060    6.0460  -16.3720 H   0  0  0  0  0  0  0  0  0  0  0  0
   -9.5650    4.5530  -19.7870 H   0  0  0  0  0  0  0  0  0  0  0  0
  -11.0730    4.6300  -17.6710 H   0  0  0  0  0  0  0  0  0  0  0  0
  -10.1110    5.2500  -15.4790 H   0  0  0  0  0  0  0  0  0  0  0  0
   -8.6470    6.9090   -9.2110 H   0  0  0  0  0  0  0  0  0  0  0  0
   -9.7330    2.5390  -10.0430 H   0  0  0  0  0  0  0  0  0  0  0  0
   -8.0960    2.2690   -9.3740 H   0  0  0  0  0  0  0  0  0  0  0  0
   -9.8030    1.2350   -7.9120 H   0  0  0  0  0  0  0  0  0  0  0  0
  -10.7120    2.7330   -7.8200 H   0  0  0  0  0  0  0  0  0  0  0  0
   -8.2190    4.3220   -5.7740 H   0  0  0  0  0  0  0  0  0  0  0  0
   -9.8130    4.5420   -6.5180 H   0  0  0  0  0  0  0  0  0  0  0  0
   -8.2180    5.8070   -7.8690 H   0  0  0  0  0  0  0  0  0  0  0  0
   -7.0970    4.4210   -7.8900 H   0  0  0  0  0  0  0  0  0  0  0  0
   -9.1050    3.3490  -11.6270 H   0  0  0  0  0  0  0  0  0  0  0  0
   -9.2040    4.6640  -13.6520 H   0  0  0  0  0  0  0  0  0  0  0  0
  1  2  1  0
  2  3  1  0
  3  4  1  0
  4  5  1  0
  5  6  1  0
  6  7  2  0
  7  8  1  0
  8  9  2  0
  9 10  1  0
  6 11  1  0
 11 12  2  0
 12 13  1  0
  1 14  2  0
  1 15  1  0
 15 16  2  0
 16 17  1  0
 16 18  1  0
 18 19  2  0
 19 20  1  0
 20 21  1  0
 21 22  1  0
 22 23  1  0
 23 24  1  0
 24 25  1  0
 19 26  1  0
 26 27  2  0
  4 13  2  0
  5 10  2  0
 27 15  1  0
 25 20  1  0
  2 28  1  0
  3 29  1  0
  3 30  1  0
  7 31  1  0
  8 32  1  0
  9 33  1  0
 10 34  1  0
 11 35  1  0
 12 36  1  0
 13 37  1  0
 18 38  1  0
 21 39  1  0
 21 40  1  0
 22 41  1  0
 22 42  1  0
 24 43  1  0
 24 44  1  0
 25 45  1  0
 25 46  1  0
 26 47  1  0
 27 48  1  0
A    1
 C1 
A    2
 N1 
A    3
 C2 
A    4
 C3 
A    5
 C4 
A    6
 C5 
A    7
 C6 
A    8
 C7 
A    9
 C8 
A   10
 C9 
A   11
 C10
A   12
 C11
A   13
 C12
A   14
 O1 
A   15
 C13
A   16
 C14
A   17
CL1 
A   18
 C15
A   19
 C16
A   20
 N2 
A   21
 C17
A   22
 C18
A   23
 O2 
A   24
 C19
A   25
 C20
A   26
 C21
A   27
 C22
A   28
 H1 
A   29
 H2 
A   30
 H3 
A   31
 H4 
A   32
 H5 
A   33
 H6 
A   34
 H7 
A   35
 H8 
A   36
 H9 
A   37
 H10
A   38
 H11
A   39
 H12
A   40
 H13
A   41
 H14
A   42
 H15
A   43
 H16
A   44
 H17
A   45
 H18
A   46
 H19
A   47
 H20
A   48
 H21
M  END
>  <ref_pdb>  (100) 
x0051_0B

>  <ref_mols>  (100) 
x0727_0B,x0404_0B

>  <original SMILES>  (100) 
[H]c1c([H])c(N2C([H])([H])C([H])([H])OC([H])([H])C2([H])[H])c([H])c(Cl)c1C(=O)N([H])C([H])([H])c1c([H])c([H])c([H])c2c([H])c([H])c([H])c([H])c12

>  <index>  (100) 
94

>  <∆∆G>  (100) 
-8.695405

>  <∆G_bound>  (100) 
-7.893189

>  <∆G_unbound>  (100) 
0.802216

>  <comRMSD>  (100) 
0.590381

>  <N_constrained_atoms>  (100) 
26.0

>  <N_unconstrained_atoms>  (100) 
2.0

>  <runtime>  (100) 
80.23446

>  <LE>  (100) 
0.31055

>  <percent_hybrid>  (100) 
43.0

>  <dist>  (100) 
9.0

>  <ecfp4>  (100) 
0.195402

>  <daylight>  (100) 
0.174107

>  <topodist>  (100) 
4.0

>  <mces>  (100) 
29.0

>  <tdn>  (100) 
3.0

>  <tup>  (100) 
1.0

>  <rdn>  (100) 
0.0

>  <rup>  (100) 
0.0

>  <ldn>  (100) 
0.0

>  <lup>  (100) 
0.0

>  <mut>  (100) 
4.0

>  <maj>  (100) 
4.0

>  <min>  (100) 
0.0

>  <hyb>  (100) 
1.0

>  <sub>  (100) 
2.0

>  <query_index>  (100) 
0.0

>  <max_hit_Tanimoto>  (100) 
0.216931

>  <largest_ring>  (100) 
0

>  <N_interactions_kept>  (100) 
2.0

>  <N_interactions_lost>  (100) 
2.5

>  <interaction_uniqueness_metric>  (100) 
0.122046

>  <ad_hoc_penalty>  (100) 
-28.689966

>  <N_rotatable_bonds>  (100) 
4

>  <N_HA>  (100) 
27

>  <cluster>  (100) 
6130

>  <N_interactions>  (100) 
8

>  <Enamine>  (100) 
0

>  <Mcule>  (100) 
1

>  <N_PAINS>  (100) 
0

>  <UFF_Gibbs>  (100) 
195.860594

>  <strain_per_HA>  (100) 
7.254096

>  <saltbridge:HIS:51>  (100) 
0

>  <pistack:HIS:51>  (100) 
1

>  <hydroph_interaction:HIS:51>  (100) 
1

>  <hbond:ALA:132>  (100) 
0

>  <hbond:SER:135>  (100) 
0

>  <hydroph_interaction:TYR:150>  (100) 
1

>  <pistack:TYR:161>  (100) 
0

>  <hydroph_interaction:TYR:161>  (100) 
4

>  <hydroph_interaction:ASP:83>  (100) 
0

>  <hbond:TYR:130>  (100) 
0

>  <hydroph_interaction:ALA:132>  (100) 
1

>  <hbond:HIS:51>  (100) 
0

>  <hbond:ASP:129>  (100) 
0

>  <hbond:TYR:150>  (100) 
0

>  <hbond:GLY:151>  (100) 
0

>  <hbond:TYR:161>  (100) 
0

>  <hydroph_interaction:TYR:130>  (100) 
0

>  <hydroph_interaction:PRO:131>  (100) 
0

>  <hydroph_interaction:ASP:129>  (100) 
0

>  <saltbridge:ASP:75>  (100) 
0

>  <saltbridge:ASP:83>  (100) 
0

>  <hydroph_interaction:ASN:152>  (100) 
0

>  <halogenbond:TYR:150>  (100) 
0

>  <hbond:ASP:83>  (100) 
0

>  <hydroph_interaction:VAL:155>  (100) 
0

>  <pication:TYR:161>  (100) 
0

>  <hbond:PRO:131>  (100) 
0

>  <hbond:LEU:128>  (100) 
0

>  <saltbridge:ASP:129>  (100) 
0

>  <hbond:THR:134>  (100) 
0

>  <pication:HIS:51>  (100) 
0

>  <hbond:SER:81>  (100) 
0

>  <hbond:GLY:159>  (100) 
0

>  <hydroph_interaction:PRO:101>  (100) 
0

>  <hydroph_interaction:THR:134>  (100) 
0

>  <hbond:GLY:82>  (100) 
0

>  <hydroph_interaction:GLU:104>  (100) 
0

>  <hydroph_interaction:VAL:36>  (100) 
0

>  <hydroph_interaction:MET:49>  (100) 
0

>  <halogenbond:GLU:104>  (100) 
0

>  <hydroph_interaction:LYS:107>  (100) 
0

$$$$
PV-003810011278
     RDKit          3D

 40 43  0  0  0  0  0  0  0  0999 V2000
   -8.2700    7.3730  -13.3150 O   0  0  0  0  0  0  0  0  0  0  0  0
   -8.4060    6.2090  -13.6780 C   0  0  0  0  0  0  0  0  0  0  0  0
   -8.6870    5.0810  -12.7320 N   0  0  0  0  0  0  0  0  0  0  0  0
   -8.7490    5.4200  -11.2540 C   0  0  0  0  0  0  0  0  0  0  0  0
   -8.9870    4.3340  -10.1940 C   0  0  0  0  0  0  0  0  0  0  0  0
   -9.1840    2.8460  -10.4570 C   0  0  0  0  0  0  0  0  0  0  0  0
   -9.4120    2.0180   -9.1930 C   0  0  0  0  0  0  0  0  0  0  0  0
   -9.4130    2.7840   -7.8530 C   0  0  0  0  0  0  0  0  0  0  0  0
   -9.1930    4.2520   -7.7980 N   0  0  0  0  0  0  0  0  0  0  0  0
   -9.0030    4.8820   -8.9900 N   0  0  0  0  0  0  0  0  0  0  0  0
   -8.8020    6.2270   -9.0550 N   0  0  0  0  0  0  0  0  0  0  0  0
   -8.6510    6.5530  -10.3960 C   0  0  0  0  0  0  0  0  0  0  0  0
   -8.2920    5.8830  -15.1420 C   0  0  0  0  0  0  0  0  0  0  0  0
   -9.2730    5.0910  -15.9910 C   0  0  0  0  0  0  0  0  0  0  0  0
   -8.6950    5.0120  -17.6030 S   0  0  0  0  0  0  0  0  0  0  0  0
   -7.2950    5.9500  -17.1990 C   0  0  0  0  0  0  0  0  0  0  0  0
   -6.2460    6.3240  -18.2510 C   0  0  0  0  0  0  0  0  0  0  0  0
   -6.7910    6.9040  -19.5070 C   0  0  0  0  0  0  0  0  0  0  0  0
   -5.8280    6.6970  -20.6940 C   0  0  0  0  0  0  0  0  0  0  0  0
   -4.3670    6.7420  -20.2580 C   0  0  0  0  0  0  0  0  0  0  0  0
   -4.0370    5.6860  -19.2100 C   0  0  0  0  0  0  0  0  0  0  0  0
   -5.3210    5.1600  -18.5850 C   0  0  0  0  0  0  0  0  0  0  0  0
   -7.2000    6.3290  -15.9180 N   0  0  0  0  0  0  0  0  0  0  0  0
   -8.1110    4.2780  -12.9870 H   0  0  0  0  0  0  0  0  0  0  0  0
   -9.1460    2.5060  -11.4900 H   0  0  0  0  0  0  0  0  0  0  0  0
   -9.5680    0.9540   -9.1810 H   0  0  0  0  0  0  0  0  0  0  0  0
   -9.5560    2.3810   -6.8650 H   0  0  0  0  0  0  0  0  0  0  0  0
   -8.4830    7.5860  -10.6610 H   0  0  0  0  0  0  0  0  0  0  0  0
  -10.2020    4.6280  -15.6870 H   0  0  0  0  0  0  0  0  0  0  0  0
   -5.6170    7.1140  -17.8200 H   0  0  0  0  0  0  0  0  0  0  0  0
   -7.7480    6.4230  -19.7390 H   0  0  0  0  0  0  0  0  0  0  0  0
   -6.9890    7.9700  -19.4090 H   0  0  0  0  0  0  0  0  0  0  0  0
   -6.0350    5.7380  -21.1850 H   0  0  0  0  0  0  0  0  0  0  0  0
   -6.0090    7.4740  -21.4470 H   0  0  0  0  0  0  0  0  0  0  0  0
   -4.1440    7.7420  -19.8670 H   0  0  0  0  0  0  0  0  0  0  0  0
   -3.7130    6.5940  -21.1270 H   0  0  0  0  0  0  0  0  0  0  0  0
   -3.4730    4.8700  -19.6710 H   0  0  0  0  0  0  0  0  0  0  0  0
   -3.3890    6.1190  -18.4420 H   0  0  0  0  0  0  0  0  0  0  0  0
   -5.0800    4.5660  -17.6950 H   0  0  0  0  0  0  0  0  0  0  0  0
   -5.8320    4.5050  -19.2940 H   0  0  0  0  0  0  0  0  0  0  0  0
  1  2  2  0
  2  3  1  0
  3  4  1  0
  4  5  2  0
  5  6  1  0
  6  7  2  0
  7  8  1  0
  8  9  2  0
  9 10  1  0
 10 11  1  0
 11 12  2  0
  2 13  1  0
 13 14  2  0
 14 15  1  0
 15 16  1  0
 16 17  1  0
 17 18  1  0
 18 19  1  0
 19 20  1  0
 20 21  1  0
 21 22  1  0
 16 23  2  0
 12  4  1  0
 10  5  1  0
 23 13  1  0
 22 17  1  0
  3 24  1  0
  6 25  1  0
  7 26  1  0
  8 27  1  0
 12 28  1  0
 14 29  1  0
 17 30  1  0
 18 31  1  0
 18 32  1  0
 19 33  1  0
 19 34  1  0
 20 35  1  0
 20 36  1  0
 21 37  1  0
 21 38  1  0
 22 39  1  0
 22 40  1  0
A    1
 O1 
A    2
 C1 
A    3
 N1 
A    4
 C2 
A    5
 C3 
A    6
 C4 
A    7
 C5 
A    8
 C6 
A    9
 N2 
A   10
 N3 
A   11
 N4 
A   12
 C7 
A   13
 C8 
A   14
 C9 
A   15
 S1 
A   16
 C10
A   17
 C11
A   18
 C12
A   19
 C13
A   20
 C14
A   21
 C15
A   22
 C16
A   23
 N5 
A   24
 H1 
A   25
 H2 
A   26
 H3 
A   27
 H4 
A   28
 H5 
A   29
 H6 
A   30
 H7 
A   31
 H8 
A   32
 H9 
A   33
 H10
A   34
 H11
A   35
 H12
A   36
 H13
A   37
 H14
A   38
 H15
A   39
 H16
A   40
 H17
M  END
>  <ref_pdb>  (101) 
x0051_0B

>  <ref_mols>  (101) 
x0917_1B,x0969_1B

>  <original SMILES>  (101) 
[H]c1nn2nc([H])c(N([H])C(=O)c3nc(C4([H])C([H])([H])C([H])([H])C([H])([H])C([H])([H])C4([H])[H])sc3[H])c2c([H])c1[H]

>  <index>  (101) 
131

>  <∆∆G>  (101) 
-5.20595

>  <∆G_bound>  (101) 
-4.153176

>  <∆G_unbound>  (101) 
1.052774

>  <comRMSD>  (101) 
0.679352

>  <N_constrained_atoms>  (101) 
24.0

>  <N_unconstrained_atoms>  (101) 
0.0

>  <runtime>  (101) 
49.236144

>  <LE>  (101) 
0.216915

>  <percent_hybrid>  (101) 
40.0

>  <dist>  (101) 
11.0

>  <ecfp4>  (101) 
0.164835

>  <daylight>  (101) 
0.194805

>  <topodist>  (101) 
2.0

>  <mces>  (101) 
26.0

>  <tdn>  (101) 
2.0

>  <tup>  (101) 
0.0

>  <rdn>  (101) 
0.0

>  <rup>  (101) 
0.0

>  <ldn>  (101) 
0.0

>  <lup>  (101) 
0.0

>  <mut>  (101) 
6.0

>  <maj>  (101) 
6.0

>  <min>  (101) 
0.0

>  <hyb>  (101) 
3.0

>  <sub>  (101) 
0.0

>  <query_index>  (101) 
298.0

>  <max_hit_Tanimoto>  (101) 
0.252297

>  <largest_ring>  (101) 
0

>  <N_interactions_kept>  (101) 
2.5

>  <N_interactions_lost>  (101) 
0.5

>  <interaction_uniqueness_metric>  (101) 
0.1011

>  <ad_hoc_penalty>  (101) 
-28.665993

>  <N_rotatable_bonds>  (101) 
3

>  <N_HA>  (101) 
23

>  <cluster>  (101) 
6097

>  <N_interactions>  (101) 
5

>  <Enamine>  (101) 
1

>  <Mcule>  (101) 
0

>  <N_PAINS>  (101) 
0

>  <UFF_Gibbs>  (101) 
115.601597

>  <strain_per_HA>  (101) 
5.026156

>  <saltbridge:HIS:51>  (101) 
0

>  <pistack:HIS:51>  (101) 
1

>  <hydroph_interaction:HIS:51>  (101) 
0

>  <hbond:ALA:132>  (101) 
0

>  <hbond:SER:135>  (101) 
0

>  <hydroph_interaction:TYR:150>  (101) 
0

>  <pistack:TYR:161>  (101) 
0

>  <hydroph_interaction:TYR:161>  (101) 
2

>  <hydroph_interaction:ASP:83>  (101) 
0

>  <hbond:TYR:130>  (101) 
0

>  <hydroph_interaction:ALA:132>  (101) 
1

>  <hbond:HIS:51>  (101) 
0

>  <hbond:ASP:129>  (101) 
0

>  <hbond:TYR:150>  (101) 
0

>  <hbond:GLY:151>  (101) 
1

>  <hbond:TYR:161>  (101) 
0

>  <hydroph_interaction:TYR:130>  (101) 
0

>  <hydroph_interaction:PRO:131>  (101) 
0

>  <hydroph_interaction:ASP:129>  (101) 
0

>  <saltbridge:ASP:75>  (101) 
0

>  <saltbridge:ASP:83>  (101) 
0

>  <hydroph_interaction:ASN:152>  (101) 
0

>  <halogenbond:TYR:150>  (101) 
0

>  <hbond:ASP:83>  (101) 
0

>  <hydroph_interaction:VAL:155>  (101) 
0

>  <pication:TYR:161>  (101) 
0

>  <hbond:PRO:131>  (101) 
0

>  <hbond:LEU:128>  (101) 
0

>  <saltbridge:ASP:129>  (101) 
0

>  <hbond:THR:134>  (101) 
0

>  <pication:HIS:51>  (101) 
0

>  <hbond:SER:81>  (101) 
0

>  <hbond:GLY:159>  (101) 
0

>  <hydroph_interaction:PRO:101>  (101) 
0

>  <hydroph_interaction:THR:134>  (101) 
0

>  <hbond:GLY:82>  (101) 
0

>  <hydroph_interaction:GLU:104>  (101) 
0

>  <hydroph_interaction:VAL:36>  (101) 
0

>  <hydroph_interaction:MET:49>  (101) 
0

>  <halogenbond:GLU:104>  (101) 
0

>  <hydroph_interaction:LYS:107>  (101) 
0

$$$$
YWCZRRNVXJVEGY-UHFFFAOYSA-N
     RDKit          3D

 31 33  0  0  0  0  0  0  0  0999 V2000
   -5.5920    5.5240  -17.6600 N   0  0  0  0  0  0  0  0  0  0  0  0
   -4.2060    5.1700  -17.9710 C   0  0  0  0  0  0  0  0  0  0  0  0
   -3.5580    4.5170  -16.7500 C   0  0  0  0  0  0  0  0  0  0  0  0
   -2.6910    5.6410  -16.4920 C   0  0  0  0  0  0  0  0  0  0  0  0
   -3.1860    6.3940  -17.7500 C   0  0  0  0  0  0  0  0  0  0  0  0
   -6.4020    5.8780  -18.6940 C   0  0  0  0  0  0  0  0  0  0  0  0
   -6.2740    5.3750  -19.9850 C   0  0  0  0  0  0  0  0  0  0  0  0
   -7.7700    5.4650  -18.2180 C   0  0  0  0  0  0  0  0  0  0  0  0
   -8.1100    5.4830  -16.8640 C   0  0  0  0  0  0  0  0  0  0  0  0
   -9.6980    4.9980  -16.5760 S   0  0  0  0  0  0  0  0  0  0  0  0
  -10.0050    4.7250  -18.2380 C   0  0  0  0  0  0  0  0  0  0  0  0
   -8.8850    5.0190  -18.9970 C   0  0  0  0  0  0  0  0  0  0  0  0
   -7.1680    5.8940  -15.7850 C   0  0  0  0  0  0  0  0  0  0  0  0
   -5.8350    6.3290  -16.4270 C   0  0  0  0  0  0  0  0  0  0  0  0
   -4.0820    4.5980  -18.8870 H   0  0  0  0  0  0  0  0  0  0  0  0
   -2.9880    3.6340  -17.0140 H   0  0  0  0  0  0  0  0  0  0  0  0
   -4.2610    4.3320  -15.9350 H   0  0  0  0  0  0  0  0  0  0  0  0
   -2.9440    6.1610  -15.5610 H   0  0  0  0  0  0  0  0  0  0  0  0
   -1.6270    5.3800  -16.5300 H   0  0  0  0  0  0  0  0  0  0  0  0
   -2.5280    6.5390  -18.6010 H   0  0  0  0  0  0  0  0  0  0  0  0
   -3.5920    7.3730  -17.4750 H   0  0  0  0  0  0  0  0  0  0  0  0
   -6.4470    6.9670  -18.6490 H   0  0  0  0  0  0  0  0  0  0  0  0
   -6.9650    4.6020  -20.3130 H   0  0  0  0  0  0  0  0  0  0  0  0
   -5.2760    4.9560  -20.1500 H   0  0  0  0  0  0  0  0  0  0  0  0
   -6.3820    6.1920  -20.7060 H   0  0  0  0  0  0  0  0  0  0  0  0
  -10.9730    4.3800  -18.5700 H   0  0  0  0  0  0  0  0  0  0  0  0
   -8.9670    4.8810  -20.0780 H   0  0  0  0  0  0  0  0  0  0  0  0
   -7.6000    6.7380  -15.2370 H   0  0  0  0  0  0  0  0  0  0  0  0
   -6.9820    5.0620  -15.0960 H   0  0  0  0  0  0  0  0  0  0  0  0
   -5.9270    7.3750  -16.7040 H   0  0  0  0  0  0  0  0  0  0  0  0
   -4.9450    6.3040  -15.8060 H   0  0  0  0  0  0  0  0  0  0  0  0
  1  2  1  0
  2  3  1  0
  3  4  1  0
  4  5  1  0
  1  6  1  0
  6  7  1  0
  6  8  1  0
  8  9  2  0
  9 10  1  0
 10 11  1  0
 11 12  2  0
  9 13  1  0
 13 14  1  0
 14  1  1  0
  5  2  1  0
 12  8  1  0
  2 15  1  0
  3 16  1  0
  3 17  1  0
  4 18  1  0
  4 19  1  0
  5 20  1  0
  5 21  1  0
  6 22  1  0
  7 23  1  0
  7 24  1  0
  7 25  1  0
 11 26  1  0
 12 27  1  0
 13 28  1  0
 13 29  1  0
 14 30  1  0
 14 31  1  0
A    1
 N1 
A    2
 C1 
A    3
 C2 
A    4
 C3 
A    5
 C4 
A    6
 C5 
A    7
 C6 
A    8
 C7 
A    9
 C8 
A   10
 S1 
A   11
 C9 
A   12
 C10
A   13
 C11
A   14
 C12
A   15
 H1 
A   16
 H2 
A   17
 H3 
A   18
 H4 
A   19
 H5 
A   20
 H6 
A   21
 H7 
A   22
 H8 
A   23
 H9 
A   24
 H10
A   25
 H11
A   26
 H12
A   27
 H13
A   28
 H14
A   29
 H15
A   30
 H16
A   31
 H17
M  END
>  <ref_pdb>  (102) 
x0051_0B

>  <ref_mols>  (102) 
x0472_0B,x0386_0B

>  <original SMILES>  (102) 
[H]c1sc2c(c1[H])C([H])(C([H])([H])[H])N(C1([H])C([H])([H])C([H])([H])C1([H])[H])C([H])([H])C2([H])[H]

>  <index>  (102) 
121

>  <∆∆G>  (102) 
-6.425285

>  <∆G_bound>  (102) 
-6.393499

>  <∆G_unbound>  (102) 
0.031786

>  <comRMSD>  (102) 
0.709837

>  <N_constrained_atoms>  (102) 
14.0

>  <N_unconstrained_atoms>  (102) 
0.0

>  <runtime>  (102) 
22.237219

>  <LE>  (102) 
0.458949

>  <percent_hybrid>  (102) 
13.0

>  <dist>  (102) 
3.0

>  <ecfp4>  (102) 
0.468085

>  <daylight>  (102) 
0.712121

>  <topodist>  (102) 
1.0

>  <mces>  (102) 
15.0

>  <tdn>  (102) 
0.0

>  <tup>  (102) 
0.0

>  <rdn>  (102) 
0.0

>  <rup>  (102) 
1.0

>  <ldn>  (102) 
0.0

>  <lup>  (102) 
0.0

>  <mut>  (102) 
2.0

>  <maj>  (102) 
2.0

>  <min>  (102) 
0.0

>  <hyb>  (102) 
0.0

>  <sub>  (102) 
1.0

>  <query_index>  (102) 
75.0

>  <max_hit_Tanimoto>  (102) 
0.670571

>  <largest_ring>  (102) 
0

>  <N_interactions_kept>  (102) 
2.0

>  <N_interactions_lost>  (102) 
1.0

>  <interaction_uniqueness_metric>  (102) 
0.153242

>  <ad_hoc_penalty>  (102) 
-28.651936

>  <N_rotatable_bonds>  (102) 
2

>  <N_HA>  (102) 
14

>  <cluster>  (102) 
6106

>  <N_interactions>  (102) 
5

>  <Enamine>  (102) 
0

>  <Mcule>  (102) 
1

>  <N_PAINS>  (102) 
0

>  <UFF_Gibbs>  (102) 
86.23054

>  <strain_per_HA>  (102) 
6.159324

>  <saltbridge:HIS:51>  (102) 
0

>  <pistack:HIS:51>  (102) 
0

>  <hydroph_interaction:HIS:51>  (102) 
0

>  <hbond:ALA:132>  (102) 
0

>  <hbond:SER:135>  (102) 
0

>  <hydroph_interaction:TYR:150>  (102) 
0

>  <pistack:TYR:161>  (102) 
0

>  <hydroph_interaction:TYR:161>  (102) 
2

>  <hydroph_interaction:ASP:83>  (102) 
0

>  <hbond:TYR:130>  (102) 
0

>  <hydroph_interaction:ALA:132>  (102) 
1

>  <hbond:HIS:51>  (102) 
0

>  <hbond:ASP:129>  (102) 
0

>  <hbond:TYR:150>  (102) 
0

>  <hbond:GLY:151>  (102) 
0

>  <hbond:TYR:161>  (102) 
0

>  <hydroph_interaction:TYR:130>  (102) 
0

>  <hydroph_interaction:PRO:131>  (102) 
0

>  <hydroph_interaction:ASP:129>  (102) 
0

>  <saltbridge:ASP:75>  (102) 
0

>  <saltbridge:ASP:83>  (102) 
0

>  <hydroph_interaction:ASN:152>  (102) 
0

>  <halogenbond:TYR:150>  (102) 
0

>  <hbond:ASP:83>  (102) 
0

>  <hydroph_interaction:VAL:155>  (102) 
1

>  <pication:TYR:161>  (102) 
1

>  <hbond:PRO:131>  (102) 
0

>  <hbond:LEU:128>  (102) 
0

>  <saltbridge:ASP:129>  (102) 
0

>  <hbond:THR:134>  (102) 
0

>  <pication:HIS:51>  (102) 
0

>  <hbond:SER:81>  (102) 
0

>  <hbond:GLY:159>  (102) 
0

>  <hydroph_interaction:PRO:101>  (102) 
0

>  <hydroph_interaction:THR:134>  (102) 
0

>  <hbond:GLY:82>  (102) 
0

>  <hydroph_interaction:GLU:104>  (102) 
0

>  <hydroph_interaction:VAL:36>  (102) 
0

>  <hydroph_interaction:MET:49>  (102) 
0

>  <halogenbond:GLU:104>  (102) 
0

>  <hydroph_interaction:LYS:107>  (102) 
0

$$$$
PV-004832382280
     RDKit          3D

 50 53  0  0  0  0  0  0  0  0999 V2000
   -9.7030    6.4870  -13.2720 O   0  0  0  0  0  0  0  0  0  0  0  0
   -8.8350    5.6180  -13.3390 C   0  0  0  0  0  0  0  0  0  0  0  0
   -7.8810    5.3480  -12.2010 C   0  0  0  0  0  0  0  0  0  0  0  0
   -8.3360    5.4900  -10.7490 C   0  0  0  0  0  0  0  0  0  0  0  0
   -8.6920    4.3660   -9.8190 C   0  0  0  0  0  0  0  0  0  0  0  0
   -8.6850    2.9120  -10.2110 C   0  0  0  0  0  0  0  0  0  0  0  0
   -8.6770    2.2690   -8.8860 C   0  0  0  0  0  0  0  0  0  0  0  0
   -9.6270    2.7760   -7.8540 C   0  0  0  0  0  0  0  0  0  0  0  0
   -9.3530    4.0630   -7.4290 C   0  0  0  0  0  0  0  0  0  0  0  0
   -8.9920    4.8710   -8.5990 N   0  0  0  0  0  0  0  0  0  0  0  0
   -8.9110    6.2210   -8.5690 N   0  0  0  0  0  0  0  0  0  0  0  0
   -8.5170    6.6040   -9.8790 C   0  0  0  0  0  0  0  0  0  0  0  0
   -8.5500    4.7810  -14.4410 N   0  0  0  0  0  0  0  0  0  0  0  0
   -8.7230    4.9060  -15.8540 C   0  0  0  0  0  0  0  0  0  0  0  0
   -7.5100    5.2510  -16.6670 C   0  0  0  0  0  0  0  0  0  0  0  0
   -7.7470    5.3260  -18.1560 C   0  0  0  0  0  0  0  0  0  0  0  0
   -6.7440    5.6420  -19.0650 N   0  0  0  0  0  0  0  0  0  0  0  0
   -6.4580    5.0080  -20.2390 C   0  0  0  0  0  0  0  0  0  0  0  0
   -7.2040    4.2520  -20.8530 O   0  0  0  0  0  0  0  0  0  0  0  0
   -5.1910    5.2550  -20.7540 C   0  0  0  0  0  0  0  0  0  0  0  0
   -5.0300    5.4890  -22.2100 C   0  0  0  0  0  0  0  0  0  0  0  0
   -3.7650    5.7210  -22.7370 C   0  0  0  0  0  0  0  0  0  0  0  0
   -2.6370    5.7340  -21.9010 C   0  0  0  0  0  0  0  0  0  0  0  0
   -2.7800    5.5220  -20.5250 C   0  0  0  0  0  0  0  0  0  0  0  0
   -4.0400    5.2900  -19.9670 C   0  0  0  0  0  0  0  0  0  0  0  0
   -4.0970    5.0930  -18.6370 F   0  0  0  0  0  0  0  0  0  0  0  0
   -9.0120    5.0750  -18.6810 C   0  0  0  0  0  0  0  0  0  0  0  0
  -10.0940    4.7760  -17.8820 C   0  0  0  0  0  0  0  0  0  0  0  0
   -9.9310    4.7010  -16.5000 C   0  0  0  0  0  0  0  0  0  0  0  0
   -7.5160    4.3280  -12.3590 H   0  0  0  0  0  0  0  0  0  0  0  0
   -7.0220    6.0100  -12.3460 H   0  0  0  0  0  0  0  0  0  0  0  0
   -9.6510    2.6790  -10.6740 H   0  0  0  0  0  0  0  0  0  0  0  0
   -7.9470    2.5930  -10.9410 H   0  0  0  0  0  0  0  0  0  0  0  0
   -7.6660    2.1540   -8.5330 H   0  0  0  0  0  0  0  0  0  0  0  0
   -8.9890    1.2450   -9.0390 H   0  0  0  0  0  0  0  0  0  0  0  0
   -9.4460    2.1400   -6.9810 H   0  0  0  0  0  0  0  0  0  0  0  0
  -10.6750    2.5930   -8.0730 H   0  0  0  0  0  0  0  0  0  0  0  0
  -10.0880    4.5880   -6.8320 H   0  0  0  0  0  0  0  0  0  0  0  0
   -8.4610    4.0100   -6.7970 H   0  0  0  0  0  0  0  0  0  0  0  0
   -8.3810    7.6680  -10.0940 H   0  0  0  0  0  0  0  0  0  0  0  0
   -8.1180    3.8580  -14.2170 H   0  0  0  0  0  0  0  0  0  0  0  0
   -6.5330    5.4290  -16.2120 H   0  0  0  0  0  0  0  0  0  0  0  0
   -6.0740    6.3320  -18.7430 H   0  0  0  0  0  0  0  0  0  0  0  0
   -5.8970    5.4790  -22.8640 H   0  0  0  0  0  0  0  0  0  0  0  0
   -3.6530    5.8890  -23.8070 H   0  0  0  0  0  0  0  0  0  0  0  0
   -1.6520    5.9120  -22.3190 H   0  0  0  0  0  0  0  0  0  0  0  0
   -1.9080    5.5360  -19.8770 H   0  0  0  0  0  0  0  0  0  0  0  0
   -9.2630    5.1030  -19.7470 H   0  0  0  0  0  0  0  0  0  0  0  0
  -11.0730    4.5960  -18.3240 H   0  0  0  0  0  0  0  0  0  0  0  0
  -10.7970    4.4560  -15.9150 H   0  0  0  0  0  0  0  0  0  0  0  0
  1  2  2  0
  2  3  1  0
  3  4  1  0
  4  5  2  0
  5  6  1  0
  6  7  1  0
  7  8  1  0
  8  9  1  0
  9 10  1  0
 10 11  1  0
 11 12  2  0
  2 13  1  0
 13 14  1  0
 14 15  2  0
 15 16  1  0
 16 17  1  0
 17 18  1  0
 18 19  2  0
 18 20  1  0
 20 21  2  0
 21 22  1  0
 22 23  2  0
 23 24  1  0
 24 25  2  0
 25 26  1  0
 16 27  2  0
 27 28  1  0
 28 29  2  0
 12  4  1  0
 10  5  1  0
 29 14  1  0
 25 20  1  0
  3 30  1  0
  3 31  1  0
  6 32  1  0
  6 33  1  0
  7 34  1  0
  7 35  1  0
  8 36  1  0
  8 37  1  0
  9 38  1  0
  9 39  1  0
 12 40  1  0
 13 41  1  0
 15 42  1  0
 17 43  1  0
 21 44  1  0
 22 45  1  0
 23 46  1  0
 24 47  1  0
 27 48  1  0
 28 49  1  0
 29 50  1  0
A    1
 O1 
A    2
 C1 
A    3
 C2 
A    4
 C3 
A    5
 C4 
A    6
 C5 
A    7
 C6 
A    8
 C7 
A    9
 C8 
A   10
 N1 
A   11
 N2 
A   12
 C9 
A   13
 N3 
A   14
 C10
A   15
 C11
A   16
 C12
A   17
 N4 
A   18
 C13
A   19
 O2 
A   20
 C14
A   21
 C15
A   22
 C16
A   23
 C17
A   24
 C18
A   25
 C19
A   26
 F1 
A   27
 C20
A   28
 C21
A   29
 C22
A   30
 H1 
A   31
 H2 
A   32
 H3 
A   33
 H4 
A   34
 H5 
A   35
 H6 
A   36
 H7 
A   37
 H8 
A   38
 H9 
A   39
 H10
A   40
 H11
A   41
 H12
A   42
 H13
A   43
 H14
A   44
 H15
A   45
 H16
A   46
 H17
A   47
 H18
A   48
 H19
A   49
 H20
A   50
 H21
M  END
>  <ref_pdb>  (103) 
x0051_0B

>  <ref_mols>  (103) 
x0852_0B,x0969_1B

>  <original SMILES>  (103) 
[H]c1nn2c(c1C([H])([H])C(=O)N([H])c1c([H])c([H])c([H])c(N([H])C(=O)c3c([H])c([H])c([H])c([H])c3F)c1[H])C([H])([H])C([H])([H])C([H])([H])C2([H])[H]

>  <index>  (103) 
200

>  <∆∆G>  (103) 
-7.429649

>  <∆G_bound>  (103) 
-6.080176

>  <∆G_unbound>  (103) 
1.349474

>  <comRMSD>  (103) 
0.35688

>  <N_constrained_atoms>  (103) 
28.0

>  <N_unconstrained_atoms>  (103) 
3.0

>  <runtime>  (103) 
100.217578

>  <LE>  (103) 
0.239666

>  <percent_hybrid>  (103) 
36.0

>  <dist>  (103) 
7.0

>  <ecfp4>  (103) 
0.358696

>  <daylight>  (103) 
0.371345

>  <topodist>  (103) 
3.0

>  <mces>  (103) 
31.0

>  <tdn>  (103) 
2.0

>  <tup>  (103) 
1.0

>  <rdn>  (103) 
0.0

>  <rup>  (103) 
0.0

>  <ldn>  (103) 
0.0

>  <lup>  (103) 
0.0

>  <mut>  (103) 
3.0

>  <maj>  (103) 
3.0

>  <min>  (103) 
0.0

>  <hyb>  (103) 
1.0

>  <sub>  (103) 
2.0

>  <query_index>  (103) 
46.0

>  <max_hit_Tanimoto>  (103) 
0.362143

>  <largest_ring>  (103) 
0

>  <N_interactions_kept>  (103) 
3.0

>  <N_interactions_lost>  (103) 
3.0

>  <interaction_uniqueness_metric>  (103) 
0.282103

>  <ad_hoc_penalty>  (103) 
-28.517096

>  <N_rotatable_bonds>  (103) 
5

>  <N_HA>  (103) 
29

>  <cluster>  (103) 
6037

>  <N_interactions>  (103) 
9

>  <Enamine>  (103) 
1

>  <Mcule>  (103) 
0

>  <N_PAINS>  (103) 
0

>  <UFF_Gibbs>  (103) 
112.405617

>  <strain_per_HA>  (103) 
3.876056

>  <saltbridge:HIS:51>  (103) 
0

>  <pistack:HIS:51>  (103) 
1

>  <hydroph_interaction:HIS:51>  (103) 
1

>  <hbond:ALA:132>  (103) 
0

>  <hbond:SER:135>  (103) 
0

>  <hydroph_interaction:TYR:150>  (103) 
1

>  <pistack:TYR:161>  (103) 
0

>  <hydroph_interaction:TYR:161>  (103) 
2

>  <hydroph_interaction:ASP:83>  (103) 
1

>  <hbond:TYR:130>  (103) 
1

>  <hydroph_interaction:ALA:132>  (103) 
0

>  <hbond:HIS:51>  (103) 
0

>  <hbond:ASP:129>  (103) 
0

>  <hbond:TYR:150>  (103) 
0

>  <hbond:GLY:151>  (103) 
0

>  <hbond:TYR:161>  (103) 
1

>  <hydroph_interaction:TYR:130>  (103) 
0

>  <hydroph_interaction:PRO:131>  (103) 
0

>  <hydroph_interaction:ASP:129>  (103) 
1

>  <saltbridge:ASP:75>  (103) 
0

>  <saltbridge:ASP:83>  (103) 
0

>  <hydroph_interaction:ASN:152>  (103) 
0

>  <halogenbond:TYR:150>  (103) 
0

>  <hbond:ASP:83>  (103) 
0

>  <hydroph_interaction:VAL:155>  (103) 
0

>  <pication:TYR:161>  (103) 
0

>  <hbond:PRO:131>  (103) 
0

>  <hbond:LEU:128>  (103) 
0

>  <saltbridge:ASP:129>  (103) 
0

>  <hbond:THR:134>  (103) 
0

>  <pication:HIS:51>  (103) 
0

>  <hbond:SER:81>  (103) 
0

>  <hbond:GLY:159>  (103) 
0

>  <hydroph_interaction:PRO:101>  (103) 
0

>  <hydroph_interaction:THR:134>  (103) 
0

>  <hbond:GLY:82>  (103) 
0

>  <hydroph_interaction:GLU:104>  (103) 
0

>  <hydroph_interaction:VAL:36>  (103) 
0

>  <hydroph_interaction:MET:49>  (103) 
0

>  <halogenbond:GLU:104>  (103) 
0

>  <hydroph_interaction:LYS:107>  (103) 
0

$$$$
MCULE-9315423388
     RDKit          3D

 45 46  0  0  0  0  0  0  0  0999 V2000
   -9.1370    4.8510   -8.9910 N   0  0  0  0  0  0  0  0  0  0  0  0
   -8.8980    3.9470  -10.1280 C   0  0  0  0  0  0  0  0  0  0  0  0
   -8.4320    2.5410   -9.7590 C   0  0  0  0  0  0  0  0  0  0  0  0
   -9.2970    1.9230   -8.7600 N   0  0  0  0  0  0  0  0  0  0  0  0
   -9.4130    2.7570   -7.5560 C   0  0  0  0  0  0  0  0  0  0  0  0
   -8.8200    4.1780   -7.7080 C   0  0  0  0  0  0  0  0  0  0  0  0
   -8.4840    6.1500   -9.1880 C   0  0  0  0  0  0  0  0  0  0  0  0
   -7.9060    6.3380  -10.6210 C   0  0  0  0  0  0  0  0  0  0  0  0
   -8.8790    6.0260  -11.7900 C   0  0  0  0  0  0  0  0  0  0  0  0
   -8.3030    5.2030  -12.9930 C   0  0  0  0  0  0  0  0  0  0  0  0
   -7.9430    6.0370  -14.1440 O   0  0  0  0  0  0  0  0  0  0  0  0
   -8.1060    5.6720  -15.5150 C   0  0  0  0  0  0  0  0  0  0  0  0
   -9.2830    5.2800  -16.1890 C   0  0  0  0  0  0  0  0  0  0  0  0
   -9.2590    4.9830  -17.5800 C   0  0  0  0  0  0  0  0  0  0  0  0
  -10.4540    4.5890  -18.3590 C   0  0  0  0  0  0  0  0  0  0  0  0
   -8.0820    5.0620  -18.2980 C   0  0  0  0  0  0  0  0  0  0  0  0
   -6.9130    5.4340  -17.6740 C   0  0  0  0  0  0  0  0  0  0  0  0
   -5.6600    5.5130  -18.4870 C   0  0  0  0  0  0  0  0  0  0  0  0
   -6.9250    5.7370  -16.2930 C   0  0  0  0  0  0  0  0  0  0  0  0
   -9.8410    3.8530  -10.6850 H   0  0  0  0  0  0  0  0  0  0  0  0
   -8.1870    4.3720  -10.8420 H   0  0  0  0  0  0  0  0  0  0  0  0
   -8.4350    1.9110  -10.6580 H   0  0  0  0  0  0  0  0  0  0  0  0
   -7.3970    2.5550   -9.3920 H   0  0  0  0  0  0  0  0  0  0  0  0
  -10.2380    1.8370   -9.1690 H   0  0  0  0  0  0  0  0  0  0  0  0
   -8.9140    2.2370   -6.7320 H   0  0  0  0  0  0  0  0  0  0  0  0
  -10.4750    2.8290   -7.2850 H   0  0  0  0  0  0  0  0  0  0  0  0
   -7.7280    4.1070   -7.6270 H   0  0  0  0  0  0  0  0  0  0  0  0
   -9.1330    4.8000   -6.8600 H   0  0  0  0  0  0  0  0  0  0  0  0
   -7.6840    6.3220   -8.4570 H   0  0  0  0  0  0  0  0  0  0  0  0
   -9.2180    6.9510   -9.0390 H   0  0  0  0  0  0  0  0  0  0  0  0
   -7.5820    7.3850  -10.7140 H   0  0  0  0  0  0  0  0  0  0  0  0
   -6.9940    5.7370  -10.7350 H   0  0  0  0  0  0  0  0  0  0  0  0
   -9.7280    5.4670  -11.3920 H   0  0  0  0  0  0  0  0  0  0  0  0
   -9.3080    6.9590  -12.1870 H   0  0  0  0  0  0  0  0  0  0  0  0
   -9.0690    4.4810  -13.3070 H   0  0  0  0  0  0  0  0  0  0  0  0
   -7.4140    4.6580  -12.6520 H   0  0  0  0  0  0  0  0  0  0  0  0
  -10.2250    5.2070  -15.6610 H   0  0  0  0  0  0  0  0  0  0  0  0
  -10.2360    3.6410  -18.8390 H   0  0  0  0  0  0  0  0  0  0  0  0
  -11.3220    4.4880  -17.7250 H   0  0  0  0  0  0  0  0  0  0  0  0
  -10.6740    5.3180  -19.1470 H   0  0  0  0  0  0  0  0  0  0  0  0
   -8.0790    4.8330  -19.3620 H   0  0  0  0  0  0  0  0  0  0  0  0
   -5.7540    4.9240  -19.4060 H   0  0  0  0  0  0  0  0  0  0  0  0
   -5.4470    6.5460  -18.7800 H   0  0  0  0  0  0  0  0  0  0  0  0
   -4.8140    5.1280  -17.9120 H   0  0  0  0  0  0  0  0  0  0  0  0
   -6.0010    6.0350  -15.8030 H   0  0  0  0  0  0  0  0  0  0  0  0
  1  2  1  0
  2  3  1  0
  3  4  1  0
  4  5  1  0
  5  6  1  0
  1  7  1  0
  7  8  1  0
  8  9  1  0
  9 10  1  0
 10 11  1  0
 11 12  1  0
 12 13  2  0
 13 14  1  0
 14 15  1  0
 14 16  2  0
 16 17  1  0
 17 18  1  0
 17 19  2  0
  6  1  1  0
 19 12  1  0
  2 20  1  0
  2 21  1  0
  3 22  1  0
  3 23  1  0
  4 24  1  0
  5 25  1  0
  5 26  1  0
  6 27  1  0
  6 28  1  0
  7 29  1  0
  7 30  1  0
  8 31  1  0
  8 32  1  0
  9 33  1  0
  9 34  1  0
 10 35  1  0
 10 36  1  0
 13 37  1  0
 15 38  1  0
 15 39  1  0
 15 40  1  0
 16 41  1  0
 18 42  1  0
 18 43  1  0
 18 44  1  0
 19 45  1  0
A    1
 N1 
A    2
 C1 
A    3
 C2 
A    4
 N2 
A    5
 C3 
A    6
 C4 
A    7
 C5 
A    8
 C6 
A    9
 C7 
A   10
 C8 
A   11
 O1 
A   12
 C9 
A   13
 C10
A   14
 C11
A   15
 C12
A   16
 C13
A   17
 C14
A   18
 C15
A   19
 C16
A   20
 H1 
A   21
 H2 
A   22
 H3 
A   23
 H4 
A   24
 H5 
A   25
 H6 
A   26
 H7 
A   27
 H8 
A   28
 H9 
A   29
 H10
A   30
 H11
A   31
 H12
A   32
 H13
A   33
 H14
A   34
 H15
A   35
 H16
A   36
 H17
A   37
 H18
A   38
 H19
A   39
 H20
A   40
 H21
A   41
 H22
A   42
 H23
A   43
 H24
A   44
 H25
A   45
 H26
M  END
>  <ref_pdb>  (104) 
x0051_0B

>  <ref_mols>  (104) 
x0589_0B,x0969_1B

>  <original SMILES>  (104) 
[H]c1c(OC([H])([H])C([H])([H])C([H])([H])C([H])([H])N2C([H])([H])C([H])([H])N([H])C([H])([H])C2([H])[H])c([H])c(C([H])([H])[H])c([H])c1C([H])([H])[H]

>  <index>  (104) 
743

>  <∆∆G>  (104) 
-6.44875

>  <∆G_bound>  (104) 
-6.155237

>  <∆G_unbound>  (104) 
0.293513

>  <comRMSD>  (104) 
0.847378

>  <N_constrained_atoms>  (104) 
18.0

>  <N_unconstrained_atoms>  (104) 
1.0

>  <runtime>  (104) 
67.189426

>  <LE>  (104) 
0.339408

>  <percent_hybrid>  (104) 
45.0

>  <dist>  (104) 
6.0

>  <ecfp4>  (104) 
0.372881

>  <daylight>  (104) 
0.251232

>  <topodist>  (104) 
2.0

>  <mces>  (104) 
20.0

>  <tdn>  (104) 
0.0

>  <tup>  (104) 
0.0

>  <rdn>  (104) 
1.0

>  <rup>  (104) 
0.0

>  <ldn>  (104) 
1.0

>  <lup>  (104) 
0.0

>  <mut>  (104) 
1.0

>  <maj>  (104) 
1.0

>  <min>  (104) 
0.0

>  <hyb>  (104) 
3.0

>  <sub>  (104) 
0.0

>  <query_index>  (104) 
379.0

>  <max_hit_Tanimoto>  (104) 
0.097345

>  <largest_ring>  (104) 
6

>  <N_interactions_kept>  (104) 
1.5

>  <N_interactions_lost>  (104) 
1.0

>  <interaction_uniqueness_metric>  (104) 
1.140055

>  <ad_hoc_penalty>  (104) 
-28.48246

>  <N_rotatable_bonds>  (104) 
8

>  <N_HA>  (104) 
19

>  <cluster>  (104) 
5539

>  <N_interactions>  (104) 
5

>  <Enamine>  (104) 
0

>  <Mcule>  (104) 
1

>  <N_PAINS>  (104) 
0

>  <UFF_Gibbs>  (104) 
149.38244

>  <strain_per_HA>  (104) 
7.862234

>  <saltbridge:HIS:51>  (104) 
0

>  <pistack:HIS:51>  (104) 
0

>  <hydroph_interaction:HIS:51>  (104) 
0

>  <hbond:ALA:132>  (104) 
0

>  <hbond:SER:135>  (104) 
0

>  <hydroph_interaction:TYR:150>  (104) 
1

>  <pistack:TYR:161>  (104) 
1

>  <hydroph_interaction:TYR:161>  (104) 
1

>  <hydroph_interaction:ASP:83>  (104) 
0

>  <hbond:TYR:130>  (104) 
0

>  <hydroph_interaction:ALA:132>  (104) 
0

>  <hbond:HIS:51>  (104) 
0

>  <hbond:ASP:129>  (104) 
0

>  <hbond:TYR:150>  (104) 
0

>  <hbond:GLY:151>  (104) 
0

>  <hbond:TYR:161>  (104) 
0

>  <hydroph_interaction:TYR:130>  (104) 
0

>  <hydroph_interaction:PRO:131>  (104) 
0

>  <hydroph_interaction:ASP:129>  (104) 
0

>  <saltbridge:ASP:75>  (104) 
1

>  <saltbridge:ASP:83>  (104) 
0

>  <hydroph_interaction:ASN:152>  (104) 
0

>  <halogenbond:TYR:150>  (104) 
0

>  <hbond:ASP:83>  (104) 
0

>  <hydroph_interaction:VAL:155>  (104) 
0

>  <pication:TYR:161>  (104) 
0

>  <hbond:PRO:131>  (104) 
0

>  <hbond:LEU:128>  (104) 
0

>  <saltbridge:ASP:129>  (104) 
0

>  <hbond:THR:134>  (104) 
0

>  <pication:HIS:51>  (104) 
0

>  <hbond:SER:81>  (104) 
0

>  <hbond:GLY:159>  (104) 
0

>  <hydroph_interaction:PRO:101>  (104) 
0

>  <hydroph_interaction:THR:134>  (104) 
0

>  <hbond:GLY:82>  (104) 
1

>  <hydroph_interaction:GLU:104>  (104) 
0

>  <hydroph_interaction:VAL:36>  (104) 
0

>  <hydroph_interaction:MET:49>  (104) 
0

>  <halogenbond:GLU:104>  (104) 
0

>  <hydroph_interaction:LYS:107>  (104) 
0

$$$$
MCULE-2143027345
     RDKit          3D

 54 57  0  0  0  0  0  0  0  0999 V2000
   -6.6190    5.7890  -18.4350 C   0  0  0  0  0  0  0  0  0  0  0  0
   -6.8930    6.5390  -19.5540 C   0  0  0  0  0  0  0  0  0  0  0  0
   -5.9820    6.6930  -20.5780 C   0  0  0  0  0  0  0  0  0  0  0  0
   -4.7550    6.0770  -20.4840 C   0  0  0  0  0  0  0  0  0  0  0  0
   -4.4520    5.3120  -19.3590 C   0  0  0  0  0  0  0  0  0  0  0  0
   -5.3860    5.1670  -18.3320 C   0  0  0  0  0  0  0  0  0  0  0  0
   -7.6510    5.7540  -17.4360 C   0  0  0  0  0  0  0  0  0  0  0  0
   -8.9490    5.2280  -17.4870 C   0  0  0  0  0  0  0  0  0  0  0  0
   -9.5050    4.5070  -18.6780 C   0  0  0  0  0  0  0  0  0  0  0  0
   -9.8050    5.3900  -16.4580 N   0  0  0  0  0  0  0  0  0  0  0  0
   -9.3560    6.0790  -15.4050 C   0  0  0  0  0  0  0  0  0  0  0  0
  -10.2400    6.3620  -14.4050 N   0  0  0  0  0  0  0  0  0  0  0  0
   -9.6070    7.2640  -13.4860 C   0  0  0  0  0  0  0  0  0  0  0  0
   -9.2310    6.4380  -12.2980 C   0  0  0  0  0  0  0  0  0  0  0  0
   -8.9790    7.1570  -11.0010 C   0  0  0  0  0  0  0  0  0  0  0  0
   -8.6500    6.3730   -9.9020 C   0  0  0  0  0  0  0  0  0  0  0  0
   -8.5620    4.9660  -10.0100 C   0  0  0  0  0  0  0  0  0  0  0  0
   -8.2450    4.1300   -8.9570 N   0  0  0  0  0  0  0  0  0  0  0  0
   -8.5790    2.6980   -8.9960 C   0  0  0  0  0  0  0  0  0  0  0  0
   -9.8390    2.4120   -8.1750 C   0  0  0  0  0  0  0  0  0  0  0  0
   -9.8590    2.9730   -6.8090 N   0  0  0  0  0  0  0  0  0  0  0  0
  -11.2110    2.8370   -6.2250 C   0  0  0  0  0  0  0  0  0  0  0  0
   -9.2970    4.3390   -6.6690 C   0  0  0  0  0  0  0  0  0  0  0  0
   -8.1420    4.7410   -7.6150 C   0  0  0  0  0  0  0  0  0  0  0  0
   -8.8040    4.3480  -11.2530 C   0  0  0  0  0  0  0  0  0  0  0  0
   -9.1330    5.0620  -12.3850 C   0  0  0  0  0  0  0  0  0  0  0  0
   -9.3520    8.4720  -13.5550 O   0  0  0  0  0  0  0  0  0  0  0  0
   -8.1410    6.5400  -15.2590 N   0  0  0  0  0  0  0  0  0  0  0  0
   -7.3240    6.3700  -16.2700 C   0  0  0  0  0  0  0  0  0  0  0  0
   -7.8410    7.0320  -19.6580 H   0  0  0  0  0  0  0  0  0  0  0  0
   -6.2330    7.2950  -21.4490 H   0  0  0  0  0  0  0  0  0  0  0  0
   -4.0250    6.1870  -21.2820 H   0  0  0  0  0  0  0  0  0  0  0  0
   -3.4820    4.8290  -19.2830 H   0  0  0  0  0  0  0  0  0  0  0  0
   -5.1380    4.5750  -17.4550 H   0  0  0  0  0  0  0  0  0  0  0  0
   -9.3880    3.4260  -18.5760 H   0  0  0  0  0  0  0  0  0  0  0  0
   -8.9910    4.8130  -19.5950 H   0  0  0  0  0  0  0  0  0  0  0  0
  -10.5670    4.7500  -18.7950 H   0  0  0  0  0  0  0  0  0  0  0  0
  -10.6800    5.5190  -14.0670 H   0  0  0  0  0  0  0  0  0  0  0  0
   -9.0530    8.2410  -10.9210 H   0  0  0  0  0  0  0  0  0  0  0  0
   -8.4690    6.8820   -8.9630 H   0  0  0  0  0  0  0  0  0  0  0  0
   -8.7590    2.4090  -10.0400 H   0  0  0  0  0  0  0  0  0  0  0  0
   -7.7570    2.0640   -8.6710 H   0  0  0  0  0  0  0  0  0  0  0  0
   -9.9660    1.3270   -8.1210 H   0  0  0  0  0  0  0  0  0  0  0  0
  -10.7010    2.8040   -8.7130 H   0  0  0  0  0  0  0  0  0  0  0  0
  -11.2720    3.2910   -5.2310 H   0  0  0  0  0  0  0  0  0  0  0  0
  -11.9810    3.2610   -6.8320 H   0  0  0  0  0  0  0  0  0  0  0  0
  -11.4910    1.7840   -6.1390 H   0  0  0  0  0  0  0  0  0  0  0  0
  -10.0900    5.0930   -6.7160 H   0  0  0  0  0  0  0  0  0  0  0  0
   -8.9180    4.4040   -5.6390 H   0  0  0  0  0  0  0  0  0  0  0  0
   -8.1310    5.8370   -7.6920 H   0  0  0  0  0  0  0  0  0  0  0  0
   -7.2000    4.4310   -7.1490 H   0  0  0  0  0  0  0  0  0  0  0  0
   -8.7330    3.2660  -11.3350 H   0  0  0  0  0  0  0  0  0  0  0  0
   -9.3120    4.5260  -13.3150 H   0  0  0  0  0  0  0  0  0  0  0  0
   -6.3350    6.7940  -16.1200 H   0  0  0  0  0  0  0  0  0  0  0  0
  1  2  2  0
  2  3  1  0
  3  4  2  0
  4  5  1  0
  5  6  2  0
  1  7  1  0
  7  8  2  0
  8  9  1  0
  8 10  1  0
 10 11  2  0
 11 12  1  0
 12 13  1  0
 13 14  1  0
 14 15  2  0
 15 16  1  0
 16 17  2  0
 17 18  1  0
 18 19  1  0
 19 20  1  0
 20 21  1  0
 21 22  1  0
 21 23  1  0
 23 24  1  0
 17 25  1  0
 25 26  2  0
 13 27  2  0
 11 28  1  0
 28 29  2  0
  6  1  1  0
 29  7  1  0
 14 26  1  0
 24 18  1  0
  2 30  1  0
  3 31  1  0
  4 32  1  0
  5 33  1  0
  6 34  1  0
  9 35  1  0
  9 36  1  0
  9 37  1  0
 12 38  1  0
 15 39  1  0
 16 40  1  0
 19 41  1  0
 19 42  1  0
 20 43  1  0
 20 44  1  0
 22 45  1  0
 22 46  1  0
 22 47  1  0
 23 48  1  0
 23 49  1  0
 24 50  1  0
 24 51  1  0
 25 52  1  0
 26 53  1  0
 29 54  1  0
A    1
 C1 
A    2
 C2 
A    3
 C3 
A    4
 C4 
A    5
 C5 
A    6
 C6 
A    7
 C7 
A    8
 C8 
A    9
 C9 
A   10
 N1 
A   11
 C10
A   12
 N2 
A   13
 C11
A   14
 C12
A   15
 C13
A   16
 C14
A   17
 C15
A   18
 N3 
A   19
 C16
A   20
 C17
A   21
 N4 
A   22
 C18
A   23
 C19
A   24
 C20
A   25
 C21
A   26
 C22
A   27
 O1 
A   28
 N5 
A   29
 C23
A   30
 H1 
A   31
 H2 
A   32
 H3 
A   33
 H4 
A   34
 H5 
A   35
 H6 
A   36
 H7 
A   37
 H8 
A   38
 H9 
A   39
 H10
A   40
 H11
A   41
 H12
A   42
 H13
A   43
 H14
A   44
 H15
A   45
 H16
A   46
 H17
A   47
 H18
A   48
 H19
A   49
 H20
A   50
 H21
A   51
 H22
A   52
 H23
A   53
 H24
A   54
 H25
M  END
>  <ref_pdb>  (105) 
x0051_0B

>  <ref_mols>  (105) 
x0404_0B,x0803_0B

>  <original SMILES>  (105) 
[H]c1nc(N([H])C(=O)c2c([H])c([H])c(N3C([H])([H])C([H])([H])N(C([H])([H])[H])C([H])([H])C3([H])[H])c([H])c2[H])nc(C([H])([H])[H])c1-c1c([H])c([H])c([H])c([H])c1[H]

>  <index>  (105) 
117

>  <∆∆G>  (105) 
-7.754123

>  <∆G_bound>  (105) 
-7.48658

>  <∆G_unbound>  (105) 
0.267543

>  <comRMSD>  (105) 
0.769298

>  <N_constrained_atoms>  (105) 
28.0

>  <N_unconstrained_atoms>  (105) 
1.0

>  <runtime>  (105) 
125.368501

>  <LE>  (105) 
0.267384

>  <percent_hybrid>  (105) 
43.0

>  <dist>  (105) 
12.0

>  <ecfp4>  (105) 
0.170455

>  <daylight>  (105) 
0.207407

>  <topodist>  (105) 
3.0

>  <mces>  (105) 
30.0

>  <tdn>  (105) 
1.0

>  <tup>  (105) 
1.0

>  <rdn>  (105) 
0.0

>  <rup>  (105) 
0.0

>  <ldn>  (105) 
0.0

>  <lup>  (105) 
1.0

>  <mut>  (105) 
3.0

>  <maj>  (105) 
3.0

>  <min>  (105) 
0.0

>  <hyb>  (105) 
6.0

>  <sub>  (105) 
1.0

>  <query_index>  (105) 
94.0

>  <max_hit_Tanimoto>  (105) 
0.251511

>  <largest_ring>  (105) 
0

>  <N_interactions_kept>  (105) 
4.5

>  <N_interactions_lost>  (105) 
2.5

>  <interaction_uniqueness_metric>  (105) 
0.267346

>  <ad_hoc_penalty>  (105) 
-28.386521

>  <N_rotatable_bonds>  (105) 
6

>  <N_HA>  (105) 
29

>  <cluster>  (105) 
533

>  <N_interactions>  (105) 
9

>  <Enamine>  (105) 
0

>  <Mcule>  (105) 
1

>  <N_PAINS>  (105) 
0

>  <UFF_Gibbs>  (105) 
219.654148

>  <strain_per_HA>  (105) 
7.574281

>  <saltbridge:HIS:51>  (105) 
0

>  <pistack:HIS:51>  (105) 
1

>  <hydroph_interaction:HIS:51>  (105) 
1

>  <hbond:ALA:132>  (105) 
0

>  <hbond:SER:135>  (105) 
2

>  <hydroph_interaction:TYR:150>  (105) 
1

>  <pistack:TYR:161>  (105) 
0

>  <hydroph_interaction:TYR:161>  (105) 
3

>  <hydroph_interaction:ASP:83>  (105) 
0

>  <hbond:TYR:130>  (105) 
0

>  <hydroph_interaction:ALA:132>  (105) 
0

>  <hbond:HIS:51>  (105) 
0

>  <hbond:ASP:129>  (105) 
0

>  <hbond:TYR:150>  (105) 
0

>  <hbond:GLY:151>  (105) 
0

>  <hbond:TYR:161>  (105) 
0

>  <hydroph_interaction:TYR:130>  (105) 
0

>  <hydroph_interaction:PRO:131>  (105) 
0

>  <hydroph_interaction:ASP:129>  (105) 
0

>  <saltbridge:ASP:75>  (105) 
1

>  <saltbridge:ASP:83>  (105) 
0

>  <hydroph_interaction:ASN:152>  (105) 
0

>  <halogenbond:TYR:150>  (105) 
0

>  <hbond:ASP:83>  (105) 
0

>  <hydroph_interaction:VAL:155>  (105) 
0

>  <pication:TYR:161>  (105) 
0

>  <hbond:PRO:131>  (105) 
0

>  <hbond:LEU:128>  (105) 
0

>  <saltbridge:ASP:129>  (105) 
0

>  <hbond:THR:134>  (105) 
0

>  <pication:HIS:51>  (105) 
0

>  <hbond:SER:81>  (105) 
0

>  <hbond:GLY:159>  (105) 
0

>  <hydroph_interaction:PRO:101>  (105) 
0

>  <hydroph_interaction:THR:134>  (105) 
0

>  <hbond:GLY:82>  (105) 
0

>  <hydroph_interaction:GLU:104>  (105) 
0

>  <hydroph_interaction:VAL:36>  (105) 
0

>  <hydroph_interaction:MET:49>  (105) 
0

>  <halogenbond:GLU:104>  (105) 
0

>  <hydroph_interaction:LYS:107>  (105) 
0

$$$$
AXQZMZQPFSSVKN-UHFFFAOYSA-N
     RDKit          3D

 38 39  0  0  0  0  0  0  0  0999 V2000
   -4.1130    5.3850  -17.9130 C   0  0  0  0  0  0  0  0  0  0  0  0
   -5.4380    5.6290  -17.5680 N   0  0  0  0  0  0  0  0  0  0  0  0
   -5.8390    6.3440  -16.3390 C   0  0  0  0  0  0  0  0  0  0  0  0
   -7.1510    5.8160  -15.7490 C   0  0  0  0  0  0  0  0  0  0  0  0
   -8.0990    5.4560  -16.8400 C   0  0  0  0  0  0  0  0  0  0  0  0
   -7.7790    5.3990  -18.1790 C   0  0  0  0  0  0  0  0  0  0  0  0
   -8.9190    5.0090  -18.9640 C   0  0  0  0  0  0  0  0  0  0  0  0
  -10.0360    4.7950  -18.1850 C   0  0  0  0  0  0  0  0  0  0  0  0
   -9.7060    5.0610  -16.5280 S   0  0  0  0  0  0  0  0  0  0  0  0
   -6.3980    5.7190  -18.6910 C   0  0  0  0  0  0  0  0  0  0  0  0
   -6.3530    7.1020  -19.3320 C   0  0  0  0  0  0  0  0  0  0  0  0
   -3.7640    5.2620  -19.0870 O   0  0  0  0  0  0  0  0  0  0  0  0
   -3.1040    5.2900  -16.7790 C   0  0  0  0  0  0  0  0  0  0  0  0
   -3.4780    4.2660  -15.7080 C   0  0  0  0  0  0  0  0  0  0  0  0
   -2.4910    3.1020  -15.6650 C   0  0  0  0  0  0  0  0  0  0  0  0
   -2.7360    2.1420  -14.5030 C   0  0  0  0  0  0  0  0  0  0  0  0
   -3.9960    2.4550  -13.7090 C   0  0  0  0  0  0  0  0  0  0  0  0
   -5.9420    7.4170  -16.5090 H   0  0  0  0  0  0  0  0  0  0  0  0
   -5.0200    6.2180  -15.6200 H   0  0  0  0  0  0  0  0  0  0  0  0
   -7.5790    6.5660  -15.0750 H   0  0  0  0  0  0  0  0  0  0  0  0
   -6.9440    4.9130  -15.1590 H   0  0  0  0  0  0  0  0  0  0  0  0
   -8.9180    4.8910  -20.0400 H   0  0  0  0  0  0  0  0  0  0  0  0
  -11.0230    4.4980  -18.5060 H   0  0  0  0  0  0  0  0  0  0  0  0
   -6.1280    4.9740  -19.4500 H   0  0  0  0  0  0  0  0  0  0  0  0
   -7.3220    7.3710  -19.7550 H   0  0  0  0  0  0  0  0  0  0  0  0
   -5.6210    7.1320  -20.1450 H   0  0  0  0  0  0  0  0  0  0  0  0
   -6.0710    7.8730  -18.6100 H   0  0  0  0  0  0  0  0  0  0  0  0
   -2.1480    4.9860  -17.2200 H   0  0  0  0  0  0  0  0  0  0  0  0
   -2.9860    6.2750  -16.3160 H   0  0  0  0  0  0  0  0  0  0  0  0
   -3.5460    4.7540  -14.7300 H   0  0  0  0  0  0  0  0  0  0  0  0
   -4.4740    3.8750  -15.9430 H   0  0  0  0  0  0  0  0  0  0  0  0
   -2.5260    2.5440  -16.6070 H   0  0  0  0  0  0  0  0  0  0  0  0
   -1.4720    3.4960  -15.5730 H   0  0  0  0  0  0  0  0  0  0  0  0
   -2.7930    1.1190  -14.8780 H   0  0  0  0  0  0  0  0  0  0  0  0
   -1.8750    2.1830  -13.8280 H   0  0  0  0  0  0  0  0  0  0  0  0
   -4.4670    1.5410  -13.3330 H   0  0  0  0  0  0  0  0  0  0  0  0
   -3.7760    3.1050  -12.8590 H   0  0  0  0  0  0  0  0  0  0  0  0
   -4.7300    2.9630  -14.3420 H   0  0  0  0  0  0  0  0  0  0  0  0
  1  2  1  0
  2  3  1  0
  3  4  1  0
  4  5  1  0
  5  6  2  0
  6  7  1  0
  7  8  2  0
  8  9  1  0
  6 10  1  0
 10 11  1  0
  1 12  2  0
  1 13  1  0
 13 14  1  0
 14 15  1  0
 15 16  1  0
 16 17  1  0
 10  2  1  0
  9  5  1  0
  3 18  1  0
  3 19  1  0
  4 20  1  0
  4 21  1  0
  7 22  1  0
  8 23  1  0
 10 24  1  0
 11 25  1  0
 11 26  1  0
 11 27  1  0
 13 28  1  0
 13 29  1  0
 14 30  1  0
 14 31  1  0
 15 32  1  0
 15 33  1  0
 16 34  1  0
 16 35  1  0
 17 36  1  0
 17 37  1  0
 17 38  1  0
A    1
 C1 
A    2
 N1 
A    3
 C2 
A    4
 C3 
A    5
 C4 
A    6
 C5 
A    7
 C6 
A    8
 C7 
A    9
 S1 
A   10
 C8 
A   11
 C9 
A   12
 O1 
A   13
 C10
A   14
 C11
A   15
 C12
A   16
 C13
A   17
 C14
A   18
 H1 
A   19
 H2 
A   20
 H3 
A   21
 H4 
A   22
 H5 
A   23
 H6 
A   24
 H7 
A   25
 H8 
A   26
 H9 
A   27
 H10
A   28
 H11
A   29
 H12
A   30
 H13
A   31
 H14
A   32
 H15
A   33
 H16
A   34
 H17
A   35
 H18
A   36
 H19
A   37
 H20
A   38
 H21
M  END
>  <ref_pdb>  (106) 
x0051_0B

>  <ref_mols>  (106) 
x0472_0B,x0803_0B

>  <original SMILES>  (106) 
[H]c1sc2c(c1[H])C([H])(C([H])([H])[H])N(C(=O)C([H])([H])C([H])([H])C([H])([H])C([H])([H])C([H])([H])[H])C([H])([H])C2([H])[H]

>  <index>  (106) 
165

>  <∆∆G>  (106) 
-8.563703

>  <∆G_bound>  (106) 
-8.316625

>  <∆G_unbound>  (106) 
0.247078

>  <comRMSD>  (106) 
0.615978

>  <N_constrained_atoms>  (106) 
17.0

>  <N_unconstrained_atoms>  (106) 
3.0

>  <runtime>  (106) 
28.770051

>  <LE>  (106) 
0.428185

>  <percent_hybrid>  (106) 
40.0

>  <dist>  (106) 
7.0

>  <ecfp4>  (106) 
0.214286

>  <daylight>  (106) 
0.427481

>  <topodist>  (106) 
3.0

>  <mces>  (106) 
18.0

>  <tdn>  (106) 
1.0

>  <tup>  (106) 
0.0

>  <rdn>  (106) 
2.0

>  <rup>  (106) 
0.0

>  <ldn>  (106) 
0.0

>  <lup>  (106) 
0.0

>  <mut>  (106) 
3.0

>  <maj>  (106) 
3.0

>  <min>  (106) 
0.0

>  <hyb>  (106) 
1.0

>  <sub>  (106) 
4.0

>  <query_index>  (106) 
219.0

>  <max_hit_Tanimoto>  (106) 
0.556818

>  <largest_ring>  (106) 
0

>  <N_interactions_kept>  (106) 
6.0

>  <N_interactions_lost>  (106) 
0.5

>  <interaction_uniqueness_metric>  (106) 
0.05195

>  <ad_hoc_penalty>  (106) 
-28.381025

>  <N_rotatable_bonds>  (106) 
6

>  <N_HA>  (106) 
17

>  <cluster>  (106) 
526

>  <N_interactions>  (106) 
5

>  <Enamine>  (106) 
0

>  <Mcule>  (106) 
1

>  <N_PAINS>  (106) 
0

>  <UFF_Gibbs>  (106) 
47.700328

>  <strain_per_HA>  (106) 
2.805902

>  <saltbridge:HIS:51>  (106) 
0

>  <pistack:HIS:51>  (106) 
0

>  <hydroph_interaction:HIS:51>  (106) 
0

>  <hbond:ALA:132>  (106) 
0

>  <hbond:SER:135>  (106) 
0

>  <hydroph_interaction:TYR:150>  (106) 
0

>  <pistack:TYR:161>  (106) 
0

>  <hydroph_interaction:TYR:161>  (106) 
4

>  <hydroph_interaction:ASP:83>  (106) 
0

>  <hbond:TYR:130>  (106) 
0

>  <hydroph_interaction:ALA:132>  (106) 
0

>  <hbond:HIS:51>  (106) 
0

>  <hbond:ASP:129>  (106) 
0

>  <hbond:TYR:150>  (106) 
0

>  <hbond:GLY:151>  (106) 
0

>  <hbond:TYR:161>  (106) 
0

>  <hydroph_interaction:TYR:130>  (106) 
0

>  <hydroph_interaction:PRO:131>  (106) 
0

>  <hydroph_interaction:ASP:129>  (106) 
0

>  <saltbridge:ASP:75>  (106) 
0

>  <saltbridge:ASP:83>  (106) 
0

>  <hydroph_interaction:ASN:152>  (106) 
0

>  <halogenbond:TYR:150>  (106) 
0

>  <hbond:ASP:83>  (106) 
0

>  <hydroph_interaction:VAL:155>  (106) 
1

>  <pication:TYR:161>  (106) 
0

>  <hbond:PRO:131>  (106) 
0

>  <hbond:LEU:128>  (106) 
0

>  <saltbridge:ASP:129>  (106) 
0

>  <hbond:THR:134>  (106) 
0

>  <pication:HIS:51>  (106) 
0

>  <hbond:SER:81>  (106) 
0

>  <hbond:GLY:159>  (106) 
0

>  <hydroph_interaction:PRO:101>  (106) 
0

>  <hydroph_interaction:THR:134>  (106) 
0

>  <hbond:GLY:82>  (106) 
0

>  <hydroph_interaction:GLU:104>  (106) 
0

>  <hydroph_interaction:VAL:36>  (106) 
0

>  <hydroph_interaction:MET:49>  (106) 
0

>  <halogenbond:GLU:104>  (106) 
0

>  <hydroph_interaction:LYS:107>  (106) 
0

$$$$
BDRHWCPXAHAAIK-UHFFFAOYSA-N
     RDKit          3D

 27 28  0  0  0  0  0  0  0  0999 V2000
   -5.4430    5.6940  -17.6560 N   0  0  0  0  0  0  0  0  0  0  0  0
   -4.0420    5.4080  -17.9430 C   0  0  0  0  0  0  0  0  0  0  0  0
   -3.3220    5.0440  -16.6700 C   0  0  0  0  0  0  0  0  0  0  0  0
   -6.4190    5.4880  -18.7840 C   0  0  0  0  0  0  0  0  0  0  0  0
   -6.3470    6.4130  -19.8200 C   0  0  0  0  0  0  0  0  0  0  0  0
   -7.6990    5.2580  -18.2720 C   0  0  0  0  0  0  0  0  0  0  0  0
   -7.9800    5.3970  -16.9100 C   0  0  0  0  0  0  0  0  0  0  0  0
   -9.5960    5.0750  -16.5380 S   0  0  0  0  0  0  0  0  0  0  0  0
   -9.9800    4.7350  -18.1690 C   0  0  0  0  0  0  0  0  0  0  0  0
   -8.8700    4.8690  -19.0010 C   0  0  0  0  0  0  0  0  0  0  0  0
   -6.9840    5.7890  -15.8810 C   0  0  0  0  0  0  0  0  0  0  0  0
   -5.9420    6.4660  -16.5050 C   0  0  0  0  0  0  0  0  0  0  0  0
   -3.5850    6.2920  -18.4040 H   0  0  0  0  0  0  0  0  0  0  0  0
   -3.9290    4.6020  -18.6730 H   0  0  0  0  0  0  0  0  0  0  0  0
   -2.4980    4.3490  -16.7930 H   0  0  0  0  0  0  0  0  0  0  0  0
   -2.9460    5.9570  -16.2010 H   0  0  0  0  0  0  0  0  0  0  0  0
   -4.0260    4.5930  -15.9650 H   0  0  0  0  0  0  0  0  0  0  0  0
   -6.1440    4.5410  -19.2480 H   0  0  0  0  0  0  0  0  0  0  0  0
   -6.3240    5.9060  -20.7880 H   0  0  0  0  0  0  0  0  0  0  0  0
   -5.4450    7.0300  -19.7610 H   0  0  0  0  0  0  0  0  0  0  0  0
   -7.2170    7.0760  -19.8400 H   0  0  0  0  0  0  0  0  0  0  0  0
  -10.9870    4.4570  -18.4460 H   0  0  0  0  0  0  0  0  0  0  0  0
   -8.9040    4.6980  -20.0690 H   0  0  0  0  0  0  0  0  0  0  0  0
   -6.5930    4.9120  -15.3540 H   0  0  0  0  0  0  0  0  0  0  0  0
   -7.4620    6.4470  -15.1450 H   0  0  0  0  0  0  0  0  0  0  0  0
   -5.1500    6.5180  -15.7540 H   0  0  0  0  0  0  0  0  0  0  0  0
   -6.0880    7.4950  -16.8200 H   0  0  0  0  0  0  0  0  0  0  0  0
  1  2  1  0
  2  3  1  0
  1  4  1  0
  4  5  1  0
  4  6  1  0
  6  7  2  0
  7  8  1  0
  8  9  1  0
  9 10  2  0
  7 11  1  0
 11 12  1  0
 12  1  1  0
 10  6  1  0
  2 13  1  0
  2 14  1  0
  3 15  1  0
  3 16  1  0
  3 17  1  0
  4 18  1  0
  5 19  1  0
  5 20  1  0
  5 21  1  0
  9 22  1  0
 10 23  1  0
 11 24  1  0
 11 25  1  0
 12 26  1  0
 12 27  1  0
A    1
 N1 
A    2
 C1 
A    3
 C2 
A    4
 C3 
A    5
 C4 
A    6
 C5 
A    7
 C6 
A    8
 S1 
A    9
 C7 
A   10
 C8 
A   11
 C9 
A   12
 C10
A   13
 H1 
A   14
 H2 
A   15
 H3 
A   16
 H4 
A   17
 H5 
A   18
 H6 
A   19
 H7 
A   20
 H8 
A   21
 H9 
A   22
 H10
A   23
 H11
A   24
 H12
A   25
 H13
A   26
 H14
A   27
 H15
M  END
>  <ref_pdb>  (107) 
x0051_0B

>  <ref_mols>  (107) 
x0472_0B,x0386_0B

>  <original SMILES>  (107) 
[H]c1sc2c(c1[H])C([H])(C([H])([H])[H])N(C([H])([H])C([H])([H])[H])C([H])([H])C2([H])[H]

>  <index>  (107) 
137

>  <∆∆G>  (107) 
-7.393602

>  <∆G_bound>  (107) 
-7.562548

>  <∆G_unbound>  (107) 
-0.168946

>  <comRMSD>  (107) 
0.642238

>  <N_constrained_atoms>  (107) 
14.0

>  <N_unconstrained_atoms>  (107) 
0.0

>  <runtime>  (107) 
22.687302

>  <LE>  (107) 
0.528114

>  <percent_hybrid>  (107) 
13.0

>  <dist>  (107) 
3.0

>  <ecfp4>  (107) 
0.425532

>  <daylight>  (107) 
0.770492

>  <topodist>  (107) 
2.0

>  <mces>  (107) 
13.0

>  <tdn>  (107) 
2.0

>  <tup>  (107) 
0.0

>  <rdn>  (107) 
0.0

>  <rup>  (107) 
0.0

>  <ldn>  (107) 
0.0

>  <lup>  (107) 
0.0

>  <mut>  (107) 
1.0

>  <maj>  (107) 
1.0

>  <min>  (107) 
0.0

>  <hyb>  (107) 
0.0

>  <sub>  (107) 
1.0

>  <query_index>  (107) 
75.0

>  <max_hit_Tanimoto>  (107) 
0.6832

>  <largest_ring>  (107) 
0

>  <N_interactions_kept>  (107) 
3.0

>  <N_interactions_lost>  (107) 
0.0

>  <interaction_uniqueness_metric>  (107) 
0.046449

>  <ad_hoc_penalty>  (107) 
-28.379886

>  <N_rotatable_bonds>  (107) 
3

>  <N_HA>  (107) 
12

>  <cluster>  (107) 
506

>  <N_interactions>  (107) 
3

>  <Enamine>  (107) 
0

>  <Mcule>  (107) 
1

>  <N_PAINS>  (107) 
0

>  <UFF_Gibbs>  (107) 
50.557139

>  <strain_per_HA>  (107) 
4.213095

>  <saltbridge:HIS:51>  (107) 
0

>  <pistack:HIS:51>  (107) 
0

>  <hydroph_interaction:HIS:51>  (107) 
0

>  <hbond:ALA:132>  (107) 
0

>  <hbond:SER:135>  (107) 
0

>  <hydroph_interaction:TYR:150>  (107) 
0

>  <pistack:TYR:161>  (107) 
0

>  <hydroph_interaction:TYR:161>  (107) 
2

>  <hydroph_interaction:ASP:83>  (107) 
0

>  <hbond:TYR:130>  (107) 
0

>  <hydroph_interaction:ALA:132>  (107) 
0

>  <hbond:HIS:51>  (107) 
0

>  <hbond:ASP:129>  (107) 
0

>  <hbond:TYR:150>  (107) 
0

>  <hbond:GLY:151>  (107) 
0

>  <hbond:TYR:161>  (107) 
0

>  <hydroph_interaction:TYR:130>  (107) 
0

>  <hydroph_interaction:PRO:131>  (107) 
0

>  <hydroph_interaction:ASP:129>  (107) 
0

>  <saltbridge:ASP:75>  (107) 
0

>  <saltbridge:ASP:83>  (107) 
0

>  <hydroph_interaction:ASN:152>  (107) 
0

>  <halogenbond:TYR:150>  (107) 
0

>  <hbond:ASP:83>  (107) 
0

>  <hydroph_interaction:VAL:155>  (107) 
1

>  <pication:TYR:161>  (107) 
0

>  <hbond:PRO:131>  (107) 
0

>  <hbond:LEU:128>  (107) 
0

>  <saltbridge:ASP:129>  (107) 
0

>  <hbond:THR:134>  (107) 
0

>  <pication:HIS:51>  (107) 
0

>  <hbond:SER:81>  (107) 
0

>  <hbond:GLY:159>  (107) 
0

>  <hydroph_interaction:PRO:101>  (107) 
0

>  <hydroph_interaction:THR:134>  (107) 
0

>  <hbond:GLY:82>  (107) 
0

>  <hydroph_interaction:GLU:104>  (107) 
0

>  <hydroph_interaction:VAL:36>  (107) 
0

>  <hydroph_interaction:MET:49>  (107) 
0

>  <halogenbond:GLU:104>  (107) 
0

>  <hydroph_interaction:LYS:107>  (107) 
0

$$$$
Z2853450900
     RDKit          3D

 47 50  0  0  0  0  0  0  0  0999 V2000
   -9.3280    4.7930  -19.2020 C   0  0  0  0  0  0  0  0  0  0  0  0
  -10.2970    4.6610  -18.0650 C   0  0  0  0  0  0  0  0  0  0  0  0
   -9.6280    4.8700  -16.7070 C   0  0  0  0  0  0  0  0  0  0  0  0
   -8.2750    5.1610  -16.5040 C   0  0  0  0  0  0  0  0  0  0  0  0
   -7.4780    5.2650  -17.6440 C   0  0  0  0  0  0  0  0  0  0  0  0
   -7.9910    5.0820  -18.9570 C   0  0  0  0  0  0  0  0  0  0  0  0
   -6.0270    5.5850  -17.5210 C   0  0  0  0  0  0  0  0  0  0  0  0
   -5.7100    6.0490  -16.1500 C   0  0  0  0  0  0  0  0  0  0  0  0
   -6.3240    5.4600  -15.0460 C   0  0  0  0  0  0  0  0  0  0  0  0
   -7.7050    5.3620  -15.0800 C   0  0  0  0  0  0  0  0  0  0  0  0
   -8.1280    4.4060  -14.1800 N   0  0  0  0  0  0  0  0  0  0  0  0
   -7.8520    4.5960  -12.7660 C   0  0  0  0  0  0  0  0  0  0  0  0
   -8.7650    5.4700  -12.1740 C   0  0  0  0  0  0  0  0  0  0  0  0
   -8.8100    5.6300  -10.6450 C   0  0  0  0  0  0  0  0  0  0  0  0
   -8.9610    4.4590   -9.7250 C   0  0  0  0  0  0  0  0  0  0  0  0
   -9.0680    3.1420  -10.0980 C   0  0  0  0  0  0  0  0  0  0  0  0
   -9.4330    2.2900   -9.0670 C   0  0  0  0  0  0  0  0  0  0  0  0
   -9.5370    2.7860   -7.6630 C   0  0  0  0  0  0  0  0  0  0  0  0
   -9.1190    4.0910   -7.3150 C   0  0  0  0  0  0  0  0  0  0  0  0
   -8.9750    4.9350   -8.4770 N   0  0  0  0  0  0  0  0  0  0  0  0
   -8.8390    6.3140   -8.4300 N   0  0  0  0  0  0  0  0  0  0  0  0
   -8.7440    6.7150   -9.7310 C   0  0  0  0  0  0  0  0  0  0  0  0
   -9.7540    4.6530  -20.1960 H   0  0  0  0  0  0  0  0  0  0  0  0
  -11.3690    4.4420  -18.1110 H   0  0  0  0  0  0  0  0  0  0  0  0
  -10.2450    4.7930  -15.8020 H   0  0  0  0  0  0  0  0  0  0  0  0
   -7.3150    5.1750  -19.8010 H   0  0  0  0  0  0  0  0  0  0  0  0
   -5.7620    6.3770  -18.2260 H   0  0  0  0  0  0  0  0  0  0  0  0
   -5.4460    4.6970  -17.7650 H   0  0  0  0  0  0  0  0  0  0  0  0
   -5.9270    7.1220  -16.1170 H   0  0  0  0  0  0  0  0  0  0  0  0
   -4.6270    5.9670  -16.0070 H   0  0  0  0  0  0  0  0  0  0  0  0
   -5.9410    5.8310  -14.0980 H   0  0  0  0  0  0  0  0  0  0  0  0
   -5.9590    4.4300  -15.0450 H   0  0  0  0  0  0  0  0  0  0  0  0
   -8.1090    6.3380  -14.7790 H   0  0  0  0  0  0  0  0  0  0  0  0
   -8.0770    3.4440  -14.5040 H   0  0  0  0  0  0  0  0  0  0  0  0
   -7.8620    3.6170  -12.2730 H   0  0  0  0  0  0  0  0  0  0  0  0
   -6.8410    5.0140  -12.6670 H   0  0  0  0  0  0  0  0  0  0  0  0
   -9.7750    5.1600  -12.4660 H   0  0  0  0  0  0  0  0  0  0  0  0
   -8.6500    6.4680  -12.6060 H   0  0  0  0  0  0  0  0  0  0  0  0
   -9.8180    3.0710  -10.8960 H   0  0  0  0  0  0  0  0  0  0  0  0
   -8.1260    2.7930  -10.5270 H   0  0  0  0  0  0  0  0  0  0  0  0
  -10.4070    1.9110   -9.3280 H   0  0  0  0  0  0  0  0  0  0  0  0
   -8.7580    1.4290   -9.0720 H   0  0  0  0  0  0  0  0  0  0  0  0
   -8.9930    2.0900   -7.0200 H   0  0  0  0  0  0  0  0  0  0  0  0
  -10.5900    2.6850   -7.3700 H   0  0  0  0  0  0  0  0  0  0  0  0
   -9.8440    4.5560   -6.6390 H   0  0  0  0  0  0  0  0  0  0  0  0
   -8.1410    4.0640   -6.8220 H   0  0  0  0  0  0  0  0  0  0  0  0
   -8.6320    7.7700   -9.9490 H   0  0  0  0  0  0  0  0  0  0  0  0
  1  2  2  0
  2  3  1  0
  3  4  2  0
  4  5  1  0
  5  6  2  0
  5  7  1  0
  7  8  1  0
  8  9  1  0
  9 10  1  0
 10 11  1  0
 11 12  1  0
 12 13  1  0
 13 14  1  0
 14 15  2  0
 15 16  1  0
 16 17  1  0
 17 18  1  0
 18 19  1  0
 19 20  1  0
 20 21  1  0
 21 22  2  0
  6  1  1  0
 10  4  1  0
 22 14  1  0
 20 15  1  0
  1 23  1  0
  2 24  1  0
  3 25  1  0
  6 26  1  0
  7 27  1  0
  7 28  1  0
  8 29  1  0
  8 30  1  0
  9 31  1  0
  9 32  1  0
 10 33  1  0
 11 34  1  0
 12 35  1  0
 12 36  1  0
 13 37  1  0
 13 38  1  0
 16 39  1  0
 16 40  1  0
 17 41  1  0
 17 42  1  0
 18 43  1  0
 18 44  1  0
 19 45  1  0
 19 46  1  0
 22 47  1  0
A    1
 C1 
A    2
 C2 
A    3
 C3 
A    4
 C4 
A    5
 C5 
A    6
 C6 
A    7
 C7 
A    8
 C8 
A    9
 C9 
A   10
 C10
A   11
 N1 
A   12
 C11
A   13
 C12
A   14
 C13
A   15
 C14
A   16
 C15
A   17
 C16
A   18
 C17
A   19
 C18
A   20
 N2 
A   21
 N3 
A   22
 C19
A   23
 H1 
A   24
 H2 
A   25
 H3 
A   26
 H4 
A   27
 H5 
A   28
 H6 
A   29
 H7 
A   30
 H8 
A   31
 H9 
A   32
 H10
A   33
 H11
A   34
 H12
A   35
 H13
A   36
 H14
A   37
 H15
A   38
 H16
A   39
 H17
A   40
 H18
A   41
 H19
A   42
 H20
A   43
 H21
A   44
 H22
A   45
 H23
A   46
 H24
A   47
 H25
M  END
>  <ref_pdb>  (108) 
x0051_0B

>  <ref_mols>  (108) 
x0969_1B,x0455_0B

>  <original SMILES>  (108) 
[H]c1nn2c(c1C([H])([H])C([H])([H])N([H])C1([H])c3c([H])c([H])c([H])c([H])c3C([H])([H])C([H])([H])C1([H])[H])C([H])([H])C([H])([H])C([H])([H])C2([H])[H]

>  <index>  (108) 
109

>  <∆∆G>  (108) 
-7.022119

>  <∆G_bound>  (108) 
-6.415624

>  <∆G_unbound>  (108) 
0.606495

>  <comRMSD>  (108) 
0.352077

>  <N_constrained_atoms>  (108) 
20.0

>  <N_unconstrained_atoms>  (108) 
2.0

>  <runtime>  (108) 
75.536352

>  <LE>  (108) 
0.319187

>  <percent_hybrid>  (108) 
50.0

>  <dist>  (108) 
5.0

>  <ecfp4>  (108) 
0.278481

>  <daylight>  (108) 
0.280597

>  <topodist>  (108) 
0.0

>  <mces>  (108) 
25.0

>  <tdn>  (108) 
0.0

>  <tup>  (108) 
0.0

>  <rdn>  (108) 
0.0

>  <rup>  (108) 
0.0

>  <ldn>  (108) 
0.0

>  <lup>  (108) 
0.0

>  <mut>  (108) 
5.0

>  <maj>  (108) 
5.0

>  <min>  (108) 
0.0

>  <hyb>  (108) 
0.0

>  <sub>  (108) 
0.0

>  <query_index>  (108) 
204.0

>  <max_hit_Tanimoto>  (108) 
0.336345

>  <largest_ring>  (108) 
0

>  <N_interactions_kept>  (108) 
1.0

>  <N_interactions_lost>  (108) 
1.5

>  <interaction_uniqueness_metric>  (108) 
0.113871

>  <ad_hoc_penalty>  (108) 
-28.277165

>  <N_rotatable_bonds>  (108) 
4

>  <N_HA>  (108) 
22

>  <cluster>  (108) 
6117

>  <N_interactions>  (108) 
7

>  <Enamine>  (108) 
1

>  <Mcule>  (108) 
0

>  <N_PAINS>  (108) 
0

>  <UFF_Gibbs>  (108) 
140.864947

>  <strain_per_HA>  (108) 
6.402952

>  <saltbridge:HIS:51>  (108) 
0

>  <pistack:HIS:51>  (108) 
0

>  <hydroph_interaction:HIS:51>  (108) 
1

>  <hbond:ALA:132>  (108) 
0

>  <hbond:SER:135>  (108) 
0

>  <hydroph_interaction:TYR:150>  (108) 
1

>  <pistack:TYR:161>  (108) 
0

>  <hydroph_interaction:TYR:161>  (108) 
4

>  <hydroph_interaction:ASP:83>  (108) 
0

>  <hbond:TYR:130>  (108) 
0

>  <hydroph_interaction:ALA:132>  (108) 
0

>  <hbond:HIS:51>  (108) 
0

>  <hbond:ASP:129>  (108) 
0

>  <hbond:TYR:150>  (108) 
0

>  <hbond:GLY:151>  (108) 
0

>  <hbond:TYR:161>  (108) 
1

>  <hydroph_interaction:TYR:130>  (108) 
0

>  <hydroph_interaction:PRO:131>  (108) 
0

>  <hydroph_interaction:ASP:129>  (108) 
0

>  <saltbridge:ASP:75>  (108) 
0

>  <saltbridge:ASP:83>  (108) 
0

>  <hydroph_interaction:ASN:152>  (108) 
0

>  <halogenbond:TYR:150>  (108) 
0

>  <hbond:ASP:83>  (108) 
0

>  <hydroph_interaction:VAL:155>  (108) 
0

>  <pication:TYR:161>  (108) 
0

>  <hbond:PRO:131>  (108) 
0

>  <hbond:LEU:128>  (108) 
0

>  <saltbridge:ASP:129>  (108) 
0

>  <hbond:THR:134>  (108) 
0

>  <pication:HIS:51>  (108) 
0

>  <hbond:SER:81>  (108) 
0

>  <hbond:GLY:159>  (108) 
0

>  <hydroph_interaction:PRO:101>  (108) 
0

>  <hydroph_interaction:THR:134>  (108) 
0

>  <hbond:GLY:82>  (108) 
0

>  <hydroph_interaction:GLU:104>  (108) 
0

>  <hydroph_interaction:VAL:36>  (108) 
0

>  <hydroph_interaction:MET:49>  (108) 
0

>  <halogenbond:GLU:104>  (108) 
0

>  <hydroph_interaction:LYS:107>  (108) 
0

$$$$
CSSB00008030654
     RDKit          3D

 34 36  0  0  0  0  0  0  0  0999 V2000
   -6.0290    5.0220  -15.0730 O   0  0  0  0  0  0  0  0  0  0  0  0
   -5.2970    5.7100  -16.1200 C   0  0  0  0  0  0  0  0  0  0  0  0
   -5.2430    7.1700  -15.6680 C   0  0  0  0  0  0  0  0  0  0  0  0
   -4.1830    7.3270  -14.5640 C   0  0  0  0  0  0  0  0  0  0  0  0
   -3.8210    6.0930  -13.8470 N   0  0  0  0  0  0  0  0  0  0  0  0
   -3.2760    5.0470  -14.7090 C   0  0  0  0  0  0  0  0  0  0  0  0
   -3.8720    5.1000  -16.1110 C   0  0  0  0  0  0  0  0  0  0  0  0
   -6.0210    5.5140  -17.4590 C   0  0  0  0  0  0  0  0  0  0  0  0
   -5.1760    5.5980  -18.7210 C   0  0  0  0  0  0  0  0  0  0  0  0
   -5.7380    5.4130  -19.9630 C   0  0  0  0  0  0  0  0  0  0  0  0
   -7.0860    5.1490  -20.0600 C   0  0  0  0  0  0  0  0  0  0  0  0
   -7.9120    5.0730  -18.9370 C   0  0  0  0  0  0  0  0  0  0  0  0
   -9.2740    4.8100  -19.1490 C   0  0  0  0  0  0  0  0  0  0  0  0
  -10.1500    4.7180  -18.0710 C   0  0  0  0  0  0  0  0  0  0  0  0
   -9.6690    4.8860  -16.7830 C   0  0  0  0  0  0  0  0  0  0  0  0
   -8.3240    5.1480  -16.5550 C   0  0  0  0  0  0  0  0  0  0  0  0
   -7.4240    5.2480  -17.6170 C   0  0  0  0  0  0  0  0  0  0  0  0
   -5.6440    5.3030  -14.2260 H   0  0  0  0  0  0  0  0  0  0  0  0
   -6.2130    7.5160  -15.2910 H   0  0  0  0  0  0  0  0  0  0  0  0
   -4.9780    7.8280  -16.5050 H   0  0  0  0  0  0  0  0  0  0  0  0
   -4.5430    8.0600  -13.8320 H   0  0  0  0  0  0  0  0  0  0  0  0
   -3.2690    7.7560  -14.9940 H   0  0  0  0  0  0  0  0  0  0  0  0
   -3.1220    6.3320  -13.1400 H   0  0  0  0  0  0  0  0  0  0  0  0
   -2.1840    5.1180  -14.7340 H   0  0  0  0  0  0  0  0  0  0  0  0
   -3.5010    4.0680  -14.2660 H   0  0  0  0  0  0  0  0  0  0  0  0
   -3.8320    4.1020  -16.5440 H   0  0  0  0  0  0  0  0  0  0  0  0
   -3.2000    5.7030  -16.7380 H   0  0  0  0  0  0  0  0  0  0  0  0
   -4.1070    5.7990  -18.6800 H   0  0  0  0  0  0  0  0  0  0  0  0
   -5.1260    5.4710  -20.8600 H   0  0  0  0  0  0  0  0  0  0  0  0
   -7.4910    4.9980  -21.0450 H   0  0  0  0  0  0  0  0  0  0  0  0
   -9.6560    4.6780  -20.1570 H   0  0  0  0  0  0  0  0  0  0  0  0
  -11.2040    4.5160  -18.2440 H   0  0  0  0  0  0  0  0  0  0  0  0
  -10.3410    4.8120  -15.9330 H   0  0  0  0  0  0  0  0  0  0  0  0
   -8.0190    5.2670  -15.5240 H   0  0  0  0  0  0  0  0  0  0  0  0
  1  2  1  0
  2  3  1  0
  3  4  1  0
  4  5  1  0
  5  6  1  0
  6  7  1  0
  2  8  1  0
  8  9  2  0
  9 10  1  0
 10 11  2  0
 11 12  1  0
 12 13  2  0
 13 14  1  0
 14 15  2  0
 15 16  1  0
 16 17  2  0
  7  2  1  0
 17  8  1  0
 17 12  1  0
  1 18  1  0
  3 19  1  0
  3 20  1  0
  4 21  1  0
  4 22  1  0
  5 23  1  0
  6 24  1  0
  6 25  1  0
  7 26  1  0
  7 27  1  0
  9 28  1  0
 10 29  1  0
 11 30  1  0
 13 31  1  0
 14 32  1  0
 15 33  1  0
 16 34  1  0
A    1
 O1 
A    2
 C1 
A    3
 C2 
A    4
 C3 
A    5
 N1 
A    6
 C4 
A    7
 C5 
A    8
 C6 
A    9
 C7 
A   10
 C8 
A   11
 C9 
A   12
 C10
A   13
 C11
A   14
 C12
A   15
 C13
A   16
 C14
A   17
 C15
A   18
 H1 
A   19
 H2 
A   20
 H3 
A   21
 H4 
A   22
 H5 
A   23
 H6 
A   24
 H7 
A   25
 H8 
A   26
 H9 
A   27
 H10
A   28
 H11
A   29
 H12
A   30
 H13
A   31
 H14
A   32
 H15
A   33
 H16
A   34
 H17
M  END
>  <ref_pdb>  (109) 
x0051_0B

>  <ref_mols>  (109) 
x0429_0B,x0455_0B

>  <original SMILES>  (109) 
[H]OC1(c2c([H])c([H])c([H])c3c([H])c([H])c([H])c([H])c23)C([H])([H])C([H])([H])N([H])C([H])([H])C1([H])[H]

>  <index>  (109) 
201

>  <∆∆G>  (109) 
-6.994044

>  <∆G_bound>  (109) 
-6.748231

>  <∆G_unbound>  (109) 
0.245812

>  <comRMSD>  (109) 
0.324347

>  <N_constrained_atoms>  (109) 
18.0

>  <N_unconstrained_atoms>  (109) 
0.0

>  <runtime>  (109) 
25.441622

>  <LE>  (109) 
0.388558

>  <percent_hybrid>  (109) 
20.0

>  <dist>  (109) 
4.0

>  <ecfp4>  (109) 
0.306122

>  <daylight>  (109) 
0.447619

>  <topodist>  (109) 
2.0

>  <mces>  (109) 
19.0

>  <tdn>  (109) 
1.0

>  <tup>  (109) 
0.0

>  <rdn>  (109) 
1.0

>  <rup>  (109) 
0.0

>  <ldn>  (109) 
0.0

>  <lup>  (109) 
0.0

>  <mut>  (109) 
2.0

>  <maj>  (109) 
2.0

>  <min>  (109) 
0.0

>  <hyb>  (109) 
0.0

>  <sub>  (109) 
1.0

>  <query_index>  (109) 
158.0

>  <max_hit_Tanimoto>  (109) 
0.174033

>  <largest_ring>  (109) 
0

>  <N_interactions_kept>  (109) 
0.0

>  <N_interactions_lost>  (109) 
2.5

>  <interaction_uniqueness_metric>  (109) 
0.089604

>  <ad_hoc_penalty>  (109) 
-28.262138

>  <N_rotatable_bonds>  (109) 
2

>  <N_HA>  (109) 
17

>  <cluster>  (109) 
6036

>  <N_interactions>  (109) 
7

>  <Enamine>  (109) 
1

>  <Mcule>  (109) 
0

>  <N_PAINS>  (109) 
0

>  <UFF_Gibbs>  (109) 
38.863803

>  <strain_per_HA>  (109) 
2.286106

>  <saltbridge:HIS:51>  (109) 
0

>  <pistack:HIS:51>  (109) 
0

>  <hydroph_interaction:HIS:51>  (109) 
0

>  <hbond:ALA:132>  (109) 
0

>  <hbond:SER:135>  (109) 
0

>  <hydroph_interaction:TYR:150>  (109) 
1

>  <pistack:TYR:161>  (109) 
1

>  <hydroph_interaction:TYR:161>  (109) 
4

>  <hydroph_interaction:ASP:83>  (109) 
0

>  <hbond:TYR:130>  (109) 
0

>  <hydroph_interaction:ALA:132>  (109) 
0

>  <hbond:HIS:51>  (109) 
0

>  <hbond:ASP:129>  (109) 
0

>  <hbond:TYR:150>  (109) 
0

>  <hbond:GLY:151>  (109) 
0

>  <hbond:TYR:161>  (109) 
1

>  <hydroph_interaction:TYR:130>  (109) 
0

>  <hydroph_interaction:PRO:131>  (109) 
0

>  <hydroph_interaction:ASP:129>  (109) 
0

>  <saltbridge:ASP:75>  (109) 
0

>  <saltbridge:ASP:83>  (109) 
0

>  <hydroph_interaction:ASN:152>  (109) 
0

>  <halogenbond:TYR:150>  (109) 
0

>  <hbond:ASP:83>  (109) 
0

>  <hydroph_interaction:VAL:155>  (109) 
0

>  <pication:TYR:161>  (109) 
0

>  <hbond:PRO:131>  (109) 
0

>  <hbond:LEU:128>  (109) 
0

>  <saltbridge:ASP:129>  (109) 
0

>  <hbond:THR:134>  (109) 
0

>  <pication:HIS:51>  (109) 
0

>  <hbond:SER:81>  (109) 
0

>  <hbond:GLY:159>  (109) 
0

>  <hydroph_interaction:PRO:101>  (109) 
0

>  <hydroph_interaction:THR:134>  (109) 
0

>  <hbond:GLY:82>  (109) 
0

>  <hydroph_interaction:GLU:104>  (109) 
0

>  <hydroph_interaction:VAL:36>  (109) 
0

>  <hydroph_interaction:MET:49>  (109) 
0

>  <halogenbond:GLU:104>  (109) 
0

>  <hydroph_interaction:LYS:107>  (109) 
0

$$$$
Z1395072713
     RDKit          3D

 36 37  0  0  0  0  0  0  0  0999 V2000
   -2.6790    3.0520  -15.3410 C   0  0  0  0  0  0  0  0  0  0  0  0
   -3.4880    4.2600  -15.8150 C   0  0  0  0  0  0  0  0  0  0  0  0
   -2.9350    4.9340  -17.0880 C   0  0  0  0  0  0  0  0  0  0  0  0
   -2.0780    3.9580  -17.9170 C   0  0  0  0  0  0  0  0  0  0  0  0
   -3.9980    5.5470  -18.0520 C   0  0  0  0  0  0  0  0  0  0  0  0
   -5.4020    5.4790  -17.6100 N   0  0  0  0  0  0  0  0  0  0  0  0
   -5.6590    6.2250  -16.3560 C   0  0  0  0  0  0  0  0  0  0  0  0
   -7.0660    5.9440  -15.7690 C   0  0  0  0  0  0  0  0  0  0  0  0
   -8.0340    5.5320  -16.8310 C   0  0  0  0  0  0  0  0  0  0  0  0
   -7.7370    5.5020  -18.1700 C   0  0  0  0  0  0  0  0  0  0  0  0
   -8.8590    5.0530  -18.9480 C   0  0  0  0  0  0  0  0  0  0  0  0
   -9.9550    4.7750  -18.1600 C   0  0  0  0  0  0  0  0  0  0  0  0
   -9.6200    5.0510  -16.5030 S   0  0  0  0  0  0  0  0  0  0  0  0
   -6.3760    5.9090  -18.6550 C   0  0  0  0  0  0  0  0  0  0  0  0
   -6.1820    5.4340  -20.1040 C   0  0  0  0  0  0  0  0  0  0  0  0
   -3.2110    2.5080  -14.5570 H   0  0  0  0  0  0  0  0  0  0  0  0
   -1.6980    3.3460  -14.9580 H   0  0  0  0  0  0  0  0  0  0  0  0
   -2.5100    2.3630  -16.1680 H   0  0  0  0  0  0  0  0  0  0  0  0
   -4.5120    3.9160  -15.9990 H   0  0  0  0  0  0  0  0  0  0  0  0
   -3.5360    4.9890  -14.9990 H   0  0  0  0  0  0  0  0  0  0  0  0
   -2.2710    5.7490  -16.7700 H   0  0  0  0  0  0  0  0  0  0  0  0
   -1.0240    4.0190  -17.6340 H   0  0  0  0  0  0  0  0  0  0  0  0
   -2.1540    4.1820  -18.9830 H   0  0  0  0  0  0  0  0  0  0  0  0
   -2.4080    2.9260  -17.7890 H   0  0  0  0  0  0  0  0  0  0  0  0
   -3.7100    6.5990  -18.1740 H   0  0  0  0  0  0  0  0  0  0  0  0
   -3.8860    5.1040  -19.0500 H   0  0  0  0  0  0  0  0  0  0  0  0
   -5.5400    7.3020  -16.5270 H   0  0  0  0  0  0  0  0  0  0  0  0
   -4.9340    5.9670  -15.5830 H   0  0  0  0  0  0  0  0  0  0  0  0
   -6.9900    5.1690  -14.9990 H   0  0  0  0  0  0  0  0  0  0  0  0
   -7.4410    6.8570  -15.2940 H   0  0  0  0  0  0  0  0  0  0  0  0
   -8.8630    4.9440  -20.0240 H   0  0  0  0  0  0  0  0  0  0  0  0
  -10.9280    4.4280  -18.4690 H   0  0  0  0  0  0  0  0  0  0  0  0
   -6.3680    7.0060  -18.6670 H   0  0  0  0  0  0  0  0  0  0  0  0
   -5.2840    4.8250  -20.2320 H   0  0  0  0  0  0  0  0  0  0  0  0
   -6.1200    6.2750  -20.8030 H   0  0  0  0  0  0  0  0  0  0  0  0
   -7.0320    4.8230  -20.4310 H   0  0  0  0  0  0  0  0  0  0  0  0
  1  2  1  0
  2  3  1  0
  3  4  1  0
  3  5  1  0
  5  6  1  0
  6  7  1  0
  7  8  1  0
  8  9  1  0
  9 10  2  0
 10 11  1  0
 11 12  2  0
 12 13  1  0
 10 14  1  0
 14 15  1  0
 14  6  1  0
 13  9  1  0
  1 16  1  0
  1 17  1  0
  1 18  1  0
  2 19  1  0
  2 20  1  0
  3 21  1  0
  4 22  1  0
  4 23  1  0
  4 24  1  0
  5 25  1  0
  5 26  1  0
  7 27  1  0
  7 28  1  0
  8 29  1  0
  8 30  1  0
 11 31  1  0
 12 32  1  0
 14 33  1  0
 15 34  1  0
 15 35  1  0
 15 36  1  0
A    1
 C1 
A    2
 C2 
A    3
 C3 
A    4
 C4 
A    5
 C5 
A    6
 N1 
A    7
 C6 
A    8
 C7 
A    9
 C8 
A   10
 C9 
A   11
 C10
A   12
 C11
A   13
 S1 
A   14
 C12
A   15
 C13
A   16
 H1 
A   17
 H2 
A   18
 H3 
A   19
 H4 
A   20
 H5 
A   21
 H6 
A   22
 H7 
A   23
 H8 
A   24
 H9 
A   25
 H10
A   26
 H11
A   27
 H12
A   28
 H13
A   29
 H14
A   30
 H15
A   31
 H16
A   32
 H17
A   33
 H18
A   34
 H19
A   35
 H20
A   36
 H21
M  END
>  <ref_pdb>  (110) 
x0051_0B

>  <ref_mols>  (110) 
x0472_0B,x0386_0B

>  <original SMILES>  (110) 
[H]c1sc2c(c1[H])C([H])(C([H])([H])[H])N(C([H])([H])C([H])(C([H])([H])[H])C([H])([H])C([H])([H])[H])C([H])([H])C2([H])[H]

>  <index>  (110) 
124

>  <∆∆G>  (110) 
-9.030439

>  <∆G_bound>  (110) 
-9.014852

>  <∆G_unbound>  (110) 
0.015587

>  <comRMSD>  (110) 
0.471987

>  <N_constrained_atoms>  (110) 
14.0

>  <N_unconstrained_atoms>  (110) 
2.0

>  <runtime>  (110) 
28.239668

>  <LE>  (110) 
0.564402

>  <percent_hybrid>  (110) 
13.0

>  <dist>  (110) 
3.0

>  <ecfp4>  (110) 
0.384615

>  <daylight>  (110) 
0.712121

>  <topodist>  (110) 
1.0

>  <mces>  (110) 
15.0

>  <tdn>  (110) 
0.0

>  <tup>  (110) 
0.0

>  <rdn>  (110) 
0.0

>  <rup>  (110) 
0.0

>  <ldn>  (110) 
0.0

>  <lup>  (110) 
1.0

>  <mut>  (110) 
2.0

>  <maj>  (110) 
2.0

>  <min>  (110) 
0.0

>  <hyb>  (110) 
0.0

>  <sub>  (110) 
0.0

>  <query_index>  (110) 
75.0

>  <max_hit_Tanimoto>  (110) 
0.644444

>  <largest_ring>  (110) 
0

>  <N_interactions_kept>  (110) 
2.0

>  <N_interactions_lost>  (110) 
1.0

>  <interaction_uniqueness_metric>  (110) 
0.156227

>  <ad_hoc_penalty>  (110) 
-28.258458

>  <N_rotatable_bonds>  (110) 
6

>  <N_HA>  (110) 
15

>  <cluster>  (110) 
6104

>  <N_interactions>  (110) 
6

>  <Enamine>  (110) 
1

>  <Mcule>  (110) 
0

>  <N_PAINS>  (110) 
0

>  <UFF_Gibbs>  (110) 
96.027521

>  <strain_per_HA>  (110) 
6.401835

>  <saltbridge:HIS:51>  (110) 
0

>  <pistack:HIS:51>  (110) 
0

>  <hydroph_interaction:HIS:51>  (110) 
0

>  <hbond:ALA:132>  (110) 
0

>  <hbond:SER:135>  (110) 
0

>  <hydroph_interaction:TYR:150>  (110) 
0

>  <pistack:TYR:161>  (110) 
0

>  <hydroph_interaction:TYR:161>  (110) 
3

>  <hydroph_interaction:ASP:83>  (110) 
0

>  <hbond:TYR:130>  (110) 
0

>  <hydroph_interaction:ALA:132>  (110) 
1

>  <hbond:HIS:51>  (110) 
0

>  <hbond:ASP:129>  (110) 
0

>  <hbond:TYR:150>  (110) 
0

>  <hbond:GLY:151>  (110) 
0

>  <hbond:TYR:161>  (110) 
0

>  <hydroph_interaction:TYR:130>  (110) 
0

>  <hydroph_interaction:PRO:131>  (110) 
0

>  <hydroph_interaction:ASP:129>  (110) 
0

>  <saltbridge:ASP:75>  (110) 
0

>  <saltbridge:ASP:83>  (110) 
0

>  <hydroph_interaction:ASN:152>  (110) 
0

>  <halogenbond:TYR:150>  (110) 
0

>  <hbond:ASP:83>  (110) 
0

>  <hydroph_interaction:VAL:155>  (110) 
1

>  <pication:TYR:161>  (110) 
1

>  <hbond:PRO:131>  (110) 
0

>  <hbond:LEU:128>  (110) 
0

>  <saltbridge:ASP:129>  (110) 
0

>  <hbond:THR:134>  (110) 
0

>  <pication:HIS:51>  (110) 
0

>  <hbond:SER:81>  (110) 
0

>  <hbond:GLY:159>  (110) 
0

>  <hydroph_interaction:PRO:101>  (110) 
0

>  <hydroph_interaction:THR:134>  (110) 
0

>  <hbond:GLY:82>  (110) 
0

>  <hydroph_interaction:GLU:104>  (110) 
0

>  <hydroph_interaction:VAL:36>  (110) 
0

>  <hydroph_interaction:MET:49>  (110) 
0

>  <halogenbond:GLU:104>  (110) 
0

>  <hydroph_interaction:LYS:107>  (110) 
0

$$$$
DCPVJZLCGHFTFE-UHFFFAOYSA-N
     RDKit          3D

 38 41  0  0  0  0  0  0  0  0999 V2000
   -7.9630    5.4000  -12.6630 O   0  0  0  0  0  0  0  0  0  0  0  0
   -8.7570    6.2010  -11.9020 C   0  0  0  0  0  0  0  0  0  0  0  0
   -9.3780    7.1530  -12.3840 O   0  0  0  0  0  0  0  0  0  0  0  0
   -8.8190    5.8590  -10.4860 C   0  0  0  0  0  0  0  0  0  0  0  0
   -8.9280    4.6170   -9.8110 C   0  0  0  0  0  0  0  0  0  0  0  0
   -8.9550    4.9320   -8.4820 N   0  0  0  0  0  0  0  0  0  0  0  0
   -9.0710    3.9700   -7.4070 C   0  0  0  0  0  0  0  0  0  0  0  0
   -9.6030    2.7720   -7.8660 C   0  0  0  0  0  0  0  0  0  0  0  0
   -9.4330    2.3510   -9.1840 C   0  0  0  0  0  0  0  0  0  0  0  0
   -9.0150    3.1990  -10.2320 C   0  0  0  0  0  0  0  0  0  0  0  0
   -8.8610    6.2430   -8.2230 N   0  0  0  0  0  0  0  0  0  0  0  0
   -8.7800    6.8000   -9.4310 C   0  0  0  0  0  0  0  0  0  0  0  0
   -8.6240    4.8170  -13.7940 C   0  0  0  0  0  0  0  0  0  0  0  0
   -7.8490    5.0550  -15.0650 C   0  0  0  0  0  0  0  0  0  0  0  0
   -8.3920    5.0120  -16.3760 C   0  0  0  0  0  0  0  0  0  0  0  0
   -7.4650    5.2550  -17.4130 C   0  0  0  0  0  0  0  0  0  0  0  0
   -7.8050    5.2470  -18.9140 C   0  0  0  0  0  0  0  0  0  0  0  0
   -9.2480    4.9590  -19.3090 C   0  0  0  0  0  0  0  0  0  0  0  0
  -10.2140    4.7140  -18.1710 C   0  0  0  0  0  0  0  0  0  0  0  0
   -9.7320    4.7530  -16.7290 C   0  0  0  0  0  0  0  0  0  0  0  0
   -5.9180    5.5480  -16.7080 S   0  0  0  0  0  0  0  0  0  0  0  0
   -6.4980    5.3400  -15.1170 C   0  0  0  0  0  0  0  0  0  0  0  0
   -8.0910    3.9520   -6.9430 H   0  0  0  0  0  0  0  0  0  0  0  0
   -9.7630    4.3980   -6.6750 H   0  0  0  0  0  0  0  0  0  0  0  0
   -9.1610    1.9870   -7.2390 H   0  0  0  0  0  0  0  0  0  0  0  0
  -10.6710    2.7610   -7.6330 H   0  0  0  0  0  0  0  0  0  0  0  0
  -10.3880    1.9690   -9.5110 H   0  0  0  0  0  0  0  0  0  0  0  0
   -8.7530    1.4950   -9.1720 H   0  0  0  0  0  0  0  0  0  0  0  0
   -9.7160    3.0920  -11.0520 H   0  0  0  0  0  0  0  0  0  0  0  0
   -8.0380    2.8810  -10.6050 H   0  0  0  0  0  0  0  0  0  0  0  0
   -8.6970    7.8890   -9.5050 H   0  0  0  0  0  0  0  0  0  0  0  0
   -8.5880    3.7430  -13.5910 H   0  0  0  0  0  0  0  0  0  0  0  0
   -9.6900    5.0380  -13.7970 H   0  0  0  0  0  0  0  0  0  0  0  0
   -7.0260    5.4410  -19.6450 H   0  0  0  0  0  0  0  0  0  0  0  0
   -9.6680    4.9110  -20.3050 H   0  0  0  0  0  0  0  0  0  0  0  0
  -11.2520    4.5100  -18.3880 H   0  0  0  0  0  0  0  0  0  0  0  0
  -10.4550    4.5700  -15.9400 H   0  0  0  0  0  0  0  0  0  0  0  0
   -5.8140    5.4370  -14.2880 H   0  0  0  0  0  0  0  0  0  0  0  0
  1  2  1  0
  2  3  2  0
  2  4  1  0
  4  5  2  0
  5  6  1  0
  6  7  1  0
  7  8  1  0
  8  9  1  0
  9 10  1  0
  6 11  1  0
 11 12  2  0
  1 13  1  0
 13 14  1  0
 14 15  1  0
 15 16  1  0
 16 17  2  0
 17 18  1  0
 18 19  2  0
 19 20  1  0
 16 21  1  0
 21 22  1  0
 12  4  1  0
 10  5  1  0
 14 22  2  0
 20 15  2  0
  7 23  1  0
  7 24  1  0
  8 25  1  0
  8 26  1  0
  9 27  1  0
  9 28  1  0
 10 29  1  0
 10 30  1  0
 12 31  1  0
 13 32  1  0
 13 33  1  0
 17 34  1  0
 18 35  1  0
 19 36  1  0
 20 37  1  0
 22 38  1  0
A    1
 O1 
A    2
 C1 
A    3
 O2 
A    4
 C2 
A    5
 C3 
A    6
 N1 
A    7
 C4 
A    8
 C5 
A    9
 C6 
A   10
 C7 
A   11
 N2 
A   12
 C8 
A   13
 C9 
A   14
 C10
A   15
 C11
A   16
 C12
A   17
 C13
A   18
 C14
A   19
 C15
A   20
 C16
A   21
 S1 
A   22
 C17
A   23
 H1 
A   24
 H2 
A   25
 H3 
A   26
 H4 
A   27
 H5 
A   28
 H6 
A   29
 H7 
A   30
 H8 
A   31
 H9 
A   32
 H10
A   33
 H11
A   34
 H12
A   35
 H13
A   36
 H14
A   37
 H15
A   38
 H16
M  END
>  <ref_pdb>  (111) 
x0051_0B

>  <ref_mols>  (111) 
x0969_1B,x0455_0B

>  <original SMILES>  (111) 
[H]c1nn2c(c1C(=O)OC([H])([H])c1c([H])sc3c([H])c([H])c([H])c([H])c13)C([H])([H])C([H])([H])C([H])([H])C2([H])[H]

>  <index>  (111) 
139

>  <∆∆G>  (111) 
-7.361537

>  <∆G_bound>  (111) 
-6.624807

>  <∆G_unbound>  (111) 
0.73673

>  <comRMSD>  (111) 
0.405412

>  <N_constrained_atoms>  (111) 
19.0

>  <N_unconstrained_atoms>  (111) 
3.0

>  <runtime>  (111) 
47.814978

>  <LE>  (111) 
0.334615

>  <percent_hybrid>  (111) 
48.0

>  <dist>  (111) 
8.0

>  <ecfp4>  (111) 
0.211765

>  <daylight>  (111) 
0.284916

>  <topodist>  (111) 
2.0

>  <mces>  (111) 
24.0

>  <tdn>  (111) 
0.0

>  <tup>  (111) 
1.0

>  <rdn>  (111) 
0.0

>  <rup>  (111) 
0.0

>  <ldn>  (111) 
1.0

>  <lup>  (111) 
0.0

>  <mut>  (111) 
3.0

>  <maj>  (111) 
3.0

>  <min>  (111) 
0.0

>  <hyb>  (111) 
3.0

>  <sub>  (111) 
0.0

>  <query_index>  (111) 
204.0

>  <max_hit_Tanimoto>  (111) 
0.298481

>  <largest_ring>  (111) 
0

>  <N_interactions_kept>  (111) 
1.5

>  <N_interactions_lost>  (111) 
1.0

>  <interaction_uniqueness_metric>  (111) 
0.130271

>  <ad_hoc_penalty>  (111) 
-28.215386

>  <N_rotatable_bonds>  (111) 
3

>  <N_HA>  (111) 
22

>  <cluster>  (111) 
6091

>  <N_interactions>  (111) 
5

>  <Enamine>  (111) 
0

>  <Mcule>  (111) 
1

>  <N_PAINS>  (111) 
0

>  <UFF_Gibbs>  (111) 
111.608835

>  <strain_per_HA>  (111) 
5.073129

>  <saltbridge:HIS:51>  (111) 
1

>  <pistack:HIS:51>  (111) 
0

>  <hydroph_interaction:HIS:51>  (111) 
0

>  <hbond:ALA:132>  (111) 
0

>  <hbond:SER:135>  (111) 
0

>  <hydroph_interaction:TYR:150>  (111) 
1

>  <pistack:TYR:161>  (111) 
1

>  <hydroph_interaction:TYR:161>  (111) 
2

>  <hydroph_interaction:ASP:83>  (111) 
0

>  <hbond:TYR:130>  (111) 
0

>  <hydroph_interaction:ALA:132>  (111) 
0

>  <hbond:HIS:51>  (111) 
0

>  <hbond:ASP:129>  (111) 
0

>  <hbond:TYR:150>  (111) 
0

>  <hbond:GLY:151>  (111) 
0

>  <hbond:TYR:161>  (111) 
0

>  <hydroph_interaction:TYR:130>  (111) 
0

>  <hydroph_interaction:PRO:131>  (111) 
0

>  <hydroph_interaction:ASP:129>  (111) 
0

>  <saltbridge:ASP:75>  (111) 
0

>  <saltbridge:ASP:83>  (111) 
0

>  <hydroph_interaction:ASN:152>  (111) 
0

>  <halogenbond:TYR:150>  (111) 
0

>  <hbond:ASP:83>  (111) 
0

>  <hydroph_interaction:VAL:155>  (111) 
0

>  <pication:TYR:161>  (111) 
0

>  <hbond:PRO:131>  (111) 
0

>  <hbond:LEU:128>  (111) 
0

>  <saltbridge:ASP:129>  (111) 
0

>  <hbond:THR:134>  (111) 
0

>  <pication:HIS:51>  (111) 
0

>  <hbond:SER:81>  (111) 
0

>  <hbond:GLY:159>  (111) 
0

>  <hydroph_interaction:PRO:101>  (111) 
0

>  <hydroph_interaction:THR:134>  (111) 
0

>  <hbond:GLY:82>  (111) 
0

>  <hydroph_interaction:GLU:104>  (111) 
0

>  <hydroph_interaction:VAL:36>  (111) 
0

>  <hydroph_interaction:MET:49>  (111) 
0

>  <halogenbond:GLU:104>  (111) 
0

>  <hydroph_interaction:LYS:107>  (111) 
0

$$$$
MCULE-6803197119
     RDKit          3D

 52 56  0  0  0  0  0  0  0  0999 V2000
   -7.3880    9.8200  -27.1210 C   0  0  0  0  0  0  0  0  0  0  0  0
   -6.1900   10.3040  -26.6860 N   0  0  0  0  0  0  0  0  0  0  0  0
   -5.8600    9.9250  -25.4320 C   0  0  0  0  0  0  0  0  0  0  0  0
   -6.5930    8.7570  -24.7900 C   0  0  0  0  0  0  0  0  0  0  0  0
   -5.9870    8.3620  -23.4990 C   0  0  0  0  0  0  0  0  0  0  0  0
   -5.5860    9.5760  -22.6780 C   0  0  0  0  0  0  0  0  0  0  0  0
   -4.9370    9.2020  -21.3330 C   0  0  0  0  0  0  0  0  0  0  0  0
   -4.7870    7.8400  -21.0100 C   0  0  0  0  0  0  0  0  0  0  0  0
   -5.2100    6.8290  -21.8630 C   0  0  0  0  0  0  0  0  0  0  0  0
   -5.8000    7.0630  -23.0860 C   0  0  0  0  0  0  0  0  0  0  0  0
   -4.1970    7.4600  -19.7950 N   0  0  0  0  0  0  0  0  0  0  0  0
   -4.2560    6.1510  -19.3170 C   0  0  0  0  0  0  0  0  0  0  0  0
   -3.3160    5.3720  -19.2300 O   0  0  0  0  0  0  0  0  0  0  0  0
   -5.6440    5.7760  -18.8950 C   0  0  0  0  0  0  0  0  0  0  0  0
   -6.8070    5.4740  -19.7920 C   0  0  0  0  0  0  0  0  0  0  0  0
   -7.9060    5.1980  -18.9890 C   0  0  0  0  0  0  0  0  0  0  0  0
   -7.4420    5.3140  -17.5770 C   0  0  0  0  0  0  0  0  0  0  0  0
   -8.4120    5.0730  -16.4810 C   0  0  0  0  0  0  0  0  0  0  0  0
   -9.7120    4.7560  -16.8230 C   0  0  0  0  0  0  0  0  0  0  0  0
  -10.1280    4.6530  -18.1550 C   0  0  0  0  0  0  0  0  0  0  0  0
   -9.2490    4.8640  -19.2330 C   0  0  0  0  0  0  0  0  0  0  0  0
   -6.1070    5.6510  -17.5970 N   0  0  0  0  0  0  0  0  0  0  0  0
   -4.9800   10.4840  -24.7770 O   0  0  0  0  0  0  0  0  0  0  0  0
   -8.7350   10.8240  -27.3290 S   0  0  0  0  0  0  0  0  0  0  0  0
   -9.6660    9.4680  -27.7880 C   0  0  0  0  0  0  0  0  0  0  0  0
   -8.8120    8.2580  -27.7620 C   0  0  0  0  0  0  0  0  0  0  0  0
   -9.3170    6.9750  -28.1050 C   0  0  0  0  0  0  0  0  0  0  0  0
  -10.6570    6.9430  -28.4590 C   0  0  0  0  0  0  0  0  0  0  0  0
  -11.4770    8.0840  -28.4850 C   0  0  0  0  0  0  0  0  0  0  0  0
  -12.9110    7.9330  -28.8910 C   0  0  0  0  0  0  0  0  0  0  0  0
  -11.0010    9.3610  -28.1500 C   0  0  0  0  0  0  0  0  0  0  0  0
   -7.5180    8.5300  -27.3740 N   0  0  0  0  0  0  0  0  0  0  0  0
   -6.1770   11.3130  -26.8680 H   0  0  0  0  0  0  0  0  0  0  0  0
   -6.7510    7.8480  -25.3650 H   0  0  0  0  0  0  0  0  0  0  0  0
   -7.5980    9.1150  -24.5940 H   0  0  0  0  0  0  0  0  0  0  0  0
   -5.7370   10.6000  -23.0040 H   0  0  0  0  0  0  0  0  0  0  0  0
   -4.5960    9.9730  -20.6410 H   0  0  0  0  0  0  0  0  0  0  0  0
   -5.0320    5.8170  -21.4790 H   0  0  0  0  0  0  0  0  0  0  0  0
   -6.1050    6.2220  -23.7000 H   0  0  0  0  0  0  0  0  0  0  0  0
   -3.3980    8.0060  -19.5110 H   0  0  0  0  0  0  0  0  0  0  0  0
   -6.7790    5.4800  -20.8760 H   0  0  0  0  0  0  0  0  0  0  0  0
   -8.1140    5.1460  -15.4330 H   0  0  0  0  0  0  0  0  0  0  0  0
  -10.4280    4.5830  -16.0220 H   0  0  0  0  0  0  0  0  0  0  0  0
  -11.1620    4.4040  -18.3710 H   0  0  0  0  0  0  0  0  0  0  0  0
   -9.6070    4.7760  -20.2550 H   0  0  0  0  0  0  0  0  0  0  0  0
   -5.5470    5.7930  -16.7680 H   0  0  0  0  0  0  0  0  0  0  0  0
   -8.6920    6.0920  -28.0860 H   0  0  0  0  0  0  0  0  0  0  0  0
  -11.0820    5.9800  -28.7310 H   0  0  0  0  0  0  0  0  0  0  0  0
  -13.4800    8.8320  -28.6320 H   0  0  0  0  0  0  0  0  0  0  0  0
  -12.9980    7.7970  -29.9750 H   0  0  0  0  0  0  0  0  0  0  0  0
  -13.3490    7.0600  -28.3920 H   0  0  0  0  0  0  0  0  0  0  0  0
  -11.6470   10.2340  -28.1750 H   0  0  0  0  0  0  0  0  0  0  0  0
  1  2  1  0
  2  3  1  0
  3  4  1  0
  4  5  1  0
  5  6  2  0
  6  7  1  0
  7  8  2  0
  8  9  1  0
  9 10  2  0
  8 11  1  0
 11 12  1  0
 12 13  2  0
 12 14  1  0
 14 15  2  0
 15 16  1  0
 16 17  2  0
 17 18  1  0
 18 19  2  0
 19 20  1  0
 20 21  2  0
 17 22  1  0
  3 23  2  0
  1 24  1  0
 24 25  1  0
 25 26  2  0
 26 27  1  0
 27 28  2  0
 28 29  1  0
 29 30  1  0
 29 31  2  0
 26 32  1  0
  1 32  2  0
  5 10  1  0
 22 14  1  0
 21 16  1  0
 25 31  1  0
  2 33  1  0
  4 34  1  0
  4 35  1  0
  6 36  1  0
  7 37  1  0
  9 38  1  0
 10 39  1  0
 11 40  1  0
 15 41  1  0
 18 42  1  0
 19 43  1  0
 20 44  1  0
 21 45  1  0
 22 46  1  0
 27 47  1  0
 28 48  1  0
 30 49  1  0
 30 50  1  0
 30 51  1  0
 31 52  1  0
A    1
 C1 
A    2
 N1 
A    3
 C2 
A    4
 C3 
A    5
 C4 
A    6
 C5 
A    7
 C6 
A    8
 C7 
A    9
 C8 
A   10
 C9 
A   11
 N2 
A   12
 C10
A   13
 O1 
A   14
 C11
A   15
 C12
A   16
 C13
A   17
 C14
A   18
 C15
A   19
 C16
A   20
 C17
A   21
 C18
A   22
 N3 
A   23
 O2 
A   24
 S1 
A   25
 C19
A   26
 C20
A   27
 C21
A   28
 C22
A   29
 C23
A   30
 C24
A   31
 C25
A   32
 N4 
A   33
 H1 
A   34
 H2 
A   35
 H3 
A   36
 H4 
A   37
 H5 
A   38
 H6 
A   39
 H7 
A   40
 H8 
A   41
 H9 
A   42
 H10
A   43
 H11
A   44
 H12
A   45
 H13
A   46
 H14
A   47
 H15
A   48
 H16
A   49
 H17
A   50
 H18
A   51
 H19
A   52
 H20
M  END
>  <ref_pdb>  (112) 
x0051_0B

>  <ref_mols>  (112) 
x0846_1B,x0490_0B

>  <original SMILES>  (112) 
[H]c1c([H])c(C([H])([H])C(=O)N([H])c2nc3c([H])c([H])c(C([H])([H])[H])c([H])c3s2)c([H])c([H])c1N([H])C(=O)c1c([H])c2c([H])c([H])c([H])c([H])c2n1[H]

>  <index>  (112) 
276

>  <∆∆G>  (112) 
-11.576201

>  <∆G_bound>  (112) 
-10.928594

>  <∆G_unbound>  (112) 
0.647607

>  <comRMSD>  (112) 
0.931342

>  <N_constrained_atoms>  (112) 
28.0

>  <N_unconstrained_atoms>  (112) 
5.0

>  <runtime>  (112) 
75.328175

>  <LE>  (112) 
0.350794

>  <percent_hybrid>  (112) 
36.0

>  <dist>  (112) 
11.0

>  <ecfp4>  (112) 
0.147059

>  <daylight>  (112) 
0.225166

>  <topodist>  (112) 
7.0

>  <mces>  (112) 
32.0

>  <tdn>  (112) 
3.0

>  <tup>  (112) 
3.0

>  <rdn>  (112) 
0.0

>  <rup>  (112) 
0.0

>  <ldn>  (112) 
0.0

>  <lup>  (112) 
1.0

>  <mut>  (112) 
3.0

>  <maj>  (112) 
3.0

>  <min>  (112) 
0.0

>  <hyb>  (112) 
1.0

>  <sub>  (112) 
3.0

>  <query_index>  (112) 
51.0

>  <max_hit_Tanimoto>  (112) 
0.237799

>  <largest_ring>  (112) 
0

>  <N_interactions_kept>  (112) 
1.0

>  <N_interactions_lost>  (112) 
2.0

>  <interaction_uniqueness_metric>  (112) 
0.418652

>  <ad_hoc_penalty>  (112) 
-28.187854

>  <N_rotatable_bonds>  (112) 
6

>  <N_HA>  (112) 
32

>  <cluster>  (112) 
5964

>  <N_interactions>  (112) 
5

>  <Enamine>  (112) 
0

>  <Mcule>  (112) 
1

>  <N_PAINS>  (112) 
0

>  <UFF_Gibbs>  (112) 
168.050574

>  <strain_per_HA>  (112) 
5.25158

>  <saltbridge:HIS:51>  (112) 
0

>  <pistack:HIS:51>  (112) 
0

>  <hydroph_interaction:HIS:51>  (112) 
0

>  <hbond:ALA:132>  (112) 
0

>  <hbond:SER:135>  (112) 
0

>  <hydroph_interaction:TYR:150>  (112) 
1

>  <pistack:TYR:161>  (112) 
2

>  <hydroph_interaction:TYR:161>  (112) 
0

>  <hydroph_interaction:ASP:83>  (112) 
0

>  <hbond:TYR:130>  (112) 
0

>  <hydroph_interaction:ALA:132>  (112) 
0

>  <hbond:HIS:51>  (112) 
0

>  <hbond:ASP:129>  (112) 
0

>  <hbond:TYR:150>  (112) 
0

>  <hbond:GLY:151>  (112) 
0

>  <hbond:TYR:161>  (112) 
0

>  <hydroph_interaction:TYR:130>  (112) 
1

>  <hydroph_interaction:PRO:131>  (112) 
0

>  <hydroph_interaction:ASP:129>  (112) 
0

>  <saltbridge:ASP:75>  (112) 
0

>  <saltbridge:ASP:83>  (112) 
0

>  <hydroph_interaction:ASN:152>  (112) 
0

>  <halogenbond:TYR:150>  (112) 
0

>  <hbond:ASP:83>  (112) 
0

>  <hydroph_interaction:VAL:155>  (112) 
0

>  <pication:TYR:161>  (112) 
0

>  <hbond:PRO:131>  (112) 
0

>  <hbond:LEU:128>  (112) 
0

>  <saltbridge:ASP:129>  (112) 
0

>  <hbond:THR:134>  (112) 
0

>  <pication:HIS:51>  (112) 
0

>  <hbond:SER:81>  (112) 
0

>  <hbond:GLY:159>  (112) 
0

>  <hydroph_interaction:PRO:101>  (112) 
1

>  <hydroph_interaction:THR:134>  (112) 
0

>  <hbond:GLY:82>  (112) 
0

>  <hydroph_interaction:GLU:104>  (112) 
0

>  <hydroph_interaction:VAL:36>  (112) 
0

>  <hydroph_interaction:MET:49>  (112) 
0

>  <halogenbond:GLU:104>  (112) 
0

>  <hydroph_interaction:LYS:107>  (112) 
0

$$$$
FFPBZAVXPPFYLQ-UHFFFAOYSA-N
     RDKit          3D

 58 60  0  0  0  0  0  0  0  0999 V2000
   -8.7570    7.1820  -14.0690 C   0  0  0  0  0  0  0  0  0  0  0  0
   -8.8240    6.3750  -15.2140 N   0  0  0  0  0  0  0  0  0  0  0  0
   -7.6450    6.1400  -16.0480 C   0  0  0  0  0  0  0  0  0  0  0  0
   -7.8880    5.0940  -17.0710 C   0  0  0  0  0  0  0  0  0  0  0  0
   -7.1900    5.2180  -18.3990 N   0  0  0  0  0  0  0  0  0  0  0  0
   -6.0970    5.9970  -18.7570 C   0  0  0  0  0  0  0  0  0  0  0  0
   -4.9600    5.3140  -19.0670 O   0  0  0  0  0  0  0  0  0  0  0  0
   -3.8680    5.4360  -18.1360 C   0  0  0  0  0  0  0  0  0  0  0  0
   -2.6980    4.6120  -18.6430 C   0  0  0  0  0  0  0  0  0  0  0  0
   -4.3570    4.9450  -16.7850 C   0  0  0  0  0  0  0  0  0  0  0  0
   -3.3360    6.8500  -18.0400 C   0  0  0  0  0  0  0  0  0  0  0  0
   -6.1620    7.2200  -18.7930 O   0  0  0  0  0  0  0  0  0  0  0  0
   -8.1540    5.0770  -19.4430 C   0  0  0  0  0  0  0  0  0  0  0  0
   -9.3620    4.5790  -18.9210 C   0  0  0  0  0  0  0  0  0  0  0  0
   -9.3610    4.8910  -17.4360 C   0  0  0  0  0  0  0  0  0  0  0  0
   -8.6490    8.4110  -14.0670 O   0  0  0  0  0  0  0  0  0  0  0  0
   -8.8140    6.4700  -12.7690 C   0  0  0  0  0  0  0  0  0  0  0  0
   -8.7150    7.1300  -11.5380 C   0  0  0  0  0  0  0  0  0  0  0  0
   -8.7720    6.4120  -10.3470 C   0  0  0  0  0  0  0  0  0  0  0  0
   -8.9350    4.9880  -10.3500 C   0  0  0  0  0  0  0  0  0  0  0  0
   -9.0000    4.2620   -9.1990 N   0  0  0  0  0  0  0  0  0  0  0  0
   -9.4260    2.8620   -9.1600 C   0  0  0  0  0  0  0  0  0  0  0  0
   -9.6840    2.6190   -7.6810 C   0  0  0  0  0  0  0  0  0  0  0  0
   -9.3190    3.8530   -6.8760 C   0  0  0  0  0  0  0  0  0  0  0  0
   -8.5830    4.7430   -7.8800 C   0  0  0  0  0  0  0  0  0  0  0  0
   -9.0290    4.3680  -11.6040 C   0  0  0  0  0  0  0  0  0  0  0  0
   -8.9720    5.0890  -12.7940 C   0  0  0  0  0  0  0  0  0  0  0  0
   -9.6210    5.7630  -15.3420 H   0  0  0  0  0  0  0  0  0  0  0  0
   -6.8320    5.8300  -15.3840 H   0  0  0  0  0  0  0  0  0  0  0  0
   -7.3310    7.0730  -16.5040 H   0  0  0  0  0  0  0  0  0  0  0  0
   -7.5210    4.1810  -16.6370 H   0  0  0  0  0  0  0  0  0  0  0  0
   -2.6480    4.6180  -19.7380 H   0  0  0  0  0  0  0  0  0  0  0  0
   -1.7470    5.0010  -18.2590 H   0  0  0  0  0  0  0  0  0  0  0  0
   -2.7970    3.5910  -18.3170 H   0  0  0  0  0  0  0  0  0  0  0  0
   -3.6940    4.1800  -16.3700 H   0  0  0  0  0  0  0  0  0  0  0  0
   -4.3920    5.7690  -16.0620 H   0  0  0  0  0  0  0  0  0  0  0  0
   -5.3670    4.5300  -16.8350 H   0  0  0  0  0  0  0  0  0  0  0  0
   -4.0870    7.5470  -17.6470 H   0  0  0  0  0  0  0  0  0  0  0  0
   -3.0260    7.2270  -19.0210 H   0  0  0  0  0  0  0  0  0  0  0  0
   -2.4770    6.9010  -17.3600 H   0  0  0  0  0  0  0  0  0  0  0  0
   -8.3070    6.0850  -19.8240 H   0  0  0  0  0  0  0  0  0  0  0  0
   -7.7770    4.4550  -20.2610 H   0  0  0  0  0  0  0  0  0  0  0  0
   -9.4050    3.4950  -19.0620 H   0  0  0  0  0  0  0  0  0  0  0  0
  -10.2250    5.0170  -19.4280 H   0  0  0  0  0  0  0  0  0  0  0  0
   -9.9940    5.7340  -17.1660 H   0  0  0  0  0  0  0  0  0  0  0  0
   -9.7520    4.0250  -16.9090 H   0  0  0  0  0  0  0  0  0  0  0  0
   -8.5900    8.2080  -11.4890 H   0  0  0  0  0  0  0  0  0  0  0  0
   -8.6920    6.9600   -9.4120 H   0  0  0  0  0  0  0  0  0  0  0  0
  -10.3390    2.6780   -9.7290 H   0  0  0  0  0  0  0  0  0  0  0  0
   -8.6390    2.2040   -9.5330 H   0  0  0  0  0  0  0  0  0  0  0  0
   -9.0500    1.7940   -7.3470 H   0  0  0  0  0  0  0  0  0  0  0  0
  -10.7180    2.3140   -7.5020 H   0  0  0  0  0  0  0  0  0  0  0  0
   -8.6400    3.5670   -6.0620 H   0  0  0  0  0  0  0  0  0  0  0  0
  -10.1910    4.3450   -6.4350 H   0  0  0  0  0  0  0  0  0  0  0  0
   -8.8500    5.7920   -7.7140 H   0  0  0  0  0  0  0  0  0  0  0  0
   -7.4990    4.6240   -7.7680 H   0  0  0  0  0  0  0  0  0  0  0  0
   -9.1550    3.2890  -11.6780 H   0  0  0  0  0  0  0  0  0  0  0  0
   -9.0520    4.5610  -13.7440 H   0  0  0  0  0  0  0  0  0  0  0  0
  1  2  1  0
  2  3  1  0
  3  4  1  0
  4  5  1  0
  5  6  1  0
  6  7  1  0
  7  8  1  0
  8  9  1  0
  8 10  1  0
  8 11  1  0
  6 12  2  0
  5 13  1  0
 13 14  1  0
 14 15  1  0
  1 16  2  0
  1 17  1  0
 17 18  2  0
 18 19  1  0
 19 20  2  0
 20 21  1  0
 21 22  1  0
 22 23  1  0
 23 24  1  0
 24 25  1  0
 20 26  1  0
 26 27  2  0
 15  4  1  0
 27 17  1  0
 25 21  1  0
  2 28  1  0
  3 29  1  0
  3 30  1  0
  4 31  1  0
  9 32  1  0
  9 33  1  0
  9 34  1  0
 10 35  1  0
 10 36  1  0
 10 37  1  0
 11 38  1  0
 11 39  1  0
 11 40  1  0
 13 41  1  0
 13 42  1  0
 14 43  1  0
 14 44  1  0
 15 45  1  0
 15 46  1  0
 18 47  1  0
 19 48  1  0
 22 49  1  0
 22 50  1  0
 23 51  1  0
 23 52  1  0
 24 53  1  0
 24 54  1  0
 25 55  1  0
 25 56  1  0
 26 57  1  0
 27 58  1  0
A    1
 C1 
A    2
 N1 
A    3
 C2 
A    4
 C3 
A    5
 N2 
A    6
 C4 
A    7
 O1 
A    8
 C5 
A    9
 C6 
A   10
 C7 
A   11
 C8 
A   12
 O2 
A   13
 C9 
A   14
 C10
A   15
 C11
A   16
 O3 
A   17
 C12
A   18
 C13
A   19
 C14
A   20
 C15
A   21
 N3 
A   22
 C16
A   23
 C17
A   24
 C18
A   25
 C19
A   26
 C20
A   27
 C21
A   28
 H1 
A   29
 H2 
A   30
 H3 
A   31
 H4 
A   32
 H5 
A   33
 H6 
A   34
 H7 
A   35
 H8 
A   36
 H9 
A   37
 H10
A   38
 H11
A   39
 H12
A   40
 H13
A   41
 H14
A   42
 H15
A   43
 H16
A   44
 H17
A   45
 H18
A   46
 H19
A   47
 H20
A   48
 H21
A   49
 H22
A   50
 H23
A   51
 H24
A   52
 H25
A   53
 H26
A   54
 H27
A   55
 H28
A   56
 H29
A   57
 H30
A   58
 H31
M  END
>  <ref_pdb>  (113) 
x0051_0B

>  <ref_mols>  (113) 
x0404_0B,x0422_0B

>  <original SMILES>  (113) 
[H]c1c([H])c(N2C([H])([H])C([H])([H])C([H])([H])C2([H])[H])c([H])c([H])c1C(=O)N([H])C([H])([H])C1([H])N(C(=O)OC(C([H])([H])[H])(C([H])([H])[H])C([H])([H])[H])C([H])([H])C([H])([H])C1([H])[H]

>  <index>  (113) 
178

>  <∆∆G>  (113) 
-7.111857

>  <∆G_bound>  (113) 
-6.086564

>  <∆G_unbound>  (113) 
1.025293

>  <comRMSD>  (113) 
0.918901

>  <N_constrained_atoms>  (113) 
26.0

>  <N_unconstrained_atoms>  (113) 
2.0

>  <runtime>  (113) 
127.548372

>  <LE>  (113) 
0.253995

>  <percent_hybrid>  (113) 
43.0

>  <dist>  (113) 
12.0

>  <ecfp4>  (113) 
0.206897

>  <daylight>  (113) 
0.1875

>  <topodist>  (113) 
4.0

>  <mces>  (113) 
28.0

>  <tdn>  (113) 
1.0

>  <tup>  (113) 
1.0

>  <rdn>  (113) 
1.0

>  <rup>  (113) 
0.0

>  <ldn>  (113) 
1.0

>  <lup>  (113) 
0.0

>  <mut>  (113) 
6.0

>  <maj>  (113) 
6.0

>  <min>  (113) 
0.0

>  <hyb>  (113) 
2.0

>  <sub>  (113) 
0.0

>  <query_index>  (113) 
324.0

>  <max_hit_Tanimoto>  (113) 
0.232412

>  <largest_ring>  (113) 
0

>  <N_interactions_kept>  (113) 
3.5

>  <N_interactions_lost>  (113) 
2.0

>  <interaction_uniqueness_metric>  (113) 
0.152613

>  <ad_hoc_penalty>  (113) 
-28.107426

>  <N_rotatable_bonds>  (113) 
4

>  <N_HA>  (113) 
27

>  <cluster>  (113) 
6058

>  <N_interactions>  (113) 
7

>  <Enamine>  (113) 
0

>  <Mcule>  (113) 
1

>  <N_PAINS>  (113) 
0

>  <UFF_Gibbs>  (113) 
100.245828

>  <strain_per_HA>  (113) 
3.712808

>  <saltbridge:HIS:51>  (113) 
0

>  <pistack:HIS:51>  (113) 
1

>  <hydroph_interaction:HIS:51>  (113) 
0

>  <hbond:ALA:132>  (113) 
1

>  <hbond:SER:135>  (113) 
0

>  <hydroph_interaction:TYR:150>  (113) 
1

>  <pistack:TYR:161>  (113) 
0

>  <hydroph_interaction:TYR:161>  (113) 
3

>  <hydroph_interaction:ASP:83>  (113) 
0

>  <hbond:TYR:130>  (113) 
0

>  <hydroph_interaction:ALA:132>  (113) 
0

>  <hbond:HIS:51>  (113) 
0

>  <hbond:ASP:129>  (113) 
0

>  <hbond:TYR:150>  (113) 
0

>  <hbond:GLY:151>  (113) 
0

>  <hbond:TYR:161>  (113) 
0

>  <hydroph_interaction:TYR:130>  (113) 
0

>  <hydroph_interaction:PRO:131>  (113) 
0

>  <hydroph_interaction:ASP:129>  (113) 
0

>  <saltbridge:ASP:75>  (113) 
0

>  <saltbridge:ASP:83>  (113) 
0

>  <hydroph_interaction:ASN:152>  (113) 
0

>  <halogenbond:TYR:150>  (113) 
0

>  <hbond:ASP:83>  (113) 
0

>  <hydroph_interaction:VAL:155>  (113) 
1

>  <pication:TYR:161>  (113) 
0

>  <hbond:PRO:131>  (113) 
0

>  <hbond:LEU:128>  (113) 
0

>  <saltbridge:ASP:129>  (113) 
0

>  <hbond:THR:134>  (113) 
0

>  <pication:HIS:51>  (113) 
0

>  <hbond:SER:81>  (113) 
0

>  <hbond:GLY:159>  (113) 
0

>  <hydroph_interaction:PRO:101>  (113) 
0

>  <hydroph_interaction:THR:134>  (113) 
0

>  <hbond:GLY:82>  (113) 
0

>  <hydroph_interaction:GLU:104>  (113) 
0

>  <hydroph_interaction:VAL:36>  (113) 
0

>  <hydroph_interaction:MET:49>  (113) 
0

>  <halogenbond:GLU:104>  (113) 
0

>  <hydroph_interaction:LYS:107>  (113) 
0

$$$$
PV-006695652116
     RDKit          3D

 51 54  0  0  0  0  0  0  0  0999 V2000
   -3.2510    4.6860  -15.4070 C   0  0  0  0  0  0  0  0  0  0  0  0
   -2.8500    5.4240  -16.6270 C   0  0  0  0  0  0  0  0  0  0  0  0
   -3.8340    5.4290  -17.6090 C   0  0  0  0  0  0  0  0  0  0  0  0
   -3.5680    5.1300  -18.7780 O   0  0  0  0  0  0  0  0  0  0  0  0
   -5.1240    5.7860  -17.2300 N   0  0  0  0  0  0  0  0  0  0  0  0
   -6.1200    5.7700  -18.2730 C   0  0  0  0  0  0  0  0  0  0  0  0
   -7.3850    5.4090  -17.8330 C   0  0  0  0  0  0  0  0  0  0  0  0
   -8.3510    5.0790  -18.9480 C   0  0  0  0  0  0  0  0  0  0  0  0
   -9.7230    4.6870  -18.5150 C   0  0  0  0  0  0  0  0  0  0  0  0
   -9.9920    4.6570  -17.0910 C   0  0  0  0  0  0  0  0  0  0  0  0
   -9.0020    4.9950  -16.0340 C   0  0  0  0  0  0  0  0  0  0  0  0
   -7.7310    5.3590  -16.4360 C   0  0  0  0  0  0  0  0  0  0  0  0
   -6.7390    5.6950  -15.3450 C   0  0  0  0  0  0  0  0  0  0  0  0
   -7.4010    6.4560  -14.2560 N   0  0  0  0  0  0  0  0  0  0  0  0
   -7.3240    6.0740  -12.9080 C   0  0  0  0  0  0  0  0  0  0  0  0
   -6.2560    6.0950  -12.3040 O   0  0  0  0  0  0  0  0  0  0  0  0
   -8.5470    5.6740  -12.2850 C   0  0  0  0  0  0  0  0  0  0  0  0
   -8.6720    5.7260  -10.7500 C   0  0  0  0  0  0  0  0  0  0  0  0
   -8.8890    4.4680   -9.9240 C   0  0  0  0  0  0  0  0  0  0  0  0
   -9.0080    3.1940  -10.2830 O   0  0  0  0  0  0  0  0  0  0  0  0
   -9.3730    2.2270   -9.2910 C   0  0  0  0  0  0  0  0  0  0  0  0
   -9.5960    2.7230   -7.8620 C   0  0  0  0  0  0  0  0  0  0  0  0
   -9.1320    4.1140   -7.4660 C   0  0  0  0  0  0  0  0  0  0  0  0
   -8.9410    4.9440   -8.6350 N   0  0  0  0  0  0  0  0  0  0  0  0
   -8.7940    6.2900   -8.5230 N   0  0  0  0  0  0  0  0  0  0  0  0
   -8.6360    6.7540   -9.7810 C   0  0  0  0  0  0  0  0  0  0  0  0
   -5.5300    6.4240  -15.9720 C   0  0  0  0  0  0  0  0  0  0  0  0
   -2.8450    3.6710  -15.4190 H   0  0  0  0  0  0  0  0  0  0  0  0
   -2.9150    5.2260  -14.5170 H   0  0  0  0  0  0  0  0  0  0  0  0
   -4.3390    4.6050  -15.3450 H   0  0  0  0  0  0  0  0  0  0  0  0
   -1.9590    4.9640  -17.0350 H   0  0  0  0  0  0  0  0  0  0  0  0
   -2.6290    6.4570  -16.3490 H   0  0  0  0  0  0  0  0  0  0  0  0
   -5.8030    5.0750  -19.0600 H   0  0  0  0  0  0  0  0  0  0  0  0
   -6.1660    6.7790  -18.7050 H   0  0  0  0  0  0  0  0  0  0  0  0
   -8.0750    5.1220  -20.0010 H   0  0  0  0  0  0  0  0  0  0  0  0
  -10.4780    4.4400  -19.2250 H   0  0  0  0  0  0  0  0  0  0  0  0
  -10.9780    4.3630  -16.8020 H   0  0  0  0  0  0  0  0  0  0  0  0
   -9.2850    4.9470  -14.9850 H   0  0  0  0  0  0  0  0  0  0  0  0
   -6.3870    4.7380  -14.9300 H   0  0  0  0  0  0  0  0  0  0  0  0
   -8.0980    7.1360  -14.5300 H   0  0  0  0  0  0  0  0  0  0  0  0
   -8.8200    4.7130  -12.7390 H   0  0  0  0  0  0  0  0  0  0  0  0
   -9.2950    6.3570  -12.6960 H   0  0  0  0  0  0  0  0  0  0  0  0
   -8.6220    1.4330   -9.3030 H   0  0  0  0  0  0  0  0  0  0  0  0
  -10.2930    1.7780   -9.6340 H   0  0  0  0  0  0  0  0  0  0  0  0
   -9.1160    2.0230   -7.1630 H   0  0  0  0  0  0  0  0  0  0  0  0
  -10.6690    2.6590   -7.6430 H   0  0  0  0  0  0  0  0  0  0  0  0
   -8.1770    4.0820   -6.9250 H   0  0  0  0  0  0  0  0  0  0  0  0
   -9.8700    4.5790   -6.7990 H   0  0  0  0  0  0  0  0  0  0  0  0
   -8.5010    7.8230   -9.9290 H   0  0  0  0  0  0  0  0  0  0  0  0
   -5.7680    7.4750  -16.1120 H   0  0  0  0  0  0  0  0  0  0  0  0
   -4.6640    6.3920  -15.3000 H   0  0  0  0  0  0  0  0  0  0  0  0
  1  2  1  0
  2  3  1  0
  3  4  2  0
  3  5  1  0
  5  6  1  0
  6  7  1  0
  7  8  2  0
  8  9  1  0
  9 10  2  0
 10 11  1  0
 11 12  2  0
 12 13  1  0
 13 14  1  0
 14 15  1  0
 15 16  2  0
 15 17  1  0
 17 18  1  0
 18 19  2  0
 19 20  1  0
 20 21  1  0
 21 22  1  0
 22 23  1  0
 23 24  1  0
 24 25  1  0
 25 26  2  0
 13 27  1  0
 27  5  1  0
 12  7  1  0
 26 18  1  0
 24 19  1  0
  1 28  1  0
  1 29  1  0
  1 30  1  0
  2 31  1  0
  2 32  1  0
  6 33  1  0
  6 34  1  0
  8 35  1  0
  9 36  1  0
 10 37  1  0
 11 38  1  0
 13 39  1  0
 14 40  1  0
 17 41  1  0
 17 42  1  0
 21 43  1  0
 21 44  1  0
 22 45  1  0
 22 46  1  0
 23 47  1  0
 23 48  1  0
 26 49  1  0
 27 50  1  0
 27 51  1  0
A    1
 C1 
A    2
 C2 
A    3
 C3 
A    4
 O1 
A    5
 N1 
A    6
 C4 
A    7
 C5 
A    8
 C6 
A    9
 C7 
A   10
 C8 
A   11
 C9 
A   12
 C10
A   13
 C11
A   14
 N2 
A   15
 C12
A   16
 O2 
A   17
 C13
A   18
 C14
A   19
 C15
A   20
 O3 
A   21
 C16
A   22
 C17
A   23
 C18
A   24
 N3 
A   25
 N4 
A   26
 C19
A   27
 C20
A   28
 H1 
A   29
 H2 
A   30
 H3 
A   31
 H4 
A   32
 H5 
A   33
 H6 
A   34
 H7 
A   35
 H8 
A   36
 H9 
A   37
 H10
A   38
 H11
A   39
 H12
A   40
 H13
A   41
 H14
A   42
 H15
A   43
 H16
A   44
 H17
A   45
 H18
A   46
 H19
A   47
 H20
A   48
 H21
A   49
 H22
A   50
 H23
A   51
 H24
M  END
>  <ref_pdb>  (114) 
x0051_0B

>  <ref_mols>  (114) 
x0472_0B,x0969_1B

>  <original SMILES>  (114) 
[H]c1nn2c(c1C([H])([H])C(=O)N([H])C1([H])c3c([H])c([H])c([H])c([H])c3C([H])([H])N(C(=O)C([H])([H])C([H])([H])[H])C1([H])[H])OC([H])([H])C([H])([H])C2([H])[H]

>  <index>  (114) 
141

>  <∆∆G>  (114) 
-7.615646

>  <∆G_bound>  (114) 
-6.546598

>  <∆G_unbound>  (114) 
1.069048

>  <comRMSD>  (114) 
0.482829

>  <N_constrained_atoms>  (114) 
23.0

>  <N_unconstrained_atoms>  (114) 
4.0

>  <runtime>  (114) 
44.602444

>  <LE>  (114) 
0.282061

>  <percent_hybrid>  (114) 
44.0

>  <dist>  (114) 
10.0

>  <ecfp4>  (114) 
0.174757

>  <daylight>  (114) 
0.343575

>  <topodist>  (114) 
2.0

>  <mces>  (114) 
28.0

>  <tdn>  (114) 
0.0

>  <tup>  (114) 
1.0

>  <rdn>  (114) 
0.0

>  <rup>  (114) 
0.0

>  <ldn>  (114) 
0.0

>  <lup>  (114) 
1.0

>  <mut>  (114) 
6.0

>  <maj>  (114) 
6.0

>  <min>  (114) 
0.0

>  <hyb>  (114) 
2.0

>  <sub>  (114) 
0.0

>  <query_index>  (114) 
24.0

>  <max_hit_Tanimoto>  (114) 
0.280972

>  <largest_ring>  (114) 
0

>  <N_interactions_kept>  (114) 
2.5

>  <N_interactions_lost>  (114) 
1.0

>  <interaction_uniqueness_metric>  (114) 
0.103472

>  <ad_hoc_penalty>  (114) 
-27.980057

>  <N_rotatable_bonds>  (114) 
5

>  <N_HA>  (114) 
27

>  <cluster>  (114) 
6089

>  <N_interactions>  (114) 
6

>  <Enamine>  (114) 
1

>  <Mcule>  (114) 
0

>  <N_PAINS>  (114) 
0

>  <UFF_Gibbs>  (114) 
130.066791

>  <strain_per_HA>  (114) 
4.817289

>  <saltbridge:HIS:51>  (114) 
0

>  <pistack:HIS:51>  (114) 
1

>  <hydroph_interaction:HIS:51>  (114) 
0

>  <hbond:ALA:132>  (114) 
0

>  <hbond:SER:135>  (114) 
0

>  <hydroph_interaction:TYR:150>  (114) 
1

>  <pistack:TYR:161>  (114) 
1

>  <hydroph_interaction:TYR:161>  (114) 
2

>  <hydroph_interaction:ASP:83>  (114) 
0

>  <hbond:TYR:130>  (114) 
0

>  <hydroph_interaction:ALA:132>  (114) 
0

>  <hbond:HIS:51>  (114) 
0

>  <hbond:ASP:129>  (114) 
0

>  <hbond:TYR:150>  (114) 
0

>  <hbond:GLY:151>  (114) 
0

>  <hbond:TYR:161>  (114) 
0

>  <hydroph_interaction:TYR:130>  (114) 
0

>  <hydroph_interaction:PRO:131>  (114) 
0

>  <hydroph_interaction:ASP:129>  (114) 
0

>  <saltbridge:ASP:75>  (114) 
0

>  <saltbridge:ASP:83>  (114) 
0

>  <hydroph_interaction:ASN:152>  (114) 
0

>  <halogenbond:TYR:150>  (114) 
0

>  <hbond:ASP:83>  (114) 
0

>  <hydroph_interaction:VAL:155>  (114) 
1

>  <pication:TYR:161>  (114) 
0

>  <hbond:PRO:131>  (114) 
0

>  <hbond:LEU:128>  (114) 
0

>  <saltbridge:ASP:129>  (114) 
0

>  <hbond:THR:134>  (114) 
0

>  <pication:HIS:51>  (114) 
0

>  <hbond:SER:81>  (114) 
0

>  <hbond:GLY:159>  (114) 
0

>  <hydroph_interaction:PRO:101>  (114) 
0

>  <hydroph_interaction:THR:134>  (114) 
0

>  <hbond:GLY:82>  (114) 
0

>  <hydroph_interaction:GLU:104>  (114) 
0

>  <hydroph_interaction:VAL:36>  (114) 
0

>  <hydroph_interaction:MET:49>  (114) 
0

>  <halogenbond:GLU:104>  (114) 
0

>  <hydroph_interaction:LYS:107>  (114) 
0

$$$$
YBDTVIGYXIRLEB-UHFFFAOYSA-N
     RDKit          3D

 45 48  0  0  0  0  0  0  0  0999 V2000
   -8.5240    6.0300  -12.1380 C   0  0  0  0  0  0  0  0  0  0  0  0
   -8.6060    5.0560  -13.1320 N   0  0  0  0  0  0  0  0  0  0  0  0
   -9.3460    5.3720  -14.3660 C   0  0  0  0  0  0  0  0  0  0  0  0
   -8.5440    5.3440  -15.6900 C   0  0  0  0  0  0  0  0  0  0  0  0
   -9.2820    4.9620  -16.7770 O   0  0  0  0  0  0  0  0  0  0  0  0
   -8.4400    5.0000  -17.8770 N   0  0  0  0  0  0  0  0  0  0  0  0
   -7.2740    5.4000  -17.3670 C   0  0  0  0  0  0  0  0  0  0  0  0
   -6.0500    5.5800  -18.2650 C   0  0  0  0  0  0  0  0  0  0  0  0
   -4.8820    6.2880  -17.5630 C   0  0  0  0  0  0  0  0  0  0  0  0
   -3.8430    6.7820  -18.5540 C   0  0  0  0  0  0  0  0  0  0  0  0
   -4.4350    7.5370  -19.6040 O   0  0  0  0  0  0  0  0  0  0  0  0
   -5.3440    6.7890  -20.4030 C   0  0  0  0  0  0  0  0  0  0  0  0
   -6.4960    6.2080  -19.6040 C   0  0  0  0  0  0  0  0  0  0  0  0
   -7.2800    5.6280  -15.9990 N   0  0  0  0  0  0  0  0  0  0  0  0
   -8.3100    7.1890  -12.4810 O   0  0  0  0  0  0  0  0  0  0  0  0
   -8.6820    5.7270  -10.6940 C   0  0  0  0  0  0  0  0  0  0  0  0
   -8.8540    4.5210   -9.9930 C   0  0  0  0  0  0  0  0  0  0  0  0
   -8.9370    4.8590   -8.6530 N   0  0  0  0  0  0  0  0  0  0  0  0
   -9.1180    3.9500   -7.5250 C   0  0  0  0  0  0  0  0  0  0  0  0
   -9.4910    2.5560   -8.0020 C   0  0  0  0  0  0  0  0  0  0  0  0
   -8.6030    2.2190   -9.1900 C   0  0  0  0  0  0  0  0  0  0  0  0
   -8.9460    3.0890  -10.3920 C   0  0  0  0  0  0  0  0  0  0  0  0
   -8.8350    6.1690   -8.4220 N   0  0  0  0  0  0  0  0  0  0  0  0
   -8.6860    6.6840   -9.6410 C   0  0  0  0  0  0  0  0  0  0  0  0
   -8.4540    4.0780  -12.9230 H   0  0  0  0  0  0  0  0  0  0  0  0
   -9.7830    6.3660  -14.2330 H   0  0  0  0  0  0  0  0  0  0  0  0
  -10.1800    4.6640  -14.4430 H   0  0  0  0  0  0  0  0  0  0  0  0
   -5.6800    4.5760  -18.4920 H   0  0  0  0  0  0  0  0  0  0  0  0
   -5.2830    7.1590  -17.0270 H   0  0  0  0  0  0  0  0  0  0  0  0
   -4.4130    5.6450  -16.8100 H   0  0  0  0  0  0  0  0  0  0  0  0
   -3.2840    5.9500  -18.9940 H   0  0  0  0  0  0  0  0  0  0  0  0
   -3.1170    7.4310  -18.0510 H   0  0  0  0  0  0  0  0  0  0  0  0
   -5.7220    7.4450  -21.1990 H   0  0  0  0  0  0  0  0  0  0  0  0
   -4.7780    5.9880  -20.8890 H   0  0  0  0  0  0  0  0  0  0  0  0
   -7.2250    7.0070  -19.4220 H   0  0  0  0  0  0  0  0  0  0  0  0
   -7.0190    5.4520  -20.2040 H   0  0  0  0  0  0  0  0  0  0  0  0
   -9.8920    4.3570   -6.8670 H   0  0  0  0  0  0  0  0  0  0  0  0
   -8.1660    3.9280   -6.9860 H   0  0  0  0  0  0  0  0  0  0  0  0
   -9.3370    1.8270   -7.2000 H   0  0  0  0  0  0  0  0  0  0  0  0
  -10.5470    2.5220   -8.2830 H   0  0  0  0  0  0  0  0  0  0  0  0
   -8.6820    1.1750   -9.4510 H   0  0  0  0  0  0  0  0  0  0  0  0
   -7.5590    2.3920   -8.9120 H   0  0  0  0  0  0  0  0  0  0  0  0
   -8.2650    2.8600  -11.2190 H   0  0  0  0  0  0  0  0  0  0  0  0
   -9.9640    2.8660  -10.7310 H   0  0  0  0  0  0  0  0  0  0  0  0
   -8.5810    7.7580   -9.7120 H   0  0  0  0  0  0  0  0  0  0  0  0
  1  2  1  0
  2  3  1  0
  3  4  1  0
  4  5  1  0
  5  6  1  0
  6  7  2  0
  7  8  1  0
  8  9  1  0
  9 10  1  0
 10 11  1  0
 11 12  1  0
 12 13  1  0
  7 14  1  0
  1 15  2  0
  1 16  1  0
 16 17  2  0
 17 18  1  0
 18 19  1  0
 19 20  1  0
 20 21  1  0
 21 22  1  0
 18 23  1  0
 23 24  2  0
  4 14  2  0
 13  8  1  0
 24 16  1  0
 22 17  1  0
  2 25  1  0
  3 26  1  0
  3 27  1  0
  8 28  1  0
  9 29  1  0
  9 30  1  0
 10 31  1  0
 10 32  1  0
 12 33  1  0
 12 34  1  0
 13 35  1  0
 13 36  1  0
 19 37  1  0
 19 38  1  0
 20 39  1  0
 20 40  1  0
 21 41  1  0
 21 42  1  0
 22 43  1  0
 22 44  1  0
 24 45  1  0
A    1
 C1 
A    2
 N1 
A    3
 C2 
A    4
 C3 
A    5
 O1 
A    6
 N2 
A    7
 C4 
A    8
 C5 
A    9
 C6 
A   10
 C7 
A   11
 O2 
A   12
 C8 
A   13
 C9 
A   14
 N3 
A   15
 O3 
A   16
 C10
A   17
 C11
A   18
 N4 
A   19
 C12
A   20
 C13
A   21
 C14
A   22
 C15
A   23
 N5 
A   24
 C16
A   25
 H1 
A   26
 H2 
A   27
 H3 
A   28
 H4 
A   29
 H5 
A   30
 H6 
A   31
 H7 
A   32
 H8 
A   33
 H9 
A   34
 H10
A   35
 H11
A   36
 H12
A   37
 H13
A   38
 H14
A   39
 H15
A   40
 H16
A   41
 H17
A   42
 H18
A   43
 H19
A   44
 H20
A   45
 H21
M  END
>  <ref_pdb>  (115) 
x0051_0B

>  <ref_mols>  (115) 
x0945_0B,x0969_1B

>  <original SMILES>  (115) 
[H]c1nn2c(c1C(=O)N([H])C([H])([H])c1nc(C3([H])C([H])([H])C([H])([H])OC([H])([H])C3([H])[H])no1)C([H])([H])C([H])([H])C([H])([H])C2([H])[H]

>  <index>  (115) 
241

>  <∆∆G>  (115) 
-5.000661

>  <∆G_bound>  (115) 
-3.982263

>  <∆G_unbound>  (115) 
1.018398

>  <comRMSD>  (115) 
0.491823

>  <N_constrained_atoms>  (115) 
22.0

>  <N_unconstrained_atoms>  (115) 
2.0

>  <runtime>  (115) 
75.175187

>  <LE>  (115) 
0.208361

>  <percent_hybrid>  (115) 
46.0

>  <dist>  (115) 
11.0

>  <ecfp4>  (115) 
0.197674

>  <daylight>  (115) 
0.286517

>  <topodist>  (115) 
4.0

>  <mces>  (115) 
26.0

>  <tdn>  (115) 
2.0

>  <tup>  (115) 
1.0

>  <rdn>  (115) 
0.0

>  <rup>  (115) 
0.0

>  <ldn>  (115) 
1.0

>  <lup>  (115) 
0.0

>  <mut>  (115) 
6.0

>  <maj>  (115) 
6.0

>  <min>  (115) 
0.0

>  <hyb>  (115) 
1.0

>  <sub>  (115) 
0.0

>  <query_index>  (115) 
347.0

>  <max_hit_Tanimoto>  (115) 
0.312225

>  <largest_ring>  (115) 
0

>  <N_interactions_kept>  (115) 
1.5

>  <N_interactions_lost>  (115) 
0.5

>  <interaction_uniqueness_metric>  (115) 
0.17253

>  <ad_hoc_penalty>  (115) 
-27.953035

>  <N_rotatable_bonds>  (115) 
4

>  <N_HA>  (115) 
24

>  <cluster>  (115) 
5999

>  <N_interactions>  (115) 
5

>  <Enamine>  (115) 
0

>  <Mcule>  (115) 
1

>  <N_PAINS>  (115) 
0

>  <UFF_Gibbs>  (115) 
53.08263

>  <strain_per_HA>  (115) 
2.211776

>  <saltbridge:HIS:51>  (115) 
0

>  <pistack:HIS:51>  (115) 
1

>  <hydroph_interaction:HIS:51>  (115) 
0

>  <hbond:ALA:132>  (115) 
0

>  <hbond:SER:135>  (115) 
0

>  <hydroph_interaction:TYR:150>  (115) 
0

>  <pistack:TYR:161>  (115) 
1

>  <hydroph_interaction:TYR:161>  (115) 
1

>  <hydroph_interaction:ASP:83>  (115) 
1

>  <hbond:TYR:130>  (115) 
0

>  <hydroph_interaction:ALA:132>  (115) 
0

>  <hbond:HIS:51>  (115) 
0

>  <hbond:ASP:129>  (115) 
0

>  <hbond:TYR:150>  (115) 
0

>  <hbond:GLY:151>  (115) 
1

>  <hbond:TYR:161>  (115) 
0

>  <hydroph_interaction:TYR:130>  (115) 
0

>  <hydroph_interaction:PRO:131>  (115) 
0

>  <hydroph_interaction:ASP:129>  (115) 
0

>  <saltbridge:ASP:75>  (115) 
0

>  <saltbridge:ASP:83>  (115) 
0

>  <hydroph_interaction:ASN:152>  (115) 
0

>  <halogenbond:TYR:150>  (115) 
0

>  <hbond:ASP:83>  (115) 
0

>  <hydroph_interaction:VAL:155>  (115) 
0

>  <pication:TYR:161>  (115) 
0

>  <hbond:PRO:131>  (115) 
0

>  <hbond:LEU:128>  (115) 
0

>  <saltbridge:ASP:129>  (115) 
0

>  <hbond:THR:134>  (115) 
0

>  <pication:HIS:51>  (115) 
0

>  <hbond:SER:81>  (115) 
0

>  <hbond:GLY:159>  (115) 
0

>  <hydroph_interaction:PRO:101>  (115) 
0

>  <hydroph_interaction:THR:134>  (115) 
0

>  <hbond:GLY:82>  (115) 
0

>  <hydroph_interaction:GLU:104>  (115) 
0

>  <hydroph_interaction:VAL:36>  (115) 
0

>  <hydroph_interaction:MET:49>  (115) 
0

>  <halogenbond:GLU:104>  (115) 
0

>  <hydroph_interaction:LYS:107>  (115) 
0

$$$$
MCULE-5876154034
     RDKit          3D

 48 50  0  0  0  0  0  0  0  0999 V2000
   -9.1030    6.4550  -14.2890 C   0  0  0  0  0  0  0  0  0  0  0  0
   -9.7660    5.5510  -15.1100 N   0  0  0  0  0  0  0  0  0  0  0  0
   -9.2140    5.2910  -16.3320 C   0  0  0  0  0  0  0  0  0  0  0  0
  -10.0040    4.8900  -17.4100 C   0  0  0  0  0  0  0  0  0  0  0  0
   -9.4160    4.6250  -18.7280 C   0  0  0  0  0  0  0  0  0  0  0  0
   -8.0750    4.7640  -18.9160 C   0  0  0  0  0  0  0  0  0  0  0  0
   -7.2970    5.1550  -17.8330 C   0  0  0  0  0  0  0  0  0  0  0  0
   -7.8520    5.4120  -16.5680 C   0  0  0  0  0  0  0  0  0  0  0  0
   -5.8500    5.3080  -18.0070 C   0  0  0  0  0  0  0  0  0  0  0  0
   -5.5950    5.3120  -19.3310 O   0  0  0  0  0  0  0  0  0  0  0  0
   -4.2290    5.4870  -19.6640 C   0  0  0  0  0  0  0  0  0  0  0  0
   -5.0360    5.4090  -17.1000 O   0  0  0  0  0  0  0  0  0  0  0  0
   -8.5750    7.5000  -14.6010 O   0  0  0  0  0  0  0  0  0  0  0  0
   -9.0420    6.0110  -12.8540 C   0  0  0  0  0  0  0  0  0  0  0  0
   -8.9270    6.8870  -11.7770 C   0  0  0  0  0  0  0  0  0  0  0  0
   -8.8840    6.3600  -10.4680 C   0  0  0  0  0  0  0  0  0  0  0  0
   -8.9690    4.8720  -10.3240 C   0  0  0  0  0  0  0  0  0  0  0  0
   -8.9530    4.2610   -9.0940 N   0  0  0  0  0  0  0  0  0  0  0  0
   -9.3810    2.9390   -8.9600 C   0  0  0  0  0  0  0  0  0  0  0  0
   -9.6190    2.3340   -7.7460 C   0  0  0  0  0  0  0  0  0  0  0  0
  -10.1720    3.2700   -6.9340 N   0  0  0  0  0  0  0  0  0  0  0  0
  -11.3030    3.1340   -6.0190 C   0  0  0  0  0  0  0  0  0  0  0  0
   -9.2140    4.3440   -6.6210 C   0  0  0  0  0  0  0  0  0  0  0  0
   -8.4920    4.9280   -7.8610 C   0  0  0  0  0  0  0  0  0  0  0  0
   -9.0720    4.1560  -11.5090 C   0  0  0  0  0  0  0  0  0  0  0  0
   -9.1090    4.6730  -12.7460 N   0  0  0  0  0  0  0  0  0  0  0  0
  -10.1250    4.7450  -14.5950 H   0  0  0  0  0  0  0  0  0  0  0  0
  -11.0670    4.7590  -17.3230 H   0  0  0  0  0  0  0  0  0  0  0  0
  -10.1200    4.3260  -19.4970 H   0  0  0  0  0  0  0  0  0  0  0  0
   -7.6420    4.5690  -19.8930 H   0  0  0  0  0  0  0  0  0  0  0  0
   -7.1800    5.7160  -15.7690 H   0  0  0  0  0  0  0  0  0  0  0  0
   -3.6300    4.9130  -18.9520 H   0  0  0  0  0  0  0  0  0  0  0  0
   -3.9480    6.5410  -19.5820 H   0  0  0  0  0  0  0  0  0  0  0  0
   -4.0300    5.1130  -20.6670 H   0  0  0  0  0  0  0  0  0  0  0  0
   -8.8730    7.9580  -11.9400 H   0  0  0  0  0  0  0  0  0  0  0  0
   -8.7970    7.0380   -9.6150 H   0  0  0  0  0  0  0  0  0  0  0  0
   -8.6750    2.3110   -9.5120 H   0  0  0  0  0  0  0  0  0  0  0  0
  -10.3290    2.8360   -9.4900 H   0  0  0  0  0  0  0  0  0  0  0  0
  -10.3590    1.5410   -7.8980 H   0  0  0  0  0  0  0  0  0  0  0  0
   -8.7940    1.8730   -7.2230 H   0  0  0  0  0  0  0  0  0  0  0  0
  -12.1440    3.7150   -6.3650 H   0  0  0  0  0  0  0  0  0  0  0  0
  -11.0510    3.5150   -5.0230 H   0  0  0  0  0  0  0  0  0  0  0  0
  -11.6460    2.0950   -5.9300 H   0  0  0  0  0  0  0  0  0  0  0  0
   -8.4550    3.9010   -5.9630 H   0  0  0  0  0  0  0  0  0  0  0  0
   -9.6840    5.1480   -6.0440 H   0  0  0  0  0  0  0  0  0  0  0  0
   -7.4170    4.7690   -7.7140 H   0  0  0  0  0  0  0  0  0  0  0  0
   -8.6780    6.0060   -7.9340 H   0  0  0  0  0  0  0  0  0  0  0  0
   -9.1360    3.0700  -11.4990 H   0  0  0  0  0  0  0  0  0  0  0  0
  1  2  1  0
  2  3  1  0
  3  4  2  0
  4  5  1  0
  5  6  2  0
  6  7  1  0
  7  8  2  0
  7  9  1  0
  9 10  1  0
 10 11  1  0
  9 12  2  0
  1 13  2  0
  1 14  1  0
 14 15  2  0
 15 16  1  0
 16 17  2  0
 17 18  1  0
 18 19  1  0
 19 20  1  0
 20 21  1  0
 21 22  1  0
 21 23  1  0
 23 24  1  0
 17 25  1  0
 25 26  2  0
  3  8  1  0
 14 26  1  0
 24 18  1  0
  2 27  1  0
  4 28  1  0
  5 29  1  0
  6 30  1  0
  8 31  1  0
 11 32  1  0
 11 33  1  0
 11 34  1  0
 15 35  1  0
 16 36  1  0
 19 37  1  0
 19 38  1  0
 20 39  1  0
 20 40  1  0
 22 41  1  0
 22 42  1  0
 22 43  1  0
 23 44  1  0
 23 45  1  0
 24 46  1  0
 24 47  1  0
 25 48  1  0
A    1
 C1 
A    2
 N1 
A    3
 C2 
A    4
 C3 
A    5
 C4 
A    6
 C5 
A    7
 C6 
A    8
 C7 
A    9
 C8 
A   10
 O1 
A   11
 C9 
A   12
 O2 
A   13
 O3 
A   14
 C10
A   15
 C11
A   16
 C12
A   17
 C13
A   18
 N2 
A   19
 C14
A   20
 C15
A   21
 N3 
A   22
 C16
A   23
 C17
A   24
 C18
A   25
 C19
A   26
 N4 
A   27
 H1 
A   28
 H2 
A   29
 H3 
A   30
 H4 
A   31
 H5 
A   32
 H6 
A   33
 H7 
A   34
 H8 
A   35
 H9 
A   36
 H10
A   37
 H11
A   38
 H12
A   39
 H13
A   40
 H14
A   41
 H15
A   42
 H16
A   43
 H17
A   44
 H18
A   45
 H19
A   46
 H20
A   47
 H21
A   48
 H22
M  END
>  <ref_pdb>  (116) 
x0051_0B

>  <ref_mols>  (116) 
x0443_0B,x0404_0B

>  <original SMILES>  (116) 
[H]c1nc(C(=O)N([H])c2c([H])c([H])c([H])c(C(=O)OC([H])([H])[H])c2[H])c([H])c([H])c1N1C([H])([H])C([H])([H])N(C([H])([H])[H])C([H])([H])C1([H])[H]

>  <index>  (116) 
244

>  <∆∆G>  (116) 
-6.107647

>  <∆G_bound>  (116) 
-5.284544

>  <∆G_unbound>  (116) 
0.823103

>  <comRMSD>  (116) 
0.62482

>  <N_constrained_atoms>  (116) 
25.0

>  <N_unconstrained_atoms>  (116) 
2.0

>  <runtime>  (116) 
143.187991

>  <LE>  (116) 
0.226209

>  <percent_hybrid>  (116) 
44.0

>  <dist>  (116) 
10.0

>  <ecfp4>  (116) 
0.2

>  <daylight>  (116) 
0.224199

>  <topodist>  (116) 
5.0

>  <mces>  (116) 
27.0

>  <tdn>  (116) 
1.0

>  <tup>  (116) 
1.0

>  <rdn>  (116) 
1.0

>  <rup>  (116) 
0.0

>  <ldn>  (116) 
2.0

>  <lup>  (116) 
0.0

>  <mut>  (116) 
4.0

>  <maj>  (116) 
4.0

>  <min>  (116) 
0.0

>  <hyb>  (116) 
1.0

>  <sub>  (116) 
2.0

>  <query_index>  (116) 
13.0

>  <max_hit_Tanimoto>  (116) 
0.247073

>  <largest_ring>  (116) 
0

>  <N_interactions_kept>  (116) 
2.0

>  <N_interactions_lost>  (116) 
2.5

>  <interaction_uniqueness_metric>  (116) 
0.417285

>  <ad_hoc_penalty>  (116) 
-27.862842

>  <N_rotatable_bonds>  (116) 
6

>  <N_HA>  (116) 
26

>  <cluster>  (116) 
5996

>  <N_interactions>  (116) 
9

>  <Enamine>  (116) 
0

>  <Mcule>  (116) 
1

>  <N_PAINS>  (116) 
0

>  <UFF_Gibbs>  (116) 
131.374888

>  <strain_per_HA>  (116) 
5.05288

>  <saltbridge:HIS:51>  (116) 
0

>  <pistack:HIS:51>  (116) 
1

>  <hydroph_interaction:HIS:51>  (116) 
1

>  <hbond:ALA:132>  (116) 
0

>  <hbond:SER:135>  (116) 
2

>  <hydroph_interaction:TYR:150>  (116) 
1

>  <pistack:TYR:161>  (116) 
0

>  <hydroph_interaction:TYR:161>  (116) 
1

>  <hydroph_interaction:ASP:83>  (116) 
0

>  <hbond:TYR:130>  (116) 
0

>  <hydroph_interaction:ALA:132>  (116) 
1

>  <hbond:HIS:51>  (116) 
0

>  <hbond:ASP:129>  (116) 
0

>  <hbond:TYR:150>  (116) 
0

>  <hbond:GLY:151>  (116) 
0

>  <hbond:TYR:161>  (116) 
0

>  <hydroph_interaction:TYR:130>  (116) 
0

>  <hydroph_interaction:PRO:131>  (116) 
0

>  <hydroph_interaction:ASP:129>  (116) 
0

>  <saltbridge:ASP:75>  (116) 
1

>  <saltbridge:ASP:83>  (116) 
1

>  <hydroph_interaction:ASN:152>  (116) 
0

>  <halogenbond:TYR:150>  (116) 
0

>  <hbond:ASP:83>  (116) 
0

>  <hydroph_interaction:VAL:155>  (116) 
0

>  <pication:TYR:161>  (116) 
0

>  <hbond:PRO:131>  (116) 
0

>  <hbond:LEU:128>  (116) 
0

>  <saltbridge:ASP:129>  (116) 
0

>  <hbond:THR:134>  (116) 
0

>  <pication:HIS:51>  (116) 
0

>  <hbond:SER:81>  (116) 
0

>  <hbond:GLY:159>  (116) 
0

>  <hydroph_interaction:PRO:101>  (116) 
0

>  <hydroph_interaction:THR:134>  (116) 
0

>  <hbond:GLY:82>  (116) 
0

>  <hydroph_interaction:GLU:104>  (116) 
0

>  <hydroph_interaction:VAL:36>  (116) 
0

>  <hydroph_interaction:MET:49>  (116) 
0

>  <halogenbond:GLU:104>  (116) 
0

>  <hydroph_interaction:LYS:107>  (116) 
0

$$$$
CSSS00010003466
     RDKit          3D

 27 28  0  0  0  0  0  0  0  0999 V2000
   -3.6340    4.4110  -15.5790 C   0  0  0  0  0  0  0  0  0  0  0  0
   -3.1210    5.2050  -16.7680 C   0  0  0  0  0  0  0  0  0  0  0  0
   -4.1550    5.3050  -17.8400 C   0  0  0  0  0  0  0  0  0  0  0  0
   -5.3910    5.6850  -17.5910 N   0  0  0  0  0  0  0  0  0  0  0  0
   -5.5170    6.8390  -16.6970 C   0  0  0  0  0  0  0  0  0  0  0  0
   -6.4350    6.6750  -15.4940 C   0  0  0  0  0  0  0  0  0  0  0  0
   -7.3000    5.1100  -15.3630 S   0  0  0  0  0  0  0  0  0  0  0  0
   -8.1870    5.0630  -16.8690 C   0  0  0  0  0  0  0  0  0  0  0  0
   -7.7200    5.1940  -18.1720 C   0  0  0  0  0  0  0  0  0  0  0  0
   -8.8950    5.0380  -19.1100 C   0  0  0  0  0  0  0  0  0  0  0  0
  -10.1920    4.8170  -18.4430 C   0  0  0  0  0  0  0  0  0  0  0  0
   -9.8790    4.8130  -16.7770 S   0  0  0  0  0  0  0  0  0  0  0  0
   -6.3480    5.4340  -18.5900 C   0  0  0  0  0  0  0  0  0  0  0  0
   -6.0820    5.4330  -19.7890 O   0  0  0  0  0  0  0  0  0  0  0  0
   -4.7210    4.2960  -15.6220 H   0  0  0  0  0  0  0  0  0  0  0  0
   -3.3870    4.9050  -14.6350 H   0  0  0  0  0  0  0  0  0  0  0  0
   -3.1870    3.4150  -15.5630 H   0  0  0  0  0  0  0  0  0  0  0  0
   -2.2110    4.7380  -17.1550 H   0  0  0  0  0  0  0  0  0  0  0  0
   -2.8430    6.2120  -16.4380 H   0  0  0  0  0  0  0  0  0  0  0  0
   -4.2160    4.3480  -18.3450 H   0  0  0  0  0  0  0  0  0  0  0  0
   -3.7670    5.9980  -18.5940 H   0  0  0  0  0  0  0  0  0  0  0  0
   -4.5170    7.1090  -16.3400 H   0  0  0  0  0  0  0  0  0  0  0  0
   -5.8430    7.6980  -17.2940 H   0  0  0  0  0  0  0  0  0  0  0  0
   -7.1970    7.4620  -15.4960 H   0  0  0  0  0  0  0  0  0  0  0  0
   -5.8470    6.8120  -14.5790 H   0  0  0  0  0  0  0  0  0  0  0  0
   -8.7870    5.0900  -20.1960 H   0  0  0  0  0  0  0  0  0  0  0  0
  -11.1820    4.6810  -18.8430 H   0  0  0  0  0  0  0  0  0  0  0  0
  1  2  1  0
  2  3  1  0
  3  4  1  0
  4  5  1  0
  5  6  1  0
  6  7  1  0
  7  8  1  0
  8  9  2  0
  9 10  1  0
 10 11  2  0
 11 12  1  0
  9 13  1  0
 13 14  2  0
 13  4  1  0
 12  8  1  0
  1 15  1  0
  1 16  1  0
  1 17  1  0
  2 18  1  0
  2 19  1  0
  3 20  1  0
  3 21  1  0
  5 22  1  0
  5 23  1  0
  6 24  1  0
  6 25  1  0
 10 26  1  0
 11 27  1  0
A    1
 C1 
A    2
 C2 
A    3
 C3 
A    4
 N1 
A    5
 C4 
A    6
 C5 
A    7
 S1 
A    8
 C6 
A    9
 C7 
A   10
 C8 
A   11
 C9 
A   12
 S2 
A   13
 C10
A   14
 O1 
A   15
 H1 
A   16
 H2 
A   17
 H3 
A   18
 H4 
A   19
 H5 
A   20
 H6 
A   21
 H7 
A   22
 H8 
A   23
 H9 
A   24
 H10
A   25
 H11
A   26
 H12
A   27
 H13
M  END
>  <ref_pdb>  (117) 
x0051_0B

>  <ref_mols>  (117) 
x0472_0B,x0386_0B

>  <original SMILES>  (117) 
[H]c1sc2c(c1[H])C(=O)N(C([H])([H])C([H])([H])C([H])([H])[H])C([H])([H])C([H])([H])S2

>  <index>  (117) 
143

>  <∆∆G>  (117) 
-7.544732

>  <∆G_bound>  (117) 
-7.34043

>  <∆G_unbound>  (117) 
0.204301

>  <comRMSD>  (117) 
0.498627

>  <N_constrained_atoms>  (117) 
14.0

>  <N_unconstrained_atoms>  (117) 
1.0

>  <runtime>  (117) 
21.376527

>  <LE>  (117) 
0.502982

>  <percent_hybrid>  (117) 
13.0

>  <dist>  (117) 
5.0

>  <ecfp4>  (117) 
0.186441

>  <daylight>  (117) 
0.297872

>  <topodist>  (117) 
2.0

>  <mces>  (117) 
14.0

>  <tdn>  (117) 
1.0

>  <tup>  (117) 
0.0

>  <rdn>  (117) 
0.0

>  <rup>  (117) 
0.0

>  <ldn>  (117) 
0.0

>  <lup>  (117) 
1.0

>  <mut>  (117) 
2.0

>  <maj>  (117) 
2.0

>  <min>  (117) 
0.0

>  <hyb>  (117) 
1.0

>  <sub>  (117) 
1.0

>  <query_index>  (117) 
75.0

>  <max_hit_Tanimoto>  (117) 
0.298541

>  <largest_ring>  (117) 
0

>  <N_interactions_kept>  (117) 
3.0

>  <N_interactions_lost>  (117) 
0.0

>  <interaction_uniqueness_metric>  (117) 
0.046449

>  <ad_hoc_penalty>  (117) 
-27.758627

>  <N_rotatable_bonds>  (117) 
3

>  <N_HA>  (117) 
14

>  <cluster>  (117) 
6088

>  <N_interactions>  (117) 
3

>  <Enamine>  (117) 
1

>  <Mcule>  (117) 
0

>  <N_PAINS>  (117) 
0

>  <UFF_Gibbs>  (117) 
61.643192

>  <strain_per_HA>  (117) 
4.403085

>  <saltbridge:HIS:51>  (117) 
0

>  <pistack:HIS:51>  (117) 
0

>  <hydroph_interaction:HIS:51>  (117) 
0

>  <hbond:ALA:132>  (117) 
0

>  <hbond:SER:135>  (117) 
0

>  <hydroph_interaction:TYR:150>  (117) 
0

>  <pistack:TYR:161>  (117) 
0

>  <hydroph_interaction:TYR:161>  (117) 
2

>  <hydroph_interaction:ASP:83>  (117) 
0

>  <hbond:TYR:130>  (117) 
0

>  <hydroph_interaction:ALA:132>  (117) 
0

>  <hbond:HIS:51>  (117) 
0

>  <hbond:ASP:129>  (117) 
0

>  <hbond:TYR:150>  (117) 
0

>  <hbond:GLY:151>  (117) 
0

>  <hbond:TYR:161>  (117) 
0

>  <hydroph_interaction:TYR:130>  (117) 
0

>  <hydroph_interaction:PRO:131>  (117) 
0

>  <hydroph_interaction:ASP:129>  (117) 
0

>  <saltbridge:ASP:75>  (117) 
0

>  <saltbridge:ASP:83>  (117) 
0

>  <hydroph_interaction:ASN:152>  (117) 
0

>  <halogenbond:TYR:150>  (117) 
0

>  <hbond:ASP:83>  (117) 
0

>  <hydroph_interaction:VAL:155>  (117) 
1

>  <pication:TYR:161>  (117) 
0

>  <hbond:PRO:131>  (117) 
0

>  <hbond:LEU:128>  (117) 
0

>  <saltbridge:ASP:129>  (117) 
0

>  <hbond:THR:134>  (117) 
0

>  <pication:HIS:51>  (117) 
0

>  <hbond:SER:81>  (117) 
0

>  <hbond:GLY:159>  (117) 
0

>  <hydroph_interaction:PRO:101>  (117) 
0

>  <hydroph_interaction:THR:134>  (117) 
0

>  <hbond:GLY:82>  (117) 
0

>  <hydroph_interaction:GLU:104>  (117) 
0

>  <hydroph_interaction:VAL:36>  (117) 
0

>  <hydroph_interaction:MET:49>  (117) 
0

>  <halogenbond:GLU:104>  (117) 
0

>  <hydroph_interaction:LYS:107>  (117) 
0

$$$$
MCULE-1444618407
     RDKit          3D

 45 47  0  0  0  0  0  0  0  0999 V2000
   -9.2650    6.9440  -14.3580 S   0  0  0  0  0  6  0  0  0  0  0  0
  -10.2160    8.0190  -14.2010 O   0  0  0  0  0  0  0  0  0  0  0  0
   -7.9420    7.2860  -14.8130 O   0  0  0  0  0  0  0  0  0  0  0  0
   -9.0760    6.2020  -12.7740 C   0  0  0  0  0  0  0  0  0  0  0  0
   -8.9170    6.9720  -11.6210 C   0  0  0  0  0  0  0  0  0  0  0  0
   -8.7750    6.3250  -10.3880 C   0  0  0  0  0  0  0  0  0  0  0  0
   -8.7910    4.9220  -10.3040 C   0  0  0  0  0  0  0  0  0  0  0  0
   -8.9510    4.1910  -11.4880 C   0  0  0  0  0  0  0  0  0  0  0  0
   -9.0920    4.8230  -12.7140 C   0  0  0  0  0  0  0  0  0  0  0  0
   -8.6520    4.2290   -9.0610 N   0  0  0  0  0  0  0  0  0  0  0  0
   -8.9830    2.7930   -9.0730 C   0  0  0  0  0  0  0  0  0  0  0  0
   -9.6290    2.3720   -7.9060 C   0  0  0  0  0  0  0  0  0  0  0  0
   -8.7680    2.6180   -6.8060 O   0  0  0  0  0  0  0  0  0  0  0  0
   -8.7340    4.0080   -6.5910 C   0  0  0  0  0  0  0  0  0  0  0  0
   -8.6200    4.9070   -7.8310 C   0  0  0  0  0  0  0  0  0  0  0  0
   -8.5150    6.1160   -7.6740 O   0  0  0  0  0  0  0  0  0  0  0  0
   -9.8670    5.6810  -15.3710 N   0  0  0  0  0  0  0  0  0  0  0  0
   -9.0110    5.4030  -16.4850 C   0  0  0  0  0  0  0  0  0  0  0  0
   -7.5480    5.4550  -16.0980 C   0  0  0  0  0  0  0  0  0  0  0  0
   -6.5260    5.2420  -17.2010 C   0  0  0  0  0  0  0  0  0  0  0  0
   -5.0750    5.2960  -16.8560 C   0  0  0  0  0  0  0  0  0  0  0  0
   -6.9230    5.0070  -18.5080 C   0  0  0  0  0  0  0  0  0  0  0  0
   -8.2600    4.9350  -18.8630 C   0  0  0  0  0  0  0  0  0  0  0  0
   -9.3780    5.1280  -17.8420 C   0  0  0  0  0  0  0  0  0  0  0  0
  -10.7460    5.0380  -18.4530 C   0  0  0  0  0  0  0  0  0  0  0  0
   -8.9020    8.0660  -11.6630 H   0  0  0  0  0  0  0  0  0  0  0  0
   -8.6550    6.9480   -9.5060 H   0  0  0  0  0  0  0  0  0  0  0  0
   -8.9730    3.1040  -11.4960 H   0  0  0  0  0  0  0  0  0  0  0  0
   -9.2160    4.2310  -13.6150 H   0  0  0  0  0  0  0  0  0  0  0  0
   -8.0680    2.1970   -9.1800 H   0  0  0  0  0  0  0  0  0  0  0  0
   -9.6430    2.6200   -9.9310 H   0  0  0  0  0  0  0  0  0  0  0  0
   -9.8320    1.3020   -7.9500 H   0  0  0  0  0  0  0  0  0  0  0  0
  -10.5860    2.8810   -7.7550 H   0  0  0  0  0  0  0  0  0  0  0  0
   -7.8760    4.2120   -5.9440 H   0  0  0  0  0  0  0  0  0  0  0  0
   -9.6340    4.2960   -6.0550 H   0  0  0  0  0  0  0  0  0  0  0  0
  -10.1870    4.8890  -14.8250 H   0  0  0  0  0  0  0  0  0  0  0  0
   -7.2310    5.6470  -15.0750 H   0  0  0  0  0  0  0  0  0  0  0  0
   -4.4860    4.8500  -17.6630 H   0  0  0  0  0  0  0  0  0  0  0  0
   -4.8730    4.7520  -15.9290 H   0  0  0  0  0  0  0  0  0  0  0  0
   -4.7480    6.3300  -16.7070 H   0  0  0  0  0  0  0  0  0  0  0  0
   -6.1700    4.8660  -19.2840 H   0  0  0  0  0  0  0  0  0  0  0  0
   -8.5070    4.7400  -19.9070 H   0  0  0  0  0  0  0  0  0  0  0  0
  -11.2020    4.0770  -18.3330 H   0  0  0  0  0  0  0  0  0  0  0  0
  -10.6690    5.2720  -19.5170 H   0  0  0  0  0  0  0  0  0  0  0  0
  -11.4160    5.7620  -18.0500 H   0  0  0  0  0  0  0  0  0  0  0  0
  1  2  2  0
  1  3  2  0
  1  4  1  0
  4  5  2  0
  5  6  1  0
  6  7  2  0
  7  8  1  0
  8  9  2  0
  7 10  1  0
 10 11  1  0
 11 12  1  0
 12 13  1  0
 13 14  1  0
 14 15  1  0
 15 16  2  0
  1 17  1  0
 17 18  1  0
 18 19  2  0
 19 20  1  0
 20 21  1  0
 20 22  2  0
 22 23  1  0
 23 24  2  0
 24 25  1  0
  9  4  1  0
 15 10  1  0
 18 24  1  0
  5 26  1  0
  6 27  1  0
  8 28  1  0
  9 29  1  0
 11 30  1  0
 11 31  1  0
 12 32  1  0
 12 33  1  0
 14 34  1  0
 14 35  1  0
 17 36  1  0
 19 37  1  0
 21 38  1  0
 21 39  1  0
 21 40  1  0
 22 41  1  0
 23 42  1  0
 25 43  1  0
 25 44  1  0
 25 45  1  0
A    1
 S1 
A    2
 O1 
A    3
 O2 
A    4
 C1 
A    5
 C2 
A    6
 C3 
A    7
 C4 
A    8
 C5 
A    9
 C6 
A   10
 N1 
A   11
 C7 
A   12
 C8 
A   13
 O3 
A   14
 C9 
A   15
 C10
A   16
 O4 
A   17
 N2 
A   18
 C11
A   19
 C12
A   20
 C13
A   21
 C14
A   22
 C15
A   23
 C16
A   24
 C17
A   25
 C18
A   26
 H1 
A   27
 H2 
A   28
 H3 
A   29
 H4 
A   30
 H5 
A   31
 H6 
A   32
 H7 
A   33
 H8 
A   34
 H9 
A   35
 H10
A   36
 H11
A   37
 H12
A   38
 H13
A   39
 H14
A   40
 H15
A   41
 H16
A   42
 H17
A   43
 H18
A   44
 H19
A   45
 H20
M  END
>  <ref_pdb>  (118) 
x0051_0B

>  <ref_mols>  (118) 
x0553_0B,x0404_0B

>  <original SMILES>  (118) 
[H]c1c([H])c(S(=O)(=O)N([H])c2c([H])c(C([H])([H])[H])c([H])c([H])c2C([H])([H])[H])c([H])c([H])c1N1C(=O)C([H])([H])OC([H])([H])C1([H])[H]

>  <index>  (118) 
100

>  <∆∆G>  (118) 
-7.153278

>  <∆G_bound>  (118) 
-8.145316

>  <∆G_unbound>  (118) 
-0.992038

>  <comRMSD>  (118) 
0.942535

>  <N_constrained_atoms>  (118) 
25.0

>  <N_unconstrained_atoms>  (118) 
2.0

>  <runtime>  (118) 
67.187174

>  <LE>  (118) 
0.264936

>  <percent_hybrid>  (118) 
36.0

>  <dist>  (118) 
8.0

>  <ecfp4>  (118) 
0.259259

>  <daylight>  (118) 
0.291866

>  <topodist>  (118) 
3.0

>  <mces>  (118) 
26.0

>  <tdn>  (118) 
1.0

>  <tup>  (118) 
1.0

>  <rdn>  (118) 
0.0

>  <rup>  (118) 
0.0

>  <ldn>  (118) 
1.0

>  <lup>  (118) 
0.0

>  <mut>  (118) 
2.0

>  <maj>  (118) 
2.0

>  <min>  (118) 
0.0

>  <hyb>  (118) 
3.0

>  <sub>  (118) 
0.0

>  <query_index>  (118) 
112.0

>  <max_hit_Tanimoto>  (118) 
0.301173

>  <largest_ring>  (118) 
0

>  <N_interactions_kept>  (118) 
2.0

>  <N_interactions_lost>  (118) 
1.5

>  <interaction_uniqueness_metric>  (118) 
0.165284

>  <ad_hoc_penalty>  (118) 
-27.737388

>  <N_rotatable_bonds>  (118) 
6

>  <N_HA>  (118) 
25

>  <cluster>  (118) 
6124

>  <N_interactions>  (118) 
8

>  <Enamine>  (118) 
0

>  <Mcule>  (118) 
1

>  <N_PAINS>  (118) 
0

>  <UFF_Gibbs>  (118) 
208.232482

>  <strain_per_HA>  (118) 
8.329299

>  <saltbridge:HIS:51>  (118) 
0

>  <pistack:HIS:51>  (118) 
1

>  <hydroph_interaction:HIS:51>  (118) 
1

>  <hbond:ALA:132>  (118) 
0

>  <hbond:SER:135>  (118) 
2

>  <hydroph_interaction:TYR:150>  (118) 
1

>  <pistack:TYR:161>  (118) 
0

>  <hydroph_interaction:TYR:161>  (118) 
3

>  <hydroph_interaction:ASP:83>  (118) 
0

>  <hbond:TYR:130>  (118) 
0

>  <hydroph_interaction:ALA:132>  (118) 
0

>  <hbond:HIS:51>  (118) 
0

>  <hbond:ASP:129>  (118) 
0

>  <hbond:TYR:150>  (118) 
0

>  <hbond:GLY:151>  (118) 
0

>  <hbond:TYR:161>  (118) 
0

>  <hydroph_interaction:TYR:130>  (118) 
0

>  <hydroph_interaction:PRO:131>  (118) 
0

>  <hydroph_interaction:ASP:129>  (118) 
0

>  <saltbridge:ASP:75>  (118) 
0

>  <saltbridge:ASP:83>  (118) 
0

>  <hydroph_interaction:ASN:152>  (118) 
0

>  <halogenbond:TYR:150>  (118) 
0

>  <hbond:ASP:83>  (118) 
0

>  <hydroph_interaction:VAL:155>  (118) 
0

>  <pication:TYR:161>  (118) 
0

>  <hbond:PRO:131>  (118) 
0

>  <hbond:LEU:128>  (118) 
0

>  <saltbridge:ASP:129>  (118) 
0

>  <hbond:THR:134>  (118) 
0

>  <pication:HIS:51>  (118) 
0

>  <hbond:SER:81>  (118) 
0

>  <hbond:GLY:159>  (118) 
0

>  <hydroph_interaction:PRO:101>  (118) 
0

>  <hydroph_interaction:THR:134>  (118) 
0

>  <hbond:GLY:82>  (118) 
0

>  <hydroph_interaction:GLU:104>  (118) 
0

>  <hydroph_interaction:VAL:36>  (118) 
0

>  <hydroph_interaction:MET:49>  (118) 
0

>  <halogenbond:GLU:104>  (118) 
0

>  <hydroph_interaction:LYS:107>  (118) 
0

$$$$
Z2480319974
     RDKit          3D

 49 51  0  0  0  0  0  0  0  0999 V2000
   -2.4420    4.9420  -21.6920 C   0  0  0  0  0  0  0  0  0  0  0  0
   -3.8010    5.3400  -21.3430 N   0  0  0  0  0  0  0  0  0  0  0  0
   -4.6850    5.3810  -22.4780 C   0  0  0  0  0  0  0  0  0  0  0  0
   -4.2390    5.3760  -20.0100 C   0  0  0  0  0  0  0  0  0  0  0  0
   -3.4830    5.0860  -19.0850 O   0  0  0  0  0  0  0  0  0  0  0  0
   -5.5750    5.7320  -19.7670 C   0  0  0  0  0  0  0  0  0  0  0  0
   -5.9410    5.8300  -18.3910 O   0  0  0  0  0  0  0  0  0  0  0  0
   -7.2100    5.4680  -18.0310 C   0  0  0  0  0  0  0  0  0  0  0  0
   -8.2060    4.8360  -18.9500 C   0  0  0  0  0  0  0  0  0  0  0  0
   -9.4500    4.5200  -18.4470 C   0  0  0  0  0  0  0  0  0  0  0  0
   -9.7580    4.7950  -17.1160 C   0  0  0  0  0  0  0  0  0  0  0  0
   -8.8740    5.4000  -16.2000 C   0  0  0  0  0  0  0  0  0  0  0  0
   -9.3080    5.7160  -14.7530 C   0  0  0  0  0  0  0  0  0  0  0  0
  -10.1070    6.6260  -14.5770 O   0  0  0  0  0  0  0  0  0  0  0  0
   -8.8000    5.0000  -13.6620 O   0  0  0  0  0  0  0  0  0  0  0  0
   -8.2130    5.8790  -12.6400 C   0  0  0  0  0  0  0  0  0  0  0  0
   -8.5200    5.8060  -11.0660 C   0  0  0  0  0  0  0  0  0  0  0  0
   -8.7180    4.5380  -10.2400 C   0  0  0  0  0  0  0  0  0  0  0  0
   -8.7280    3.1010  -10.5310 C   0  0  0  0  0  0  0  0  0  0  0  0
   -9.3590    2.2440   -9.4250 C   0  0  0  0  0  0  0  0  0  0  0  0
   -9.6040    2.8010   -8.0150 C   0  0  0  0  0  0  0  0  0  0  0  0
   -9.1090    4.2140   -7.7650 C   0  0  0  0  0  0  0  0  0  0  0  0
   -8.9040    5.0120   -8.9610 N   0  0  0  0  0  0  0  0  0  0  0  0
   -8.8760    6.3560   -8.8530 N   0  0  0  0  0  0  0  0  0  0  0  0
   -8.6530    6.8250  -10.0940 C   0  0  0  0  0  0  0  0  0  0  0  0
   -7.5790    5.7300  -16.6860 C   0  0  0  0  0  0  0  0  0  0  0  0
   -1.9300    5.7750  -22.1820 H   0  0  0  0  0  0  0  0  0  0  0  0
   -1.8580    4.6550  -20.8120 H   0  0  0  0  0  0  0  0  0  0  0  0
   -2.4990    4.0940  -22.3800 H   0  0  0  0  0  0  0  0  0  0  0  0
   -5.3860    4.5410  -22.4230 H   0  0  0  0  0  0  0  0  0  0  0  0
   -4.0990    5.2730  -23.3940 H   0  0  0  0  0  0  0  0  0  0  0  0
   -5.2380    6.3250  -22.4810 H   0  0  0  0  0  0  0  0  0  0  0  0
   -6.1960    4.9270  -20.1800 H   0  0  0  0  0  0  0  0  0  0  0  0
   -5.8370    6.6500  -20.3080 H   0  0  0  0  0  0  0  0  0  0  0  0
   -7.9580    4.6290  -19.9890 H   0  0  0  0  0  0  0  0  0  0  0  0
  -10.1680    4.0620  -19.0990 H   0  0  0  0  0  0  0  0  0  0  0  0
  -10.7460    4.5210  -16.7860 H   0  0  0  0  0  0  0  0  0  0  0  0
   -8.4430    6.9060  -12.9550 H   0  0  0  0  0  0  0  0  0  0  0  0
   -7.1250    5.7670  -12.7330 H   0  0  0  0  0  0  0  0  0  0  0  0
   -7.7060    2.7670  -10.7250 H   0  0  0  0  0  0  0  0  0  0  0  0
   -9.2840    2.9200  -11.4600 H   0  0  0  0  0  0  0  0  0  0  0  0
  -10.3370    1.9650   -9.8010 H   0  0  0  0  0  0  0  0  0  0  0  0
   -8.7690    1.3330   -9.3320 H   0  0  0  0  0  0  0  0  0  0  0  0
  -10.6810    2.7590   -7.8150 H   0  0  0  0  0  0  0  0  0  0  0  0
   -9.1370    2.1340   -7.2810 H   0  0  0  0  0  0  0  0  0  0  0  0
   -8.1360    4.1770   -7.2690 H   0  0  0  0  0  0  0  0  0  0  0  0
   -9.8050    4.7500   -7.1100 H   0  0  0  0  0  0  0  0  0  0  0  0
   -8.5890    7.8950  -10.2360 H   0  0  0  0  0  0  0  0  0  0  0  0
   -6.8530    6.1970  -16.0210 H   0  0  0  0  0  0  0  0  0  0  0  0
  1  2  1  0
  2  3  1  0
  2  4  1  0
  4  5  2  0
  4  6  1  0
  6  7  1  0
  7  8  1  0
  8  9  2  0
  9 10  1  0
 10 11  2  0
 11 12  1  0
 12 13  1  0
 13 14  2  0
 13 15  1  0
 15 16  1  0
 16 17  1  0
 17 18  2  0
 18 19  1  0
 19 20  1  0
 20 21  1  0
 21 22  1  0
 22 23  1  0
 23 24  1  0
 24 25  2  0
 12 26  2  0
 26  8  1  0
 25 17  1  0
 23 18  1  0
  1 27  1  0
  1 28  1  0
  1 29  1  0
  3 30  1  0
  3 31  1  0
  3 32  1  0
  6 33  1  0
  6 34  1  0
  9 35  1  0
 10 36  1  0
 11 37  1  0
 16 38  1  0
 16 39  1  0
 19 40  1  0
 19 41  1  0
 20 42  1  0
 20 43  1  0
 21 44  1  0
 21 45  1  0
 22 46  1  0
 22 47  1  0
 25 48  1  0
 26 49  1  0
A    1
 C1 
A    2
 N1 
A    3
 C2 
A    4
 C3 
A    5
 O1 
A    6
 C4 
A    7
 O2 
A    8
 C5 
A    9
 C6 
A   10
 C7 
A   11
 C8 
A   12
 C9 
A   13
 C10
A   14
 O3 
A   15
 O4 
A   16
 C11
A   17
 C12
A   18
 C13
A   19
 C14
A   20
 C15
A   21
 C16
A   22
 C17
A   23
 N2 
A   24
 N3 
A   25
 C18
A   26
 C19
A   27
 H1 
A   28
 H2 
A   29
 H3 
A   30
 H4 
A   31
 H5 
A   32
 H6 
A   33
 H7 
A   34
 H8 
A   35
 H9 
A   36
 H10
A   37
 H11
A   38
 H12
A   39
 H13
A   40
 H14
A   41
 H15
A   42
 H16
A   43
 H17
A   44
 H18
A   45
 H19
A   46
 H20
A   47
 H21
A   48
 H22
A   49
 H23
M  END
>  <ref_pdb>  (119) 
x0051_0B

>  <ref_mols>  (119) 
x0969_1B,x0904_0B

>  <original SMILES>  (119) 
[H]c1nn2c(c1C([H])([H])OC(=O)c1c([H])c([H])c([H])c(OC([H])([H])C(=O)N(C([H])([H])[H])C([H])([H])[H])c1[H])C([H])([H])C([H])([H])C([H])([H])C2([H])[H]

>  <index>  (119) 
205

>  <∆∆G>  (119) 
-7.326908

>  <∆G_bound>  (119) 
-6.717418

>  <∆G_unbound>  (119) 
0.60949

>  <comRMSD>  (119) 
0.614806

>  <N_constrained_atoms>  (119) 
24.0

>  <N_unconstrained_atoms>  (119) 
2.0

>  <runtime>  (119) 
81.377849

>  <LE>  (119) 
0.281804

>  <percent_hybrid>  (119) 
42.0

>  <dist>  (119) 
4.0

>  <ecfp4>  (119) 
0.573529

>  <daylight>  (119) 
0.407666

>  <topodist>  (119) 
2.0

>  <mces>  (119) 
27.0

>  <tdn>  (119) 
0.0

>  <tup>  (119) 
1.0

>  <rdn>  (119) 
0.0

>  <rup>  (119) 
0.0

>  <ldn>  (119) 
1.0

>  <lup>  (119) 
0.0

>  <mut>  (119) 
1.0

>  <maj>  (119) 
1.0

>  <min>  (119) 
0.0

>  <hyb>  (119) 
1.0

>  <sub>  (119) 
0.0

>  <query_index>  (119) 
111.0

>  <max_hit_Tanimoto>  (119) 
0.319728

>  <largest_ring>  (119) 
0

>  <N_interactions_kept>  (119) 
2.0

>  <N_interactions_lost>  (119) 
1.5

>  <interaction_uniqueness_metric>  (119) 
0.252824

>  <ad_hoc_penalty>  (119) 
-27.622972

>  <N_rotatable_bonds>  (119) 
8

>  <N_HA>  (119) 
26

>  <cluster>  (119) 
6032

>  <N_interactions>  (119) 
8

>  <Enamine>  (119) 
1

>  <Mcule>  (119) 
0

>  <N_PAINS>  (119) 
0

>  <UFF_Gibbs>  (119) 
117.883112

>  <strain_per_HA>  (119) 
4.533966

>  <saltbridge:HIS:51>  (119) 
1

>  <pistack:HIS:51>  (119) 
1

>  <hydroph_interaction:HIS:51>  (119) 
1

>  <hbond:ALA:132>  (119) 
0

>  <hbond:SER:135>  (119) 
1

>  <hydroph_interaction:TYR:150>  (119) 
1

>  <pistack:TYR:161>  (119) 
0

>  <hydroph_interaction:TYR:161>  (119) 
2

>  <hydroph_interaction:ASP:83>  (119) 
0

>  <hbond:TYR:130>  (119) 
0

>  <hydroph_interaction:ALA:132>  (119) 
1

>  <hbond:HIS:51>  (119) 
0

>  <hbond:ASP:129>  (119) 
0

>  <hbond:TYR:150>  (119) 
0

>  <hbond:GLY:151>  (119) 
0

>  <hbond:TYR:161>  (119) 
0

>  <hydroph_interaction:TYR:130>  (119) 
0

>  <hydroph_interaction:PRO:131>  (119) 
0

>  <hydroph_interaction:ASP:129>  (119) 
0

>  <saltbridge:ASP:75>  (119) 
0

>  <saltbridge:ASP:83>  (119) 
0

>  <hydroph_interaction:ASN:152>  (119) 
0

>  <halogenbond:TYR:150>  (119) 
0

>  <hbond:ASP:83>  (119) 
0

>  <hydroph_interaction:VAL:155>  (119) 
0

>  <pication:TYR:161>  (119) 
0

>  <hbond:PRO:131>  (119) 
0

>  <hbond:LEU:128>  (119) 
0

>  <saltbridge:ASP:129>  (119) 
0

>  <hbond:THR:134>  (119) 
0

>  <pication:HIS:51>  (119) 
0

>  <hbond:SER:81>  (119) 
0

>  <hbond:GLY:159>  (119) 
0

>  <hydroph_interaction:PRO:101>  (119) 
0

>  <hydroph_interaction:THR:134>  (119) 
0

>  <hbond:GLY:82>  (119) 
0

>  <hydroph_interaction:GLU:104>  (119) 
0

>  <hydroph_interaction:VAL:36>  (119) 
0

>  <hydroph_interaction:MET:49>  (119) 
0

>  <halogenbond:GLU:104>  (119) 
0

>  <hydroph_interaction:LYS:107>  (119) 
0

$$$$
CSSS00036402792
     RDKit          3D

 32 34  0  0  0  0  0  0  0  0999 V2000
   -6.5670    5.7100  -14.8610 O   0  0  0  0  0  0  0  0  0  0  0  0
   -7.7570    5.4850  -15.0180 C   0  0  0  0  0  0  0  0  0  0  0  0
   -8.7320    5.4160  -14.0420 N   0  0  0  0  0  0  0  0  0  0  0  0
   -9.1780    6.4830  -13.2410 C   0  0  0  0  0  0  0  0  0  0  0  0
  -10.0850    7.5140  -13.9180 C   0  0  0  0  0  0  0  0  0  0  0  0
  -10.5420    8.6660  -13.0060 C   0  0  0  0  0  0  0  0  0  0  0  0
  -10.1330    8.7120  -11.6740 C   0  0  0  0  0  0  0  0  0  0  0  0
   -9.3050    7.7230  -11.1350 C   0  0  0  0  0  0  0  0  0  0  0  0
   -8.8410    6.6380  -11.8960 C   0  0  0  0  0  0  0  0  0  0  0  0
   -8.2410    5.2640  -16.4040 C   0  0  0  0  0  0  0  0  0  0  0  0
   -9.5720    4.9570  -16.5480 C   0  0  0  0  0  0  0  0  0  0  0  0
  -10.1080    4.7340  -17.8130 C   0  0  0  0  0  0  0  0  0  0  0  0
   -9.2910    4.8130  -18.9310 C   0  0  0  0  0  0  0  0  0  0  0  0
   -7.9350    5.1240  -18.8040 C   0  0  0  0  0  0  0  0  0  0  0  0
   -7.1300    5.1990  -19.9440 C   0  0  0  0  0  0  0  0  0  0  0  0
   -5.7830    5.5120  -19.8510 C   0  0  0  0  0  0  0  0  0  0  0  0
   -5.2170    5.7540  -18.6100 C   0  0  0  0  0  0  0  0  0  0  0  0
   -6.0020    5.6760  -17.4610 C   0  0  0  0  0  0  0  0  0  0  0  0
   -7.3790    5.3610  -17.5260 C   0  0  0  0  0  0  0  0  0  0  0  0
   -9.2940    4.5690  -14.0270 H   0  0  0  0  0  0  0  0  0  0  0  0
  -10.3930    7.4570  -14.9590 H   0  0  0  0  0  0  0  0  0  0  0  0
  -11.1880    9.4440  -13.4030 H   0  0  0  0  0  0  0  0  0  0  0  0
  -10.4650    9.5310  -11.0410 H   0  0  0  0  0  0  0  0  0  0  0  0
   -9.0100    7.7910  -10.0910 H   0  0  0  0  0  0  0  0  0  0  0  0
   -8.2000    5.9190  -11.3940 H   0  0  0  0  0  0  0  0  0  0  0  0
  -10.2120    4.8900  -15.6690 H   0  0  0  0  0  0  0  0  0  0  0  0
  -11.1620    4.4940  -17.9280 H   0  0  0  0  0  0  0  0  0  0  0  0
   -9.7190    4.6350  -19.9140 H   0  0  0  0  0  0  0  0  0  0  0  0
   -7.5490    5.0090  -20.9260 H   0  0  0  0  0  0  0  0  0  0  0  0
   -5.1770    5.5670  -20.7510 H   0  0  0  0  0  0  0  0  0  0  0  0
   -4.1610    5.9990  -18.5280 H   0  0  0  0  0  0  0  0  0  0  0  0
   -5.5180    5.8690  -16.5070 H   0  0  0  0  0  0  0  0  0  0  0  0
  1  2  2  0
  2  3  1  0
  3  4  1  0
  4  5  2  0
  5  6  1  0
  6  7  2  0
  7  8  1  0
  8  9  2  0
  2 10  1  0
 10 11  2  0
 11 12  1  0
 12 13  2  0
 13 14  1  0
 14 15  2  0
 15 16  1  0
 16 17  2  0
 17 18  1  0
 18 19  2  0
  9  4  1  0
 19 10  1  0
 19 14  1  0
  3 20  1  0
  5 21  1  0
  6 22  1  0
  7 23  1  0
  8 24  1  0
  9 25  1  0
 11 26  1  0
 12 27  1  0
 13 28  1  0
 15 29  1  0
 16 30  1  0
 17 31  1  0
 18 32  1  0
A    1
 O1 
A    2
 C1 
A    3
 N1 
A    4
 C2 
A    5
 C3 
A    6
 C4 
A    7
 C5 
A    8
 C6 
A    9
 C7 
A   10
 C8 
A   11
 C9 
A   12
 C10
A   13
 C11
A   14
 C12
A   15
 C13
A   16
 C14
A   17
 C15
A   18
 C16
A   19
 C17
A   20
 H1 
A   21
 H2 
A   22
 H3 
A   23
 H4 
A   24
 H5 
A   25
 H6 
A   26
 H7 
A   27
 H8 
A   28
 H9 
A   29
 H10
A   30
 H11
A   31
 H12
A   32
 H13
M  END
>  <ref_pdb>  (120) 
x0051_0B

>  <ref_mols>  (120) 
x0429_0B,x0951_0B

>  <original SMILES>  (120) 
[H]c1c([H])c([H])c(N([H])C(=O)c2c([H])c([H])c([H])c3c([H])c([H])c([H])c([H])c23)c([H])c1[H]

>  <index>  (120) 
254

>  <∆∆G>  (120) 
-8.536095

>  <∆G_bound>  (120) 
-8.400958

>  <∆G_unbound>  (120) 
0.135136

>  <comRMSD>  (120) 
0.311545

>  <N_constrained_atoms>  (120) 
16.0

>  <N_unconstrained_atoms>  (120) 
4.0

>  <runtime>  (120) 
55.082839

>  <LE>  (120) 
0.426805

>  <percent_hybrid>  (120) 
45.0

>  <dist>  (120) 
12.0

>  <ecfp4>  (120) 
0.109375

>  <daylight>  (120) 
0.191358

>  <topodist>  (120) 
3.0

>  <mces>  (120) 
21.0

>  <tdn>  (120) 
2.0

>  <tup>  (120) 
0.0

>  <rdn>  (120) 
1.0

>  <rup>  (120) 
0.0

>  <ldn>  (120) 
0.0

>  <lup>  (120) 
0.0

>  <mut>  (120) 
3.0

>  <maj>  (120) 
3.0

>  <min>  (120) 
0.0

>  <hyb>  (120) 
6.0

>  <sub>  (120) 
1.0

>  <query_index>  (120) 
76.0

>  <max_hit_Tanimoto>  (120) 
0.215686

>  <largest_ring>  (120) 
0

>  <N_interactions_kept>  (120) 
0.0

>  <N_interactions_lost>  (120) 
3.0

>  <interaction_uniqueness_metric>  (120) 
0.240406

>  <ad_hoc_penalty>  (120) 
-27.426044

>  <N_rotatable_bonds>  (120) 
2

>  <N_HA>  (120) 
19

>  <cluster>  (120) 
5986

>  <N_interactions>  (120) 
7

>  <Enamine>  (120) 
1

>  <Mcule>  (120) 
0

>  <N_PAINS>  (120) 
0

>  <UFF_Gibbs>  (120) 
64.714713

>  <strain_per_HA>  (120) 
3.406038

>  <saltbridge:HIS:51>  (120) 
0

>  <pistack:HIS:51>  (120) 
0

>  <hydroph_interaction:HIS:51>  (120) 
0

>  <hbond:ALA:132>  (120) 
0

>  <hbond:SER:135>  (120) 
0

>  <hydroph_interaction:TYR:150>  (120) 
1

>  <pistack:TYR:161>  (120) 
1

>  <hydroph_interaction:TYR:161>  (120) 
3

>  <hydroph_interaction:ASP:83>  (120) 
0

>  <hbond:TYR:130>  (120) 
0

>  <hydroph_interaction:ALA:132>  (120) 
0

>  <hbond:HIS:51>  (120) 
0

>  <hbond:ASP:129>  (120) 
0

>  <hbond:TYR:150>  (120) 
0

>  <hbond:GLY:151>  (120) 
1

>  <hbond:TYR:161>  (120) 
0

>  <hydroph_interaction:TYR:130>  (120) 
0

>  <hydroph_interaction:PRO:131>  (120) 
0

>  <hydroph_interaction:ASP:129>  (120) 
0

>  <saltbridge:ASP:75>  (120) 
0

>  <saltbridge:ASP:83>  (120) 
0

>  <hydroph_interaction:ASN:152>  (120) 
0

>  <halogenbond:TYR:150>  (120) 
0

>  <hbond:ASP:83>  (120) 
0

>  <hydroph_interaction:VAL:155>  (120) 
0

>  <pication:TYR:161>  (120) 
0

>  <hbond:PRO:131>  (120) 
0

>  <hbond:LEU:128>  (120) 
0

>  <saltbridge:ASP:129>  (120) 
0

>  <hbond:THR:134>  (120) 
0

>  <pication:HIS:51>  (120) 
1

>  <hbond:SER:81>  (120) 
0

>  <hbond:GLY:159>  (120) 
0

>  <hydroph_interaction:PRO:101>  (120) 
0

>  <hydroph_interaction:THR:134>  (120) 
0

>  <hbond:GLY:82>  (120) 
0

>  <hydroph_interaction:GLU:104>  (120) 
0

>  <hydroph_interaction:VAL:36>  (120) 
0

>  <hydroph_interaction:MET:49>  (120) 
0

>  <halogenbond:GLU:104>  (120) 
0

>  <hydroph_interaction:LYS:107>  (120) 
0

$$$$
JIGHBNKWWUHLAE-UHFFFAOYSA-N
     RDKit          3D

 40 42  0  0  0  0  0  0  0  0999 V2000
   -7.6990    4.8950  -14.2010 C   0  0  0  0  0  0  0  0  0  0  0  0
   -8.7350    4.9270  -13.2600 N   0  0  0  0  0  0  0  0  0  0  0  0
   -8.7850    5.9960  -12.2570 C   0  0  0  0  0  0  0  0  0  0  0  0
   -8.8360    5.6860  -10.7650 C   0  0  0  0  0  0  0  0  0  0  0  0
   -8.9490    4.4500  -10.0250 C   0  0  0  0  0  0  0  0  0  0  0  0
   -8.9530    4.8320   -8.6850 N   0  0  0  0  0  0  0  0  0  0  0  0
   -9.0670    3.9330   -7.5360 C   0  0  0  0  0  0  0  0  0  0  0  0
   -9.3010    2.6030   -8.0560 C   0  0  0  0  0  0  0  0  0  0  0  0
   -8.5700    2.3100   -9.3500 C   0  0  0  0  0  0  0  0  0  0  0  0
   -9.0400    3.1750  -10.3840 O   0  0  0  0  0  0  0  0  0  0  0  0
   -8.8420    6.1540   -8.4940 N   0  0  0  0  0  0  0  0  0  0  0  0
   -8.7760    6.6590   -9.7340 C   0  0  0  0  0  0  0  0  0  0  0  0
   -6.5230    4.8080  -13.8650 O   0  0  0  0  0  0  0  0  0  0  0  0
   -8.0210    4.9780  -15.7260 C   0  0  0  0  0  0  0  0  0  0  0  0
   -6.9100    5.1510  -16.6940 C   0  0  0  0  0  0  0  0  0  0  0  0
   -5.4210    5.2890  -16.6800 C   0  0  0  0  0  0  0  0  0  0  0  0
   -6.8870    5.2550  -18.1520 C   0  0  0  0  0  0  0  0  0  0  0  0
   -8.2890    5.1600  -18.7100 C   0  0  0  0  0  0  0  0  0  0  0  0
   -9.4030    4.9990  -17.8280 C   0  0  0  0  0  0  0  0  0  0  0  0
  -10.7200    4.9490  -18.5440 C   0  0  0  0  0  0  0  0  0  0  0  0
   -9.2940    4.9070  -16.3730 C   0  0  0  0  0  0  0  0  0  0  0  0
   -9.3130    4.1040  -13.1390 H   0  0  0  0  0  0  0  0  0  0  0  0
   -9.6490    6.6270  -12.4980 H   0  0  0  0  0  0  0  0  0  0  0  0
   -7.8970    6.6040  -12.4570 H   0  0  0  0  0  0  0  0  0  0  0  0
   -8.1490    4.0470   -6.9710 H   0  0  0  0  0  0  0  0  0  0  0  0
   -9.8540    4.3740   -6.9250 H   0  0  0  0  0  0  0  0  0  0  0  0
   -9.0180    1.8680   -7.2980 H   0  0  0  0  0  0  0  0  0  0  0  0
  -10.3820    2.4880   -8.2050 H   0  0  0  0  0  0  0  0  0  0  0  0
   -7.4950    2.4820   -9.2440 H   0  0  0  0  0  0  0  0  0  0  0  0
   -8.7070    1.2860   -9.6670 H   0  0  0  0  0  0  0  0  0  0  0  0
   -8.6870    7.7330   -9.8460 H   0  0  0  0  0  0  0  0  0  0  0  0
   -5.1520    6.3480  -16.6760 H   0  0  0  0  0  0  0  0  0  0  0  0
   -5.0310    4.8370  -15.7640 H   0  0  0  0  0  0  0  0  0  0  0  0
   -4.8840    4.8350  -17.5170 H   0  0  0  0  0  0  0  0  0  0  0  0
   -6.0000    5.3810  -18.7670 H   0  0  0  0  0  0  0  0  0  0  0  0
   -8.4440    5.2210  -19.7870 H   0  0  0  0  0  0  0  0  0  0  0  0
  -11.4070    5.6810  -18.1520 H   0  0  0  0  0  0  0  0  0  0  0  0
  -11.2030    3.9930  -18.4780 H   0  0  0  0  0  0  0  0  0  0  0  0
  -10.5560    5.1950  -19.5980 H   0  0  0  0  0  0  0  0  0  0  0  0
  -10.1900    4.7830  -15.7650 H   0  0  0  0  0  0  0  0  0  0  0  0
  1  2  1  0
  2  3  1  0
  3  4  1  0
  4  5  2  0
  5  6  1  0
  6  7  1  0
  7  8  1  0
  8  9  1  0
  9 10  1  0
  6 11  1  0
 11 12  2  0
  1 13  2  0
  1 14  1  0
 14 15  2  0
 15 16  1  0
 15 17  1  0
 17 18  2  0
 18 19  1  0
 19 20  1  0
 19 21  2  0
 12  4  1  0
 10  5  1  0
 14 21  1  0
  2 22  1  0
  3 23  1  0
  3 24  1  0
  7 25  1  0
  7 26  1  0
  8 27  1  0
  8 28  1  0
  9 29  1  0
  9 30  1  0
 12 31  1  0
 16 32  1  0
 16 33  1  0
 16 34  1  0
 17 35  1  0
 18 36  1  0
 20 37  1  0
 20 38  1  0
 20 39  1  0
 21 40  1  0
A    1
 C1 
A    2
 N1 
A    3
 C2 
A    4
 C3 
A    5
 C4 
A    6
 N2 
A    7
 C5 
A    8
 C6 
A    9
 C7 
A   10
 O1 
A   11
 N3 
A   12
 C8 
A   13
 O2 
A   14
 C9 
A   15
 C10
A   16
 C11
A   17
 C12
A   18
 C13
A   19
 C14
A   20
 C15
A   21
 C16
A   22
 H1 
A   23
 H2 
A   24
 H3 
A   25
 H4 
A   26
 H5 
A   27
 H6 
A   28
 H7 
A   29
 H8 
A   30
 H9 
A   31
 H10
A   32
 H11
A   33
 H12
A   34
 H13
A   35
 H14
A   36
 H15
A   37
 H16
A   38
 H17
A   39
 H18
A   40
 H19
M  END
>  <ref_pdb>  (121) 
x0051_0B

>  <ref_mols>  (121) 
x0553_0B,x0969_1B

>  <original SMILES>  (121) 
[H]c1nn2c(c1C([H])([H])N([H])C(=O)c1c([H])c(C([H])([H])[H])c([H])c([H])c1C([H])([H])[H])OC([H])([H])C([H])([H])C2([H])[H]

>  <index>  (121) 
128

>  <∆∆G>  (121) 
-7.826163

>  <∆G_bound>  (121) 
-7.63549

>  <∆G_unbound>  (121) 
0.190673

>  <comRMSD>  (121) 
0.49189

>  <N_constrained_atoms>  (121) 
19.0

>  <N_unconstrained_atoms>  (121) 
3.0

>  <runtime>  (121) 
60.635492

>  <LE>  (121) 
0.355735

>  <percent_hybrid>  (121) 
48.0

>  <dist>  (121) 
7.0

>  <ecfp4>  (121) 
0.316456

>  <daylight>  (121) 
0.345455

>  <topodist>  (121) 
2.0

>  <mces>  (121) 
22.0

>  <tdn>  (121) 
1.0

>  <tup>  (121) 
1.0

>  <rdn>  (121) 
0.0

>  <rup>  (121) 
0.0

>  <ldn>  (121) 
0.0

>  <lup>  (121) 
0.0

>  <mut>  (121) 
4.0

>  <maj>  (121) 
4.0

>  <min>  (121) 
0.0

>  <hyb>  (121) 
1.0

>  <sub>  (121) 
0.0

>  <query_index>  (121) 
375.0

>  <max_hit_Tanimoto>  (121) 
0.259078

>  <largest_ring>  (121) 
0

>  <N_interactions_kept>  (121) 
1.0

>  <N_interactions_lost>  (121) 
1.5

>  <interaction_uniqueness_metric>  (121) 
0.183404

>  <ad_hoc_penalty>  (121) 
-27.410621

>  <N_rotatable_bonds>  (121) 
5

>  <N_HA>  (121) 
21

>  <cluster>  (121) 
6100

>  <N_interactions>  (121) 
7

>  <Enamine>  (121) 
0

>  <Mcule>  (121) 
1

>  <N_PAINS>  (121) 
0

>  <UFF_Gibbs>  (121) 
153.195406

>  <strain_per_HA>  (121) 
7.295019

>  <saltbridge:HIS:51>  (121) 
0

>  <pistack:HIS:51>  (121) 
1

>  <hydroph_interaction:HIS:51>  (121) 
1

>  <hbond:ALA:132>  (121) 
0

>  <hbond:SER:135>  (121) 
0

>  <hydroph_interaction:TYR:150>  (121) 
1

>  <pistack:TYR:161>  (121) 
1

>  <hydroph_interaction:TYR:161>  (121) 
1

>  <hydroph_interaction:ASP:83>  (121) 
0

>  <hbond:TYR:130>  (121) 
0

>  <hydroph_interaction:ALA:132>  (121) 
0

>  <hbond:HIS:51>  (121) 
0

>  <hbond:ASP:129>  (121) 
0

>  <hbond:TYR:150>  (121) 
0

>  <hbond:GLY:151>  (121) 
1

>  <hbond:TYR:161>  (121) 
1

>  <hydroph_interaction:TYR:130>  (121) 
0

>  <hydroph_interaction:PRO:131>  (121) 
0

>  <hydroph_interaction:ASP:129>  (121) 
0

>  <saltbridge:ASP:75>  (121) 
0

>  <saltbridge:ASP:83>  (121) 
0

>  <hydroph_interaction:ASN:152>  (121) 
0

>  <halogenbond:TYR:150>  (121) 
0

>  <hbond:ASP:83>  (121) 
0

>  <hydroph_interaction:VAL:155>  (121) 
0

>  <pication:TYR:161>  (121) 
0

>  <hbond:PRO:131>  (121) 
0

>  <hbond:LEU:128>  (121) 
0

>  <saltbridge:ASP:129>  (121) 
0

>  <hbond:THR:134>  (121) 
0

>  <pication:HIS:51>  (121) 
0

>  <hbond:SER:81>  (121) 
0

>  <hbond:GLY:159>  (121) 
0

>  <hydroph_interaction:PRO:101>  (121) 
0

>  <hydroph_interaction:THR:134>  (121) 
0

>  <hbond:GLY:82>  (121) 
0

>  <hydroph_interaction:GLU:104>  (121) 
0

>  <hydroph_interaction:VAL:36>  (121) 
0

>  <hydroph_interaction:MET:49>  (121) 
0

>  <halogenbond:GLU:104>  (121) 
0

>  <hydroph_interaction:LYS:107>  (121) 
0

$$$$
Z4346838533
     RDKit          3D

 39 42  0  0  0  0  0  0  0  0999 V2000
   -6.3690    5.2180  -20.1030 C   0  0  0  0  0  0  0  0  0  0  0  0
   -6.4800    5.2850  -18.6510 N   0  0  0  0  0  0  0  0  0  0  0  0
   -5.3350    5.5100  -17.8740 N   0  0  0  0  0  0  0  0  0  0  0  0
   -5.7590    5.5200  -16.5850 N   0  0  0  0  0  0  0  0  0  0  0  0
   -7.1270    5.3120  -16.5220 C   0  0  0  0  0  0  0  0  0  0  0  0
   -8.0380    5.2430  -15.3680 C   0  0  0  0  0  0  0  0  0  0  0  0
   -7.5980    5.3920  -13.9560 C   0  0  0  0  0  0  0  0  0  0  0  0
   -8.7360    5.3180  -12.9410 N   0  0  0  0  0  0  0  0  0  0  0  0
   -8.7570    5.3750  -11.5020 C   0  0  0  0  0  0  0  0  0  0  0  0
   -8.8820    4.3300  -10.3880 C   0  0  0  0  0  0  0  0  0  0  0  0
   -9.0140    2.8480  -10.4970 C   0  0  0  0  0  0  0  0  0  0  0  0
   -8.6150    2.2000   -9.1620 C   0  0  0  0  0  0  0  0  0  0  0  0
   -9.2100    2.9150   -8.0130 C   0  0  0  0  0  0  0  0  0  0  0  0
   -8.9550    4.3940   -7.8540 C   0  0  0  0  0  0  0  0  0  0  0  0
   -8.8570    5.0030   -9.1840 N   0  0  0  0  0  0  0  0  0  0  0  0
   -8.7300    6.3300   -9.3310 N   0  0  0  0  0  0  0  0  0  0  0  0
   -8.6730    6.5520  -10.6800 C   0  0  0  0  0  0  0  0  0  0  0  0
   -9.4090    5.0120  -15.6960 C   0  0  0  0  0  0  0  0  0  0  0  0
   -9.8340    4.8540  -17.0250 C   0  0  0  0  0  0  0  0  0  0  0  0
   -8.9410    4.9170  -18.2070 C   0  0  0  0  0  0  0  0  0  0  0  0
   -7.5820    5.1570  -17.8740 C   0  0  0  0  0  0  0  0  0  0  0  0
   -5.3510    4.9260  -20.3740 H   0  0  0  0  0  0  0  0  0  0  0  0
   -7.0460    4.4690  -20.5300 H   0  0  0  0  0  0  0  0  0  0  0  0
   -6.5620    6.1940  -20.5610 H   0  0  0  0  0  0  0  0  0  0  0  0
   -6.9000    4.6180  -13.6430 H   0  0  0  0  0  0  0  0  0  0  0  0
   -7.0650    6.3140  -13.7360 H   0  0  0  0  0  0  0  0  0  0  0  0
   -9.6260    5.4580  -13.4190 H   0  0  0  0  0  0  0  0  0  0  0  0
   -8.3670    2.4960  -11.3070 H   0  0  0  0  0  0  0  0  0  0  0  0
  -10.0420    2.5680  -10.7610 H   0  0  0  0  0  0  0  0  0  0  0  0
   -7.5270    2.2290   -9.0750 H   0  0  0  0  0  0  0  0  0  0  0  0
   -8.9000    1.1610   -9.1060 H   0  0  0  0  0  0  0  0  0  0  0  0
  -10.2960    2.7690   -8.0580 H   0  0  0  0  0  0  0  0  0  0  0  0
   -8.8960    2.4250   -7.0840 H   0  0  0  0  0  0  0  0  0  0  0  0
   -8.0140    4.5700   -7.3240 H   0  0  0  0  0  0  0  0  0  0  0  0
   -9.7680    4.8940   -7.3180 H   0  0  0  0  0  0  0  0  0  0  0  0
   -8.5740    7.5740  -11.0140 H   0  0  0  0  0  0  0  0  0  0  0  0
  -10.1470    4.9510  -14.8950 H   0  0  0  0  0  0  0  0  0  0  0  0
  -10.8840    4.6720  -17.2230 H   0  0  0  0  0  0  0  0  0  0  0  0
   -9.3990    4.7790  -19.1940 H   0  0  0  0  0  0  0  0  0  0  0  0
  1  2  1  0
  2  3  1  0
  3  4  2  0
  4  5  1  0
  5  6  2  0
  6  7  1  0
  7  8  1  0
  8  9  1  0
  9 10  2  0
 10 11  1  0
 11 12  1  0
 12 13  1  0
 13 14  1  0
 14 15  1  0
 15 16  1  0
 16 17  2  0
  6 18  1  0
 18 19  2  0
 19 20  1  0
 20 21  2  0
 21  2  1  0
 21  5  1  0
 17  9  1  0
 15 10  1  0
  1 22  1  0
  1 23  1  0
  1 24  1  0
  7 25  1  0
  7 26  1  0
  8 27  1  0
 11 28  1  0
 11 29  1  0
 12 30  1  0
 12 31  1  0
 13 32  1  0
 13 33  1  0
 14 34  1  0
 14 35  1  0
 17 36  1  0
 18 37  1  0
 19 38  1  0
 20 39  1  0
A    1
 C1 
A    2
 N1 
A    3
 N2 
A    4
 N3 
A    5
 C2 
A    6
 C3 
A    7
 C4 
A    8
 N4 
A    9
 C5 
A   10
 C6 
A   11
 C7 
A   12
 C8 
A   13
 C9 
A   14
 C10
A   15
 N5 
A   16
 N6 
A   17
 C11
A   18
 C12
A   19
 C13
A   20
 C14
A   21
 C15
A   22
 H1 
A   23
 H2 
A   24
 H3 
A   25
 H4 
A   26
 H5 
A   27
 H6 
A   28
 H7 
A   29
 H8 
A   30
 H9 
A   31
 H10
A   32
 H11
A   33
 H12
A   34
 H13
A   35
 H14
A   36
 H15
A   37
 H16
A   38
 H17
A   39
 H18
M  END
>  <ref_pdb>  (122) 
x0051_0B

>  <ref_mols>  (122) 
x0435_0B,x0969_1B

>  <original SMILES>  (122) 
[H]c1nn2c(c1N([H])C([H])([H])c1c([H])c([H])c([H])c3c1nnn3C([H])([H])[H])C([H])([H])C([H])([H])C([H])([H])C2([H])[H]

>  <index>  (122) 
170

>  <∆∆G>  (122) 
-7.220864

>  <∆G_bound>  (122) 
-6.936316

>  <∆G_unbound>  (122) 
0.284548

>  <comRMSD>  (122) 
0.731591

>  <N_constrained_atoms>  (122) 
20.0

>  <N_unconstrained_atoms>  (122) 
1.0

>  <runtime>  (122) 
47.411295

>  <LE>  (122) 
0.343851

>  <percent_hybrid>  (122) 
50.0

>  <dist>  (122) 
6.0

>  <ecfp4>  (122) 
0.162791

>  <daylight>  (122) 
0.255132

>  <topodist>  (122) 
1.0

>  <mces>  (122) 
24.0

>  <tdn>  (122) 
0.0

>  <tup>  (122) 
0.0

>  <rdn>  (122) 
0.0

>  <rup>  (122) 
0.0

>  <ldn>  (122) 
1.0

>  <lup>  (122) 
0.0

>  <mut>  (122) 
5.0

>  <maj>  (122) 
5.0

>  <min>  (122) 
0.0

>  <hyb>  (122) 
0.0

>  <sub>  (122) 
0.0

>  <query_index>  (122) 
311.0

>  <max_hit_Tanimoto>  (122) 
0.265957

>  <largest_ring>  (122) 
0

>  <N_interactions_kept>  (122) 
2.5

>  <N_interactions_lost>  (122) 
1.0

>  <interaction_uniqueness_metric>  (122) 
0.208827

>  <ad_hoc_penalty>  (122) 
-27.339967

>  <N_rotatable_bonds>  (122) 
4

>  <N_HA>  (122) 
21

>  <cluster>  (122) 
6065

>  <N_interactions>  (122) 
5

>  <Enamine>  (122) 
1

>  <Mcule>  (122) 
0

>  <N_PAINS>  (122) 
0

>  <UFF_Gibbs>  (122) 
110.567584

>  <strain_per_HA>  (122) 
5.265123

>  <saltbridge:HIS:51>  (122) 
0

>  <pistack:HIS:51>  (122) 
1

>  <hydroph_interaction:HIS:51>  (122) 
0

>  <hbond:ALA:132>  (122) 
0

>  <hbond:SER:135>  (122) 
0

>  <hydroph_interaction:TYR:150>  (122) 
0

>  <pistack:TYR:161>  (122) 
1

>  <hydroph_interaction:TYR:161>  (122) 
1

>  <hydroph_interaction:ASP:83>  (122) 
1

>  <hbond:TYR:130>  (122) 
0

>  <hydroph_interaction:ALA:132>  (122) 
0

>  <hbond:HIS:51>  (122) 
1

>  <hbond:ASP:129>  (122) 
0

>  <hbond:TYR:150>  (122) 
0

>  <hbond:GLY:151>  (122) 
0

>  <hbond:TYR:161>  (122) 
0

>  <hydroph_interaction:TYR:130>  (122) 
0

>  <hydroph_interaction:PRO:131>  (122) 
0

>  <hydroph_interaction:ASP:129>  (122) 
0

>  <saltbridge:ASP:75>  (122) 
0

>  <saltbridge:ASP:83>  (122) 
0

>  <hydroph_interaction:ASN:152>  (122) 
0

>  <halogenbond:TYR:150>  (122) 
0

>  <hbond:ASP:83>  (122) 
0

>  <hydroph_interaction:VAL:155>  (122) 
0

>  <pication:TYR:161>  (122) 
0

>  <hbond:PRO:131>  (122) 
0

>  <hbond:LEU:128>  (122) 
0

>  <saltbridge:ASP:129>  (122) 
0

>  <hbond:THR:134>  (122) 
0

>  <pication:HIS:51>  (122) 
0

>  <hbond:SER:81>  (122) 
0

>  <hbond:GLY:159>  (122) 
0

>  <hydroph_interaction:PRO:101>  (122) 
0

>  <hydroph_interaction:THR:134>  (122) 
0

>  <hbond:GLY:82>  (122) 
0

>  <hydroph_interaction:GLU:104>  (122) 
0

>  <hydroph_interaction:VAL:36>  (122) 
0

>  <hydroph_interaction:MET:49>  (122) 
0

>  <halogenbond:GLU:104>  (122) 
0

>  <hydroph_interaction:LYS:107>  (122) 
0

$$$$
MCULE-7318526753
     RDKit          3D

 22 24  0  0  0  0  0  0  0  0999 V2000
   -5.0950    4.8820  -14.9250 Cl  0  0  0  0  0  0  0  0  0  0  0  0
   -6.1790    5.9610  -15.7980 C   0  0  0  0  0  0  0  0  0  0  0  0
   -6.2210    5.7260  -17.1810 C   0  0  0  0  0  0  0  0  0  0  0  0
   -7.5270    5.3540  -17.6850 C   0  0  0  0  0  0  0  0  0  0  0  0
   -8.4280    5.3060  -16.6330 C   0  0  0  0  0  0  0  0  0  0  0  0
   -9.7620    4.9670  -16.8220 C   0  0  0  0  0  0  0  0  0  0  0  0
  -10.1760    4.6840  -18.1420 C   0  0  0  0  0  0  0  0  0  0  0  0
   -9.1500    4.7620  -19.2010 C   0  0  0  0  0  0  0  0  0  0  0  0
   -7.8190    5.0870  -19.0150 C   0  0  0  0  0  0  0  0  0  0  0  0
   -6.7920    5.1720  -19.9460 C   0  0  0  0  0  0  0  0  0  0  0  0
   -5.3750    5.5590  -19.4350 C   0  0  0  0  0  0  0  0  0  0  0  0
   -5.1600    5.8180  -18.0720 C   0  0  0  0  0  0  0  0  0  0  0  0
   -7.6760    5.6740  -15.3650 C   0  0  0  0  0  0  0  0  0  0  0  0
   -5.8970    6.9960  -15.5800 H   0  0  0  0  0  0  0  0  0  0  0  0
  -10.4390    4.9280  -15.9840 H   0  0  0  0  0  0  0  0  0  0  0  0
  -11.1820    4.4090  -18.4780 H   0  0  0  0  0  0  0  0  0  0  0  0
   -9.5040    4.5370  -20.2110 H   0  0  0  0  0  0  0  0  0  0  0  0
   -6.9590    4.9750  -21.0010 H   0  0  0  0  0  0  0  0  0  0  0  0
   -4.5670    5.6230  -20.1580 H   0  0  0  0  0  0  0  0  0  0  0  0
   -4.1310    6.0860  -17.8110 H   0  0  0  0  0  0  0  0  0  0  0  0
   -8.1190    6.5770  -14.9290 H   0  0  0  0  0  0  0  0  0  0  0  0
   -7.7560    4.8640  -14.6410 H   0  0  0  0  0  0  0  0  0  0  0  0
  1  2  1  0
  2  3  1  0
  3  4  2  0
  4  5  1  0
  5  6  2  0
  6  7  1  0
  7  8  2  0
  8  9  1  0
  9 10  2  0
 10 11  1  0
 11 12  2  0
  5 13  1  0
 13  2  1  0
 12  3  1  0
  9  4  1  0
  2 14  1  0
  6 15  1  0
  7 16  1  0
  8 17  1  0
 10 18  1  0
 11 19  1  0
 12 20  1  0
 13 21  1  0
 13 22  1  0
A    1
CL1 
A    2
 C1 
A    3
 C2 
A    4
 C3 
A    5
 C4 
A    6
 C5 
A    7
 C6 
A    8
 C7 
A    9
 C8 
A   10
 C9 
A   11
 C10
A   12
 C11
A   13
 C12
A   14
 H1 
A   15
 H2 
A   16
 H3 
A   17
 H4 
A   18
 H5 
A   19
 H6 
A   20
 H7 
A   21
 H8 
A   22
 H9 
M  END
>  <ref_pdb>  (123) 
x0051_0B

>  <ref_mols>  (123) 
x0727_0B,x0455_0B

>  <original SMILES>  (123) 
[H]c1c([H])c2c3c(c([H])c([H])c([H])c3c1[H])C([H])(Cl)C2([H])[H]

>  <index>  (123) 
226

>  <∆∆G>  (123) 
-6.891558

>  <∆G_bound>  (123) 
-6.931074

>  <∆G_unbound>  (123) 
-0.039516

>  <comRMSD>  (123) 
0.884376

>  <N_constrained_atoms>  (123) 
14.0

>  <N_unconstrained_atoms>  (123) 
1.0

>  <runtime>  (123) 
20.546392

>  <LE>  (123) 
0.459437

>  <percent_hybrid>  (123) 
34.0

>  <dist>  (123) 
3.0

>  <ecfp4>  (123) 
0.27907

>  <daylight>  (123) 
0.284314

>  <topodist>  (123) 
1.0

>  <mces>  (123) 
15.0

>  <tdn>  (123) 
0.0

>  <tup>  (123) 
0.0

>  <rdn>  (123) 
0.0

>  <rup>  (123) 
0.0

>  <ldn>  (123) 
1.0

>  <lup>  (123) 
0.0

>  <mut>  (123) 
2.0

>  <maj>  (123) 
2.0

>  <min>  (123) 
0.0

>  <hyb>  (123) 
0.0

>  <sub>  (123) 
0.0

>  <query_index>  (123) 
57.0

>  <max_hit_Tanimoto>  (123) 
0.154574

>  <largest_ring>  (123) 
0

>  <N_interactions_kept>  (123) 
0.0

>  <N_interactions_lost>  (123) 
3.0

>  <interaction_uniqueness_metric>  (123) 
0.072259

>  <ad_hoc_penalty>  (123) 
-27.232401

>  <N_rotatable_bonds>  (123) 
0

>  <N_HA>  (123) 
13

>  <cluster>  (123) 
6013

>  <N_interactions>  (123) 
7

>  <Enamine>  (123) 
0

>  <Mcule>  (123) 
1

>  <N_PAINS>  (123) 
0

>  <UFF_Gibbs>  (123) 
30.446389

>  <strain_per_HA>  (123) 
2.34203

>  <saltbridge:HIS:51>  (123) 
0

>  <pistack:HIS:51>  (123) 
0

>  <hydroph_interaction:HIS:51>  (123) 
0

>  <hbond:ALA:132>  (123) 
0

>  <hbond:SER:135>  (123) 
0

>  <hydroph_interaction:TYR:150>  (123) 
1

>  <pistack:TYR:161>  (123) 
2

>  <hydroph_interaction:TYR:161>  (123) 
3

>  <hydroph_interaction:ASP:83>  (123) 
0

>  <hbond:TYR:130>  (123) 
0

>  <hydroph_interaction:ALA:132>  (123) 
1

>  <hbond:HIS:51>  (123) 
0

>  <hbond:ASP:129>  (123) 
0

>  <hbond:TYR:150>  (123) 
0

>  <hbond:GLY:151>  (123) 
0

>  <hbond:TYR:161>  (123) 
0

>  <hydroph_interaction:TYR:130>  (123) 
0

>  <hydroph_interaction:PRO:131>  (123) 
0

>  <hydroph_interaction:ASP:129>  (123) 
0

>  <saltbridge:ASP:75>  (123) 
0

>  <saltbridge:ASP:83>  (123) 
0

>  <hydroph_interaction:ASN:152>  (123) 
0

>  <halogenbond:TYR:150>  (123) 
0

>  <hbond:ASP:83>  (123) 
0

>  <hydroph_interaction:VAL:155>  (123) 
0

>  <pication:TYR:161>  (123) 
0

>  <hbond:PRO:131>  (123) 
0

>  <hbond:LEU:128>  (123) 
0

>  <saltbridge:ASP:129>  (123) 
0

>  <hbond:THR:134>  (123) 
0

>  <pication:HIS:51>  (123) 
0

>  <hbond:SER:81>  (123) 
0

>  <hbond:GLY:159>  (123) 
0

>  <hydroph_interaction:PRO:101>  (123) 
0

>  <hydroph_interaction:THR:134>  (123) 
0

>  <hbond:GLY:82>  (123) 
0

>  <hydroph_interaction:GLU:104>  (123) 
0

>  <hydroph_interaction:VAL:36>  (123) 
0

>  <hydroph_interaction:MET:49>  (123) 
0

>  <halogenbond:GLU:104>  (123) 
0

>  <hydroph_interaction:LYS:107>  (123) 
0

$$$$
Z166918864
     RDKit          3D

 44 47  0  0  0  0  0  0  0  0999 V2000
   -4.5720    5.3120  -22.1170 O   0  0  0  0  0  0  0  0  0  0  0  0
   -5.0900    6.2730  -21.5640 C   0  0  0  0  0  0  0  0  0  0  0  0
   -5.4090    6.2680  -20.1580 N   0  0  0  0  0  0  0  0  0  0  0  0
   -6.6970    6.3140  -19.8110 N   0  0  0  0  0  0  0  0  0  0  0  0
   -6.8330    5.5790  -18.6950 C   0  0  0  0  0  0  0  0  0  0  0  0
   -5.8510    5.2670  -18.0220 O   0  0  0  0  0  0  0  0  0  0  0  0
   -8.1790    5.1870  -18.3060 C   0  0  0  0  0  0  0  0  0  0  0  0
   -8.6110    5.0320  -17.0040 C   0  0  0  0  0  0  0  0  0  0  0  0
   -9.9150    4.6790  -16.9840 O   0  0  0  0  0  0  0  0  0  0  0  0
  -10.3290    4.6060  -18.2690 C   0  0  0  0  0  0  0  0  0  0  0  0
   -9.3070    4.8980  -19.1220 C   0  0  0  0  0  0  0  0  0  0  0  0
   -5.3940    7.4850  -22.3330 C   0  0  0  0  0  0  0  0  0  0  0  0
   -6.1200    7.3720  -23.6190 C   0  0  0  0  0  0  0  0  0  0  0  0
   -6.3790    8.5160  -24.3260 C   0  0  0  0  0  0  0  0  0  0  0  0
   -5.9660    9.7610  -23.8450 C   0  0  0  0  0  0  0  0  0  0  0  0
   -6.2580   10.9290  -24.6540 C   0  0  0  0  0  0  0  0  0  0  0  0
   -5.8560   10.5650  -26.3950 S   0  0  0  0  0  0  0  0  0  0  0  0
   -7.2430    9.7100  -26.9460 C   0  0  0  0  0  0  0  0  0  0  0  0
   -7.3090    8.4280  -27.2780 N   0  0  0  0  0  0  0  0  0  0  0  0
   -8.6100    8.2010  -27.6460 C   0  0  0  0  0  0  0  0  0  0  0  0
   -9.2810    6.9000  -28.1190 C   0  0  0  0  0  0  0  0  0  0  0  0
  -10.7660    6.9580  -28.4510 C   0  0  0  0  0  0  0  0  0  0  0  0
  -11.4970    8.2890  -28.3000 C   0  0  0  0  0  0  0  0  0  0  0  0
  -10.8450    9.5900  -27.8390 C   0  0  0  0  0  0  0  0  0  0  0  0
   -9.3640    9.5190  -27.5090 C   0  0  0  0  0  0  0  0  0  0  0  0
   -8.4180   10.3940  -27.0720 N   0  0  0  0  0  0  0  0  0  0  0  0
   -5.2810    9.8760  -22.6200 C   0  0  0  0  0  0  0  0  0  0  0  0
   -4.9920    8.7380  -21.8580 C   0  0  0  0  0  0  0  0  0  0  0  0
   -4.7700    6.6990  -19.4910 H   0  0  0  0  0  0  0  0  0  0  0  0
   -7.3680    6.2390  -20.5890 H   0  0  0  0  0  0  0  0  0  0  0  0
   -8.1330    5.1350  -16.0380 H   0  0  0  0  0  0  0  0  0  0  0  0
  -11.3650    4.3350  -18.4080 H   0  0  0  0  0  0  0  0  0  0  0  0
   -9.3800    4.9070  -20.2000 H   0  0  0  0  0  0  0  0  0  0  0  0
   -6.4470    6.4170  -24.0130 H   0  0  0  0  0  0  0  0  0  0  0  0
   -6.9100    8.4400  -25.2700 H   0  0  0  0  0  0  0  0  0  0  0  0
   -5.6560   11.7740  -24.2990 H   0  0  0  0  0  0  0  0  0  0  0  0
   -7.3050   11.2170  -24.5530 H   0  0  0  0  0  0  0  0  0  0  0  0
   -8.7110    5.9810  -28.2050 H   0  0  0  0  0  0  0  0  0  0  0  0
  -11.2920    6.0660  -28.7880 H   0  0  0  0  0  0  0  0  0  0  0  0
  -12.5600    8.3180  -28.5390 H   0  0  0  0  0  0  0  0  0  0  0  0
  -11.4170   10.5080  -27.7530 H   0  0  0  0  0  0  0  0  0  0  0  0
   -8.5490   11.3730  -26.8700 H   0  0  0  0  0  0  0  0  0  0  0  0
   -4.9660   10.8500  -22.2530 H   0  0  0  0  0  0  0  0  0  0  0  0
   -4.4590    8.8340  -20.9140 H   0  0  0  0  0  0  0  0  0  0  0  0
  1  2  2  0
  2  3  1  0
  3  4  1  0
  4  5  1  0
  5  6  2  0
  5  7  1  0
  7  8  2  0
  8  9  1  0
  9 10  1  0
 10 11  2  0
  2 12  1  0
 12 13  2  0
 13 14  1  0
 14 15  2  0
 15 16  1  0
 16 17  1  0
 17 18  1  0
 18 19  2  0
 19 20  1  0
 20 21  2  0
 21 22  1  0
 22 23  2  0
 23 24  1  0
 24 25  2  0
 25 26  1  0
 15 27  1  0
 27 28  2  0
 11  7  1  0
 28 12  1  0
 26 18  1  0
 25 20  1  0
  3 29  1  0
  4 30  1  0
  8 31  1  0
 10 32  1  0
 11 33  1  0
 13 34  1  0
 14 35  1  0
 16 36  1  0
 16 37  1  0
 21 38  1  0
 22 39  1  0
 23 40  1  0
 24 41  1  0
 26 42  1  0
 27 43  1  0
 28 44  1  0
A    1
 O1 
A    2
 C1 
A    3
 N1 
A    4
 N2 
A    5
 C2 
A    6
 O2 
A    7
 C3 
A    8
 C4 
A    9
 O3 
A   10
 C5 
A   11
 C6 
A   12
 C7 
A   13
 C8 
A   14
 C9 
A   15
 C10
A   16
 C11
A   17
 S1 
A   18
 C12
A   19
 N3 
A   20
 C13
A   21
 C14
A   22
 C15
A   23
 C16
A   24
 C17
A   25
 C18
A   26
 N4 
A   27
 C19
A   28
 C20
A   29
 H1 
A   30
 H2 
A   31
 H3 
A   32
 H4 
A   33
 H5 
A   34
 H6 
A   35
 H7 
A   36
 H8 
A   37
 H9 
A   38
 H10
A   39
 H11
A   40
 H12
A   41
 H13
A   42
 H14
A   43
 H15
A   44
 H16
M  END
>  <ref_pdb>  (124) 
x0051_0B

>  <ref_mols>  (124) 
x0386_0B,x0846_1B

>  <original SMILES>  (124) 
[H]c1oc([H])c(C(=O)N([H])N([H])C(=O)c2c([H])c([H])c(C([H])([H])Sc3nc4c([H])c([H])c([H])c([H])c4n3[H])c([H])c2[H])c1[H]

>  <index>  (124) 
163

>  <∆∆G>  (124) 
-8.352306

>  <∆G_bound>  (124) 
-7.796671

>  <∆G_unbound>  (124) 
0.555635

>  <comRMSD>  (124) 
0.63411

>  <N_constrained_atoms>  (124) 
25.0

>  <N_unconstrained_atoms>  (124) 
3.0

>  <runtime>  (124) 
56.432254

>  <LE>  (124) 
0.298297

>  <percent_hybrid>  (124) 
28.0

>  <dist>  (124) 
8.0

>  <ecfp4>  (124) 
0.258427

>  <daylight>  (124) 
0.29386

>  <topodist>  (124) 
3.0

>  <mces>  (124) 
29.0

>  <tdn>  (124) 
1.0

>  <tup>  (124) 
2.0

>  <rdn>  (124) 
0.0

>  <rup>  (124) 
0.0

>  <ldn>  (124) 
0.0

>  <lup>  (124) 
0.0

>  <mut>  (124) 
3.0

>  <maj>  (124) 
3.0

>  <min>  (124) 
0.0

>  <hyb>  (124) 
2.0

>  <sub>  (124) 
1.0

>  <query_index>  (124) 
362.0

>  <max_hit_Tanimoto>  (124) 
0.29882

>  <largest_ring>  (124) 
0

>  <N_interactions_kept>  (124) 
0.0

>  <N_interactions_lost>  (124) 
2.0

>  <interaction_uniqueness_metric>  (124) 
0.197376

>  <ad_hoc_penalty>  (124) 
-27.170796

>  <N_rotatable_bonds>  (124) 
5

>  <N_HA>  (124) 
28

>  <cluster>  (124) 
499

>  <N_interactions>  (124) 
7

>  <Enamine>  (124) 
1

>  <Mcule>  (124) 
0

>  <N_PAINS>  (124) 
0

>  <UFF_Gibbs>  (124) 
157.708683

>  <strain_per_HA>  (124) 
5.632453

>  <saltbridge:HIS:51>  (124) 
0

>  <pistack:HIS:51>  (124) 
0

>  <hydroph_interaction:HIS:51>  (124) 
0

>  <hbond:ALA:132>  (124) 
0

>  <hbond:SER:135>  (124) 
0

>  <hydroph_interaction:TYR:150>  (124) 
1

>  <pistack:TYR:161>  (124) 
0

>  <hydroph_interaction:TYR:161>  (124) 
2

>  <hydroph_interaction:ASP:83>  (124) 
0

>  <hbond:TYR:130>  (124) 
1

>  <hydroph_interaction:ALA:132>  (124) 
0

>  <hbond:HIS:51>  (124) 
0

>  <hbond:ASP:129>  (124) 
1

>  <hbond:TYR:150>  (124) 
0

>  <hbond:GLY:151>  (124) 
0

>  <hbond:TYR:161>  (124) 
0

>  <hydroph_interaction:TYR:130>  (124) 
1

>  <hydroph_interaction:PRO:131>  (124) 
1

>  <hydroph_interaction:ASP:129>  (124) 
0

>  <saltbridge:ASP:75>  (124) 
0

>  <saltbridge:ASP:83>  (124) 
0

>  <hydroph_interaction:ASN:152>  (124) 
0

>  <halogenbond:TYR:150>  (124) 
0

>  <hbond:ASP:83>  (124) 
0

>  <hydroph_interaction:VAL:155>  (124) 
0

>  <pication:TYR:161>  (124) 
0

>  <hbond:PRO:131>  (124) 
0

>  <hbond:LEU:128>  (124) 
0

>  <saltbridge:ASP:129>  (124) 
0

>  <hbond:THR:134>  (124) 
0

>  <pication:HIS:51>  (124) 
0

>  <hbond:SER:81>  (124) 
0

>  <hbond:GLY:159>  (124) 
0

>  <hydroph_interaction:PRO:101>  (124) 
0

>  <hydroph_interaction:THR:134>  (124) 
0

>  <hbond:GLY:82>  (124) 
0

>  <hydroph_interaction:GLU:104>  (124) 
0

>  <hydroph_interaction:VAL:36>  (124) 
0

>  <hydroph_interaction:MET:49>  (124) 
0

>  <halogenbond:GLU:104>  (124) 
0

>  <hydroph_interaction:LYS:107>  (124) 
0

$$$$
CSSS00000169026
     RDKit          3D

 21 22  0  0  0  0  0  0  0  0999 V2000
   -9.7720    5.3710  -15.4070 C   0  0  0  0  0  0  0  0  0  0  0  0
   -9.2720    5.1960  -16.6400 C   0  0  0  0  0  0  0  0  0  0  0  0
   -8.0150    5.3370  -16.9080 N   0  0  0  0  0  0  0  0  0  0  0  0
   -7.7810    5.1090  -18.2420 C   0  0  0  0  0  0  0  0  0  0  0  0
   -8.8630    4.7930  -18.9820 C   0  0  0  0  0  0  0  0  0  0  0  0
  -10.2560    4.7750  -17.9910 S   0  0  0  0  0  0  0  0  0  0  0  0
   -6.4250    5.2210  -18.7230 C   0  0  0  0  0  0  0  0  0  0  0  0
   -5.3570    5.3150  -17.8290 C   0  0  0  0  0  0  0  0  0  0  0  0
   -4.0090    5.4190  -18.3350 C   0  0  0  0  0  0  0  0  0  0  0  0
   -3.7980    5.4260  -19.7140 C   0  0  0  0  0  0  0  0  0  0  0  0
   -4.8790    5.3320  -20.5950 C   0  0  0  0  0  0  0  0  0  0  0  0
   -6.1780    5.2300  -20.1000 C   0  0  0  0  0  0  0  0  0  0  0  0
  -10.5930    4.6820  -15.1940 H   0  0  0  0  0  0  0  0  0  0  0  0
  -10.1560    6.3920  -15.3000 H   0  0  0  0  0  0  0  0  0  0  0  0
   -8.9980    5.2190  -14.6510 H   0  0  0  0  0  0  0  0  0  0  0  0
   -8.9390    4.5720  -20.0380 H   0  0  0  0  0  0  0  0  0  0  0  0
   -5.5070    5.3100  -16.7540 H   0  0  0  0  0  0  0  0  0  0  0  0
   -3.1700    5.4910  -17.6490 H   0  0  0  0  0  0  0  0  0  0  0  0
   -2.7840    5.5050  -20.1070 H   0  0  0  0  0  0  0  0  0  0  0  0
   -4.7120    5.3360  -21.6690 H   0  0  0  0  0  0  0  0  0  0  0  0
   -7.0080    5.1560  -20.8020 H   0  0  0  0  0  0  0  0  0  0  0  0
  1  2  1  0
  2  3  2  0
  3  4  1  0
  4  5  2  0
  5  6  1  0
  4  7  1  0
  7  8  2  0
  8  9  1  0
  9 10  2  0
 10 11  1  0
 11 12  2  0
  6  2  1  0
 12  7  1  0
  1 13  1  0
  1 14  1  0
  1 15  1  0
  5 16  1  0
  8 17  1  0
  9 18  1  0
 10 19  1  0
 11 20  1  0
 12 21  1  0
A    1
 C1 
A    2
 C2 
A    3
 N1 
A    4
 C3 
A    5
 C4 
A    6
 S1 
A    7
 C5 
A    8
 C6 
A    9
 C7 
A   10
 C8 
A   11
 C9 
A   12
 C10
A   13
 H1 
A   14
 H2 
A   15
 H3 
A   16
 H4 
A   17
 H5 
A   18
 H6 
A   19
 H7 
A   20
 H8 
A   21
 H9 
M  END
>  <ref_pdb>  (125) 
x0051_0B

>  <ref_mols>  (125) 
x0680_0B,x0386_0B

>  <original SMILES>  (125) 
[H]c1sc(C([H])([H])[H])nc1-c1c([H])c([H])c([H])c([H])c1[H]

>  <index>  (125) 
247

>  <∆∆G>  (125) 
-7.439103

>  <∆G_bound>  (125) 
-7.460449

>  <∆G_unbound>  (125) 
-0.021346

>  <comRMSD>  (125) 
0.636561

>  <N_constrained_atoms>  (125) 
12.0

>  <N_unconstrained_atoms>  (125) 
1.0

>  <runtime>  (125) 
32.126457

>  <LE>  (125) 
0.572239

>  <percent_hybrid>  (125) 
17.0

>  <dist>  (125) 
4.0

>  <ecfp4>  (125) 
0.16

>  <daylight>  (125) 
0.187919

>  <topodist>  (125) 
2.0

>  <mces>  (125) 
12.0

>  <tdn>  (125) 
1.0

>  <tup>  (125) 
1.0

>  <rdn>  (125) 
0.0

>  <rup>  (125) 
0.0

>  <ldn>  (125) 
0.0

>  <lup>  (125) 
0.0

>  <mut>  (125) 
2.0

>  <maj>  (125) 
1.0

>  <min>  (125) 
1.0

>  <hyb>  (125) 
0.0

>  <sub>  (125) 
2.0

>  <query_index>  (125) 
296.0

>  <max_hit_Tanimoto>  (125) 
0.083636

>  <largest_ring>  (125) 
0

>  <N_interactions_kept>  (125) 
3.5

>  <N_interactions_lost>  (125) 
0.5

>  <interaction_uniqueness_metric>  (125) 
0.016266

>  <ad_hoc_penalty>  (125) 
-27.091885

>  <N_rotatable_bonds>  (125) 
2

>  <N_HA>  (125) 
12

>  <cluster>  (125) 
5993

>  <N_interactions>  (125) 
3

>  <Enamine>  (125) 
1

>  <Mcule>  (125) 
0

>  <N_PAINS>  (125) 
0

>  <UFF_Gibbs>  (125) 
18.412507

>  <strain_per_HA>  (125) 
1.534376

>  <saltbridge:HIS:51>  (125) 
0

>  <pistack:HIS:51>  (125) 
0

>  <hydroph_interaction:HIS:51>  (125) 
0

>  <hbond:ALA:132>  (125) 
0

>  <hbond:SER:135>  (125) 
0

>  <hydroph_interaction:TYR:150>  (125) 
0

>  <pistack:TYR:161>  (125) 
0

>  <hydroph_interaction:TYR:161>  (125) 
3

>  <hydroph_interaction:ASP:83>  (125) 
0

>  <hbond:TYR:130>  (125) 
0

>  <hydroph_interaction:ALA:132>  (125) 
0

>  <hbond:HIS:51>  (125) 
0

>  <hbond:ASP:129>  (125) 
0

>  <hbond:TYR:150>  (125) 
0

>  <hbond:GLY:151>  (125) 
0

>  <hbond:TYR:161>  (125) 
0

>  <hydroph_interaction:TYR:130>  (125) 
0

>  <hydroph_interaction:PRO:131>  (125) 
0

>  <hydroph_interaction:ASP:129>  (125) 
0

>  <saltbridge:ASP:75>  (125) 
0

>  <saltbridge:ASP:83>  (125) 
0

>  <hydroph_interaction:ASN:152>  (125) 
0

>  <halogenbond:TYR:150>  (125) 
0

>  <hbond:ASP:83>  (125) 
0

>  <hydroph_interaction:VAL:155>  (125) 
0

>  <pication:TYR:161>  (125) 
0

>  <hbond:PRO:131>  (125) 
0

>  <hbond:LEU:128>  (125) 
0

>  <saltbridge:ASP:129>  (125) 
0

>  <hbond:THR:134>  (125) 
0

>  <pication:HIS:51>  (125) 
0

>  <hbond:SER:81>  (125) 
0

>  <hbond:GLY:159>  (125) 
0

>  <hydroph_interaction:PRO:101>  (125) 
0

>  <hydroph_interaction:THR:134>  (125) 
0

>  <hbond:GLY:82>  (125) 
0

>  <hydroph_interaction:GLU:104>  (125) 
0

>  <hydroph_interaction:VAL:36>  (125) 
0

>  <hydroph_interaction:MET:49>  (125) 
0

>  <halogenbond:GLU:104>  (125) 
0

>  <hydroph_interaction:LYS:107>  (125) 
0

$$$$
nan
     RDKit          3D

 52 54  0  0  0  0  0  0  0  0999 V2000
   -5.3310    7.2680  -20.8220 C   0  0  0  0  0  0  0  0  0  0  0  0
   -5.0630    5.7830  -20.6180 C   0  0  0  0  0  0  0  0  0  0  0  0
   -3.6890    5.4830  -20.4700 C   0  0  0  0  0  0  0  0  0  0  0  0
   -5.5530    5.1310  -21.9160 C   0  0  0  0  0  0  0  0  0  0  0  0
   -5.6450    5.2380  -19.6800 O   0  0  0  0  0  0  0  0  0  0  0  0
   -5.6580    5.7650  -18.4310 C   0  0  0  0  0  0  0  0  0  0  0  0
   -4.7780    6.3810  -17.8730 O   0  0  0  0  0  0  0  0  0  0  0  0
   -7.0250    5.4360  -17.8050 C   0  0  0  0  0  0  0  0  0  0  0  0
   -7.9810    4.9320  -18.8780 C   0  0  0  0  0  0  0  0  0  0  0  0
   -9.2550    4.5870  -18.4820 C   0  0  0  0  0  0  0  0  0  0  0  0
   -9.6360    4.7300  -16.9960 C   0  0  0  0  0  0  0  0  0  0  0  0
   -8.7330    5.1940  -16.0600 C   0  0  0  0  0  0  0  0  0  0  0  0
   -7.4240    5.5550  -16.4330 C   0  0  0  0  0  0  0  0  0  0  0  0
   -6.6370    6.0260  -15.2600 C   0  0  0  0  0  0  0  0  0  0  0  0
   -7.2050    6.4410  -14.0500 C   0  0  0  0  0  0  0  0  0  0  0  0
   -7.2240    5.7450  -12.7150 C   0  0  0  0  0  0  0  0  0  0  0  0
   -6.2220    5.1960  -12.2690 O   0  0  0  0  0  0  0  0  0  0  0  0
   -8.4610    5.7980  -12.0640 N   0  0  0  0  0  0  0  0  0  0  0  0
   -8.6230    5.7770  -10.6730 C   0  0  0  0  0  0  0  0  0  0  0  0
   -8.8570    4.5250   -9.8390 C   0  0  0  0  0  0  0  0  0  0  0  0
   -8.9610    3.2570  -10.1800 O   0  0  0  0  0  0  0  0  0  0  0  0
   -9.4360    2.3260   -9.1980 C   0  0  0  0  0  0  0  0  0  0  0  0
   -9.6910    2.7720   -7.7540 C   0  0  0  0  0  0  0  0  0  0  0  0
   -9.1500    4.1500   -7.4020 C   0  0  0  0  0  0  0  0  0  0  0  0
   -8.9410    4.9870   -8.5620 N   0  0  0  0  0  0  0  0  0  0  0  0
   -8.8070    6.3220   -8.4350 N   0  0  0  0  0  0  0  0  0  0  0  0
   -8.6230    6.7900   -9.6880 C   0  0  0  0  0  0  0  0  0  0  0  0
   -4.8570    7.8740  -20.0440 H   0  0  0  0  0  0  0  0  0  0  0  0
   -6.4110    7.4470  -20.7590 H   0  0  0  0  0  0  0  0  0  0  0  0
   -4.9390    7.6070  -21.7860 H   0  0  0  0  0  0  0  0  0  0  0  0
   -2.9690    6.2980  -20.5110 H   0  0  0  0  0  0  0  0  0  0  0  0
   -3.3720    4.7120  -21.1810 H   0  0  0  0  0  0  0  0  0  0  0  0
   -3.6100    5.0490  -19.4550 H   0  0  0  0  0  0  0  0  0  0  0  0
   -6.0710    5.8420  -22.5680 H   0  0  0  0  0  0  0  0  0  0  0  0
   -6.2660    4.3260  -21.7020 H   0  0  0  0  0  0  0  0  0  0  0  0
   -4.7190    4.7080  -22.4840 H   0  0  0  0  0  0  0  0  0  0  0  0
   -7.6830    4.8420  -19.9200 H   0  0  0  0  0  0  0  0  0  0  0  0
  -10.0380    4.2130  -19.1400 H   0  0  0  0  0  0  0  0  0  0  0  0
  -10.6540    4.4370  -16.7600 H   0  0  0  0  0  0  0  0  0  0  0  0
   -9.0550    5.2740  -15.0230 H   0  0  0  0  0  0  0  0  0  0  0  0
   -5.9530    6.8220  -15.5690 H   0  0  0  0  0  0  0  0  0  0  0  0
   -5.9670    5.1900  -15.0190 H   0  0  0  0  0  0  0  0  0  0  0  0
   -8.2530    6.7000  -14.2530 H   0  0  0  0  0  0  0  0  0  0  0  0
   -6.7220    7.3980  -13.8240 H   0  0  0  0  0  0  0  0  0  0  0  0
   -9.3010    6.0080  -12.5950 H   0  0  0  0  0  0  0  0  0  0  0  0
  -10.3870    1.9990   -9.5970 H   0  0  0  0  0  0  0  0  0  0  0  0
   -8.7590    1.4680   -9.2090 H   0  0  0  0  0  0  0  0  0  0  0  0
  -10.7610    2.7210   -7.5290 H   0  0  0  0  0  0  0  0  0  0  0  0
   -9.1970    2.0440   -7.0970 H   0  0  0  0  0  0  0  0  0  0  0  0
   -8.1960    4.0590   -6.8780 H   0  0  0  0  0  0  0  0  0  0  0  0
   -9.8560    4.6870   -6.7590 H   0  0  0  0  0  0  0  0  0  0  0  0
   -8.4930    7.8560   -9.8250 H   0  0  0  0  0  0  0  0  0  0  0  0
  1  2  1  0
  2  3  1  0
  2  4  1  0
  2  5  1  0
  5  6  1  0
  6  7  2  0
  6  8  1  0
  8  9  2  0
  9 10  1  0
 10 11  2  0
 11 12  1  0
 12 13  2  0
 13 14  1  0
 14 15  1  0
 15 16  1  0
 16 17  2  0
 16 18  1  0
 18 19  1  0
 19 20  2  0
 20 21  1  0
 21 22  1  0
 22 23  1  0
 23 24  1  0
 24 25  1  0
 25 26  1  0
 26 27  2  0
 13  8  1  0
 27 19  1  0
 25 20  1  0
  1 28  1  0
  1 29  1  0
  1 30  1  0
  3 31  1  0
  3 32  1  0
  3 33  1  0
  4 34  1  0
  4 35  1  0
  4 36  1  0
  9 37  1  0
 10 38  1  0
 11 39  1  0
 12 40  1  0
 14 41  1  0
 14 42  1  0
 15 43  1  0
 15 44  1  0
 18 45  1  0
 22 46  1  0
 22 47  1  0
 23 48  1  0
 23 49  1  0
 24 50  1  0
 24 51  1  0
 27 52  1  0
A    1
 C1 
A    2
 C2 
A    3
 C3 
A    4
 C4 
A    5
 O1 
A    6
 C5 
A    7
 O2 
A    8
 C6 
A    9
 C7 
A   10
 C8 
A   11
 C9 
A   12
 C10
A   13
 C11
A   14
 C12
A   15
 C13
A   16
 C14
A   17
 O3 
A   18
 N1 
A   19
 C15
A   20
 C16
A   21
 O4 
A   22
 C17
A   23
 C18
A   24
 C19
A   25
 N2 
A   26
 N3 
A   27
 C20
A   28
 H1 
A   29
 H2 
A   30
 H3 
A   31
 H4 
A   32
 H5 
A   33
 H6 
A   34
 H7 
A   35
 H8 
A   36
 H9 
A   37
 H10
A   38
 H11
A   39
 H12
A   40
 H13
A   41
 H14
A   42
 H15
A   43
 H16
A   44
 H17
A   45
 H18
A   46
 H19
A   47
 H20
A   48
 H21
A   49
 H22
A   50
 H23
A   51
 H24
A   52
 H25
M  END
>  <ref_pdb>  (126) 
x0051_0B

>  <ref_mols>  (126) 
x0101_0B,x0969_1B,x0693_0B

>  <original SMILES>  (126) 
[H]c1nn2c(c1N([H])C(=O)C([H])([H])C([H])([H])c1c([H])c([H])c([H])c([H])c1C(=O)OC(C([H])([H])[H])(C([H])([H])[H])C([H])([H])[H])OC([H])([H])C([H])([H])C2([H])[H]

>  <index>  (126) 
22973

>  <∆∆G>  (126) 
-9.010891

>  <∆G_bound>  (126) 
-7.483712

>  <∆G_unbound>  (126) 
1.527178

>  <comRMSD>  (126) 
0.612605

>  <N_constrained_atoms>  (126) 
26.0

>  <N_unconstrained_atoms>  (126) 
3.0

>  <runtime>  (126) 
65.609964

>  <LE>  (126) 
0.31072

>  <percent_hybrid>  (126) 
50.0

>  <dist>  (126) 
nan

>  <ecfp4>  (126) 
nan

>  <daylight>  (126) 
nan

>  <topodist>  (126) 
nan

>  <mces>  (126) 
nan

>  <tdn>  (126) 
nan

>  <tup>  (126) 
nan

>  <rdn>  (126) 
nan

>  <rup>  (126) 
nan

>  <ldn>  (126) 
nan

>  <lup>  (126) 
nan

>  <mut>  (126) 
nan

>  <maj>  (126) 
nan

>  <min>  (126) 
nan

>  <hyb>  (126) 
nan

>  <sub>  (126) 
nan

>  <query_index>  (126) 
nan

>  <max_hit_Tanimoto>  (126) 
0.219366

>  <largest_ring>  (126) 
6

>  <N_interactions_kept>  (126) 
5.5

>  <N_interactions_lost>  (126) 
1.5

>  <interaction_uniqueness_metric>  (126) 
0.204825

>  <ad_hoc_penalty>  (126) 
-27.073723

>  <N_rotatable_bonds>  (126) 
5

>  <N_HA>  (126) 
27

>  <cluster>  (126) 
1391

>  <N_interactions>  (126) 
6

>  <Enamine>  (126) 
0

>  <Mcule>  (126) 
0

>  <N_PAINS>  (126) 
0

>  <UFF_Gibbs>  (126) 
215.320268

>  <strain_per_HA>  (126) 
7.974825

>  <saltbridge:HIS:51>  (126) 
0

>  <pistack:HIS:51>  (126) 
1

>  <hydroph_interaction:HIS:51>  (126) 
1

>  <hbond:ALA:132>  (126) 
0

>  <hbond:SER:135>  (126) 
0

>  <hydroph_interaction:TYR:150>  (126) 
1

>  <pistack:TYR:161>  (126) 
1

>  <hydroph_interaction:TYR:161>  (126) 
0

>  <hydroph_interaction:ASP:83>  (126) 
0

>  <hbond:TYR:130>  (126) 
0

>  <hydroph_interaction:ALA:132>  (126) 
0

>  <hbond:HIS:51>  (126) 
1

>  <hbond:ASP:129>  (126) 
0

>  <hbond:TYR:150>  (126) 
0

>  <hbond:GLY:151>  (126) 
0

>  <hbond:TYR:161>  (126) 
0

>  <hydroph_interaction:TYR:130>  (126) 
0

>  <hydroph_interaction:PRO:131>  (126) 
0

>  <hydroph_interaction:ASP:129>  (126) 
1

>  <saltbridge:ASP:75>  (126) 
0

>  <saltbridge:ASP:83>  (126) 
0

>  <hydroph_interaction:ASN:152>  (126) 
0

>  <halogenbond:TYR:150>  (126) 
0

>  <hbond:ASP:83>  (126) 
0

>  <hydroph_interaction:VAL:155>  (126) 
0

>  <pication:TYR:161>  (126) 
0

>  <hbond:PRO:131>  (126) 
0

>  <hbond:LEU:128>  (126) 
0

>  <saltbridge:ASP:129>  (126) 
0

>  <hbond:THR:134>  (126) 
0

>  <pication:HIS:51>  (126) 
0

>  <hbond:SER:81>  (126) 
0

>  <hbond:GLY:159>  (126) 
0

>  <hydroph_interaction:PRO:101>  (126) 
0

>  <hydroph_interaction:THR:134>  (126) 
0

>  <hbond:GLY:82>  (126) 
0

>  <hydroph_interaction:GLU:104>  (126) 
0

>  <hydroph_interaction:VAL:36>  (126) 
0

>  <hydroph_interaction:MET:49>  (126) 
0

>  <halogenbond:GLU:104>  (126) 
0

>  <hydroph_interaction:LYS:107>  (126) 
0

$$$$
MCULE-4487137936
     RDKit          3D

 46 48  0  0  0  0  0  0  0  0999 V2000
   -6.3910   10.2740  -24.5360 C   0  0  0  0  0  0  0  0  0  0  0  0
   -7.0830   11.3480  -24.0540 O   0  0  0  0  0  0  0  0  0  0  0  0
   -5.7590    9.4590  -23.4540 C   0  0  0  0  0  0  0  0  0  0  0  0
   -5.9590    8.0770  -23.3730 C   0  0  0  0  0  0  0  0  0  0  0  0
   -5.3410    7.3330  -22.3530 C   0  0  0  0  0  0  0  0  0  0  0  0
   -4.5230    7.9880  -21.4240 C   0  0  0  0  0  0  0  0  0  0  0  0
   -4.3680    9.3700  -21.5510 C   0  0  0  0  0  0  0  0  0  0  0  0
   -4.9620   10.1280  -22.5380 C   0  0  0  0  0  0  0  0  0  0  0  0
   -3.7700    7.3430  -20.2790 C   0  0  0  0  0  0  0  0  0  0  0  0
   -4.0090    5.9370  -20.1260 N   0  0  0  0  0  0  0  0  0  0  0  0
   -4.9650    5.5060  -19.2360 C   0  0  0  0  0  0  0  0  0  0  0  0
   -6.4220    5.4950  -19.6470 C   0  0  0  0  0  0  0  0  0  0  0  0
   -7.4550    5.2950  -18.5490 C   0  0  0  0  0  0  0  0  0  0  0  0
   -7.0270    5.5320  -17.1070 C   0  0  0  0  0  0  0  0  0  0  0  0
   -8.0490    5.3400  -16.0060 C   0  0  0  0  0  0  0  0  0  0  0  0
   -9.4510    4.9110  -16.5160 C   0  0  0  0  0  0  0  0  0  0  0  0
   -9.7170    4.7250  -17.8850 C   0  0  0  0  0  0  0  0  0  0  0  0
   -8.7490    4.9100  -18.8730 C   0  0  0  0  0  0  0  0  0  0  0  0
   -4.5900    5.0740  -17.9180 O   0  0  0  0  0  0  0  0  0  0  0  0
   -6.3240   10.0520  -25.8840 N   0  0  0  0  0  0  0  0  0  0  0  0
   -7.1840    9.2130  -26.6010 C   0  0  0  0  0  0  0  0  0  0  0  0
   -6.9160    7.8820  -26.8950 C   0  0  0  0  0  0  0  0  0  0  0  0
   -7.8030    7.0920  -27.5970 C   0  0  0  0  0  0  0  0  0  0  0  0
   -9.0790    7.7180  -28.0330 C   0  0  0  0  0  0  0  0  0  0  0  0
   -9.2910    9.0390  -27.7150 C   0  0  0  0  0  0  0  0  0  0  0  0
  -10.8740    9.8480  -28.2240 Br  0  0  0  0  0  0  0  0  0  0  0  0
   -8.3700    9.7850  -27.0200 C   0  0  0  0  0  0  0  0  0  0  0  0
   -6.5950    7.5770  -24.1040 H   0  0  0  0  0  0  0  0  0  0  0  0
   -5.4940    6.2560  -22.2880 H   0  0  0  0  0  0  0  0  0  0  0  0
   -3.7180    9.8030  -20.7840 H   0  0  0  0  0  0  0  0  0  0  0  0
   -4.7950   11.1990  -22.5790 H   0  0  0  0  0  0  0  0  0  0  0  0
   -4.0620    7.8160  -19.3350 H   0  0  0  0  0  0  0  0  0  0  0  0
   -2.6960    7.5210  -20.3930 H   0  0  0  0  0  0  0  0  0  0  0  0
   -3.3040    5.2920  -20.4510 H   0  0  0  0  0  0  0  0  0  0  0  0
   -6.6560    6.4440  -20.1470 H   0  0  0  0  0  0  0  0  0  0  0  0
   -6.5600    4.7130  -20.4040 H   0  0  0  0  0  0  0  0  0  0  0  0
   -6.0010    5.8370  -16.8720 H   0  0  0  0  0  0  0  0  0  0  0  0
   -7.8230    5.4870  -14.9530 H   0  0  0  0  0  0  0  0  0  0  0  0
  -10.2450    4.7510  -15.7940 H   0  0  0  0  0  0  0  0  0  0  0  0
  -10.7150    4.4250  -18.1880 H   0  0  0  0  0  0  0  0  0  0  0  0
   -9.0270    4.7480  -19.9140 H   0  0  0  0  0  0  0  0  0  0  0  0
   -5.4330   10.2400  -26.3260 H   0  0  0  0  0  0  0  0  0  0  0  0
   -5.9900    7.4160  -26.5740 H   0  0  0  0  0  0  0  0  0  0  0  0
   -7.5760    6.0520  -27.8190 H   0  0  0  0  0  0  0  0  0  0  0  0
   -9.8120    7.1370  -28.5850 H   0  0  0  0  0  0  0  0  0  0  0  0
   -8.5900   10.8250  -26.7990 H   0  0  0  0  0  0  0  0  0  0  0  0
  1  2  2  0
  1  3  1  0
  3  4  2  0
  4  5  1  0
  5  6  2  0
  6  7  1  0
  7  8  2  0
  6  9  1  0
  9 10  1  0
 10 11  1  0
 11 12  1  0
 12 13  1  0
 13 14  2  0
 14 15  1  0
 15 16  2  0
 16 17  1  0
 17 18  2  0
 11 19  2  0
  1 20  1  0
 20 21  1  0
 21 22  2  0
 22 23  1  0
 23 24  2  0
 24 25  1  0
 25 26  1  0
 25 27  2  0
  3  8  1  0
 13 18  1  0
 27 21  1  0
  4 28  1  0
  5 29  1  0
  7 30  1  0
  8 31  1  0
  9 32  1  0
  9 33  1  0
 10 34  1  0
 12 35  1  0
 12 36  1  0
 14 37  1  0
 15 38  1  0
 16 39  1  0
 17 40  1  0
 18 41  1  0
 20 42  1  0
 22 43  1  0
 23 44  1  0
 24 45  1  0
 27 46  1  0
A    1
 C1 
A    2
 O1 
A    3
 C2 
A    4
 C3 
A    5
 C4 
A    6
 C5 
A    7
 C6 
A    8
 C7 
A    9
 C8 
A   10
 N1 
A   11
 C9 
A   12
 C10
A   13
 C11
A   14
 C12
A   15
 C13
A   16
 C14
A   17
 C15
A   18
 C16
A   19
 O2 
A   20
 N2 
A   21
 C17
A   22
 C18
A   23
 C19
A   24
 C20
A   25
 C21
A   26
BR1 
A   27
 C22
A   28
 H1 
A   29
 H2 
A   30
 H3 
A   31
 H4 
A   32
 H5 
A   33
 H6 
A   34
 H7 
A   35
 H8 
A   36
 H9 
A   37
 H10
A   38
 H11
A   39
 H12
A   40
 H13
A   41
 H14
A   42
 H15
A   43
 H16
A   44
 H17
A   45
 H18
A   46
 H19
M  END
>  <ref_pdb>  (127) 
x0051_0B

>  <ref_mols>  (127) 
x0589_0B,x0846_1B

>  <original SMILES>  (127) 
[H]c1c([H])c([H])c(C([H])([H])C(=O)N([H])C([H])([H])c2c([H])c([H])c(C(=O)N([H])c3c([H])c([H])c([H])c(Br)c3[H])c([H])c2[H])c([H])c1[H]

>  <index>  (127) 
652

>  <∆∆G>  (127) 
-8.897027

>  <∆G_bound>  (127) 
-8.146906

>  <∆G_unbound>  (127) 
0.750121

>  <comRMSD>  (127) 
0.610229

>  <N_constrained_atoms>  (127) 
25.0

>  <N_unconstrained_atoms>  (127) 
5.0

>  <runtime>  (127) 
58.180588

>  <LE>  (127) 
0.296568

>  <percent_hybrid>  (127) 
32.0

>  <dist>  (127) 
8.0

>  <ecfp4>  (127) 
0.287671

>  <daylight>  (127) 
0.20202

>  <topodist>  (127) 
4.0

>  <mces>  (127) 
28.0

>  <tdn>  (127) 
1.0

>  <tup>  (127) 
1.0

>  <rdn>  (127) 
1.0

>  <rup>  (127) 
0.0

>  <ldn>  (127) 
1.0

>  <lup>  (127) 
0.0

>  <mut>  (127) 
3.0

>  <maj>  (127) 
3.0

>  <min>  (127) 
0.0

>  <hyb>  (127) 
1.0

>  <sub>  (127) 
2.0

>  <query_index>  (127) 
340.0

>  <max_hit_Tanimoto>  (127) 
0.19699

>  <largest_ring>  (127) 
6

>  <N_interactions_kept>  (127) 
0.5

>  <N_interactions_lost>  (127) 
1.5

>  <interaction_uniqueness_metric>  (127) 
0.783415

>  <ad_hoc_penalty>  (127) 
-27.017982

>  <N_rotatable_bonds>  (127) 
6

>  <N_HA>  (127) 
27

>  <cluster>  (127) 
5622

>  <N_interactions>  (127) 
4

>  <Enamine>  (127) 
0

>  <Mcule>  (127) 
1

>  <N_PAINS>  (127) 
0

>  <UFF_Gibbs>  (127) 
136.036436

>  <strain_per_HA>  (127) 
5.038387

>  <saltbridge:HIS:51>  (127) 
0

>  <pistack:HIS:51>  (127) 
0

>  <hydroph_interaction:HIS:51>  (127) 
0

>  <hbond:ALA:132>  (127) 
0

>  <hbond:SER:135>  (127) 
0

>  <hydroph_interaction:TYR:150>  (127) 
0

>  <pistack:TYR:161>  (127) 
1

>  <hydroph_interaction:TYR:161>  (127) 
1

>  <hydroph_interaction:ASP:83>  (127) 
0

>  <hbond:TYR:130>  (127) 
0

>  <hydroph_interaction:ALA:132>  (127) 
0

>  <hbond:HIS:51>  (127) 
0

>  <hbond:ASP:129>  (127) 
0

>  <hbond:TYR:150>  (127) 
0

>  <hbond:GLY:151>  (127) 
0

>  <hbond:TYR:161>  (127) 
0

>  <hydroph_interaction:TYR:130>  (127) 
0

>  <hydroph_interaction:PRO:131>  (127) 
1

>  <hydroph_interaction:ASP:129>  (127) 
0

>  <saltbridge:ASP:75>  (127) 
0

>  <saltbridge:ASP:83>  (127) 
0

>  <hydroph_interaction:ASN:152>  (127) 
0

>  <halogenbond:TYR:150>  (127) 
0

>  <hbond:ASP:83>  (127) 
0

>  <hydroph_interaction:VAL:155>  (127) 
0

>  <pication:TYR:161>  (127) 
0

>  <hbond:PRO:131>  (127) 
0

>  <hbond:LEU:128>  (127) 
0

>  <saltbridge:ASP:129>  (127) 
0

>  <hbond:THR:134>  (127) 
0

>  <pication:HIS:51>  (127) 
0

>  <hbond:SER:81>  (127) 
0

>  <hbond:GLY:159>  (127) 
0

>  <hydroph_interaction:PRO:101>  (127) 
0

>  <hydroph_interaction:THR:134>  (127) 
0

>  <hbond:GLY:82>  (127) 
0

>  <hydroph_interaction:GLU:104>  (127) 
0

>  <hydroph_interaction:VAL:36>  (127) 
0

>  <hydroph_interaction:MET:49>  (127) 
0

>  <halogenbond:GLU:104>  (127) 
1

>  <hydroph_interaction:LYS:107>  (127) 
0

$$$$
HMSUWMDUCWPBMA-UHFFFAOYSA-N
     RDKit          3D

 50 54  0  0  0  0  0  0  0  0999 V2000
   -6.2560   10.4040  -24.8170 C   0  0  0  0  0  0  0  0  0  0  0  0
   -6.0780    9.9780  -26.1010 N   0  0  0  0  0  0  0  0  0  0  0  0
   -7.1650    9.4600  -26.7100 C   0  0  0  0  0  0  0  0  0  0  0  0
   -8.3740   10.6260  -27.0920 S   0  0  0  0  0  0  0  0  0  0  0  0
   -9.3390    9.3360  -27.6570 C   0  0  0  0  0  0  0  0  0  0  0  0
  -10.7390    9.5190  -28.1770 C   0  0  0  0  0  0  0  0  0  0  0  0
  -11.4380    8.2710  -28.6250 C   0  0  0  0  0  0  0  0  0  0  0  0
  -12.7440    8.3480  -29.1130 C   0  0  0  0  0  0  0  0  0  0  0  0
  -10.7700    7.0180  -28.5540 C   0  0  0  0  0  0  0  0  0  0  0  0
   -9.4280    6.8860  -28.0520 C   0  0  0  0  0  0  0  0  0  0  0  0
   -8.7110    8.1350  -27.5780 C   0  0  0  0  0  0  0  0  0  0  0  0
   -7.3870    8.1580  -27.0200 N   0  0  0  0  0  0  0  0  0  0  0  0
   -6.7750   11.4710  -24.4750 O   0  0  0  0  0  0  0  0  0  0  0  0
   -5.7760    9.4770  -23.7410 C   0  0  0  0  0  0  0  0  0  0  0  0
   -6.1440    8.1160  -23.8410 C   0  0  0  0  0  0  0  0  0  0  0  0
   -5.6660    7.1030  -22.7680 C   0  0  0  0  0  0  0  0  0  0  0  0
   -4.8290    7.7440  -21.7070 C   0  0  0  0  0  0  0  0  0  0  0  0
   -4.2670    7.0820  -20.6460 O   0  0  0  0  0  0  0  0  0  0  0  0
   -4.5410    5.6790  -20.5220 C   0  0  0  0  0  0  0  0  0  0  0  0
   -5.4270    5.5170  -19.4580 C   0  0  0  0  0  0  0  0  0  0  0  0
   -6.7240    5.2650  -19.6690 N   0  0  0  0  0  0  0  0  0  0  0  0
   -7.7010    5.1100  -18.5950 C   0  0  0  0  0  0  0  0  0  0  0  0
   -7.2170    5.2340  -17.3190 C   0  0  0  0  0  0  0  0  0  0  0  0
   -8.1630    5.0970  -16.1460 C   0  0  0  0  0  0  0  0  0  0  0  0
   -9.6080    4.8290  -16.5190 C   0  0  0  0  0  0  0  0  0  0  0  0
   -9.9830    4.7190  -17.8510 C   0  0  0  0  0  0  0  0  0  0  0  0
   -9.0390    4.8570  -18.8610 C   0  0  0  0  0  0  0  0  0  0  0  0
   -5.8790    5.4820  -17.1300 C   0  0  0  0  0  0  0  0  0  0  0  0
   -4.9880    5.6240  -18.1820 C   0  0  0  0  0  0  0  0  0  0  0  0
   -4.5310    9.1010  -21.7000 C   0  0  0  0  0  0  0  0  0  0  0  0
   -4.9900    9.9570  -22.6890 C   0  0  0  0  0  0  0  0  0  0  0  0
   -5.1550    9.6250  -26.3490 H   0  0  0  0  0  0  0  0  0  0  0  0
  -11.2160   10.4960  -28.2210 H   0  0  0  0  0  0  0  0  0  0  0  0
  -13.2580    7.3940  -28.9430 H   0  0  0  0  0  0  0  0  0  0  0  0
  -13.3850    9.1230  -28.7070 H   0  0  0  0  0  0  0  0  0  0  0  0
  -12.7150    8.4880  -30.2010 H   0  0  0  0  0  0  0  0  0  0  0  0
  -11.2860    6.1080  -28.8880 H   0  0  0  0  0  0  0  0  0  0  0  0
   -8.9300    5.9130  -27.9990 H   0  0  0  0  0  0  0  0  0  0  0  0
   -6.7600    7.7760  -24.6710 H   0  0  0  0  0  0  0  0  0  0  0  0
   -5.9290    6.0510  -22.8140 H   0  0  0  0  0  0  0  0  0  0  0  0
   -5.0330    5.2780  -21.4150 H   0  0  0  0  0  0  0  0  0  0  0  0
   -3.6180    5.1140  -20.3490 H   0  0  0  0  0  0  0  0  0  0  0  0
   -7.8250    5.1870  -15.1100 H   0  0  0  0  0  0  0  0  0  0  0  0
  -10.3480    4.7210  -15.7340 H   0  0  0  0  0  0  0  0  0  0  0  0
  -11.0210    4.5260  -18.1110 H   0  0  0  0  0  0  0  0  0  0  0  0
   -9.3560    4.7680  -19.8980 H   0  0  0  0  0  0  0  0  0  0  0  0
   -5.4920    5.5750  -16.1180 H   0  0  0  0  0  0  0  0  0  0  0  0
   -3.9400    5.8240  -17.9780 H   0  0  0  0  0  0  0  0  0  0  0  0
   -3.9160    9.5000  -20.8940 H   0  0  0  0  0  0  0  0  0  0  0  0
   -4.7150   11.0080  -22.6240 H   0  0  0  0  0  0  0  0  0  0  0  0
  1  2  1  0
  2  3  1  0
  3  4  1  0
  4  5  1  0
  5  6  2  0
  6  7  1  0
  7  8  1  0
  7  9  2  0
  9 10  1  0
 10 11  2  0
 11 12  1  0
  1 13  2  0
  1 14  1  0
 14 15  2  0
 15 16  1  0
 16 17  2  0
 17 18  1  0
 18 19  1  0
 19 20  1  0
 20 21  2  0
 21 22  1  0
 22 23  2  0
 23 24  1  0
 24 25  2  0
 25 26  1  0
 26 27  2  0
 23 28  1  0
 28 29  2  0
 17 30  1  0
 30 31  2  0
  3 12  2  0
 11  5  1  0
 31 14  1  0
 29 20  1  0
 27 22  1  0
  2 32  1  0
  6 33  1  0
  8 34  1  0
  8 35  1  0
  8 36  1  0
  9 37  1  0
 10 38  1  0
 15 39  1  0
 16 40  1  0
 19 41  1  0
 19 42  1  0
 24 43  1  0
 25 44  1  0
 26 45  1  0
 27 46  1  0
 28 47  1  0
 29 48  1  0
 30 49  1  0
 31 50  1  0
A    1
 C1 
A    2
 N1 
A    3
 C2 
A    4
 S1 
A    5
 C3 
A    6
 C4 
A    7
 C5 
A    8
 C6 
A    9
 C7 
A   10
 C8 
A   11
 C9 
A   12
 N2 
A   13
 O1 
A   14
 C10
A   15
 C11
A   16
 C12
A   17
 C13
A   18
 O2 
A   19
 C14
A   20
 C15
A   21
 N3 
A   22
 C16
A   23
 C17
A   24
 C18
A   25
 C19
A   26
 C20
A   27
 C21
A   28
 C22
A   29
 C23
A   30
 C24
A   31
 C25
A   32
 H1 
A   33
 H2 
A   34
 H3 
A   35
 H4 
A   36
 H5 
A   37
 H6 
A   38
 H7 
A   39
 H8 
A   40
 H9 
A   41
 H10
A   42
 H11
A   43
 H12
A   44
 H13
A   45
 H14
A   46
 H15
A   47
 H16
A   48
 H17
A   49
 H18
A   50
 H19
M  END
>  <ref_pdb>  (128) 
x0051_0B

>  <ref_mols>  (128) 
x0846_1B,x0727_0B

>  <original SMILES>  (128) 
[H]c1c([H])c(C(=O)N([H])c2nc3c([H])c([H])c(C([H])([H])[H])c([H])c3s2)c([H])c([H])c1OC([H])([H])c1nc2c([H])c([H])c([H])c([H])c2c([H])c1[H]

>  <index>  (128) 
436

>  <∆∆G>  (128) 
-10.303681

>  <∆G_bound>  (128) 
-9.884831

>  <∆G_unbound>  (128) 
0.418851

>  <comRMSD>  (128) 
0.964839

>  <N_constrained_atoms>  (128) 
28.0

>  <N_unconstrained_atoms>  (128) 
4.0

>  <runtime>  (128) 
65.862479

>  <LE>  (128) 
0.32199

>  <percent_hybrid>  (128) 
36.0

>  <dist>  (128) 
9.0

>  <ecfp4>  (128) 
0.255319

>  <daylight>  (128) 
0.519841

>  <topodist>  (128) 
5.0

>  <mces>  (128) 
33.0

>  <tdn>  (128) 
3.0

>  <tup>  (128) 
2.0

>  <rdn>  (128) 
0.0

>  <rup>  (128) 
0.0

>  <ldn>  (128) 
0.0

>  <lup>  (128) 
0.0

>  <mut>  (128) 
3.0

>  <maj>  (128) 
3.0

>  <min>  (128) 
0.0

>  <hyb>  (128) 
1.0

>  <sub>  (128) 
3.0

>  <query_index>  (128) 
17.0

>  <max_hit_Tanimoto>  (128) 
0.272904

>  <largest_ring>  (128) 
0

>  <N_interactions_kept>  (128) 
0.5

>  <N_interactions_lost>  (128) 
2.5

>  <interaction_uniqueness_metric>  (128) 
0.47249

>  <ad_hoc_penalty>  (128) 
-26.969924

>  <N_rotatable_bonds>  (128) 
6

>  <N_HA>  (128) 
31

>  <cluster>  (128) 
5822

>  <N_interactions>  (128) 
6

>  <Enamine>  (128) 
0

>  <Mcule>  (128) 
1

>  <N_PAINS>  (128) 
0

>  <UFF_Gibbs>  (128) 
132.178435

>  <strain_per_HA>  (128) 
4.26382

>  <saltbridge:HIS:51>  (128) 
0

>  <pistack:HIS:51>  (128) 
0

>  <hydroph_interaction:HIS:51>  (128) 
0

>  <hbond:ALA:132>  (128) 
0

>  <hbond:SER:135>  (128) 
0

>  <hydroph_interaction:TYR:150>  (128) 
1

>  <pistack:TYR:161>  (128) 
2

>  <hydroph_interaction:TYR:161>  (128) 
0

>  <hydroph_interaction:ASP:83>  (128) 
0

>  <hbond:TYR:130>  (128) 
0

>  <hydroph_interaction:ALA:132>  (128) 
0

>  <hbond:HIS:51>  (128) 
0

>  <hbond:ASP:129>  (128) 
0

>  <hbond:TYR:150>  (128) 
0

>  <hbond:GLY:151>  (128) 
0

>  <hbond:TYR:161>  (128) 
0

>  <hydroph_interaction:TYR:130>  (128) 
1

>  <hydroph_interaction:PRO:131>  (128) 
1

>  <hydroph_interaction:ASP:129>  (128) 
0

>  <saltbridge:ASP:75>  (128) 
0

>  <saltbridge:ASP:83>  (128) 
0

>  <hydroph_interaction:ASN:152>  (128) 
0

>  <halogenbond:TYR:150>  (128) 
0

>  <hbond:ASP:83>  (128) 
0

>  <hydroph_interaction:VAL:155>  (128) 
0

>  <pication:TYR:161>  (128) 
0

>  <hbond:PRO:131>  (128) 
0

>  <hbond:LEU:128>  (128) 
0

>  <saltbridge:ASP:129>  (128) 
0

>  <hbond:THR:134>  (128) 
0

>  <pication:HIS:51>  (128) 
0

>  <hbond:SER:81>  (128) 
0

>  <hbond:GLY:159>  (128) 
0

>  <hydroph_interaction:PRO:101>  (128) 
1

>  <hydroph_interaction:THR:134>  (128) 
0

>  <hbond:GLY:82>  (128) 
0

>  <hydroph_interaction:GLU:104>  (128) 
0

>  <hydroph_interaction:VAL:36>  (128) 
0

>  <hydroph_interaction:MET:49>  (128) 
0

>  <halogenbond:GLU:104>  (128) 
0

>  <hydroph_interaction:LYS:107>  (128) 
0

$$$$
Z27747936
     RDKit          3D

 46 49  0  0  0  0  0  0  0  0999 V2000
   -4.1710    5.7570  -21.4940 O   0  0  0  0  0  0  0  0  0  0  0  0
   -5.2400    6.3500  -21.4070 C   0  0  0  0  0  0  0  0  0  0  0  0
   -6.2570    6.0080  -20.5440 N   0  0  0  0  0  0  0  0  0  0  0  0
   -5.9910    5.7190  -19.1480 C   0  0  0  0  0  0  0  0  0  0  0  0
   -7.1620    5.4010  -18.3830 C   0  0  0  0  0  0  0  0  0  0  0  0
   -7.0920    5.5300  -16.9980 C   0  0  0  0  0  0  0  0  0  0  0  0
   -8.1930    5.2350  -16.1960 C   0  0  0  0  0  0  0  0  0  0  0  0
   -9.3780    4.8080  -16.7810 C   0  0  0  0  0  0  0  0  0  0  0  0
   -9.4660    4.6710  -18.1650 C   0  0  0  0  0  0  0  0  0  0  0  0
   -8.3610    4.9670  -18.9680 C   0  0  0  0  0  0  0  0  0  0  0  0
   -5.4980    7.5160  -22.2510 C   0  0  0  0  0  0  0  0  0  0  0  0
   -6.1100    7.3460  -23.4960 C   0  0  0  0  0  0  0  0  0  0  0  0
   -6.3470    8.4460  -24.2810 C   0  0  0  0  0  0  0  0  0  0  0  0
   -5.9780    9.7230  -23.8510 C   0  0  0  0  0  0  0  0  0  0  0  0
   -6.2420   10.9050  -24.7350 C   0  0  0  0  0  0  0  0  0  0  0  0
   -5.8710   10.5120  -26.4720 S   0  0  0  0  0  0  0  0  0  0  0  0
   -7.2630    9.6420  -26.9960 C   0  0  0  0  0  0  0  0  0  0  0  0
   -7.3530    8.3700  -27.3070 N   0  0  0  0  0  0  0  0  0  0  0  0
   -8.6680    8.1850  -27.6600 C   0  0  0  0  0  0  0  0  0  0  0  0
   -9.3410    7.0280  -28.0790 C   0  0  0  0  0  0  0  0  0  0  0  0
  -10.7080    7.1140  -28.3730 C   0  0  0  0  0  0  0  0  0  0  0  0
  -11.3900    8.3250  -28.2560 C   0  0  0  0  0  0  0  0  0  0  0  0
  -10.7380    9.4920  -27.8470 C   0  0  0  0  0  0  0  0  0  0  0  0
   -9.3760    9.3810  -27.5570 C   0  0  0  0  0  0  0  0  0  0  0  0
   -8.4460   10.2900  -27.1340 N   0  0  0  0  0  0  0  0  0  0  0  0
   -5.3620    9.8910  -22.6000 C   0  0  0  0  0  0  0  0  0  0  0  0
   -5.1220    8.7810  -21.7920 C   0  0  0  0  0  0  0  0  0  0  0  0
   -7.2170    6.1720  -20.8520 H   0  0  0  0  0  0  0  0  0  0  0  0
   -5.5160    6.6120  -18.7280 H   0  0  0  0  0  0  0  0  0  0  0  0
   -5.2580    4.9060  -19.0670 H   0  0  0  0  0  0  0  0  0  0  0  0
   -6.1660    5.8670  -16.5280 H   0  0  0  0  0  0  0  0  0  0  0  0
   -8.1210    5.3400  -15.1170 H   0  0  0  0  0  0  0  0  0  0  0  0
  -10.2330    4.5800  -16.1550 H   0  0  0  0  0  0  0  0  0  0  0  0
  -10.3950    4.3370  -18.6190 H   0  0  0  0  0  0  0  0  0  0  0  0
   -8.4450    4.8580  -20.0470 H   0  0  0  0  0  0  0  0  0  0  0  0
   -6.4020    6.3580  -23.8500 H   0  0  0  0  0  0  0  0  0  0  0  0
   -6.8270    8.2980  -25.2440 H   0  0  0  0  0  0  0  0  0  0  0  0
   -7.2790   11.2250  -24.6160 H   0  0  0  0  0  0  0  0  0  0  0  0
   -5.5910   11.7320  -24.4350 H   0  0  0  0  0  0  0  0  0  0  0  0
   -8.8080    6.0890  -28.1670 H   0  0  0  0  0  0  0  0  0  0  0  0
  -11.2410    6.2250  -28.6950 H   0  0  0  0  0  0  0  0  0  0  0  0
  -12.4540    8.3660  -28.4900 H   0  0  0  0  0  0  0  0  0  0  0  0
  -11.2760   10.4370  -27.7600 H   0  0  0  0  0  0  0  0  0  0  0  0
   -8.5970   11.2700  -26.9510 H   0  0  0  0  0  0  0  0  0  0  0  0
   -5.0660   10.8790  -22.2480 H   0  0  0  0  0  0  0  0  0  0  0  0
   -4.6490    8.8990  -20.8210 H   0  0  0  0  0  0  0  0  0  0  0  0
  1  2  2  0
  2  3  1  0
  3  4  1  0
  4  5  1  0
  5  6  2  0
  6  7  1  0
  7  8  2  0
  8  9  1  0
  9 10  2  0
  2 11  1  0
 11 12  2  0
 12 13  1  0
 13 14  2  0
 14 15  1  0
 15 16  1  0
 16 17  1  0
 17 18  2  0
 18 19  1  0
 19 20  2  0
 20 21  1  0
 21 22  2  0
 22 23  1  0
 23 24  2  0
 24 25  1  0
 14 26  1  0
 26 27  2  0
 10  5  1  0
 27 11  1  0
 25 17  1  0
 24 19  1  0
  3 28  1  0
  4 29  1  0
  4 30  1  0
  6 31  1  0
  7 32  1  0
  8 33  1  0
  9 34  1  0
 10 35  1  0
 12 36  1  0
 13 37  1  0
 15 38  1  0
 15 39  1  0
 20 40  1  0
 21 41  1  0
 22 42  1  0
 23 43  1  0
 25 44  1  0
 26 45  1  0
 27 46  1  0
A    1
 O1 
A    2
 C1 
A    3
 N1 
A    4
 C2 
A    5
 C3 
A    6
 C4 
A    7
 C5 
A    8
 C6 
A    9
 C7 
A   10
 C8 
A   11
 C9 
A   12
 C10
A   13
 C11
A   14
 C12
A   15
 C13
A   16
 S1 
A   17
 C14
A   18
 N2 
A   19
 C15
A   20
 C16
A   21
 C17
A   22
 C18
A   23
 C19
A   24
 C20
A   25
 N3 
A   26
 C21
A   27
 C22
A   28
 H1 
A   29
 H2 
A   30
 H3 
A   31
 H4 
A   32
 H5 
A   33
 H6 
A   34
 H7 
A   35
 H8 
A   36
 H9 
A   37
 H10
A   38
 H11
A   39
 H12
A   40
 H13
A   41
 H14
A   42
 H15
A   43
 H16
A   44
 H17
A   45
 H18
A   46
 H19
M  END
>  <ref_pdb>  (129) 
x0051_0B

>  <ref_mols>  (129) 
x0589_0B,x0846_1B

>  <original SMILES>  (129) 
[H]c1c([H])c([H])c(C([H])([H])N([H])C(=O)c2c([H])c([H])c(C([H])([H])Sc3nc4c([H])c([H])c([H])c([H])c4n3[H])c([H])c2[H])c([H])c1[H]

>  <index>  (129) 
311

>  <∆∆G>  (129) 
-9.526142

>  <∆G_bound>  (129) 
-9.117528

>  <∆G_unbound>  (129) 
0.408614

>  <comRMSD>  (129) 
0.622604

>  <N_constrained_atoms>  (129) 
26.0

>  <N_unconstrained_atoms>  (129) 
2.0

>  <runtime>  (129) 
54.841311

>  <LE>  (129) 
0.340219

>  <percent_hybrid>  (129) 
31.0

>  <dist>  (129) 
6.0

>  <ecfp4>  (129) 
0.319444

>  <daylight>  (129) 
0.320225

>  <topodist>  (129) 
3.0

>  <mces>  (129) 
29.0

>  <tdn>  (129) 
2.0

>  <tup>  (129) 
1.0

>  <rdn>  (129) 
0.0

>  <rup>  (129) 
0.0

>  <ldn>  (129) 
0.0

>  <lup>  (129) 
0.0

>  <mut>  (129) 
2.0

>  <maj>  (129) 
2.0

>  <min>  (129) 
0.0

>  <hyb>  (129) 
1.0

>  <sub>  (129) 
2.0

>  <query_index>  (129) 
340.0

>  <max_hit_Tanimoto>  (129) 
0.325301

>  <largest_ring>  (129) 
0

>  <N_interactions_kept>  (129) 
0.0

>  <N_interactions_lost>  (129) 
2.0

>  <interaction_uniqueness_metric>  (129) 
0.197174

>  <ad_hoc_penalty>  (129) 
-26.960078

>  <N_rotatable_bonds>  (129) 
6

>  <N_HA>  (129) 
27

>  <cluster>  (129) 
107

>  <N_interactions>  (129) 
6

>  <Enamine>  (129) 
1

>  <Mcule>  (129) 
0

>  <N_PAINS>  (129) 
0

>  <UFF_Gibbs>  (129) 
56.35225

>  <strain_per_HA>  (129) 
2.08712

>  <saltbridge:HIS:51>  (129) 
0

>  <pistack:HIS:51>  (129) 
0

>  <hydroph_interaction:HIS:51>  (129) 
0

>  <hbond:ALA:132>  (129) 
0

>  <hbond:SER:135>  (129) 
0

>  <hydroph_interaction:TYR:150>  (129) 
1

>  <pistack:TYR:161>  (129) 
1

>  <hydroph_interaction:TYR:161>  (129) 
0

>  <hydroph_interaction:ASP:83>  (129) 
0

>  <hbond:TYR:130>  (129) 
1

>  <hydroph_interaction:ALA:132>  (129) 
0

>  <hbond:HIS:51>  (129) 
0

>  <hbond:ASP:129>  (129) 
1

>  <hbond:TYR:150>  (129) 
0

>  <hbond:GLY:151>  (129) 
0

>  <hbond:TYR:161>  (129) 
0

>  <hydroph_interaction:TYR:130>  (129) 
1

>  <hydroph_interaction:PRO:131>  (129) 
1

>  <hydroph_interaction:ASP:129>  (129) 
0

>  <saltbridge:ASP:75>  (129) 
0

>  <saltbridge:ASP:83>  (129) 
0

>  <hydroph_interaction:ASN:152>  (129) 
0

>  <halogenbond:TYR:150>  (129) 
0

>  <hbond:ASP:83>  (129) 
0

>  <hydroph_interaction:VAL:155>  (129) 
0

>  <pication:TYR:161>  (129) 
0

>  <hbond:PRO:131>  (129) 
0

>  <hbond:LEU:128>  (129) 
0

>  <saltbridge:ASP:129>  (129) 
0

>  <hbond:THR:134>  (129) 
0

>  <pication:HIS:51>  (129) 
0

>  <hbond:SER:81>  (129) 
0

>  <hbond:GLY:159>  (129) 
0

>  <hydroph_interaction:PRO:101>  (129) 
0

>  <hydroph_interaction:THR:134>  (129) 
0

>  <hbond:GLY:82>  (129) 
0

>  <hydroph_interaction:GLU:104>  (129) 
0

>  <hydroph_interaction:VAL:36>  (129) 
0

>  <hydroph_interaction:MET:49>  (129) 
0

>  <halogenbond:GLU:104>  (129) 
0

>  <hydroph_interaction:LYS:107>  (129) 
0

$$$$
Z2002649227
     RDKit          3D

 44 47  0  0  0  0  0  0  0  0999 V2000
   -7.1320    6.2590  -12.3660 O   0  0  0  0  0  0  0  0  0  0  0  0
   -8.2280    5.8550  -12.0050 C   0  0  0  0  0  0  0  0  0  0  0  0
   -9.2270    5.5520  -12.8880 O   0  0  0  0  0  0  0  0  0  0  0  0
   -9.0230    6.0100  -14.2600 C   0  0  0  0  0  0  0  0  0  0  0  0
   -8.0260    5.1340  -15.0700 C   0  0  0  0  0  0  0  0  0  0  0  0
   -6.6200    5.3120  -14.9870 C   0  0  0  0  0  0  0  0  0  0  0  0
   -5.9740    6.1250  -16.0730 C   0  0  0  0  0  0  0  0  0  0  0  0
   -6.2380    5.4620  -17.4200 C   0  0  0  0  0  0  0  0  0  0  0  0
   -7.5410    5.2190  -17.5710 C   0  0  0  0  0  0  0  0  0  0  0  0
   -8.0610    5.1060  -18.9500 C   0  0  0  0  0  0  0  0  0  0  0  0
   -9.3920    4.8590  -19.1790 C   0  0  0  0  0  0  0  0  0  0  0  0
  -10.1970    4.7330  -18.0770 C   0  0  0  0  0  0  0  0  0  0  0  0
   -9.7930    4.8280  -16.7790 N   0  0  0  0  0  0  0  0  0  0  0  0
   -8.4640    5.0600  -16.5300 C   0  0  0  0  0  0  0  0  0  0  0  0
   -8.5260    5.6840  -10.5810 C   0  0  0  0  0  0  0  0  0  0  0  0
   -8.8100    4.4620   -9.7320 C   0  0  0  0  0  0  0  0  0  0  0  0
   -8.8720    3.0250  -10.1770 C   0  0  0  0  0  0  0  0  0  0  0  0
   -8.6750    2.2810   -9.0110 C   0  0  0  0  0  0  0  0  0  0  0  0
   -9.5180    2.6480   -7.9580 C   0  0  0  0  0  0  0  0  0  0  0  0
   -9.2720    3.9100   -7.3960 C   0  0  0  0  0  0  0  0  0  0  0  0
   -8.9930    4.8530   -8.4620 N   0  0  0  0  0  0  0  0  0  0  0  0
   -8.8800    6.2140   -8.3110 N   0  0  0  0  0  0  0  0  0  0  0  0
   -8.6120    6.6830   -9.5610 C   0  0  0  0  0  0  0  0  0  0  0  0
   -9.9940    6.0830  -14.7680 H   0  0  0  0  0  0  0  0  0  0  0  0
   -8.6560    7.0390  -14.1820 H   0  0  0  0  0  0  0  0  0  0  0  0
   -8.1640    4.1190  -14.6760 H   0  0  0  0  0  0  0  0  0  0  0  0
   -6.4680    5.9010  -14.0790 H   0  0  0  0  0  0  0  0  0  0  0  0
   -6.0810    4.3980  -14.7490 H   0  0  0  0  0  0  0  0  0  0  0  0
   -4.9490    6.4360  -15.8840 H   0  0  0  0  0  0  0  0  0  0  0  0
   -6.5160    7.0800  -16.0820 H   0  0  0  0  0  0  0  0  0  0  0  0
   -5.7120    4.5040  -17.4250 H   0  0  0  0  0  0  0  0  0  0  0  0
   -5.7420    6.0720  -18.1840 H   0  0  0  0  0  0  0  0  0  0  0  0
   -7.3870    5.2190  -19.8020 H   0  0  0  0  0  0  0  0  0  0  0  0
   -9.6730    4.7920  -20.2310 H   0  0  0  0  0  0  0  0  0  0  0  0
  -11.2440    4.5440  -18.3490 H   0  0  0  0  0  0  0  0  0  0  0  0
   -8.0790    2.8200  -10.9060 H   0  0  0  0  0  0  0  0  0  0  0  0
   -9.8390    2.7750  -10.6300 H   0  0  0  0  0  0  0  0  0  0  0  0
   -7.6440    2.1790   -8.7040 H   0  0  0  0  0  0  0  0  0  0  0  0
   -8.9300    1.2640   -9.2630 H   0  0  0  0  0  0  0  0  0  0  0  0
  -10.5530    2.6180   -8.3210 H   0  0  0  0  0  0  0  0  0  0  0  0
   -9.4550    1.8950   -7.1670 H   0  0  0  0  0  0  0  0  0  0  0  0
   -8.4060    3.8740   -6.7270 H   0  0  0  0  0  0  0  0  0  0  0  0
  -10.1400    4.2790   -6.8440 H   0  0  0  0  0  0  0  0  0  0  0  0
   -8.4810    7.7500   -9.6820 H   0  0  0  0  0  0  0  0  0  0  0  0
  1  2  2  0
  2  3  1  0
  3  4  1  0
  4  5  1  0
  5  6  1  0
  6  7  1  0
  7  8  1  0
  8  9  1  0
  9 10  2  0
 10 11  1  0
 11 12  2  0
 12 13  1  0
 13 14  2  0
  2 15  1  0
 15 16  2  0
 16 17  1  0
 17 18  1  0
 18 19  1  0
 19 20  1  0
 20 21  1  0
 21 22  1  0
 22 23  2  0
 14  5  1  0
 14  9  1  0
 23 15  1  0
 21 16  1  0
  4 24  1  0
  4 25  1  0
  5 26  1  0
  6 27  1  0
  6 28  1  0
  7 29  1  0
  7 30  1  0
  8 31  1  0
  8 32  1  0
 10 33  1  0
 11 34  1  0
 12 35  1  0
 17 36  1  0
 17 37  1  0
 18 38  1  0
 18 39  1  0
 19 40  1  0
 19 41  1  0
 20 42  1  0
 20 43  1  0
 23 44  1  0
A    1
 O1 
A    2
 C1 
A    3
 O2 
A    4
 C2 
A    5
 C3 
A    6
 C4 
A    7
 C5 
A    8
 C6 
A    9
 C7 
A   10
 C8 
A   11
 C9 
A   12
 C10
A   13
 N1 
A   14
 C11
A   15
 C12
A   16
 C13
A   17
 C14
A   18
 C15
A   19
 C16
A   20
 C17
A   21
 N2 
A   22
 N3 
A   23
 C18
A   24
 H1 
A   25
 H2 
A   26
 H3 
A   27
 H4 
A   28
 H5 
A   29
 H6 
A   30
 H7 
A   31
 H8 
A   32
 H9 
A   33
 H10
A   34
 H11
A   35
 H12
A   36
 H13
A   37
 H14
A   38
 H15
A   39
 H16
A   40
 H17
A   41
 H18
A   42
 H19
A   43
 H20
A   44
 H21
M  END
>  <ref_pdb>  (130) 
x0051_0B

>  <ref_mols>  (130) 
x0969_1B,x0455_0B

>  <original SMILES>  (130) 
[H]c1nc2c(c([H])c1[H])C([H])([H])C([H])([H])C([H])([H])C2([H])C([H])([H])OC(=O)c1c([H])nn2c1C([H])([H])C([H])([H])C([H])([H])C2([H])[H]

>  <index>  (130) 
159

>  <∆∆G>  (130) 
-6.572188

>  <∆G_bound>  (130) 
-5.497273

>  <∆G_unbound>  (130) 
1.074915

>  <comRMSD>  (130) 
0.310222

>  <N_constrained_atoms>  (130) 
20.0

>  <N_unconstrained_atoms>  (130) 
3.0

>  <runtime>  (130) 
63.448658

>  <LE>  (130) 
0.285747

>  <percent_hybrid>  (130) 
50.0

>  <dist>  (130) 
4.0

>  <ecfp4>  (130) 
0.379747

>  <daylight>  (130) 
0.422414

>  <topodist>  (130) 
1.0

>  <mces>  (130) 
25.0

>  <tdn>  (130) 
0.0

>  <tup>  (130) 
1.0

>  <rdn>  (130) 
0.0

>  <rup>  (130) 
0.0

>  <ldn>  (130) 
0.0

>  <lup>  (130) 
0.0

>  <mut>  (130) 
2.0

>  <maj>  (130) 
2.0

>  <min>  (130) 
0.0

>  <hyb>  (130) 
1.0

>  <sub>  (130) 
0.0

>  <query_index>  (130) 
204.0

>  <max_hit_Tanimoto>  (130) 
0.291191

>  <largest_ring>  (130) 
0

>  <N_interactions_kept>  (130) 
1.5

>  <N_interactions_lost>  (130) 
1.0

>  <interaction_uniqueness_metric>  (130) 
0.225939

>  <ad_hoc_penalty>  (130) 
-26.910602

>  <N_rotatable_bonds>  (130) 
3

>  <N_HA>  (130) 
23

>  <cluster>  (130) 
6073

>  <N_interactions>  (130) 
5

>  <Enamine>  (130) 
1

>  <Mcule>  (130) 
0

>  <N_PAINS>  (130) 
0

>  <UFF_Gibbs>  (130) 
140.666274

>  <strain_per_HA>  (130) 
6.115925

>  <saltbridge:HIS:51>  (130) 
1

>  <pistack:HIS:51>  (130) 
1

>  <hydroph_interaction:HIS:51>  (130) 
0

>  <hbond:ALA:132>  (130) 
0

>  <hbond:SER:135>  (130) 
0

>  <hydroph_interaction:TYR:150>  (130) 
1

>  <pistack:TYR:161>  (130) 
0

>  <hydroph_interaction:TYR:161>  (130) 
1

>  <hydroph_interaction:ASP:83>  (130) 
1

>  <hbond:TYR:130>  (130) 
0

>  <hydroph_interaction:ALA:132>  (130) 
0

>  <hbond:HIS:51>  (130) 
0

>  <hbond:ASP:129>  (130) 
0

>  <hbond:TYR:150>  (130) 
0

>  <hbond:GLY:151>  (130) 
0

>  <hbond:TYR:161>  (130) 
0

>  <hydroph_interaction:TYR:130>  (130) 
0

>  <hydroph_interaction:PRO:131>  (130) 
0

>  <hydroph_interaction:ASP:129>  (130) 
0

>  <saltbridge:ASP:75>  (130) 
0

>  <saltbridge:ASP:83>  (130) 
0

>  <hydroph_interaction:ASN:152>  (130) 
0

>  <halogenbond:TYR:150>  (130) 
0

>  <hbond:ASP:83>  (130) 
0

>  <hydroph_interaction:VAL:155>  (130) 
0

>  <pication:TYR:161>  (130) 
0

>  <hbond:PRO:131>  (130) 
0

>  <hbond:LEU:128>  (130) 
0

>  <saltbridge:ASP:129>  (130) 
0

>  <hbond:THR:134>  (130) 
0

>  <pication:HIS:51>  (130) 
0

>  <hbond:SER:81>  (130) 
0

>  <hbond:GLY:159>  (130) 
0

>  <hydroph_interaction:PRO:101>  (130) 
0

>  <hydroph_interaction:THR:134>  (130) 
0

>  <hbond:GLY:82>  (130) 
0

>  <hydroph_interaction:GLU:104>  (130) 
0

>  <hydroph_interaction:VAL:36>  (130) 
0

>  <hydroph_interaction:MET:49>  (130) 
0

>  <halogenbond:GLU:104>  (130) 
0

>  <hydroph_interaction:LYS:107>  (130) 
0

$$$$
CSSB00000183848
     RDKit          3D

 19 20  0  0  0  0  0  0  0  0999 V2000
   -9.9730    5.1630  -15.3600 N   0  0  0  0  0  0  0  0  0  0  0  0
   -9.3750    5.1040  -16.6760 C   0  0  0  0  0  0  0  0  0  0  0  0
   -7.9960    5.3140  -16.8430 N   0  0  0  0  0  0  0  0  0  0  0  0
   -7.7240    5.1790  -18.1670 C   0  0  0  0  0  0  0  0  0  0  0  0
   -8.8820    4.8670  -19.0850 C   0  0  0  0  0  0  0  0  0  0  0  0
  -10.2850    4.7700  -18.1120 S   0  0  0  0  0  0  0  0  0  0  0  0
   -6.3350    5.3000  -18.7730 C   0  0  0  0  0  0  0  0  0  0  0  0
   -5.2440    5.2720  -17.8890 C   0  0  0  0  0  0  0  0  0  0  0  0
   -3.8320    5.3600  -18.3340 C   0  0  0  0  0  0  0  0  0  0  0  0
   -3.6280    5.4780  -19.7020 C   0  0  0  0  0  0  0  0  0  0  0  0
   -4.7610    5.5090  -20.6070 N   0  0  0  0  0  0  0  0  0  0  0  0
   -6.0510    5.4240  -20.1270 C   0  0  0  0  0  0  0  0  0  0  0  0
   -9.3040    5.5640  -14.7060 H   0  0  0  0  0  0  0  0  0  0  0  0
  -10.0920    4.1870  -15.0810 H   0  0  0  0  0  0  0  0  0  0  0  0
   -8.9270    4.7120  -20.1530 H   0  0  0  0  0  0  0  0  0  0  0  0
   -5.4380    5.1760  -16.8210 H   0  0  0  0  0  0  0  0  0  0  0  0
   -3.0080    5.3350  -17.6340 H   0  0  0  0  0  0  0  0  0  0  0  0
   -2.6370    5.5500  -20.1470 H   0  0  0  0  0  0  0  0  0  0  0  0
   -6.8180    5.4580  -20.8960 H   0  0  0  0  0  0  0  0  0  0  0  0
  1  2  1  0
  2  3  2  0
  3  4  1  0
  4  5  2  0
  5  6  1  0
  4  7  1  0
  7  8  2  0
  8  9  1  0
  9 10  2  0
 10 11  1  0
 11 12  2  0
  6  2  1  0
 12  7  1  0
  1 13  1  0
  1 14  1  0
  5 15  1  0
  8 16  1  0
  9 17  1  0
 10 18  1  0
 12 19  1  0
A    1
 N1 
A    2
 C1 
A    3
 N2 
A    4
 C2 
A    5
 C3 
A    6
 S1 
A    7
 C4 
A    8
 C5 
A    9
 C6 
A   10
 C7 
A   11
 N3 
A   12
 C8 
A   13
 H1 
A   14
 H2 
A   15
 H3 
A   16
 H4 
A   17
 H5 
A   18
 H6 
A   19
 H7 
M  END
>  <ref_pdb>  (131) 
x0051_0B

>  <ref_mols>  (131) 
x0680_0B,x0386_0B

>  <original SMILES>  (131) 
[H]c1nc([H])c(-c2nc(N([H])[H])sc2[H])c([H])c1[H]

>  <index>  (131) 
197

>  <∆∆G>  (131) 
-5.982265

>  <∆G_bound>  (131) 
-5.86974

>  <∆G_unbound>  (131) 
0.112525

>  <comRMSD>  (131) 
0.689466

>  <N_constrained_atoms>  (131) 
12.0

>  <N_unconstrained_atoms>  (131) 
1.0

>  <runtime>  (131) 
27.710925

>  <LE>  (131) 
0.460174

>  <percent_hybrid>  (131) 
17.0

>  <dist>  (131) 
3.0

>  <ecfp4>  (131) 
0.230769

>  <daylight>  (131) 
0.352941

>  <topodist>  (131) 
2.0

>  <mces>  (131) 
12.0

>  <tdn>  (131) 
1.0

>  <tup>  (131) 
1.0

>  <rdn>  (131) 
0.0

>  <rup>  (131) 
0.0

>  <ldn>  (131) 
0.0

>  <lup>  (131) 
0.0

>  <mut>  (131) 
1.0

>  <maj>  (131) 
0.0

>  <min>  (131) 
1.0

>  <hyb>  (131) 
0.0

>  <sub>  (131) 
2.0

>  <query_index>  (131) 
296.0

>  <max_hit_Tanimoto>  (131) 
0.131068

>  <largest_ring>  (131) 
0

>  <N_interactions_kept>  (131) 
3.5

>  <N_interactions_lost>  (131) 
0.5

>  <interaction_uniqueness_metric>  (131) 
0.081009

>  <ad_hoc_penalty>  (131) 
-26.909446

>  <N_rotatable_bonds>  (131) 
2

>  <N_HA>  (131) 
12

>  <cluster>  (131) 
6040

>  <N_interactions>  (131) 
4

>  <Enamine>  (131) 
1

>  <Mcule>  (131) 
0

>  <N_PAINS>  (131) 
0

>  <UFF_Gibbs>  (131) 
44.263263

>  <strain_per_HA>  (131) 
3.688605

>  <saltbridge:HIS:51>  (131) 
0

>  <pistack:HIS:51>  (131) 
0

>  <hydroph_interaction:HIS:51>  (131) 
0

>  <hbond:ALA:132>  (131) 
0

>  <hbond:SER:135>  (131) 
2

>  <hydroph_interaction:TYR:150>  (131) 
0

>  <pistack:TYR:161>  (131) 
0

>  <hydroph_interaction:TYR:161>  (131) 
2

>  <hydroph_interaction:ASP:83>  (131) 
0

>  <hbond:TYR:130>  (131) 
0

>  <hydroph_interaction:ALA:132>  (131) 
0

>  <hbond:HIS:51>  (131) 
0

>  <hbond:ASP:129>  (131) 
0

>  <hbond:TYR:150>  (131) 
0

>  <hbond:GLY:151>  (131) 
0

>  <hbond:TYR:161>  (131) 
0

>  <hydroph_interaction:TYR:130>  (131) 
0

>  <hydroph_interaction:PRO:131>  (131) 
0

>  <hydroph_interaction:ASP:129>  (131) 
0

>  <saltbridge:ASP:75>  (131) 
0

>  <saltbridge:ASP:83>  (131) 
0

>  <hydroph_interaction:ASN:152>  (131) 
0

>  <halogenbond:TYR:150>  (131) 
0

>  <hbond:ASP:83>  (131) 
0

>  <hydroph_interaction:VAL:155>  (131) 
0

>  <pication:TYR:161>  (131) 
0

>  <hbond:PRO:131>  (131) 
0

>  <hbond:LEU:128>  (131) 
0

>  <saltbridge:ASP:129>  (131) 
0

>  <hbond:THR:134>  (131) 
0

>  <pication:HIS:51>  (131) 
0

>  <hbond:SER:81>  (131) 
0

>  <hbond:GLY:159>  (131) 
0

>  <hydroph_interaction:PRO:101>  (131) 
0

>  <hydroph_interaction:THR:134>  (131) 
0

>  <hbond:GLY:82>  (131) 
0

>  <hydroph_interaction:GLU:104>  (131) 
0

>  <hydroph_interaction:VAL:36>  (131) 
0

>  <hydroph_interaction:MET:49>  (131) 
0

>  <halogenbond:GLU:104>  (131) 
0

>  <hydroph_interaction:LYS:107>  (131) 
0

$$$$
CSSS00026427523
     RDKit          3D

 31 33  0  0  0  0  0  0  0  0999 V2000
   -6.5440    5.8600  -14.8820 O   0  0  0  0  0  0  0  0  0  0  0  0
   -7.7040    5.5310  -15.0320 C   0  0  0  0  0  0  0  0  0  0  0  0
   -8.6780    5.3320  -14.0550 N   0  0  0  0  0  0  0  0  0  0  0  0
   -9.1200    6.5460  -13.5260 C   0  0  0  0  0  0  0  0  0  0  0  0
  -10.1370    7.1800  -14.2370 C   0  0  0  0  0  0  0  0  0  0  0  0
  -10.6120    8.3950  -13.7480 C   0  0  0  0  0  0  0  0  0  0  0  0
  -10.0650    8.9350  -12.5780 C   0  0  0  0  0  0  0  0  0  0  0  0
   -9.0730    8.3270  -11.8740 N   0  0  0  0  0  0  0  0  0  0  0  0
   -8.6260    7.1440  -12.3690 C   0  0  0  0  0  0  0  0  0  0  0  0
   -8.1780    5.3030  -16.4200 C   0  0  0  0  0  0  0  0  0  0  0  0
   -9.6760    4.9830  -16.5220 C   0  0  0  0  0  0  0  0  0  0  0  0
  -10.2390    4.7390  -17.9270 C   0  0  0  0  0  0  0  0  0  0  0  0
   -9.2400    4.8380  -19.0530 C   0  0  0  0  0  0  0  0  0  0  0  0
   -7.7890    5.1590  -18.8250 C   0  0  0  0  0  0  0  0  0  0  0  0
   -6.9540    5.2230  -19.9430 C   0  0  0  0  0  0  0  0  0  0  0  0
   -5.6110    5.5160  -19.8160 C   0  0  0  0  0  0  0  0  0  0  0  0
   -5.1070    5.7440  -18.5470 C   0  0  0  0  0  0  0  0  0  0  0  0
   -5.9210    5.6820  -17.4170 C   0  0  0  0  0  0  0  0  0  0  0  0
   -7.2930    5.3850  -17.5220 C   0  0  0  0  0  0  0  0  0  0  0  0
   -9.1510    4.4400  -13.9340 H   0  0  0  0  0  0  0  0  0  0  0  0
  -10.5500    6.7490  -15.1400 H   0  0  0  0  0  0  0  0  0  0  0  0
  -11.4070    8.9230  -14.2750 H   0  0  0  0  0  0  0  0  0  0  0  0
  -10.4300    9.8900  -12.1810 H   0  0  0  0  0  0  0  0  0  0  0  0
   -7.8350    6.6860  -11.7820 H   0  0  0  0  0  0  0  0  0  0  0  0
  -10.3040    4.9330  -15.6360 H   0  0  0  0  0  0  0  0  0  0  0  0
  -11.2900    4.5100  -18.0790 H   0  0  0  0  0  0  0  0  0  0  0  0
   -9.5930    4.6710  -20.0670 H   0  0  0  0  0  0  0  0  0  0  0  0
   -7.3510    5.0400  -20.9360 H   0  0  0  0  0  0  0  0  0  0  0  0
   -4.9650    5.5660  -20.6900 H   0  0  0  0  0  0  0  0  0  0  0  0
   -4.0660    5.9840  -18.3110 H   0  0  0  0  0  0  0  0  0  0  0  0
   -5.3930    5.8820  -16.4760 H   0  0  0  0  0  0  0  0  0  0  0  0
  1  2  2  0
  2  3  1  0
  3  4  1  0
  4  5  2  0
  5  6  1  0
  6  7  2  0
  7  8  1  0
  8  9  2  0
  2 10  1  0
 10 11  2  0
 11 12  1  0
 12 13  2  0
 13 14  1  0
 14 15  2  0
 15 16  1  0
 16 17  2  0
 17 18  1  0
 18 19  2  0
  9  4  1  0
 19 10  1  0
 19 14  1  0
  3 20  1  0
  5 21  1  0
  6 22  1  0
  7 23  1  0
  9 24  1  0
 11 25  1  0
 12 26  1  0
 13 27  1  0
 15 28  1  0
 16 29  1  0
 17 30  1  0
 18 31  1  0
A    1
 O1 
A    2
 C1 
A    3
 N1 
A    4
 C2 
A    5
 C3 
A    6
 C4 
A    7
 C5 
A    8
 N2 
A    9
 C6 
A   10
 C7 
A   11
 C8 
A   12
 C9 
A   13
 C10
A   14
 C11
A   15
 C12
A   16
 C13
A   17
 C14
A   18
 C15
A   19
 C16
A   20
 H1 
A   21
 H2 
A   22
 H3 
A   23
 H4 
A   24
 H5 
A   25
 H6 
A   26
 H7 
A   27
 H8 
A   28
 H9 
A   29
 H10
A   30
 H11
A   31
 H12
M  END
>  <ref_pdb>  (132) 
x0051_0B

>  <ref_mols>  (132) 
x0429_0B,x0951_0B

>  <original SMILES>  (132) 
[H]c1nc([H])c(N([H])C(=O)c2c([H])c([H])c([H])c3c([H])c([H])c([H])c([H])c23)c([H])c1[H]

>  <index>  (132) 
222

>  <∆∆G>  (132) 
-8.734849

>  <∆G_bound>  (132) 
-8.565179

>  <∆G_unbound>  (132) 
0.16967

>  <comRMSD>  (132) 
0.38819

>  <N_constrained_atoms>  (132) 
16.0

>  <N_unconstrained_atoms>  (132) 
4.0

>  <runtime>  (132) 
52.196356

>  <LE>  (132) 
0.436742

>  <percent_hybrid>  (132) 
45.0

>  <dist>  (132) 
12.0

>  <ecfp4>  (132) 
0.144928

>  <daylight>  (132) 
0.24

>  <topodist>  (132) 
3.0

>  <mces>  (132) 
21.0

>  <tdn>  (132) 
2.0

>  <tup>  (132) 
0.0

>  <rdn>  (132) 
1.0

>  <rup>  (132) 
0.0

>  <ldn>  (132) 
0.0

>  <lup>  (132) 
0.0

>  <mut>  (132) 
4.0

>  <maj>  (132) 
4.0

>  <min>  (132) 
0.0

>  <hyb>  (132) 
5.0

>  <sub>  (132) 
1.0

>  <query_index>  (132) 
76.0

>  <max_hit_Tanimoto>  (132) 
0.220979

>  <largest_ring>  (132) 
0

>  <N_interactions_kept>  (132) 
0.0

>  <N_interactions_lost>  (132) 
3.0

>  <interaction_uniqueness_metric>  (132) 
0.260922

>  <ad_hoc_penalty>  (132) 
-26.864424

>  <N_rotatable_bonds>  (132) 
2

>  <N_HA>  (132) 
19

>  <cluster>  (132) 
6016

>  <N_interactions>  (132) 
7

>  <Enamine>  (132) 
1

>  <Mcule>  (132) 
0

>  <N_PAINS>  (132) 
0

>  <UFF_Gibbs>  (132) 
94.61144

>  <strain_per_HA>  (132) 
4.979549

>  <saltbridge:HIS:51>  (132) 
0

>  <pistack:HIS:51>  (132) 
0

>  <hydroph_interaction:HIS:51>  (132) 
0

>  <hbond:ALA:132>  (132) 
0

>  <hbond:SER:135>  (132) 
0

>  <hydroph_interaction:TYR:150>  (132) 
1

>  <pistack:TYR:161>  (132) 
2

>  <hydroph_interaction:TYR:161>  (132) 
1

>  <hydroph_interaction:ASP:83>  (132) 
0

>  <hbond:TYR:130>  (132) 
0

>  <hydroph_interaction:ALA:132>  (132) 
1

>  <hbond:HIS:51>  (132) 
0

>  <hbond:ASP:129>  (132) 
0

>  <hbond:TYR:150>  (132) 
0

>  <hbond:GLY:151>  (132) 
1

>  <hbond:TYR:161>  (132) 
0

>  <hydroph_interaction:TYR:130>  (132) 
0

>  <hydroph_interaction:PRO:131>  (132) 
0

>  <hydroph_interaction:ASP:129>  (132) 
0

>  <saltbridge:ASP:75>  (132) 
0

>  <saltbridge:ASP:83>  (132) 
0

>  <hydroph_interaction:ASN:152>  (132) 
0

>  <halogenbond:TYR:150>  (132) 
0

>  <hbond:ASP:83>  (132) 
0

>  <hydroph_interaction:VAL:155>  (132) 
0

>  <pication:TYR:161>  (132) 
0

>  <hbond:PRO:131>  (132) 
0

>  <hbond:LEU:128>  (132) 
0

>  <saltbridge:ASP:129>  (132) 
0

>  <hbond:THR:134>  (132) 
0

>  <pication:HIS:51>  (132) 
1

>  <hbond:SER:81>  (132) 
0

>  <hbond:GLY:159>  (132) 
0

>  <hydroph_interaction:PRO:101>  (132) 
0

>  <hydroph_interaction:THR:134>  (132) 
0

>  <hbond:GLY:82>  (132) 
0

>  <hydroph_interaction:GLU:104>  (132) 
0

>  <hydroph_interaction:VAL:36>  (132) 
0

>  <hydroph_interaction:MET:49>  (132) 
0

>  <halogenbond:GLU:104>  (132) 
0

>  <hydroph_interaction:LYS:107>  (132) 
0

$$$$
VDURLHCZVPIJNO-UHFFFAOYSA-N
     RDKit          3D

 35 37  0  0  0  0  0  0  0  0999 V2000
   -8.8150    5.9420  -12.6340 C   0  0  0  0  0  0  0  0  0  0  0  0
   -8.2410    5.0590  -13.6070 N   0  0  0  0  0  0  0  0  0  0  0  0
   -8.2910    5.0850  -15.0990 C   0  0  0  0  0  0  0  0  0  0  0  0
   -7.0170    5.2720  -15.9150 C   0  0  0  0  0  0  0  0  0  0  0  0
   -7.0590    5.2840  -17.3370 C   0  0  0  0  0  0  0  0  0  0  0  0
   -8.2650    5.1200  -18.0170 C   0  0  0  0  0  0  0  0  0  0  0  0
   -9.4490    4.9490  -17.2940 C   0  0  0  0  0  0  0  0  0  0  0  0
  -10.7670    4.7620  -18.0430 C   0  0  0  0  0  0  0  0  0  0  0  0
  -10.7550    5.2390  -19.1170 C   0  0  0  0  0  0  0  0  0  0  0  0
   -9.4570    4.9380  -15.8760 C   0  0  0  0  0  0  0  0  0  0  0  0
   -9.3980    7.1680  -13.0900 O   0  0  0  0  0  0  0  0  0  0  0  0
   -8.8160    5.6720  -11.1900 C   0  0  0  0  0  0  0  0  0  0  0  0
   -8.9050    4.4780  -10.4190 C   0  0  0  0  0  0  0  0  0  0  0  0
   -8.8770    4.9010   -9.0810 N   0  0  0  0  0  0  0  0  0  0  0  0
   -8.9560    4.0640   -7.8820 C   0  0  0  0  0  0  0  0  0  0  0  0
   -9.3530    2.6410   -8.2280 C   0  0  0  0  0  0  0  0  0  0  0  0
   -8.5480    2.2400   -9.4470 C   0  0  0  0  0  0  0  0  0  0  0  0
   -9.0190    3.0130  -10.6790 C   0  0  0  0  0  0  0  0  0  0  0  0
   -8.7670    6.2220   -8.9310 N   0  0  0  0  0  0  0  0  0  0  0  0
   -8.7320    6.6850  -10.1850 C   0  0  0  0  0  0  0  0  0  0  0  0
   -8.0990    4.1440  -13.1780 H   0  0  0  0  0  0  0  0  0  0  0  0
   -6.0560    5.3980  -15.4240 H   0  0  0  0  0  0  0  0  0  0  0  0
   -6.1390    5.4200  -17.9010 H   0  0  0  0  0  0  0  0  0  0  0  0
   -8.2790    5.1270  -19.1060 H   0  0  0  0  0  0  0  0  0  0  0  0
  -10.7210    5.6700  -20.0890 H   0  0  0  0  0  0  0  0  0  0  0  0
  -10.4170    4.8000  -15.3900 H   0  0  0  0  0  0  0  0  0  0  0  0
   -9.6980    4.5250   -7.2190 H   0  0  0  0  0  0  0  0  0  0  0  0
   -7.9790    4.0800   -7.3880 H   0  0  0  0  0  0  0  0  0  0  0  0
   -9.1360    1.9650   -7.3930 H   0  0  0  0  0  0  0  0  0  0  0  0
  -10.4280    2.5820   -8.4330 H   0  0  0  0  0  0  0  0  0  0  0  0
   -7.4940    2.4680   -9.2610 H   0  0  0  0  0  0  0  0  0  0  0  0
   -8.6060    1.1760   -9.6240 H   0  0  0  0  0  0  0  0  0  0  0  0
   -8.3980    2.7440  -11.5410 H   0  0  0  0  0  0  0  0  0  0  0  0
  -10.0510    2.7280  -10.9110 H   0  0  0  0  0  0  0  0  0  0  0  0
   -8.6500    7.7530  -10.3420 H   0  0  0  0  0  0  0  0  0  0  0  0
  1  2  1  0
  2  3  1  0
  3  4  2  0
  4  5  1  0
  5  6  2  0
  6  7  1  0
  7  8  1  0
  8  9  3  0
  7 10  2  0
  1 11  2  0
  1 12  1  0
 12 13  2  0
 13 14  1  0
 14 15  1  0
 15 16  1  0
 16 17  1  0
 17 18  1  0
 14 19  1  0
 19 20  2  0
  3 10  1  0
 20 12  1  0
 18 13  1  0
  2 21  1  0
  4 22  1  0
  5 23  1  0
  6 24  1  0
  9 25  1  0
 10 26  1  0
 15 27  1  0
 15 28  1  0
 16 29  1  0
 16 30  1  0
 17 31  1  0
 17 32  1  0
 18 33  1  0
 18 34  1  0
 20 35  1  0
A    1
 C1 
A    2
 N1 
A    3
 C2 
A    4
 C3 
A    5
 C4 
A    6
 C5 
A    7
 C6 
A    8
 C7 
A    9
 C8 
A   10
 C9 
A   11
 O1 
A   12
 C10
A   13
 C11
A   14
 N2 
A   15
 C12
A   16
 C13
A   17
 C14
A   18
 C15
A   19
 N3 
A   20
 C16
A   21
 H1 
A   22
 H2 
A   23
 H3 
A   24
 H4 
A   25
 H5 
A   26
 H6 
A   27
 H7 
A   28
 H8 
A   29
 H9 
A   30
 H10
A   31
 H11
A   32
 H12
A   33
 H13
A   34
 H14
A   35
 H15
M  END
>  <ref_pdb>  (133) 
x0051_0B

>  <ref_mols>  (133) 
x0553_0B,x0969_1B

>  <original SMILES>  (133) 
[H]C#Cc1c([H])c([H])c([H])c(N([H])C(=O)c2c([H])nn3c2C([H])([H])C([H])([H])C([H])([H])C3([H])[H])c1[H]

>  <index>  (133) 
126

>  <∆∆G>  (133) 
-6.258845

>  <∆G_bound>  (133) 
-5.829733

>  <∆G_unbound>  (133) 
0.429112

>  <comRMSD>  (133) 
0.836181

>  <N_constrained_atoms>  (133) 
19.0

>  <N_unconstrained_atoms>  (133) 
2.0

>  <runtime>  (133) 
60.232325

>  <LE>  (133) 
0.29804

>  <percent_hybrid>  (133) 
48.0

>  <dist>  (133) 
7.0

>  <ecfp4>  (133) 
0.246914

>  <daylight>  (133) 
0.265781

>  <topodist>  (133) 
3.0

>  <mces>  (133) 
21.0

>  <tdn>  (133) 
1.0

>  <tup>  (133) 
1.0

>  <rdn>  (133) 
0.0

>  <rup>  (133) 
0.0

>  <ldn>  (133) 
1.0

>  <lup>  (133) 
0.0

>  <mut>  (133) 
3.0

>  <maj>  (133) 
3.0

>  <min>  (133) 
0.0

>  <hyb>  (133) 
1.0

>  <sub>  (133) 
1.0

>  <query_index>  (133) 
375.0

>  <max_hit_Tanimoto>  (133) 
0.322581

>  <largest_ring>  (133) 
0

>  <N_interactions_kept>  (133) 
1.5

>  <N_interactions_lost>  (133) 
1.0

>  <interaction_uniqueness_metric>  (133) 
0.183458

>  <ad_hoc_penalty>  (133) 
-26.859454

>  <N_rotatable_bonds>  (133) 
2

>  <N_HA>  (133) 
20

>  <cluster>  (133) 
6102

>  <N_interactions>  (133) 
5

>  <Enamine>  (133) 
0

>  <Mcule>  (133) 
1

>  <N_PAINS>  (133) 
0

>  <UFF_Gibbs>  (133) 
154.176491

>  <strain_per_HA>  (133) 
7.708825

>  <saltbridge:HIS:51>  (133) 
0

>  <pistack:HIS:51>  (133) 
1

>  <hydroph_interaction:HIS:51>  (133) 
0

>  <hbond:ALA:132>  (133) 
0

>  <hbond:SER:135>  (133) 
0

>  <hydroph_interaction:TYR:150>  (133) 
1

>  <pistack:TYR:161>  (133) 
1

>  <hydroph_interaction:TYR:161>  (133) 
0

>  <hydroph_interaction:ASP:83>  (133) 
1

>  <hbond:TYR:130>  (133) 
0

>  <hydroph_interaction:ALA:132>  (133) 
0

>  <hbond:HIS:51>  (133) 
0

>  <hbond:ASP:129>  (133) 
0

>  <hbond:TYR:150>  (133) 
0

>  <hbond:GLY:151>  (133) 
0

>  <hbond:TYR:161>  (133) 
1

>  <hydroph_interaction:TYR:130>  (133) 
0

>  <hydroph_interaction:PRO:131>  (133) 
0

>  <hydroph_interaction:ASP:129>  (133) 
0

>  <saltbridge:ASP:75>  (133) 
0

>  <saltbridge:ASP:83>  (133) 
0

>  <hydroph_interaction:ASN:152>  (133) 
0

>  <halogenbond:TYR:150>  (133) 
0

>  <hbond:ASP:83>  (133) 
0

>  <hydroph_interaction:VAL:155>  (133) 
0

>  <pication:TYR:161>  (133) 
0

>  <hbond:PRO:131>  (133) 
0

>  <hbond:LEU:128>  (133) 
0

>  <saltbridge:ASP:129>  (133) 
0

>  <hbond:THR:134>  (133) 
0

>  <pication:HIS:51>  (133) 
0

>  <hbond:SER:81>  (133) 
0

>  <hbond:GLY:159>  (133) 
0

>  <hydroph_interaction:PRO:101>  (133) 
0

>  <hydroph_interaction:THR:134>  (133) 
0

>  <hbond:GLY:82>  (133) 
0

>  <hydroph_interaction:GLU:104>  (133) 
0

>  <hydroph_interaction:VAL:36>  (133) 
0

>  <hydroph_interaction:MET:49>  (133) 
0

>  <halogenbond:GLU:104>  (133) 
0

>  <hydroph_interaction:LYS:107>  (133) 
0

$$$$
MCULE-4315249704
     RDKit          3D

 46 48  0  0  0  0  0  0  0  0999 V2000
   -8.4260    6.9860  -13.9570 C   0  0  0  0  0  0  0  0  0  0  0  0
   -8.6280    6.3850  -12.6320 C   0  0  0  0  0  0  0  0  0  0  0  0
   -8.5930    7.0990  -11.4340 C   0  0  0  0  0  0  0  0  0  0  0  0
   -8.7740    6.4120  -10.2320 C   0  0  0  0  0  0  0  0  0  0  0  0
   -8.9900    5.0250  -10.2010 C   0  0  0  0  0  0  0  0  0  0  0  0
   -9.1620    4.3380   -9.0330 N   0  0  0  0  0  0  0  0  0  0  0  0
   -9.4840    2.8990   -9.0930 C   0  0  0  0  0  0  0  0  0  0  0  0
   -9.7480    2.2740   -7.7060 C   0  0  0  0  0  0  0  0  0  0  0  0
  -10.0830    3.1820   -6.5890 N   0  0  0  0  0  0  0  0  0  0  0  0
  -11.4300    3.0370   -5.9840 C   0  0  0  0  0  0  0  0  0  0  0  0
   -9.4250    4.4950   -6.5590 C   0  0  0  0  0  0  0  0  0  0  0  0
   -8.5630    4.8440   -7.7900 C   0  0  0  0  0  0  0  0  0  0  0  0
   -9.0260    4.3510  -11.4260 C   0  0  0  0  0  0  0  0  0  0  0  0
   -8.8480    5.0180  -12.6250 C   0  0  0  0  0  0  0  0  0  0  0  0
   -8.8020    8.1400  -14.1570 O   0  0  0  0  0  0  0  0  0  0  0  0
   -7.7590    6.0660  -14.7770 N   0  0  0  0  0  0  0  0  0  0  0  0
   -8.0090    5.6370  -16.1040 C   0  0  0  0  0  0  0  0  0  0  0  0
   -6.9090    5.3800  -16.9390 C   0  0  0  0  0  0  0  0  0  0  0  0
   -5.1300    5.5830  -16.3090 Br  0  0  0  0  0  0  0  0  0  0  0  0
   -7.0700    4.9740  -18.2610 C   0  0  0  0  0  0  0  0  0  0  0  0
   -8.3420    4.8200  -18.7810 C   0  0  0  0  0  0  0  0  0  0  0  0
   -9.4410    5.0700  -17.9770 C   0  0  0  0  0  0  0  0  0  0  0  0
  -10.7940    4.9570  -18.5600 C   0  0  0  0  0  0  0  0  0  0  0  0
   -9.2760    5.4670  -16.6410 C   0  0  0  0  0  0  0  0  0  0  0  0
   -8.4250    8.1700  -11.4100 H   0  0  0  0  0  0  0  0  0  0  0  0
   -8.7410    6.9890   -9.3110 H   0  0  0  0  0  0  0  0  0  0  0  0
  -10.3590    2.7480   -9.7300 H   0  0  0  0  0  0  0  0  0  0  0  0
   -8.6600    2.3370   -9.5440 H   0  0  0  0  0  0  0  0  0  0  0  0
  -10.5380    1.5250   -7.8320 H   0  0  0  0  0  0  0  0  0  0  0  0
   -8.8550    1.7320   -7.4110 H   0  0  0  0  0  0  0  0  0  0  0  0
  -12.1950    3.6060   -6.4930 H   0  0  0  0  0  0  0  0  0  0  0  0
  -11.4170    3.4090   -4.9560 H   0  0  0  0  0  0  0  0  0  0  0  0
  -11.7600    1.9900   -5.9610 H   0  0  0  0  0  0  0  0  0  0  0  0
   -8.7610    4.4850   -5.6860 H   0  0  0  0  0  0  0  0  0  0  0  0
  -10.1460    5.3000   -6.3720 H   0  0  0  0  0  0  0  0  0  0  0  0
   -7.5720    4.4110   -7.6260 H   0  0  0  0  0  0  0  0  0  0  0  0
   -8.4480    5.9330   -7.8660 H   0  0  0  0  0  0  0  0  0  0  0  0
   -9.1930    3.2770  -11.4690 H   0  0  0  0  0  0  0  0  0  0  0  0
   -8.8780    4.4600  -13.5610 H   0  0  0  0  0  0  0  0  0  0  0  0
   -7.0400    5.5140  -14.3220 H   0  0  0  0  0  0  0  0  0  0  0  0
   -6.2090    4.7780  -18.8950 H   0  0  0  0  0  0  0  0  0  0  0  0
   -8.4710    4.5130  -19.8170 H   0  0  0  0  0  0  0  0  0  0  0  0
  -10.7540    5.2690  -19.6080 H   0  0  0  0  0  0  0  0  0  0  0  0
  -11.1980    3.9730  -18.4780 H   0  0  0  0  0  0  0  0  0  0  0  0
  -11.4630    5.6500  -18.0890 H   0  0  0  0  0  0  0  0  0  0  0  0
  -10.1610    5.6550  -16.0430 H   0  0  0  0  0  0  0  0  0  0  0  0
  1  2  1  0
  2  3  2  0
  3  4  1  0
  4  5  2  0
  5  6  1  0
  6  7  1  0
  7  8  1  0
  8  9  1  0
  9 10  1  0
  9 11  1  0
 11 12  1  0
  5 13  1  0
 13 14  2  0
  1 15  2  0
  1 16  1  0
 16 17  1  0
 17 18  2  0
 18 19  1  0
 18 20  1  0
 20 21  2  0
 21 22  1  0
 22 23  1  0
 22 24  2  0
  2 14  1  0
 12  6  1  0
 24 17  1  0
  3 25  1  0
  4 26  1  0
  7 27  1  0
  7 28  1  0
  8 29  1  0
  8 30  1  0
 10 31  1  0
 10 32  1  0
 10 33  1  0
 11 34  1  0
 11 35  1  0
 12 36  1  0
 12 37  1  0
 13 38  1  0
 14 39  1  0
 16 40  1  0
 20 41  1  0
 21 42  1  0
 23 43  1  0
 23 44  1  0
 23 45  1  0
 24 46  1  0
A    1
 C1 
A    2
 C2 
A    3
 C3 
A    4
 C4 
A    5
 C5 
A    6
 N1 
A    7
 C6 
A    8
 C7 
A    9
 N2 
A   10
 C8 
A   11
 C9 
A   12
 C10
A   13
 C11
A   14
 C12
A   15
 O1 
A   16
 N3 
A   17
 C13
A   18
 C14
A   19
BR1 
A   20
 C15
A   21
 C16
A   22
 C17
A   23
 C18
A   24
 C19
A   25
 H1 
A   26
 H2 
A   27
 H3 
A   28
 H4 
A   29
 H5 
A   30
 H6 
A   31
 H7 
A   32
 H8 
A   33
 H9 
A   34
 H10
A   35
 H11
A   36
 H12
A   37
 H13
A   38
 H14
A   39
 H15
A   40
 H16
A   41
 H17
A   42
 H18
A   43
 H19
A   44
 H20
A   45
 H21
A   46
 H22
M  END
>  <ref_pdb>  (134) 
x0051_0B

>  <ref_mols>  (134) 
x0553_0B,x0404_0B

>  <original SMILES>  (134) 
[H]c1c([H])c(C([H])([H])[H])c([H])c(N([H])C(=O)c2c([H])c([H])c(N3C([H])([H])C([H])([H])N(C([H])([H])[H])C([H])([H])C3([H])[H])c([H])c2[H])c1Br

>  <index>  (134) 
352

>  <∆∆G>  (134) 
-7.70777

>  <∆G_bound>  (134) 
-7.369694

>  <∆G_unbound>  (134) 
0.338076

>  <comRMSD>  (134) 
0.670397

>  <N_constrained_atoms>  (134) 
24.0

>  <N_unconstrained_atoms>  (134) 
1.0

>  <runtime>  (134) 
71.03751

>  <LE>  (134) 
0.308311

>  <percent_hybrid>  (134) 
38.0

>  <dist>  (134) 
8.0

>  <ecfp4>  (134) 
0.195122

>  <daylight>  (134) 
0.259459

>  <topodist>  (134) 
4.0

>  <mces>  (134) 
25.0

>  <tdn>  (134) 
2.0

>  <tup>  (134) 
1.0

>  <rdn>  (134) 
0.0

>  <rup>  (134) 
0.0

>  <ldn>  (134) 
1.0

>  <lup>  (134) 
0.0

>  <mut>  (134) 
2.0

>  <maj>  (134) 
2.0

>  <min>  (134) 
0.0

>  <hyb>  (134) 
2.0

>  <sub>  (134) 
1.0

>  <query_index>  (134) 
112.0

>  <max_hit_Tanimoto>  (134) 
0.301515

>  <largest_ring>  (134) 
0

>  <N_interactions_kept>  (134) 
1.0

>  <N_interactions_lost>  (134) 
2.5

>  <interaction_uniqueness_metric>  (134) 
0.353245

>  <ad_hoc_penalty>  (134) 
-26.836757

>  <N_rotatable_bonds>  (134) 
5

>  <N_HA>  (134) 
24

>  <cluster>  (134) 
5897

>  <N_interactions>  (134) 
7

>  <Enamine>  (134) 
0

>  <Mcule>  (134) 
1

>  <N_PAINS>  (134) 
0

>  <UFF_Gibbs>  (134) 
70.871108

>  <strain_per_HA>  (134) 
2.952963

>  <saltbridge:HIS:51>  (134) 
0

>  <pistack:HIS:51>  (134) 
1

>  <hydroph_interaction:HIS:51>  (134) 
1

>  <hbond:ALA:132>  (134) 
0

>  <hbond:SER:135>  (134) 
0

>  <hydroph_interaction:TYR:150>  (134) 
1

>  <pistack:TYR:161>  (134) 
1

>  <hydroph_interaction:TYR:161>  (134) 
0

>  <hydroph_interaction:ASP:83>  (134) 
0

>  <hbond:TYR:130>  (134) 
0

>  <hydroph_interaction:ALA:132>  (134) 
1

>  <hbond:HIS:51>  (134) 
0

>  <hbond:ASP:129>  (134) 
0

>  <hbond:TYR:150>  (134) 
0

>  <hbond:GLY:151>  (134) 
0

>  <hbond:TYR:161>  (134) 
0

>  <hydroph_interaction:TYR:130>  (134) 
0

>  <hydroph_interaction:PRO:131>  (134) 
0

>  <hydroph_interaction:ASP:129>  (134) 
0

>  <saltbridge:ASP:75>  (134) 
1

>  <saltbridge:ASP:83>  (134) 
1

>  <hydroph_interaction:ASN:152>  (134) 
0

>  <halogenbond:TYR:150>  (134) 
0

>  <hbond:ASP:83>  (134) 
0

>  <hydroph_interaction:VAL:155>  (134) 
0

>  <pication:TYR:161>  (134) 
0

>  <hbond:PRO:131>  (134) 
0

>  <hbond:LEU:128>  (134) 
0

>  <saltbridge:ASP:129>  (134) 
0

>  <hbond:THR:134>  (134) 
0

>  <pication:HIS:51>  (134) 
0

>  <hbond:SER:81>  (134) 
0

>  <hbond:GLY:159>  (134) 
0

>  <hydroph_interaction:PRO:101>  (134) 
0

>  <hydroph_interaction:THR:134>  (134) 
0

>  <hbond:GLY:82>  (134) 
0

>  <hydroph_interaction:GLU:104>  (134) 
0

>  <hydroph_interaction:VAL:36>  (134) 
0

>  <hydroph_interaction:MET:49>  (134) 
0

>  <halogenbond:GLU:104>  (134) 
0

>  <hydroph_interaction:LYS:107>  (134) 
0

$$$$
CSSS00000212247
     RDKit          3D

 20 21  0  0  0  0  0  0  0  0999 V2000
   -6.5330    6.2810  -20.6240 O   0  0  0  0  0  0  0  0  0  0  0  0
   -6.5030    5.1980  -19.7350 C   0  0  0  0  0  0  0  0  0  0  0  0
   -5.3210    5.3860  -18.7840 C   0  0  0  0  0  0  0  0  0  0  0  0
   -5.9180    5.4800  -17.4150 C   0  0  0  0  0  0  0  0  0  0  0  0
   -7.3620    5.2510  -17.4850 C   0  0  0  0  0  0  0  0  0  0  0  0
   -8.2520    5.1930  -16.4280 C   0  0  0  0  0  0  0  0  0  0  0  0
   -9.5790    4.9600  -16.7230 C   0  0  0  0  0  0  0  0  0  0  0  0
   -9.9700    4.7940  -18.0500 C   0  0  0  0  0  0  0  0  0  0  0  0
   -9.0650    4.8510  -19.1240 C   0  0  0  0  0  0  0  0  0  0  0  0
   -7.7140    5.0890  -18.8240 C   0  0  0  0  0  0  0  0  0  0  0  0
   -7.4010    6.2970  -21.0620 H   0  0  0  0  0  0  0  0  0  0  0  0
   -6.3840    4.2880  -20.3290 H   0  0  0  0  0  0  0  0  0  0  0  0
   -4.4300    4.7820  -18.7110 H   0  0  0  0  0  0  0  0  0  0  0  0
   -4.9110    6.3730  -19.0170 H   0  0  0  0  0  0  0  0  0  0  0  0
   -5.7680    6.4720  -16.9760 H   0  0  0  0  0  0  0  0  0  0  0  0
   -5.4590    4.7470  -16.7490 H   0  0  0  0  0  0  0  0  0  0  0  0
   -7.9200    5.3230  -15.4040 H   0  0  0  0  0  0  0  0  0  0  0  0
  -10.3010    4.9060  -15.9180 H   0  0  0  0  0  0  0  0  0  0  0  0
  -11.0450    4.6180  -18.1700 H   0  0  0  0  0  0  0  0  0  0  0  0
   -9.3970    4.7190  -20.1500 H   0  0  0  0  0  0  0  0  0  0  0  0
  1  2  1  0
  2  3  1  0
  3  4  1  0
  4  5  1  0
  5  6  2  0
  6  7  1  0
  7  8  2  0
  8  9  1  0
  9 10  2  0
 10  2  1  0
 10  5  1  0
  1 11  1  0
  2 12  1  0
  3 13  1  0
  3 14  1  0
  4 15  1  0
  4 16  1  0
  6 17  1  0
  7 18  1  0
  8 19  1  0
  9 20  1  0
A    1
 O1 
A    2
 C1 
A    3
 C2 
A    4
 C3 
A    5
 C4 
A    6
 C5 
A    7
 C6 
A    8
 C7 
A    9
 C8 
A   10
 C9 
A   11
 H1 
A   12
 H2 
A   13
 H3 
A   14
 H4 
A   15
 H5 
A   16
 H6 
A   17
 H7 
A   18
 H8 
A   19
 H9 
A   20
 H10
M  END
>  <ref_pdb>  (135) 
x0051_0B

>  <ref_mols>  (135) 
x0727_0B,x0693_0B

>  <original SMILES>  (135) 
[H]OC1([H])c2c([H])c([H])c([H])c([H])c2C([H])([H])C1([H])[H]

>  <index>  (135) 
266

>  <∆∆G>  (135) 
-5.884592

>  <∆G_bound>  (135) 
-5.804144

>  <∆G_unbound>  (135) 
0.080449

>  <comRMSD>  (135) 
0.792803

>  <N_constrained_atoms>  (135) 
13.0

>  <N_unconstrained_atoms>  (135) 
0.0

>  <runtime>  (135) 
21.061111

>  <LE>  (135) 
0.452661

>  <percent_hybrid>  (135) 
34.0

>  <dist>  (135) 
4.0

>  <ecfp4>  (135) 
0.222222

>  <daylight>  (135) 
0.326531

>  <topodist>  (135) 
4.0

>  <mces>  (135) 
11.0

>  <tdn>  (135) 
3.0

>  <tup>  (135) 
0.0

>  <rdn>  (135) 
0.0

>  <rup>  (135) 
0.0

>  <ldn>  (135) 
1.0

>  <lup>  (135) 
0.0

>  <mut>  (135) 
0.0

>  <maj>  (135) 
0.0

>  <min>  (135) 
0.0

>  <hyb>  (135) 
0.0

>  <sub>  (135) 
2.0

>  <query_index>  (135) 
129.0

>  <max_hit_Tanimoto>  (135) 
0.142857

>  <largest_ring>  (135) 
0

>  <N_interactions_kept>  (135) 
3.5

>  <N_interactions_lost>  (135) 
1.5

>  <interaction_uniqueness_metric>  (135) 
0.05615

>  <ad_hoc_penalty>  (135) 
-26.799515

>  <N_rotatable_bonds>  (135) 
1

>  <N_HA>  (135) 
10

>  <cluster>  (135) 
5974

>  <N_interactions>  (135) 
5

>  <Enamine>  (135) 
1

>  <Mcule>  (135) 
0

>  <N_PAINS>  (135) 
0

>  <UFF_Gibbs>  (135) 
17.201192

>  <strain_per_HA>  (135) 
1.720119

>  <saltbridge:HIS:51>  (135) 
0

>  <pistack:HIS:51>  (135) 
0

>  <hydroph_interaction:HIS:51>  (135) 
0

>  <hbond:ALA:132>  (135) 
0

>  <hbond:SER:135>  (135) 
0

>  <hydroph_interaction:TYR:150>  (135) 
1

>  <pistack:TYR:161>  (135) 
0

>  <hydroph_interaction:TYR:161>  (135) 
3

>  <hydroph_interaction:ASP:83>  (135) 
0

>  <hbond:TYR:130>  (135) 
1

>  <hydroph_interaction:ALA:132>  (135) 
0

>  <hbond:HIS:51>  (135) 
0

>  <hbond:ASP:129>  (135) 
0

>  <hbond:TYR:150>  (135) 
0

>  <hbond:GLY:151>  (135) 
0

>  <hbond:TYR:161>  (135) 
0

>  <hydroph_interaction:TYR:130>  (135) 
0

>  <hydroph_interaction:PRO:131>  (135) 
0

>  <hydroph_interaction:ASP:129>  (135) 
0

>  <saltbridge:ASP:75>  (135) 
0

>  <saltbridge:ASP:83>  (135) 
0

>  <hydroph_interaction:ASN:152>  (135) 
0

>  <halogenbond:TYR:150>  (135) 
0

>  <hbond:ASP:83>  (135) 
0

>  <hydroph_interaction:VAL:155>  (135) 
0

>  <pication:TYR:161>  (135) 
0

>  <hbond:PRO:131>  (135) 
0

>  <hbond:LEU:128>  (135) 
0

>  <saltbridge:ASP:129>  (135) 
0

>  <hbond:THR:134>  (135) 
0

>  <pication:HIS:51>  (135) 
0

>  <hbond:SER:81>  (135) 
0

>  <hbond:GLY:159>  (135) 
0

>  <hydroph_interaction:PRO:101>  (135) 
0

>  <hydroph_interaction:THR:134>  (135) 
0

>  <hbond:GLY:82>  (135) 
0

>  <hydroph_interaction:GLU:104>  (135) 
0

>  <hydroph_interaction:VAL:36>  (135) 
0

>  <hydroph_interaction:MET:49>  (135) 
0

>  <halogenbond:GLU:104>  (135) 
0

>  <hydroph_interaction:LYS:107>  (135) 
0

$$$$
PV-002821242423
     RDKit          3D

 43 46  0  0  0  0  0  0  0  0999 V2000
   -2.5630    5.1910  -17.8940 N   0  0  0  0  0  0  0  0  0  0  0  0
   -3.7490    5.2370  -17.2250 C   0  0  0  0  0  0  0  0  0  0  0  0
   -3.7780    5.0250  -16.0190 O   0  0  0  0  0  0  0  0  0  0  0  0
   -4.9860    5.5490  -17.9860 C   0  0  0  0  0  0  0  0  0  0  0  0
   -6.2340    5.1200  -17.5750 C   0  0  0  0  0  0  0  0  0  0  0  0
   -7.3380    5.4920  -18.3830 C   0  0  0  0  0  0  0  0  0  0  0  0
   -7.1730    6.2580  -19.5310 C   0  0  0  0  0  0  0  0  0  0  0  0
   -5.9210    6.7290  -20.0090 C   0  0  0  0  0  0  0  0  0  0  0  0
   -5.8640    7.5600  -21.2330 C   0  0  0  0  0  0  0  0  0  0  0  0
   -6.0630    7.0900  -22.5760 C   0  0  0  0  0  0  0  0  0  0  0  0
   -6.0580    7.9660  -23.6910 C   0  0  0  0  0  0  0  0  0  0  0  0
   -5.8500    9.3450  -23.5360 C   0  0  0  0  0  0  0  0  0  0  0  0
   -5.8900   10.0730  -24.5660 O   0  0  0  0  0  0  0  0  0  0  0  0
   -5.7600    9.5840  -25.9310 C   0  0  0  0  0  0  0  0  0  0  0  0
   -6.9790    9.2050  -26.5510 C   0  0  0  0  0  0  0  0  0  0  0  0
   -7.2560    7.9940  -26.9800 N   0  0  0  0  0  0  0  0  0  0  0  0
   -8.5240    8.0400  -27.4940 C   0  0  0  0  0  0  0  0  0  0  0  0
   -9.3500    6.9280  -28.1050 C   0  0  0  0  0  0  0  0  0  0  0  0
  -10.7870    7.1940  -28.6150 C   0  0  0  0  0  0  0  0  0  0  0  0
  -11.1650    8.6370  -28.4100 C   0  0  0  0  0  0  0  0  0  0  0  0
  -10.3480    9.6340  -27.8410 C   0  0  0  0  0  0  0  0  0  0  0  0
   -9.0560    9.3070  -27.3990 C   0  0  0  0  0  0  0  0  0  0  0  0
   -8.0510   10.0440  -26.8010 N   0  0  0  0  0  0  0  0  0  0  0  0
   -5.6220    9.8160  -22.2370 C   0  0  0  0  0  0  0  0  0  0  0  0
   -5.6300    8.9500  -21.1220 C   0  0  0  0  0  0  0  0  0  0  0  0
   -4.8250    6.3370  -19.1850 C   0  0  0  0  0  0  0  0  0  0  0  0
   -1.8520    5.8350  -17.5690 H   0  0  0  0  0  0  0  0  0  0  0  0
   -2.4980    4.8840  -18.8550 H   0  0  0  0  0  0  0  0  0  0  0  0
   -6.3860    4.5280  -16.6800 H   0  0  0  0  0  0  0  0  0  0  0  0
   -8.3380    5.1750  -18.0990 H   0  0  0  0  0  0  0  0  0  0  0  0
   -8.0700    6.4940  -20.0540 H   0  0  0  0  0  0  0  0  0  0  0  0
   -6.2400    6.0320  -22.7560 H   0  0  0  0  0  0  0  0  0  0  0  0
   -6.2290    7.5550  -24.6830 H   0  0  0  0  0  0  0  0  0  0  0  0
   -5.3270   10.4050  -26.5120 H   0  0  0  0  0  0  0  0  0  0  0  0
   -5.0210    8.7740  -25.9540 H   0  0  0  0  0  0  0  0  0  0  0  0
   -8.9240    5.9350  -28.1790 H   0  0  0  0  0  0  0  0  0  0  0  0
  -11.4310    6.4390  -29.0570 H   0  0  0  0  0  0  0  0  0  0  0  0
  -12.1610    8.9380  -28.7340 H   0  0  0  0  0  0  0  0  0  0  0  0
  -10.7270   10.6470  -27.7440 H   0  0  0  0  0  0  0  0  0  0  0  0
   -8.0780   11.0250  -26.5690 H   0  0  0  0  0  0  0  0  0  0  0  0
   -5.4420   10.8690  -22.0380 H   0  0  0  0  0  0  0  0  0  0  0  0
   -5.4590    9.3850  -20.1400 H   0  0  0  0  0  0  0  0  0  0  0  0
   -3.8180    6.6500  -19.4620 H   0  0  0  0  0  0  0  0  0  0  0  0
  1  2  1  0
  2  3  2  0
  2  4  1  0
  4  5  2  0
  5  6  1  0
  6  7  2  0
  7  8  1  0
  8  9  1  0
  9 10  2  0
 10 11  1  0
 11 12  2  0
 12 13  1  0
 13 14  1  0
 14 15  1  0
 15 16  2  0
 16 17  1  0
 17 18  2  0
 18 19  1  0
 19 20  2  0
 20 21  1  0
 21 22  2  0
 22 23  1  0
 12 24  1  0
 24 25  2  0
  8 26  2  0
 26  4  1  0
 25  9  1  0
 23 15  1  0
 22 17  1  0
  1 27  1  0
  1 28  1  0
  5 29  1  0
  6 30  1  0
  7 31  1  0
 10 32  1  0
 11 33  1  0
 14 34  1  0
 14 35  1  0
 18 36  1  0
 19 37  1  0
 20 38  1  0
 21 39  1  0
 23 40  1  0
 24 41  1  0
 25 42  1  0
 26 43  1  0
A    1
 N1 
A    2
 C1 
A    3
 O1 
A    4
 C2 
A    5
 C3 
A    6
 C4 
A    7
 C5 
A    8
 C6 
A    9
 C7 
A   10
 C8 
A   11
 C9 
A   12
 C10
A   13
 O2 
A   14
 C11
A   15
 C12
A   16
 N2 
A   17
 C13
A   18
 C14
A   19
 C15
A   20
 C16
A   21
 C17
A   22
 C18
A   23
 N3 
A   24
 C19
A   25
 C20
A   26
 C21
A   27
 H1 
A   28
 H2 
A   29
 H3 
A   30
 H4 
A   31
 H5 
A   32
 H6 
A   33
 H7 
A   34
 H8 
A   35
 H9 
A   36
 H10
A   37
 H11
A   38
 H12
A   39
 H13
A   40
 H14
A   41
 H15
A   42
 H16
A   43
 H17
M  END
>  <ref_pdb>  (136) 
x0051_0B

>  <ref_mols>  (136) 
x0846_1B,x0425_0B

>  <original SMILES>  (136) 
[H]c1c([H])c(C(=O)N([H])[H])c([H])c(-c2c([H])c([H])c(OC([H])([H])c3nc4c([H])c([H])c([H])c([H])c4n3[H])c([H])c2[H])c1[H]

>  <index>  (136) 
240

>  <∆∆G>  (136) 
-7.316653

>  <∆G_bound>  (136) 
-6.876471

>  <∆G_unbound>  (136) 
0.440182

>  <comRMSD>  (136) 
0.883843

>  <N_constrained_atoms>  (136) 
27.0

>  <N_unconstrained_atoms>  (136) 
1.0

>  <runtime>  (136) 
38.063365

>  <LE>  (136) 
0.261309

>  <percent_hybrid>  (136) 
34.0

>  <dist>  (136) 
10.0

>  <ecfp4>  (136) 
0.238636

>  <daylight>  (136) 
0.300926

>  <topodist>  (136) 
4.0

>  <mces>  (136) 
29.0

>  <tdn>  (136) 
3.0

>  <tup>  (136) 
0.0

>  <rdn>  (136) 
0.0

>  <rup>  (136) 
0.0

>  <ldn>  (136) 
1.0

>  <lup>  (136) 
0.0

>  <mut>  (136) 
6.0

>  <maj>  (136) 
6.0

>  <min>  (136) 
0.0

>  <hyb>  (136) 
0.0

>  <sub>  (136) 
2.0

>  <query_index>  (136) 
25.0

>  <max_hit_Tanimoto>  (136) 
0.355337

>  <largest_ring>  (136) 
0

>  <N_interactions_kept>  (136) 
1.0

>  <N_interactions_lost>  (136) 
1.5

>  <interaction_uniqueness_metric>  (136) 
0.143377

>  <ad_hoc_penalty>  (136) 
-26.757931

>  <N_rotatable_bonds>  (136) 
5

>  <N_HA>  (136) 
26

>  <cluster>  (136) 
6000

>  <N_interactions>  (136) 
6

>  <Enamine>  (136) 
1

>  <Mcule>  (136) 
0

>  <N_PAINS>  (136) 
0

>  <UFF_Gibbs>  (136) 
86.187469

>  <strain_per_HA>  (136) 
3.314903

>  <saltbridge:HIS:51>  (136) 
0

>  <pistack:HIS:51>  (136) 
0

>  <hydroph_interaction:HIS:51>  (136) 
0

>  <hbond:ALA:132>  (136) 
0

>  <hbond:SER:135>  (136) 
0

>  <hydroph_interaction:TYR:150>  (136) 
0

>  <pistack:TYR:161>  (136) 
0

>  <hydroph_interaction:TYR:161>  (136) 
3

>  <hydroph_interaction:ASP:83>  (136) 
0

>  <hbond:TYR:130>  (136) 
0

>  <hydroph_interaction:ALA:132>  (136) 
1

>  <hbond:HIS:51>  (136) 
0

>  <hbond:ASP:129>  (136) 
0

>  <hbond:TYR:150>  (136) 
0

>  <hbond:GLY:151>  (136) 
0

>  <hbond:TYR:161>  (136) 
0

>  <hydroph_interaction:TYR:130>  (136) 
1

>  <hydroph_interaction:PRO:131>  (136) 
1

>  <hydroph_interaction:ASP:129>  (136) 
0

>  <saltbridge:ASP:75>  (136) 
0

>  <saltbridge:ASP:83>  (136) 
0

>  <hydroph_interaction:ASN:152>  (136) 
0

>  <halogenbond:TYR:150>  (136) 
0

>  <hbond:ASP:83>  (136) 
0

>  <hydroph_interaction:VAL:155>  (136) 
0

>  <pication:TYR:161>  (136) 
0

>  <hbond:PRO:131>  (136) 
0

>  <hbond:LEU:128>  (136) 
0

>  <saltbridge:ASP:129>  (136) 
0

>  <hbond:THR:134>  (136) 
0

>  <pication:HIS:51>  (136) 
0

>  <hbond:SER:81>  (136) 
0

>  <hbond:GLY:159>  (136) 
0

>  <hydroph_interaction:PRO:101>  (136) 
0

>  <hydroph_interaction:THR:134>  (136) 
0

>  <hbond:GLY:82>  (136) 
0

>  <hydroph_interaction:GLU:104>  (136) 
0

>  <hydroph_interaction:VAL:36>  (136) 
0

>  <hydroph_interaction:MET:49>  (136) 
0

>  <halogenbond:GLU:104>  (136) 
0

>  <hydroph_interaction:LYS:107>  (136) 
0

$$$$
ILRSZWPYGHBPJI-UHFFFAOYSA-N
     RDKit          3D

 39 41  0  0  0  0  0  0  0  0999 V2000
   -8.8870    5.9770  -12.8380 C   0  0  0  0  0  0  0  0  0  0  0  0
   -8.2830    5.0950  -13.7980 N   0  0  0  0  0  0  0  0  0  0  0  0
   -8.2320    5.1430  -15.2930 C   0  0  0  0  0  0  0  0  0  0  0  0
   -9.3870    4.9240  -16.1060 C   0  0  0  0  0  0  0  0  0  0  0  0
   -9.3670    4.9350  -17.5370 C   0  0  0  0  0  0  0  0  0  0  0  0
  -10.4990    4.7020  -18.3040 C   0  0  0  0  0  0  0  0  0  0  0  0
   -8.2000    5.1750  -18.2180 C   0  0  0  0  0  0  0  0  0  0  0  0
   -6.9500    5.4230  -17.4380 C   0  0  0  0  0  0  0  0  0  0  0  0
   -5.6450    5.6870  -18.2130 C   0  0  0  0  0  0  0  0  0  0  0  0
   -7.0140    5.3960  -16.0150 C   0  0  0  0  0  0  0  0  0  0  0  0
   -9.5330    7.1920  -13.2310 O   0  0  0  0  0  0  0  0  0  0  0  0
   -8.8700    5.7100  -11.3340 C   0  0  0  0  0  0  0  0  0  0  0  0
   -8.8990    4.4970  -10.3760 C   0  0  0  0  0  0  0  0  0  0  0  0
   -8.8740    5.0320   -9.1130 N   0  0  0  0  0  0  0  0  0  0  0  0
   -8.8960    4.2890   -7.8710 C   0  0  0  0  0  0  0  0  0  0  0  0
   -9.5120    2.9240   -7.9880 C   0  0  0  0  0  0  0  0  0  0  0  0
   -9.4150    2.2820   -9.2350 C   0  0  0  0  0  0  0  0  0  0  0  0
   -8.9500    3.0220  -10.5000 C   0  0  0  0  0  0  0  0  0  0  0  0
   -8.8270    6.3820   -9.0810 N   0  0  0  0  0  0  0  0  0  0  0  0
   -8.8250    6.7700  -10.3680 C   0  0  0  0  0  0  0  0  0  0  0  0
   -7.8970    4.2470  -13.3970 H   0  0  0  0  0  0  0  0  0  0  0  0
  -10.3480    4.7280  -15.6460 H   0  0  0  0  0  0  0  0  0  0  0  0
  -10.2760    3.8490  -18.9350 H   0  0  0  0  0  0  0  0  0  0  0  0
  -10.7350    5.5390  -18.9620 H   0  0  0  0  0  0  0  0  0  0  0  0
  -11.3480    4.4790  -17.6930 H   0  0  0  0  0  0  0  0  0  0  0  0
   -8.1890    5.1840  -19.3060 H   0  0  0  0  0  0  0  0  0  0  0  0
   -4.8300    5.1910  -17.6760 H   0  0  0  0  0  0  0  0  0  0  0  0
   -5.4380    6.7640  -18.1980 H   0  0  0  0  0  0  0  0  0  0  0  0
   -5.5650    5.3810  -19.2510 H   0  0  0  0  0  0  0  0  0  0  0  0
   -6.0880    5.5720  -15.4770 H   0  0  0  0  0  0  0  0  0  0  0  0
   -7.8650    4.2100   -7.5120 H   0  0  0  0  0  0  0  0  0  0  0  0
   -9.4640    4.8970   -7.1630 H   0  0  0  0  0  0  0  0  0  0  0  0
   -9.0040    2.2600   -7.2700 H   0  0  0  0  0  0  0  0  0  0  0  0
  -10.5570    2.9620   -7.6740 H   0  0  0  0  0  0  0  0  0  0  0  0
   -8.7690    1.4080   -9.1040 H   0  0  0  0  0  0  0  0  0  0  0  0
  -10.4080    1.9120   -9.4420 H   0  0  0  0  0  0  0  0  0  0  0  0
   -9.6310    2.7840  -11.3280 H   0  0  0  0  0  0  0  0  0  0  0  0
   -7.9750    2.6150  -10.7810 H   0  0  0  0  0  0  0  0  0  0  0  0
   -8.7910    7.8440  -10.5800 H   0  0  0  0  0  0  0  0  0  0  0  0
  1  2  1  0
  2  3  1  0
  3  4  2  0
  4  5  1  0
  5  6  1  0
  5  7  2  0
  7  8  1  0
  8  9  1  0
  8 10  2  0
  1 11  2  0
  1 12  1  0
 12 13  2  0
 13 14  1  0
 14 15  1  0
 15 16  1  0
 16 17  1  0
 17 18  1  0
 14 19  1  0
 19 20  2  0
  3 10  1  0
 20 12  1  0
 18 13  1  0
  2 21  1  0
  4 22  1  0
  6 23  1  0
  6 24  1  0
  6 25  1  0
  7 26  1  0
  9 27  1  0
  9 28  1  0
  9 29  1  0
 10 30  1  0
 15 31  1  0
 15 32  1  0
 16 33  1  0
 16 34  1  0
 17 35  1  0
 17 36  1  0
 18 37  1  0
 18 38  1  0
 20 39  1  0
A    1
 C1 
A    2
 N1 
A    3
 C2 
A    4
 C3 
A    5
 C4 
A    6
 C5 
A    7
 C6 
A    8
 C7 
A    9
 C8 
A   10
 C9 
A   11
 O1 
A   12
 C10
A   13
 C11
A   14
 N2 
A   15
 C12
A   16
 C13
A   17
 C14
A   18
 C15
A   19
 N3 
A   20
 C16
A   21
 H1 
A   22
 H2 
A   23
 H3 
A   24
 H4 
A   25
 H5 
A   26
 H6 
A   27
 H7 
A   28
 H8 
A   29
 H9 
A   30
 H10
A   31
 H11
A   32
 H12
A   33
 H13
A   34
 H14
A   35
 H15
A   36
 H16
A   37
 H17
A   38
 H18
A   39
 H19
M  END
>  <ref_pdb>  (137) 
x0051_0B

>  <ref_mols>  (137) 
x0589_0B,x0969_1B

>  <original SMILES>  (137) 
[H]c1nn2c(c1C(=O)N([H])c1c([H])c(C([H])([H])[H])c([H])c(C([H])([H])[H])c1[H])C([H])([H])C([H])([H])C([H])([H])C2([H])[H]

>  <index>  (137) 
172

>  <∆∆G>  (137) 
-7.745946

>  <∆G_bound>  (137) 
-7.421715

>  <∆G_unbound>  (137) 
0.32423

>  <comRMSD>  (137) 
0.774442

>  <N_constrained_atoms>  (137) 
18.0

>  <N_unconstrained_atoms>  (137) 
2.0

>  <runtime>  (137) 
49.298902

>  <LE>  (137) 
0.387297

>  <percent_hybrid>  (137) 
45.0

>  <dist>  (137) 
6.0

>  <ecfp4>  (137) 
0.318841

>  <daylight>  (137) 
0.256849

>  <topodist>  (137) 
2.0

>  <mces>  (137) 
21.0

>  <tdn>  (137) 
0.0

>  <tup>  (137) 
1.0

>  <rdn>  (137) 
0.0

>  <rup>  (137) 
0.0

>  <ldn>  (137) 
1.0

>  <lup>  (137) 
0.0

>  <mut>  (137) 
3.0

>  <maj>  (137) 
3.0

>  <min>  (137) 
0.0

>  <hyb>  (137) 
1.0

>  <sub>  (137) 
0.0

>  <query_index>  (137) 
379.0

>  <max_hit_Tanimoto>  (137) 
0.326065

>  <largest_ring>  (137) 
0

>  <N_interactions_kept>  (137) 
1.0

>  <N_interactions_lost>  (137) 
1.5

>  <interaction_uniqueness_metric>  (137) 
0.14598

>  <ad_hoc_penalty>  (137) 
-26.642373

>  <N_rotatable_bonds>  (137) 
4

>  <N_HA>  (137) 
20

>  <cluster>  (137) 
6063

>  <N_interactions>  (137) 
6

>  <Enamine>  (137) 
0

>  <Mcule>  (137) 
1

>  <N_PAINS>  (137) 
0

>  <UFF_Gibbs>  (137) 
108.822449

>  <strain_per_HA>  (137) 
5.441122

>  <saltbridge:HIS:51>  (137) 
0

>  <pistack:HIS:51>  (137) 
1

>  <hydroph_interaction:HIS:51>  (137) 
1

>  <hbond:ALA:132>  (137) 
0

>  <hbond:SER:135>  (137) 
0

>  <hydroph_interaction:TYR:150>  (137) 
1

>  <pistack:TYR:161>  (137) 
1

>  <hydroph_interaction:TYR:161>  (137) 
1

>  <hydroph_interaction:ASP:83>  (137) 
0

>  <hbond:TYR:130>  (137) 
0

>  <hydroph_interaction:ALA:132>  (137) 
0

>  <hbond:HIS:51>  (137) 
0

>  <hbond:ASP:129>  (137) 
0

>  <hbond:TYR:150>  (137) 
0

>  <hbond:GLY:151>  (137) 
0

>  <hbond:TYR:161>  (137) 
1

>  <hydroph_interaction:TYR:130>  (137) 
0

>  <hydroph_interaction:PRO:131>  (137) 
0

>  <hydroph_interaction:ASP:129>  (137) 
0

>  <saltbridge:ASP:75>  (137) 
0

>  <saltbridge:ASP:83>  (137) 
0

>  <hydroph_interaction:ASN:152>  (137) 
0

>  <halogenbond:TYR:150>  (137) 
0

>  <hbond:ASP:83>  (137) 
0

>  <hydroph_interaction:VAL:155>  (137) 
0

>  <pication:TYR:161>  (137) 
0

>  <hbond:PRO:131>  (137) 
0

>  <hbond:LEU:128>  (137) 
0

>  <saltbridge:ASP:129>  (137) 
0

>  <hbond:THR:134>  (137) 
0

>  <pication:HIS:51>  (137) 
0

>  <hbond:SER:81>  (137) 
0

>  <hbond:GLY:159>  (137) 
0

>  <hydroph_interaction:PRO:101>  (137) 
0

>  <hydroph_interaction:THR:134>  (137) 
0

>  <hbond:GLY:82>  (137) 
0

>  <hydroph_interaction:GLU:104>  (137) 
0

>  <hydroph_interaction:VAL:36>  (137) 
0

>  <hydroph_interaction:MET:49>  (137) 
0

>  <halogenbond:GLU:104>  (137) 
0

>  <hydroph_interaction:LYS:107>  (137) 
0

$$$$
KFWKCQOVLITCFV-UHFFFAOYSA-N
     RDKit          3D

 44 46  0  0  0  0  0  0  0  0999 V2000
   -8.6110    7.1230  -13.9260 C   0  0  0  0  0  0  0  0  0  0  0  0
   -7.6480    6.4410  -14.6750 N   0  0  0  0  0  0  0  0  0  0  0  0
   -7.7960    5.9160  -16.0350 C   0  0  0  0  0  0  0  0  0  0  0  0
   -9.1750    5.5220  -16.5160 C   0  0  0  0  0  0  0  0  0  0  0  0
   -9.4110    5.0360  -17.8090 C   0  0  0  0  0  0  0  0  0  0  0  0
  -10.6520    4.6440  -18.4030 C   0  0  0  0  0  0  0  0  0  0  0  0
   -8.3380    4.9030  -18.6890 C   0  0  0  0  0  0  0  0  0  0  0  0
   -6.9030    5.2460  -18.3360 C   0  0  0  0  0  0  0  0  0  0  0  0
   -6.7340    5.7650  -16.9180 C   0  0  0  0  0  0  0  0  0  0  0  0
   -5.4620    6.0810  -16.5590 F   0  0  0  0  0  0  0  0  0  0  0  0
   -9.2760    8.1100  -14.2070 O   0  0  0  0  0  0  0  0  0  0  0  0
   -8.7120    6.5270  -12.5970 C   0  0  0  0  0  0  0  0  0  0  0  0
   -8.6690    7.4710  -11.3830 C   0  0  0  0  0  0  0  0  0  0  0  0
   -8.7690    6.3770  -10.2630 C   0  0  0  0  0  0  0  0  0  0  0  0
   -8.8660    4.9960  -10.3590 C   0  0  0  0  0  0  0  0  0  0  0  0
   -8.9310    4.2900   -9.1770 N   0  0  0  0  0  0  0  0  0  0  0  0
   -9.0380    2.8470   -9.2130 C   0  0  0  0  0  0  0  0  0  0  0  0
   -9.7530    2.4670   -7.9250 C   0  0  0  0  0  0  0  0  0  0  0  0
   -9.2070    3.1870   -6.6830 C   0  0  0  0  0  0  0  0  0  0  0  0
   -8.8180    4.5230   -6.8350 C   0  0  0  0  0  0  0  0  0  0  0  0
   -8.0570    4.7680   -8.1160 C   0  0  0  0  0  0  0  0  0  0  0  0
   -8.8970    4.3770  -11.5660 C   0  0  0  0  0  0  0  0  0  0  0  0
   -8.8190    5.1440  -12.6760 C   0  0  0  0  0  0  0  0  0  0  0  0
   -6.7830    6.1860  -14.2130 H   0  0  0  0  0  0  0  0  0  0  0  0
  -10.0040    5.6310  -15.8370 H   0  0  0  0  0  0  0  0  0  0  0  0
  -11.4160    4.4930  -17.6680 H   0  0  0  0  0  0  0  0  0  0  0  0
  -10.9950    5.3580  -19.1610 H   0  0  0  0  0  0  0  0  0  0  0  0
  -10.4320    3.7040  -18.8700 H   0  0  0  0  0  0  0  0  0  0  0  0
   -8.4540    4.5340  -19.7150 H   0  0  0  0  0  0  0  0  0  0  0  0
   -6.0690    5.1340  -19.0270 H   0  0  0  0  0  0  0  0  0  0  0  0
   -8.5860    8.5510  -11.3250 H   0  0  0  0  0  0  0  0  0  0  0  0
   -8.7560    6.7730   -9.2510 H   0  0  0  0  0  0  0  0  0  0  0  0
   -8.0520    2.3650   -9.2290 H   0  0  0  0  0  0  0  0  0  0  0  0
   -9.6210    2.5070  -10.0830 H   0  0  0  0  0  0  0  0  0  0  0  0
   -9.6700    1.3900   -7.7740 H   0  0  0  0  0  0  0  0  0  0  0  0
  -10.8170    2.6830   -8.0240 H   0  0  0  0  0  0  0  0  0  0  0  0
   -8.3700    2.6120   -6.2690 H   0  0  0  0  0  0  0  0  0  0  0  0
  -10.0040    3.1960   -5.9390 H   0  0  0  0  0  0  0  0  0  0  0  0
   -9.7050    5.1660   -6.8020 H   0  0  0  0  0  0  0  0  0  0  0  0
   -8.1880    4.8070   -5.9820 H   0  0  0  0  0  0  0  0  0  0  0  0
   -7.1180    4.2030   -8.1140 H   0  0  0  0  0  0  0  0  0  0  0  0
   -7.8400    5.8360   -8.1900 H   0  0  0  0  0  0  0  0  0  0  0  0
   -8.9770    3.3010  -11.6740 H   0  0  0  0  0  0  0  0  0  0  0  0
   -8.8370    4.6570  -13.6490 H   0  0  0  0  0  0  0  0  0  0  0  0
  1  2  1  0
  2  3  1  0
  3  4  2  0
  4  5  1  0
  5  6  1  0
  5  7  2  0
  7  8  1  0
  8  9  2  0
  9 10  1  0
  1 11  2  0
  1 12  1  0
 12 13  2  0
 13 14  1  0
 14 15  2  0
 15 16  1  0
 16 17  1  0
 17 18  1  0
 18 19  1  0
 19 20  1  0
 20 21  1  0
 15 22  1  0
 22 23  2  0
  3  9  1  0
 23 12  1  0
 21 16  1  0
  2 24  1  0
  4 25  1  0
  6 26  1  0
  6 27  1  0
  6 28  1  0
  7 29  1  0
  8 30  1  0
 13 31  1  0
 14 32  1  0
 17 33  1  0
 17 34  1  0
 18 35  1  0
 18 36  1  0
 19 37  1  0
 19 38  1  0
 20 39  1  0
 20 40  1  0
 21 41  1  0
 21 42  1  0
 22 43  1  0
 23 44  1  0
A    1
 C1 
A    2
 N1 
A    3
 C2 
A    4
 C3 
A    5
 C4 
A    6
 C5 
A    7
 C6 
A    8
 C7 
A    9
 C8 
A   10
 F1 
A   11
 O1 
A   12
 C9 
A   13
 C10
A   14
 C11
A   15
 C12
A   16
 N2 
A   17
 C13
A   18
 C14
A   19
 C15
A   20
 C16
A   21
 C17
A   22
 C18
A   23
 C19
A   24
 H1 
A   25
 H2 
A   26
 H3 
A   27
 H4 
A   28
 H5 
A   29
 H6 
A   30
 H7 
A   31
 H8 
A   32
 H9 
A   33
 H10
A   34
 H11
A   35
 H12
A   36
 H13
A   37
 H14
A   38
 H15
A   39
 H16
A   40
 H17
A   41
 H18
A   42
 H19
A   43
 H20
A   44
 H21
M  END
>  <ref_pdb>  (138) 
x0051_0B

>  <ref_mols>  (138) 
x0553_0B,x0404_0B

>  <original SMILES>  (138) 
[H]c1c([H])c(C([H])([H])[H])c([H])c(N([H])C(=O)c2c([H])c([H])c(N3C([H])([H])C([H])([H])C([H])([H])C([H])([H])C3([H])[H])c([H])c2[H])c1F

>  <index>  (138) 
114

>  <∆∆G>  (138) 
-8.046694

>  <∆G_bound>  (138) 
-7.6921

>  <∆G_unbound>  (138) 
0.354594

>  <comRMSD>  (138) 
0.650412

>  <N_constrained_atoms>  (138) 
24.0

>  <N_unconstrained_atoms>  (138) 
0.0

>  <runtime>  (138) 
68.561547

>  <LE>  (138) 
0.335279

>  <percent_hybrid>  (138) 
38.0

>  <dist>  (138) 
8.0

>  <ecfp4>  (138) 
0.2

>  <daylight>  (138) 
0.19697

>  <topodist>  (138) 
3.0

>  <mces>  (138) 
25.0

>  <tdn>  (138) 
2.0

>  <tup>  (138) 
0.0

>  <rdn>  (138) 
0.0

>  <rup>  (138) 
0.0

>  <ldn>  (138) 
1.0

>  <lup>  (138) 
0.0

>  <mut>  (138) 
3.0

>  <maj>  (138) 
3.0

>  <min>  (138) 
0.0

>  <hyb>  (138) 
2.0

>  <sub>  (138) 
0.0

>  <query_index>  (138) 
112.0

>  <max_hit_Tanimoto>  (138) 
0.249271

>  <largest_ring>  (138) 
0

>  <N_interactions_kept>  (138) 
2.0

>  <N_interactions_lost>  (138) 
1.5

>  <interaction_uniqueness_metric>  (138) 
0.116545

>  <ad_hoc_penalty>  (138) 
-26.556686

>  <N_rotatable_bonds>  (138) 
4

>  <N_HA>  (138) 
23

>  <cluster>  (138) 
6112

>  <N_interactions>  (138) 
6

>  <Enamine>  (138) 
0

>  <Mcule>  (138) 
1

>  <N_PAINS>  (138) 
0

>  <UFF_Gibbs>  (138) 
183.161915

>  <strain_per_HA>  (138) 
7.963562

>  <saltbridge:HIS:51>  (138) 
0

>  <pistack:HIS:51>  (138) 
1

>  <hydroph_interaction:HIS:51>  (138) 
1

>  <hbond:ALA:132>  (138) 
0

>  <hbond:SER:135>  (138) 
0

>  <hydroph_interaction:TYR:150>  (138) 
1

>  <pistack:TYR:161>  (138) 
0

>  <hydroph_interaction:TYR:161>  (138) 
2

>  <hydroph_interaction:ASP:83>  (138) 
0

>  <hbond:TYR:130>  (138) 
0

>  <hydroph_interaction:ALA:132>  (138) 
1

>  <hbond:HIS:51>  (138) 
0

>  <hbond:ASP:129>  (138) 
0

>  <hbond:TYR:150>  (138) 
0

>  <hbond:GLY:151>  (138) 
0

>  <hbond:TYR:161>  (138) 
0

>  <hydroph_interaction:TYR:130>  (138) 
0

>  <hydroph_interaction:PRO:131>  (138) 
0

>  <hydroph_interaction:ASP:129>  (138) 
0

>  <saltbridge:ASP:75>  (138) 
0

>  <saltbridge:ASP:83>  (138) 
0

>  <hydroph_interaction:ASN:152>  (138) 
0

>  <halogenbond:TYR:150>  (138) 
0

>  <hbond:ASP:83>  (138) 
0

>  <hydroph_interaction:VAL:155>  (138) 
0

>  <pication:TYR:161>  (138) 
0

>  <hbond:PRO:131>  (138) 
0

>  <hbond:LEU:128>  (138) 
0

>  <saltbridge:ASP:129>  (138) 
0

>  <hbond:THR:134>  (138) 
0

>  <pication:HIS:51>  (138) 
0

>  <hbond:SER:81>  (138) 
0

>  <hbond:GLY:159>  (138) 
0

>  <hydroph_interaction:PRO:101>  (138) 
0

>  <hydroph_interaction:THR:134>  (138) 
0

>  <hbond:GLY:82>  (138) 
0

>  <hydroph_interaction:GLU:104>  (138) 
0

>  <hydroph_interaction:VAL:36>  (138) 
0

>  <hydroph_interaction:MET:49>  (138) 
0

>  <halogenbond:GLU:104>  (138) 
0

>  <hydroph_interaction:LYS:107>  (138) 
0

$$$$
CSSB00000084719
     RDKit          3D

 18 19  0  0  0  0  0  0  0  0999 V2000
  -10.4570    4.7620  -18.3230 S   0  0  0  0  0  0  0  0  0  0  0  0
   -9.7270    4.9900  -16.7720 C   0  0  0  0  0  0  0  0  0  0  0  0
   -8.3710    5.1720  -16.8280 C   0  0  0  0  0  0  0  0  0  0  0  0
   -7.8760    5.1300  -18.0980 C   0  0  0  0  0  0  0  0  0  0  0  0
   -8.9370    4.8950  -19.1150 C   0  0  0  0  0  0  0  0  0  0  0  0
   -6.4540    5.2690  -18.6130 C   0  0  0  0  0  0  0  0  0  0  0  0
   -5.3640    5.2730  -17.7390 C   0  0  0  0  0  0  0  0  0  0  0  0
   -4.0610    5.3810  -18.2180 C   0  0  0  0  0  0  0  0  0  0  0  0
   -3.8360    5.5000  -19.7070 C   0  0  0  0  0  0  0  0  0  0  0  0
   -4.8390    5.5080  -20.6010 N   0  0  0  0  0  0  0  0  0  0  0  0
   -6.0960    5.3990  -20.1090 C   0  0  0  0  0  0  0  0  0  0  0  0
  -10.2140    5.0040  -15.7930 H   0  0  0  0  0  0  0  0  0  0  0  0
   -7.8730    5.3200  -15.8660 H   0  0  0  0  0  0  0  0  0  0  0  0
   -8.7870    4.8190  -20.1900 H   0  0  0  0  0  0  0  0  0  0  0  0
   -5.5200    5.1860  -16.6640 H   0  0  0  0  0  0  0  0  0  0  0  0
   -3.2180    5.3810  -17.5360 H   0  0  0  0  0  0  0  0  0  0  0  0
   -2.8350    5.5850  -20.1230 H   0  0  0  0  0  0  0  0  0  0  0  0
   -6.8690    5.4070  -20.8740 H   0  0  0  0  0  0  0  0  0  0  0  0
  1  2  1  0
  2  3  2  0
  3  4  1  0
  4  5  2  0
  4  6  1  0
  6  7  2  0
  7  8  1  0
  8  9  2  0
  9 10  1  0
 10 11  2  0
  5  1  1  0
 11  6  1  0
  2 12  1  0
  3 13  1  0
  5 14  1  0
  7 15  1  0
  8 16  1  0
  9 17  1  0
 11 18  1  0
A    1
 S1 
A    2
 C1 
A    3
 C2 
A    4
 C3 
A    5
 C4 
A    6
 C5 
A    7
 C6 
A    8
 C7 
A    9
 C8 
A   10
 N1 
A   11
 C9 
A   12
 H1 
A   13
 H2 
A   14
 H3 
A   15
 H4 
A   16
 H5 
A   17
 H6 
A   18
 H7 
M  END
>  <ref_pdb>  (139) 
x0051_0B

>  <ref_mols>  (139) 
x0680_0B,x0386_0B

>  <original SMILES>  (139) 
[H]c1nc([H])c(-c2c([H])sc([H])c2[H])c([H])c1[H]

>  <index>  (139) 
202

>  <∆∆G>  (139) 
-6.555143

>  <∆G_bound>  (139) 
-6.587405

>  <∆G_unbound>  (139) 
-0.032262

>  <comRMSD>  (139) 
0.662042

>  <N_constrained_atoms>  (139) 
13.0

>  <N_unconstrained_atoms>  (139) 
0.0

>  <runtime>  (139) 
20.755409

>  <LE>  (139) 
0.504242

>  <percent_hybrid>  (139) 
25.0

>  <dist>  (139) 
3.0

>  <ecfp4>  (139) 
0.2

>  <daylight>  (139) 
0.30597

>  <topodist>  (139) 
1.0

>  <mces>  (139) 
12.0

>  <tdn>  (139) 
1.0

>  <tup>  (139) 
0.0

>  <rdn>  (139) 
0.0

>  <rup>  (139) 
0.0

>  <ldn>  (139) 
0.0

>  <lup>  (139) 
0.0

>  <mut>  (139) 
2.0

>  <maj>  (139) 
1.0

>  <min>  (139) 
1.0

>  <hyb>  (139) 
0.0

>  <sub>  (139) 
1.0

>  <query_index>  (139) 
296.0

>  <max_hit_Tanimoto>  (139) 
0.141962

>  <largest_ring>  (139) 
0

>  <N_interactions_kept>  (139) 
3.5

>  <N_interactions_lost>  (139) 
0.5

>  <interaction_uniqueness_metric>  (139) 
0.016266

>  <ad_hoc_penalty>  (139) 
-26.554507

>  <N_rotatable_bonds>  (139) 
1

>  <N_HA>  (139) 
11

>  <cluster>  (139) 
6035

>  <N_interactions>  (139) 
3

>  <Enamine>  (139) 
1

>  <Mcule>  (139) 
0

>  <N_PAINS>  (139) 
0

>  <UFF_Gibbs>  (139) 
34.960188

>  <strain_per_HA>  (139) 
3.178199

>  <saltbridge:HIS:51>  (139) 
0

>  <pistack:HIS:51>  (139) 
0

>  <hydroph_interaction:HIS:51>  (139) 
0

>  <hbond:ALA:132>  (139) 
0

>  <hbond:SER:135>  (139) 
0

>  <hydroph_interaction:TYR:150>  (139) 
0

>  <pistack:TYR:161>  (139) 
0

>  <hydroph_interaction:TYR:161>  (139) 
3

>  <hydroph_interaction:ASP:83>  (139) 
0

>  <hbond:TYR:130>  (139) 
0

>  <hydroph_interaction:ALA:132>  (139) 
0

>  <hbond:HIS:51>  (139) 
0

>  <hbond:ASP:129>  (139) 
0

>  <hbond:TYR:150>  (139) 
0

>  <hbond:GLY:151>  (139) 
0

>  <hbond:TYR:161>  (139) 
0

>  <hydroph_interaction:TYR:130>  (139) 
0

>  <hydroph_interaction:PRO:131>  (139) 
0

>  <hydroph_interaction:ASP:129>  (139) 
0

>  <saltbridge:ASP:75>  (139) 
0

>  <saltbridge:ASP:83>  (139) 
0

>  <hydroph_interaction:ASN:152>  (139) 
0

>  <halogenbond:TYR:150>  (139) 
0

>  <hbond:ASP:83>  (139) 
0

>  <hydroph_interaction:VAL:155>  (139) 
0

>  <pication:TYR:161>  (139) 
0

>  <hbond:PRO:131>  (139) 
0

>  <hbond:LEU:128>  (139) 
0

>  <saltbridge:ASP:129>  (139) 
0

>  <hbond:THR:134>  (139) 
0

>  <pication:HIS:51>  (139) 
0

>  <hbond:SER:81>  (139) 
0

>  <hbond:GLY:159>  (139) 
0

>  <hydroph_interaction:PRO:101>  (139) 
0

>  <hydroph_interaction:THR:134>  (139) 
0

>  <hbond:GLY:82>  (139) 
0

>  <hydroph_interaction:GLU:104>  (139) 
0

>  <hydroph_interaction:VAL:36>  (139) 
0

>  <hydroph_interaction:MET:49>  (139) 
0

>  <halogenbond:GLU:104>  (139) 
0

>  <hydroph_interaction:LYS:107>  (139) 
0

$$$$
Z2852286466
     RDKit          3D

 39 41  0  0  0  0  0  0  0  0999 V2000
   -8.9560    4.6190  -19.5670 C   0  0  0  0  0  0  0  0  0  0  0  0
   -8.4970    4.9320  -18.3020 C   0  0  0  0  0  0  0  0  0  0  0  0
   -9.3890    4.8990  -17.2420 C   0  0  0  0  0  0  0  0  0  0  0  0
   -8.9030    5.2140  -15.9780 C   0  0  0  0  0  0  0  0  0  0  0  0
   -9.7310    5.2080  -14.8210 N   0  0  0  0  0  0  0  0  0  0  0  0
   -9.2770    5.9500  -13.6070 C   0  0  0  0  0  0  0  0  0  0  0  0
   -8.8920    5.0760  -12.4300 C   0  0  0  0  0  0  0  0  0  0  0  0
   -8.8910    5.3220  -11.0340 C   0  0  0  0  0  0  0  0  0  0  0  0
   -8.9640    4.3900   -9.9130 C   0  0  0  0  0  0  0  0  0  0  0  0
   -9.0530    3.0350  -10.1340 C   0  0  0  0  0  0  0  0  0  0  0  0
   -9.4800    2.2460   -8.9340 C   0  0  0  0  0  0  0  0  0  0  0  0
   -9.5460    2.9240   -7.5550 C   0  0  0  0  0  0  0  0  0  0  0  0
   -8.9860    4.3450   -7.4510 C   0  0  0  0  0  0  0  0  0  0  0  0
   -8.9330    4.9970   -8.7350 N   0  0  0  0  0  0  0  0  0  0  0  0
   -8.8390    6.3480   -8.8960 N   0  0  0  0  0  0  0  0  0  0  0  0
   -8.8180    6.5150  -10.2510 C   0  0  0  0  0  0  0  0  0  0  0  0
   -7.5650    5.5400  -15.8400 C   0  0  0  0  0  0  0  0  0  0  0  0
   -6.7530    5.5470  -16.9620 C   0  0  0  0  0  0  0  0  0  0  0  0
   -7.1920    5.2510  -18.1900 N   0  0  0  0  0  0  0  0  0  0  0  0
   -9.7860    5.2710  -19.8550 H   0  0  0  0  0  0  0  0  0  0  0  0
   -9.3230    3.5940  -19.5610 H   0  0  0  0  0  0  0  0  0  0  0  0
   -8.1670    4.7370  -20.3190 H   0  0  0  0  0  0  0  0  0  0  0  0
  -10.4210    4.6350  -17.4060 H   0  0  0  0  0  0  0  0  0  0  0  0
   -9.9360    4.2280  -14.6180 H   0  0  0  0  0  0  0  0  0  0  0  0
  -10.0790    6.6240  -13.2790 H   0  0  0  0  0  0  0  0  0  0  0  0
   -8.4130    6.5850  -13.8500 H   0  0  0  0  0  0  0  0  0  0  0  0
   -7.8670    4.7480  -12.6500 H   0  0  0  0  0  0  0  0  0  0  0  0
   -9.4920    4.1610  -12.5530 H   0  0  0  0  0  0  0  0  0  0  0  0
   -9.7810    2.8640  -10.9380 H   0  0  0  0  0  0  0  0  0  0  0  0
   -8.0910    2.6640  -10.5020 H   0  0  0  0  0  0  0  0  0  0  0  0
   -8.7670    1.4230   -8.8540 H   0  0  0  0  0  0  0  0  0  0  0  0
  -10.4290    1.7690   -9.0250 H   0  0  0  0  0  0  0  0  0  0  0  0
  -10.5930    2.9390   -7.2270 H   0  0  0  0  0  0  0  0  0  0  0  0
   -8.9730    2.3190   -6.8470 H   0  0  0  0  0  0  0  0  0  0  0  0
   -9.6720    4.9280   -6.8250 H   0  0  0  0  0  0  0  0  0  0  0  0
   -7.9840    4.4600   -7.0380 H   0  0  0  0  0  0  0  0  0  0  0  0
   -8.7430    7.5770  -10.5120 H   0  0  0  0  0  0  0  0  0  0  0  0
   -7.1450    5.7900  -14.8760 H   0  0  0  0  0  0  0  0  0  0  0  0
   -5.7000    5.8000  -16.8890 H   0  0  0  0  0  0  0  0  0  0  0  0
  1  2  1  0
  2  3  2  0
  3  4  1  0
  4  5  1  0
  5  6  1  0
  6  7  1  0
  7  8  1  0
  8  9  2  0
  9 10  1  0
 10 11  1  0
 11 12  1  0
 12 13  1  0
 13 14  1  0
 14 15  1  0
 15 16  2  0
  4 17  2  0
 17 18  1  0
 18 19  2  0
 19  2  1  0
 16  8  1  0
 14  9  1  0
  1 20  1  0
  1 21  1  0
  1 22  1  0
  3 23  1  0
  5 24  1  0
  6 25  1  0
  6 26  1  0
  7 27  1  0
  7 28  1  0
 10 29  1  0
 10 30  1  0
 11 31  1  0
 11 32  1  0
 12 33  1  0
 12 34  1  0
 13 35  1  0
 13 36  1  0
 16 37  1  0
 17 38  1  0
 18 39  1  0
A    1
 C1 
A    2
 C2 
A    3
 C3 
A    4
 C4 
A    5
 N1 
A    6
 C5 
A    7
 C6 
A    8
 C7 
A    9
 C8 
A   10
 C9 
A   11
 C10
A   12
 C11
A   13
 C12
A   14
 N2 
A   15
 N3 
A   16
 C13
A   17
 C14
A   18
 C15
A   19
 N4 
A   20
 H1 
A   21
 H2 
A   22
 H3 
A   23
 H4 
A   24
 H5 
A   25
 H6 
A   26
 H7 
A   27
 H8 
A   28
 H9 
A   29
 H10
A   30
 H11
A   31
 H12
A   32
 H13
A   33
 H14
A   34
 H15
A   35
 H16
A   36
 H17
A   37
 H18
A   38
 H19
A   39
 H20
M  END
>  <ref_pdb>  (140) 
x0051_0B

>  <ref_mols>  (140) 
x0589_0B,x0969_1B

>  <original SMILES>  (140) 
[H]c1nc(C([H])([H])[H])c([H])c(N([H])C([H])([H])C([H])([H])c2c([H])nn3c2C([H])([H])C([H])([H])C([H])([H])C3([H])[H])c1[H]

>  <index>  (140) 
184

>  <∆∆G>  (140) 
-7.096028

>  <∆G_bound>  (140) 
-6.532931

>  <∆G_unbound>  (140) 
0.563097

>  <comRMSD>  (140) 
0.693508

>  <N_constrained_atoms>  (140) 
17.0

>  <N_unconstrained_atoms>  (140) 
3.0

>  <runtime>  (140) 
65.79724

>  <LE>  (140) 
0.354801

>  <percent_hybrid>  (140) 
42.0

>  <dist>  (140) 
4.0

>  <ecfp4>  (140) 
0.319444

>  <daylight>  (140) 
0.276364

>  <topodist>  (140) 
1.0

>  <mces>  (140) 
21.0

>  <tdn>  (140) 
1.0

>  <tup>  (140) 
0.0

>  <rdn>  (140) 
0.0

>  <rup>  (140) 
0.0

>  <ldn>  (140) 
0.0

>  <lup>  (140) 
0.0

>  <mut>  (140) 
3.0

>  <maj>  (140) 
3.0

>  <min>  (140) 
0.0

>  <hyb>  (140) 
0.0

>  <sub>  (140) 
1.0

>  <query_index>  (140) 
379.0

>  <max_hit_Tanimoto>  (140) 
0.346636

>  <largest_ring>  (140) 
0

>  <N_interactions_kept>  (140) 
1.0

>  <N_interactions_lost>  (140) 
1.5

>  <interaction_uniqueness_metric>  (140) 
0.171488

>  <ad_hoc_penalty>  (140) 
-26.494572

>  <N_rotatable_bonds>  (140) 
5

>  <N_HA>  (140) 
19

>  <cluster>  (140) 
6052

>  <N_interactions>  (140) 
7

>  <Enamine>  (140) 
1

>  <Mcule>  (140) 
0

>  <N_PAINS>  (140) 
0

>  <UFF_Gibbs>  (140) 
103.928307

>  <strain_per_HA>  (140) 
5.469911

>  <saltbridge:HIS:51>  (140) 
0

>  <pistack:HIS:51>  (140) 
1

>  <hydroph_interaction:HIS:51>  (140) 
1

>  <hbond:ALA:132>  (140) 
0

>  <hbond:SER:135>  (140) 
2

>  <hydroph_interaction:TYR:150>  (140) 
1

>  <pistack:TYR:161>  (140) 
1

>  <hydroph_interaction:TYR:161>  (140) 
1

>  <hydroph_interaction:ASP:83>  (140) 
0

>  <hbond:TYR:130>  (140) 
0

>  <hydroph_interaction:ALA:132>  (140) 
0

>  <hbond:HIS:51>  (140) 
0

>  <hbond:ASP:129>  (140) 
0

>  <hbond:TYR:150>  (140) 
0

>  <hbond:GLY:151>  (140) 
0

>  <hbond:TYR:161>  (140) 
0

>  <hydroph_interaction:TYR:130>  (140) 
0

>  <hydroph_interaction:PRO:131>  (140) 
0

>  <hydroph_interaction:ASP:129>  (140) 
0

>  <saltbridge:ASP:75>  (140) 
0

>  <saltbridge:ASP:83>  (140) 
0

>  <hydroph_interaction:ASN:152>  (140) 
0

>  <halogenbond:TYR:150>  (140) 
0

>  <hbond:ASP:83>  (140) 
0

>  <hydroph_interaction:VAL:155>  (140) 
0

>  <pication:TYR:161>  (140) 
0

>  <hbond:PRO:131>  (140) 
0

>  <hbond:LEU:128>  (140) 
0

>  <saltbridge:ASP:129>  (140) 
0

>  <hbond:THR:134>  (140) 
0

>  <pication:HIS:51>  (140) 
0

>  <hbond:SER:81>  (140) 
0

>  <hbond:GLY:159>  (140) 
0

>  <hydroph_interaction:PRO:101>  (140) 
0

>  <hydroph_interaction:THR:134>  (140) 
0

>  <hbond:GLY:82>  (140) 
0

>  <hydroph_interaction:GLU:104>  (140) 
0

>  <hydroph_interaction:VAL:36>  (140) 
0

>  <hydroph_interaction:MET:49>  (140) 
0

>  <halogenbond:GLU:104>  (140) 
0

>  <hydroph_interaction:LYS:107>  (140) 
0

$$$$
MCULE-6226986063
     RDKit          3D

 37 39  0  0  0  0  0  0  0  0999 V2000
  -11.0300    6.9040  -14.3670 O   0  0  0  0  0  0  0  0  0  0  0  0
  -10.1590    7.5000  -13.7650 C   0  0  0  0  0  0  0  0  0  0  0  0
   -8.9560    6.8960  -13.4130 N   0  0  0  0  0  0  0  0  0  0  0  0
   -8.6620    5.5260  -13.8260 C   0  0  0  0  0  0  0  0  0  0  0  0
   -7.8810    5.5850  -14.9920 C   0  0  0  0  0  0  0  0  0  0  0  0
   -8.3090    5.2730  -16.2680 N   0  0  0  0  0  0  0  0  0  0  0  0
   -7.2170    5.4830  -17.0990 C   0  0  0  0  0  0  0  0  0  0  0  0
   -7.3770    5.2500  -18.4850 C   0  0  0  0  0  0  0  0  0  0  0  0
   -8.6060    4.8180  -19.0120 C   0  0  0  0  0  0  0  0  0  0  0  0
   -9.6550    4.6210  -18.1290 C   0  0  0  0  0  0  0  0  0  0  0  0
   -9.5140    4.8420  -16.7730 C   0  0  0  0  0  0  0  0  0  0  0  0
   -6.1990    5.8850  -16.3720 N   0  0  0  0  0  0  0  0  0  0  0  0
   -6.6100    5.9490  -15.0590 N   0  0  0  0  0  0  0  0  0  0  0  0
  -10.3060    8.9550  -13.3640 C   0  0  0  0  0  0  0  0  0  0  0  0
  -11.5580    9.4610  -13.7530 C   0  0  0  0  0  0  0  0  0  0  0  0
  -11.6860   10.8360  -14.0160 C   0  0  0  0  0  0  0  0  0  0  0  0
  -12.0350   11.7980  -12.9170 C   0  0  0  0  0  0  0  0  0  0  0  0
  -12.1430   13.1500  -13.2710 C   0  0  0  0  0  0  0  0  0  0  0  0
  -11.9390   13.5850  -14.5810 C   0  0  0  0  0  0  0  0  0  0  0  0
  -11.6170   12.6830  -15.5940 C   0  0  0  0  0  0  0  0  0  0  0  0
  -11.4920   11.3240  -15.3100 C   0  0  0  0  0  0  0  0  0  0  0  0
   -8.1650    7.4810  -13.1780 H   0  0  0  0  0  0  0  0  0  0  0  0
   -9.5910    4.9410  -13.8440 H   0  0  0  0  0  0  0  0  0  0  0  0
   -8.0500    5.1000  -13.0250 H   0  0  0  0  0  0  0  0  0  0  0  0
   -6.5290    5.4140  -19.1470 H   0  0  0  0  0  0  0  0  0  0  0  0
   -8.7240    4.6450  -20.0780 H   0  0  0  0  0  0  0  0  0  0  0  0
  -10.6200    4.2810  -18.5100 H   0  0  0  0  0  0  0  0  0  0  0  0
  -10.3950    4.6510  -16.1600 H   0  0  0  0  0  0  0  0  0  0  0  0
   -9.5010    9.5220  -13.8440 H   0  0  0  0  0  0  0  0  0  0  0  0
  -10.1830    9.0330  -12.2770 H   0  0  0  0  0  0  0  0  0  0  0  0
  -11.8830    8.8980  -14.6370 H   0  0  0  0  0  0  0  0  0  0  0  0
  -12.2840    9.2090  -12.9710 H   0  0  0  0  0  0  0  0  0  0  0  0
  -12.1990   11.4740  -11.8920 H   0  0  0  0  0  0  0  0  0  0  0  0
  -12.3930   13.8780  -12.5080 H   0  0  0  0  0  0  0  0  0  0  0  0
  -12.0340   14.6420  -14.8140 H   0  0  0  0  0  0  0  0  0  0  0  0
  -11.4650   13.0430  -16.6090 H   0  0  0  0  0  0  0  0  0  0  0  0
  -11.2400   10.6440  -16.1110 H   0  0  0  0  0  0  0  0  0  0  0  0
  1  2  2  0
  2  3  1  0
  3  4  1  0
  4  5  1  0
  5  6  1  0
  6  7  1  0
  7  8  1  0
  8  9  2  0
  9 10  1  0
 10 11  2  0
  7 12  2  0
 12 13  1  0
  2 14  1  0
 14 15  1  0
 15 16  1  0
 16 17  2  0
 17 18  1  0
 18 19  2  0
 19 20  1  0
 20 21  2  0
  5 13  2  0
 11  6  1  0
 21 16  1  0
  3 22  1  0
  4 23  1  0
  4 24  1  0
  8 25  1  0
  9 26  1  0
 10 27  1  0
 11 28  1  0
 14 29  1  0
 14 30  1  0
 15 31  1  0
 15 32  1  0
 17 33  1  0
 18 34  1  0
 19 35  1  0
 20 36  1  0
 21 37  1  0
A    1
 O1 
A    2
 C1 
A    3
 N1 
A    4
 C2 
A    5
 C3 
A    6
 N2 
A    7
 C4 
A    8
 C5 
A    9
 C6 
A   10
 C7 
A   11
 C8 
A   12
 N3 
A   13
 N4 
A   14
 C9 
A   15
 C10
A   16
 C11
A   17
 C12
A   18
 C13
A   19
 C14
A   20
 C15
A   21
 C16
A   22
 H1 
A   23
 H2 
A   24
 H3 
A   25
 H4 
A   26
 H5 
A   27
 H6 
A   28
 H7 
A   29
 H8 
A   30
 H9 
A   31
 H10
A   32
 H11
A   33
 H12
A   34
 H13
A   35
 H14
A   36
 H15
A   37
 H16
M  END
>  <ref_pdb>  (141) 
x0051_0B

>  <ref_mols>  (141) 
x0951_0B,x0969_1B

>  <original SMILES>  (141) 
[H]c1c([H])c([H])c(C([H])([H])C([H])([H])C(=O)N([H])C([H])([H])c2nnc3c([H])c([H])c([H])c([H])n23)c([H])c1[H]

>  <index>  (141) 
412

>  <∆∆G>  (141) 
-5.976038

>  <∆G_bound>  (141) 
-4.831893

>  <∆G_unbound>  (141) 
1.144145

>  <comRMSD>  (141) 
0.451754

>  <N_constrained_atoms>  (141) 
13.0

>  <N_unconstrained_atoms>  (141) 
9.0

>  <runtime>  (141) 
62.022823

>  <LE>  (141) 
0.271638

>  <percent_hybrid>  (141) 
8.0

>  <dist>  (141) 
10.0

>  <ecfp4>  (141) 
0.318841

>  <daylight>  (141) 
0.434426

>  <topodist>  (141) 
3.0

>  <mces>  (141) 
22.0

>  <tdn>  (141) 
1.0

>  <tup>  (141) 
1.0

>  <rdn>  (141) 
1.0

>  <rup>  (141) 
0.0

>  <ldn>  (141) 
0.0

>  <lup>  (141) 
0.0

>  <mut>  (141) 
3.0

>  <maj>  (141) 
3.0

>  <min>  (141) 
0.0

>  <hyb>  (141) 
4.0

>  <sub>  (141) 
2.0

>  <query_index>  (141) 
201.0

>  <max_hit_Tanimoto>  (141) 
0.732673

>  <largest_ring>  (141) 
0

>  <N_interactions_kept>  (141) 
1.5

>  <N_interactions_lost>  (141) 
1.5

>  <interaction_uniqueness_metric>  (141) 
0.603885

>  <ad_hoc_penalty>  (141) 
-26.422359

>  <N_rotatable_bonds>  (141) 
5

>  <N_HA>  (141) 
21

>  <cluster>  (141) 
5843

>  <N_interactions>  (141) 
6

>  <Enamine>  (141) 
0

>  <Mcule>  (141) 
1

>  <N_PAINS>  (141) 
0

>  <UFF_Gibbs>  (141) 
50.738551

>  <strain_per_HA>  (141) 
2.416121

>  <saltbridge:HIS:51>  (141) 
0

>  <pistack:HIS:51>  (141) 
0

>  <hydroph_interaction:HIS:51>  (141) 
0

>  <hbond:ALA:132>  (141) 
0

>  <hbond:SER:135>  (141) 
1

>  <hydroph_interaction:TYR:150>  (141) 
1

>  <pistack:TYR:161>  (141) 
2

>  <hydroph_interaction:TYR:161>  (141) 
0

>  <hydroph_interaction:ASP:83>  (141) 
0

>  <hbond:TYR:130>  (141) 
0

>  <hydroph_interaction:ALA:132>  (141) 
1

>  <hbond:HIS:51>  (141) 
0

>  <hbond:ASP:129>  (141) 
0

>  <hbond:TYR:150>  (141) 
0

>  <hbond:GLY:151>  (141) 
0

>  <hbond:TYR:161>  (141) 
0

>  <hydroph_interaction:TYR:130>  (141) 
0

>  <hydroph_interaction:PRO:131>  (141) 
0

>  <hydroph_interaction:ASP:129>  (141) 
0

>  <saltbridge:ASP:75>  (141) 
0

>  <saltbridge:ASP:83>  (141) 
0

>  <hydroph_interaction:ASN:152>  (141) 
0

>  <halogenbond:TYR:150>  (141) 
0

>  <hbond:ASP:83>  (141) 
0

>  <hydroph_interaction:VAL:155>  (141) 
0

>  <pication:TYR:161>  (141) 
0

>  <hbond:PRO:131>  (141) 
0

>  <hbond:LEU:128>  (141) 
0

>  <saltbridge:ASP:129>  (141) 
0

>  <hbond:THR:134>  (141) 
0

>  <pication:HIS:51>  (141) 
0

>  <hbond:SER:81>  (141) 
0

>  <hbond:GLY:159>  (141) 
0

>  <hydroph_interaction:PRO:101>  (141) 
0

>  <hydroph_interaction:THR:134>  (141) 
0

>  <hbond:GLY:82>  (141) 
0

>  <hydroph_interaction:GLU:104>  (141) 
0

>  <hydroph_interaction:VAL:36>  (141) 
1

>  <hydroph_interaction:MET:49>  (141) 
0

>  <halogenbond:GLU:104>  (141) 
0

>  <hydroph_interaction:LYS:107>  (141) 
0

$$$$
VNTBPADOZCBHDG-UHFFFAOYSA-N
     RDKit          3D

 47 50  0  0  0  0  0  0  0  0999 V2000
   -9.6970    6.0670  -12.9300 N   0  0  0  0  0  0  0  0  0  0  0  0
   -9.9080    5.0280  -13.9780 C   0  0  0  0  0  0  0  0  0  0  0  0
   -9.1450    5.2230  -15.2310 C   0  0  0  0  0  0  0  0  0  0  0  0
   -9.6880    4.8300  -16.6230 C   0  0  0  0  0  0  0  0  0  0  0  0
   -8.8440    5.0700  -17.8310 C   0  0  0  0  0  0  0  0  0  0  0  0
   -7.4970    5.7090  -17.5470 C   0  0  0  0  0  0  0  0  0  0  0  0
   -6.5590    6.0400  -18.7030 C   0  0  0  0  0  0  0  0  0  0  0  0
   -5.3560    5.1790  -18.2960 C   0  0  0  0  0  0  0  0  0  0  0  0
   -4.2810    5.3980  -19.3660 C   0  0  0  0  0  0  0  0  0  0  0  0
   -4.5050    6.3230  -20.5490 C   0  0  0  0  0  0  0  0  0  0  0  0
   -5.8110    7.0780  -20.7220 C   0  0  0  0  0  0  0  0  0  0  0  0
   -6.7680    6.8830  -19.7730 C   0  0  0  0  0  0  0  0  0  0  0  0
   -7.1030    6.0170  -16.2450 C   0  0  0  0  0  0  0  0  0  0  0  0
   -7.8920    5.7830  -15.1350 C   0  0  0  0  0  0  0  0  0  0  0  0
   -8.4590    5.8060  -12.1960 C   0  0  0  0  0  0  0  0  0  0  0  0
   -8.6550    5.7280  -10.7110 C   0  0  0  0  0  0  0  0  0  0  0  0
   -8.8710    4.5160   -9.8340 C   0  0  0  0  0  0  0  0  0  0  0  0
   -8.9610    5.0090   -8.5740 N   0  0  0  0  0  0  0  0  0  0  0  0
   -9.1500    4.2140   -7.3870 C   0  0  0  0  0  0  0  0  0  0  0  0
   -9.6110    2.7900   -7.6670 C   0  0  0  0  0  0  0  0  0  0  0  0
   -9.4270    2.2550   -9.0980 C   0  0  0  0  0  0  0  0  0  0  0  0
   -8.9700    3.0800  -10.1380 C   0  0  0  0  0  0  0  0  0  0  0  0
   -8.8510    6.3500   -8.4930 N   0  0  0  0  0  0  0  0  0  0  0  0
   -8.6720    6.7750   -9.7570 C   0  0  0  0  0  0  0  0  0  0  0  0
   -9.7130    7.0330  -13.2280 H   0  0  0  0  0  0  0  0  0  0  0  0
  -10.9560    5.0020  -14.2620 H   0  0  0  0  0  0  0  0  0  0  0  0
   -9.6690    4.0540  -13.5450 H   0  0  0  0  0  0  0  0  0  0  0  0
  -10.6710    4.3830  -16.7320 H   0  0  0  0  0  0  0  0  0  0  0  0
   -9.1050    4.8420  -18.8730 H   0  0  0  0  0  0  0  0  0  0  0  0
   -5.3760    4.5640  -17.3870 H   0  0  0  0  0  0  0  0  0  0  0  0
   -3.3240    4.8730  -19.2740 H   0  0  0  0  0  0  0  0  0  0  0  0
   -3.7230    6.4580  -21.2940 H   0  0  0  0  0  0  0  0  0  0  0  0
   -5.9810    7.7480  -21.5720 H   0  0  0  0  0  0  0  0  0  0  0  0
   -7.6940    7.3970  -19.8750 H   0  0  0  0  0  0  0  0  0  0  0  0
   -6.1260    6.4710  -16.0860 H   0  0  0  0  0  0  0  0  0  0  0  0
   -7.4990    6.0600  -14.1590 H   0  0  0  0  0  0  0  0  0  0  0  0
   -7.7340    6.5980  -12.4110 H   0  0  0  0  0  0  0  0  0  0  0  0
   -8.0160    4.8630  -12.5350 H   0  0  0  0  0  0  0  0  0  0  0  0
   -8.1800    4.1990   -6.8760 H   0  0  0  0  0  0  0  0  0  0  0  0
   -9.8730    4.7280   -6.7450 H   0  0  0  0  0  0  0  0  0  0  0  0
   -9.0840    2.1220   -6.9770 H   0  0  0  0  0  0  0  0  0  0  0  0
  -10.6740    2.7080   -7.4110 H   0  0  0  0  0  0  0  0  0  0  0  0
   -8.7840    1.3740   -9.0460 H   0  0  0  0  0  0  0  0  0  0  0  0
  -10.3970    1.9090   -9.4110 H   0  0  0  0  0  0  0  0  0  0  0  0
   -8.0140    2.7010  -10.5090 H   0  0  0  0  0  0  0  0  0  0  0  0
   -9.6730    2.9770  -10.9750 H   0  0  0  0  0  0  0  0  0  0  0  0
   -8.5550    7.8350   -9.9350 H   0  0  0  0  0  0  0  0  0  0  0  0
  1  2  1  0
  2  3  1  0
  3  4  2  0
  4  5  1  0
  5  6  2  0
  6  7  1  0
  7  8  2  0
  8  9  1  0
  9 10  2  0
 10 11  1  0
 11 12  2  0
  6 13  1  0
 13 14  2  0
  1 15  1  0
 15 16  1  0
 16 17  2  0
 17 18  1  0
 18 19  1  0
 19 20  1  0
 20 21  1  0
 21 22  1  0
 18 23  1  0
 23 24  2  0
 14  3  1  0
 12  7  1  0
 24 16  1  0
 22 17  1  0
  1 25  1  0
  2 26  1  0
  2 27  1  0
  4 28  1  0
  5 29  1  0
  8 30  1  0
  9 31  1  0
 10 32  1  0
 11 33  1  0
 12 34  1  0
 13 35  1  0
 14 36  1  0
 15 37  1  0
 15 38  1  0
 19 39  1  0
 19 40  1  0
 20 41  1  0
 20 42  1  0
 21 43  1  0
 21 44  1  0
 22 45  1  0
 22 46  1  0
 24 47  1  0
A    1
 N1 
A    2
 C1 
A    3
 C2 
A    4
 C3 
A    5
 C4 
A    6
 C5 
A    7
 C6 
A    8
 C7 
A    9
 C8 
A   10
 C9 
A   11
 C10
A   12
 C11
A   13
 C12
A   14
 C13
A   15
 C14
A   16
 C15
A   17
 C16
A   18
 N2 
A   19
 C17
A   20
 C18
A   21
 C19
A   22
 C20
A   23
 N3 
A   24
 C21
A   25
 H1 
A   26
 H2 
A   27
 H3 
A   28
 H4 
A   29
 H5 
A   30
 H6 
A   31
 H7 
A   32
 H8 
A   33
 H9 
A   34
 H10
A   35
 H11
A   36
 H12
A   37
 H13
A   38
 H14
A   39
 H15
A   40
 H16
A   41
 H17
A   42
 H18
A   43
 H19
A   44
 H20
A   45
 H21
A   46
 H22
A   47
 H23
M  END
>  <ref_pdb>  (142) 
x0051_0B

>  <ref_mols>  (142) 
x0803_0B,x0969_1B

>  <original SMILES>  (142) 
[H]c1nn2c(c1C([H])([H])N([H])C([H])([H])c1c([H])c([H])c(-c3c([H])c([H])c([H])c([H])c3[H])c([H])c1[H])C([H])([H])C([H])([H])C([H])([H])C2([H])[H]

>  <index>  (142) 
146

>  <∆∆G>  (142) 
-5.478956

>  <∆G_bound>  (142) 
-5.270466

>  <∆G_unbound>  (142) 
0.20849

>  <comRMSD>  (142) 
0.750143

>  <N_constrained_atoms>  (142) 
22.0

>  <N_unconstrained_atoms>  (142) 
2.0

>  <runtime>  (142) 
99.704519

>  <LE>  (142) 
0.22829

>  <percent_hybrid>  (142) 
46.0

>  <dist>  (142) 
12.0

>  <ecfp4>  (142) 
0.263889

>  <daylight>  (142) 
0.407407

>  <topodist>  (142) 
2.0

>  <mces>  (142) 
26.0

>  <tdn>  (142) 
1.0

>  <tup>  (142) 
0.0

>  <rdn>  (142) 
0.0

>  <rup>  (142) 
0.0

>  <ldn>  (142) 
0.0

>  <lup>  (142) 
1.0

>  <mut>  (142) 
5.0

>  <maj>  (142) 
5.0

>  <min>  (142) 
0.0

>  <hyb>  (142) 
5.0

>  <sub>  (142) 
1.0

>  <query_index>  (142) 
366.0

>  <max_hit_Tanimoto>  (142) 
0.374558

>  <largest_ring>  (142) 
0

>  <N_interactions_kept>  (142) 
5.0

>  <N_interactions_lost>  (142) 
1.0

>  <interaction_uniqueness_metric>  (142) 
0.152154

>  <ad_hoc_penalty>  (142) 
-26.336434

>  <N_rotatable_bonds>  (142) 
5

>  <N_HA>  (142) 
24

>  <cluster>  (142) 
6085

>  <N_interactions>  (142) 
7

>  <Enamine>  (142) 
0

>  <Mcule>  (142) 
1

>  <N_PAINS>  (142) 
0

>  <UFF_Gibbs>  (142) 
166.033776

>  <strain_per_HA>  (142) 
6.918074

>  <saltbridge:HIS:51>  (142) 
0

>  <pistack:HIS:51>  (142) 
2

>  <hydroph_interaction:HIS:51>  (142) 
0

>  <hbond:ALA:132>  (142) 
0

>  <hbond:SER:135>  (142) 
0

>  <hydroph_interaction:TYR:150>  (142) 
0

>  <pistack:TYR:161>  (142) 
0

>  <hydroph_interaction:TYR:161>  (142) 
3

>  <hydroph_interaction:ASP:83>  (142) 
0

>  <hbond:TYR:130>  (142) 
0

>  <hydroph_interaction:ALA:132>  (142) 
1

>  <hbond:HIS:51>  (142) 
1

>  <hbond:ASP:129>  (142) 
0

>  <hbond:TYR:150>  (142) 
0

>  <hbond:GLY:151>  (142) 
0

>  <hbond:TYR:161>  (142) 
0

>  <hydroph_interaction:TYR:130>  (142) 
0

>  <hydroph_interaction:PRO:131>  (142) 
0

>  <hydroph_interaction:ASP:129>  (142) 
0

>  <saltbridge:ASP:75>  (142) 
0

>  <saltbridge:ASP:83>  (142) 
0

>  <hydroph_interaction:ASN:152>  (142) 
0

>  <halogenbond:TYR:150>  (142) 
0

>  <hbond:ASP:83>  (142) 
0

>  <hydroph_interaction:VAL:155>  (142) 
0

>  <pication:TYR:161>  (142) 
0

>  <hbond:PRO:131>  (142) 
0

>  <hbond:LEU:128>  (142) 
0

>  <saltbridge:ASP:129>  (142) 
0

>  <hbond:THR:134>  (142) 
0

>  <pication:HIS:51>  (142) 
0

>  <hbond:SER:81>  (142) 
0

>  <hbond:GLY:159>  (142) 
0

>  <hydroph_interaction:PRO:101>  (142) 
0

>  <hydroph_interaction:THR:134>  (142) 
0

>  <hbond:GLY:82>  (142) 
0

>  <hydroph_interaction:GLU:104>  (142) 
0

>  <hydroph_interaction:VAL:36>  (142) 
0

>  <hydroph_interaction:MET:49>  (142) 
0

>  <halogenbond:GLU:104>  (142) 
0

>  <hydroph_interaction:LYS:107>  (142) 
0

$$$$
CRBIRTYEJLOSLG-UHFFFAOYSA-N
     RDKit          3D

 36 39  0  0  0  0  0  0  0  0999 V2000
   -8.9380    6.1330  -12.4380 C   0  0  0  0  0  0  0  0  0  0  0  0
   -8.5410    5.1540  -13.3620 N   0  0  0  0  0  0  0  0  0  0  0  0
   -7.8090    5.3210  -14.6080 C   0  0  0  0  0  0  0  0  0  0  0  0
   -8.3370    5.1180  -15.9220 C   0  0  0  0  0  0  0  0  0  0  0  0
   -7.2450    5.3830  -16.8060 C   0  0  0  0  0  0  0  0  0  0  0  0
   -7.3610    5.2760  -18.3190 C   0  0  0  0  0  0  0  0  0  0  0  0
   -8.6180    4.8950  -18.7900 C   0  0  0  0  0  0  0  0  0  0  0  0
   -9.6780    4.6440  -17.9180 C   0  0  0  0  0  0  0  0  0  0  0  0
   -9.5540    4.7510  -16.5200 C   0  0  0  0  0  0  0  0  0  0  0  0
   -5.9160    5.6360  -19.4750 Br  0  0  0  0  0  0  0  0  0  0  0  0
   -6.1640    5.7280  -16.0640 N   0  0  0  0  0  0  0  0  0  0  0  0
   -6.4890    5.6950  -14.7300 N   0  0  0  0  0  0  0  0  0  0  0  0
   -9.3310    7.2240  -12.8400 O   0  0  0  0  0  0  0  0  0  0  0  0
   -8.9100    5.9330  -10.9490 C   0  0  0  0  0  0  0  0  0  0  0  0
   -8.9520    4.6930  -10.2610 C   0  0  0  0  0  0  0  0  0  0  0  0
   -8.9310    5.0180   -8.9220 N   0  0  0  0  0  0  0  0  0  0  0  0
   -8.9820    4.0970   -7.7990 C   0  0  0  0  0  0  0  0  0  0  0  0
   -9.4850    2.8180   -8.1230 C   0  0  0  0  0  0  0  0  0  0  0  0
   -9.3790    2.4050   -9.5930 C   0  0  0  0  0  0  0  0  0  0  0  0
   -9.0150    3.2600  -10.6500 C   0  0  0  0  0  0  0  0  0  0  0  0
   -8.8600    6.3350   -8.6790 N   0  0  0  0  0  0  0  0  0  0  0  0
   -8.8500    6.8800   -9.8950 C   0  0  0  0  0  0  0  0  0  0  0  0
   -8.9590    4.2310  -13.2450 H   0  0  0  0  0  0  0  0  0  0  0  0
   -8.7880    4.7930  -19.8610 H   0  0  0  0  0  0  0  0  0  0  0  0
  -10.6360    4.3540  -18.3370 H   0  0  0  0  0  0  0  0  0  0  0  0
  -10.4140    4.5410  -15.8990 H   0  0  0  0  0  0  0  0  0  0  0  0
   -5.2280    5.9810  -16.3620 H   0  0  0  0  0  0  0  0  0  0  0  0
   -9.6290    4.5710   -7.0510 H   0  0  0  0  0  0  0  0  0  0  0  0
   -7.9750    4.0240   -7.3830 H   0  0  0  0  0  0  0  0  0  0  0  0
   -9.1810    2.0460   -7.4220 H   0  0  0  0  0  0  0  0  0  0  0  0
  -10.5640    2.8780   -7.9390 H   0  0  0  0  0  0  0  0  0  0  0  0
   -8.7150    1.5360   -9.6410 H   0  0  0  0  0  0  0  0  0  0  0  0
  -10.3680    2.0440   -9.8590 H   0  0  0  0  0  0  0  0  0  0  0  0
   -8.0260    2.9610  -11.0190 H   0  0  0  0  0  0  0  0  0  0  0  0
   -9.7220    3.1170  -11.4750 H   0  0  0  0  0  0  0  0  0  0  0  0
   -8.8030    7.9740   -9.9620 H   0  0  0  0  0  0  0  0  0  0  0  0
  1  2  1  0
  2  3  1  0
  3  4  1  0
  4  5  1  0
  5  6  2  0
  6  7  1  0
  7  8  2  0
  8  9  1  0
  6 10  1  0
  5 11  1  0
 11 12  1  0
  1 13  2  0
  1 14  1  0
 14 15  2  0
 15 16  1  0
 16 17  1  0
 17 18  1  0
 18 19  1  0
 19 20  1  0
 16 21  1  0
 21 22  2  0
  3 12  2  0
  9  4  2  0
 22 14  1  0
 20 15  1  0
  2 23  1  0
  7 24  1  0
  8 25  1  0
  9 26  1  0
 11 27  1  0
 17 28  1  0
 17 29  1  0
 18 30  1  0
 18 31  1  0
 19 32  1  0
 19 33  1  0
 20 34  1  0
 20 35  1  0
 22 36  1  0
A    1
 C1 
A    2
 N1 
A    3
 C2 
A    4
 C3 
A    5
 C4 
A    6
 C5 
A    7
 C6 
A    8
 C7 
A    9
 C8 
A   10
BR1 
A   11
 N2 
A   12
 N3 
A   13
 O1 
A   14
 C9 
A   15
 C10
A   16
 N4 
A   17
 C11
A   18
 C12
A   19
 C13
A   20
 C14
A   21
 N5 
A   22
 C15
A   23
 H1 
A   24
 H2 
A   25
 H3 
A   26
 H4 
A   27
 H5 
A   28
 H6 
A   29
 H7 
A   30
 H8 
A   31
 H9 
A   32
 H10
A   33
 H11
A   34
 H12
A   35
 H13
A   36
 H14
M  END
>  <ref_pdb>  (143) 
x0051_0B

>  <ref_mols>  (143) 
x0951_0B,x0969_1B

>  <original SMILES>  (143) 
[H]c1nn2c(c1C(=O)N([H])c1nn([H])c3c(Br)c([H])c([H])c([H])c13)C([H])([H])C([H])([H])C([H])([H])C2([H])[H]

>  <index>  (143) 
245

>  <∆∆G>  (143) 
-6.680193

>  <∆G_bound>  (143) 
-6.072172

>  <∆G_unbound>  (143) 
0.608021

>  <comRMSD>  (143) 
0.479823

>  <N_constrained_atoms>  (143) 
20.0

>  <N_unconstrained_atoms>  (143) 
2.0

>  <runtime>  (143) 
57.226909

>  <LE>  (143) 
0.303645

>  <percent_hybrid>  (143) 
48.0

>  <dist>  (143) 
7.0

>  <ecfp4>  (143) 
0.164706

>  <daylight>  (143) 
0.252125

>  <topodist>  (143) 
1.0

>  <mces>  (143) 
24.0

>  <tdn>  (143) 
0.0

>  <tup>  (143) 
1.0

>  <rdn>  (143) 
0.0

>  <rup>  (143) 
0.0

>  <ldn>  (143) 
0.0

>  <lup>  (143) 
0.0

>  <mut>  (143) 
5.0

>  <maj>  (143) 
5.0

>  <min>  (143) 
0.0

>  <hyb>  (143) 
1.0

>  <sub>  (143) 
1.0

>  <query_index>  (143) 
201.0

>  <max_hit_Tanimoto>  (143) 
0.298274

>  <largest_ring>  (143) 
0

>  <N_interactions_kept>  (143) 
1.5

>  <N_interactions_lost>  (143) 
1.5

>  <interaction_uniqueness_metric>  (143) 
0.121687

>  <ad_hoc_penalty>  (143) 
-26.289551

>  <N_rotatable_bonds>  (143) 
2

>  <N_HA>  (143) 
22

>  <cluster>  (143) 
5995

>  <N_interactions>  (143) 
5

>  <Enamine>  (143) 
0

>  <Mcule>  (143) 
1

>  <N_PAINS>  (143) 
0

>  <UFF_Gibbs>  (143) 
76.626973

>  <strain_per_HA>  (143) 
3.483044

>  <saltbridge:HIS:51>  (143) 
0

>  <pistack:HIS:51>  (143) 
1

>  <hydroph_interaction:HIS:51>  (143) 
1

>  <hbond:ALA:132>  (143) 
0

>  <hbond:SER:135>  (143) 
0

>  <hydroph_interaction:TYR:150>  (143) 
0

>  <pistack:TYR:161>  (143) 
2

>  <hydroph_interaction:TYR:161>  (143) 
0

>  <hydroph_interaction:ASP:83>  (143) 
0

>  <hbond:TYR:130>  (143) 
0

>  <hydroph_interaction:ALA:132>  (143) 
0

>  <hbond:HIS:51>  (143) 
0

>  <hbond:ASP:129>  (143) 
0

>  <hbond:TYR:150>  (143) 
0

>  <hbond:GLY:151>  (143) 
1

>  <hbond:TYR:161>  (143) 
0

>  <hydroph_interaction:TYR:130>  (143) 
0

>  <hydroph_interaction:PRO:131>  (143) 
0

>  <hydroph_interaction:ASP:129>  (143) 
0

>  <saltbridge:ASP:75>  (143) 
0

>  <saltbridge:ASP:83>  (143) 
0

>  <hydroph_interaction:ASN:152>  (143) 
0

>  <halogenbond:TYR:150>  (143) 
0

>  <hbond:ASP:83>  (143) 
0

>  <hydroph_interaction:VAL:155>  (143) 
0

>  <pication:TYR:161>  (143) 
0

>  <hbond:PRO:131>  (143) 
0

>  <hbond:LEU:128>  (143) 
0

>  <saltbridge:ASP:129>  (143) 
0

>  <hbond:THR:134>  (143) 
0

>  <pication:HIS:51>  (143) 
0

>  <hbond:SER:81>  (143) 
0

>  <hbond:GLY:159>  (143) 
0

>  <hydroph_interaction:PRO:101>  (143) 
0

>  <hydroph_interaction:THR:134>  (143) 
0

>  <hbond:GLY:82>  (143) 
0

>  <hydroph_interaction:GLU:104>  (143) 
0

>  <hydroph_interaction:VAL:36>  (143) 
0

>  <hydroph_interaction:MET:49>  (143) 
0

>  <halogenbond:GLU:104>  (143) 
0

>  <hydroph_interaction:LYS:107>  (143) 
0

$$$$
MCULE-6504940058
     RDKit          3D

 23 24  0  0  0  0  0  0  0  0999 V2000
   -7.3650    5.3540  -17.6620 C   0  0  0  0  0  0  0  0  0  0  0  0
   -8.3510    5.1010  -16.5810 C   0  0  0  0  0  0  0  0  0  0  0  0
   -7.8550    5.2230  -15.1910 C   0  0  0  0  0  0  0  0  0  0  0  0
   -6.4710    5.1370  -14.9800 C   0  0  0  0  0  0  0  0  0  0  0  0
   -5.6130    5.6580  -16.0050 C   0  0  0  0  0  0  0  0  0  0  0  0
   -6.0850    5.6820  -17.3190 N   0  0  0  0  0  0  0  0  0  0  0  0
   -9.6760    4.7670  -16.8590 C   0  0  0  0  0  0  0  0  0  0  0  0
  -10.1130    4.6550  -18.2700 C   0  0  0  0  0  0  0  0  0  0  0  0
   -9.2440    4.8740  -19.3230 C   0  0  0  0  0  0  0  0  0  0  0  0
   -7.7840    5.2490  -19.0010 C   0  0  0  0  0  0  0  0  0  0  0  0
   -6.8120    5.5090  -20.1570 C   0  0  0  0  0  0  0  0  0  0  0  0
   -6.2680    4.6090  -20.7820 O   0  0  0  0  0  0  0  0  0  0  0  0
   -8.3360    4.4540  -14.5760 H   0  0  0  0  0  0  0  0  0  0  0  0
   -8.2040    6.1930  -14.8150 H   0  0  0  0  0  0  0  0  0  0  0  0
   -6.3640    5.9450  -14.2400 H   0  0  0  0  0  0  0  0  0  0  0  0
   -6.1060    4.2490  -14.4780 H   0  0  0  0  0  0  0  0  0  0  0  0
   -5.2910    6.6700  -15.7290 H   0  0  0  0  0  0  0  0  0  0  0  0
   -4.7020    5.0490  -16.0140 H   0  0  0  0  0  0  0  0  0  0  0  0
   -5.4050    5.4220  -18.0430 H   0  0  0  0  0  0  0  0  0  0  0  0
  -10.3780    4.5880  -16.0500 H   0  0  0  0  0  0  0  0  0  0  0  0
  -11.1680    4.3870  -18.3860 H   0  0  0  0  0  0  0  0  0  0  0  0
   -9.5980    4.7830  -20.3550 H   0  0  0  0  0  0  0  0  0  0  0  0
   -6.6640    6.5780  -20.3630 H   0  0  0  0  0  0  0  0  0  0  0  0
  1  2  2  0
  2  3  1  0
  3  4  1  0
  4  5  1  0
  5  6  1  0
  2  7  1  0
  7  8  2  0
  8  9  1  0
  9 10  2  0
 10 11  1  0
 11 12  2  0
  6  1  1  0
  1 10  1  0
  3 13  1  0
  3 14  1  0
  4 15  1  0
  4 16  1  0
  5 17  1  0
  5 18  1  0
  6 19  1  0
  7 20  1  0
  8 21  1  0
  9 22  1  0
 11 23  1  0
A    1
 C1 
A    2
 C2 
A    3
 C3 
A    4
 C4 
A    5
 C5 
A    6
 N1 
A    7
 C6 
A    8
 C7 
A    9
 C8 
A   10
 C9 
A   11
 C10
A   12
 O1 
A   13
 H1 
A   14
 H2 
A   15
 H3 
A   16
 H4 
A   17
 H5 
A   18
 H6 
A   19
 H7 
A   20
 H8 
A   21
 H9 
A   22
 H10
A   23
 H11
M  END
>  <ref_pdb>  (144) 
x0051_0B

>  <ref_mols>  (144) 
x0455_0B,x0382_0B

>  <original SMILES>  (144) 
[H]C(=O)c1c([H])c([H])c([H])c2c1N([H])C([H])([H])C([H])([H])C2([H])[H]

>  <index>  (144) 
154

>  <∆∆G>  (144) 
-5.319697

>  <∆G_bound>  (144) 
-4.758485

>  <∆G_unbound>  (144) 
0.561212

>  <comRMSD>  (144) 
0.58436

>  <N_constrained_atoms>  (144) 
12.0

>  <N_unconstrained_atoms>  (144) 
1.0

>  <runtime>  (144) 
20.131867

>  <LE>  (144) 
0.409207

>  <percent_hybrid>  (144) 
29.0

>  <dist>  (144) 
3.0

>  <ecfp4>  (144) 
0.311111

>  <daylight>  (144) 
0.392157

>  <topodist>  (144) 
0.0

>  <mces>  (144) 
13.0

>  <tdn>  (144) 
0.0

>  <tup>  (144) 
0.0

>  <rdn>  (144) 
0.0

>  <rup>  (144) 
0.0

>  <ldn>  (144) 
0.0

>  <lup>  (144) 
0.0

>  <mut>  (144) 
1.0

>  <maj>  (144) 
1.0

>  <min>  (144) 
0.0

>  <hyb>  (144) 
2.0

>  <sub>  (144) 
0.0

>  <query_index>  (144) 
293.0

>  <max_hit_Tanimoto>  (144) 
0.33277

>  <largest_ring>  (144) 
0

>  <N_interactions_kept>  (144) 
0.5

>  <N_interactions_lost>  (144) 
1.0

>  <interaction_uniqueness_metric>  (144) 
0.097454

>  <ad_hoc_penalty>  (144) 
-26.256004

>  <N_rotatable_bonds>  (144) 
1

>  <N_HA>  (144) 
12

>  <cluster>  (144) 
6078

>  <N_interactions>  (144) 
5

>  <Enamine>  (144) 
0

>  <Mcule>  (144) 
1

>  <N_PAINS>  (144) 
0

>  <UFF_Gibbs>  (144) 
70.619227

>  <strain_per_HA>  (144) 
5.884936

>  <saltbridge:HIS:51>  (144) 
0

>  <pistack:HIS:51>  (144) 
0

>  <hydroph_interaction:HIS:51>  (144) 
0

>  <hbond:ALA:132>  (144) 
0

>  <hbond:SER:135>  (144) 
0

>  <hydroph_interaction:TYR:150>  (144) 
1

>  <pistack:TYR:161>  (144) 
2

>  <hydroph_interaction:TYR:161>  (144) 
0

>  <hydroph_interaction:ASP:83>  (144) 
0

>  <hbond:TYR:130>  (144) 
1

>  <hydroph_interaction:ALA:132>  (144) 
0

>  <hbond:HIS:51>  (144) 
0

>  <hbond:ASP:129>  (144) 
1

>  <hbond:TYR:150>  (144) 
0

>  <hbond:GLY:151>  (144) 
0

>  <hbond:TYR:161>  (144) 
0

>  <hydroph_interaction:TYR:130>  (144) 
0

>  <hydroph_interaction:PRO:131>  (144) 
0

>  <hydroph_interaction:ASP:129>  (144) 
0

>  <saltbridge:ASP:75>  (144) 
0

>  <saltbridge:ASP:83>  (144) 
0

>  <hydroph_interaction:ASN:152>  (144) 
0

>  <halogenbond:TYR:150>  (144) 
0

>  <hbond:ASP:83>  (144) 
0

>  <hydroph_interaction:VAL:155>  (144) 
0

>  <pication:TYR:161>  (144) 
0

>  <hbond:PRO:131>  (144) 
0

>  <hbond:LEU:128>  (144) 
0

>  <saltbridge:ASP:129>  (144) 
0

>  <hbond:THR:134>  (144) 
0

>  <pication:HIS:51>  (144) 
0

>  <hbond:SER:81>  (144) 
0

>  <hbond:GLY:159>  (144) 
0

>  <hydroph_interaction:PRO:101>  (144) 
0

>  <hydroph_interaction:THR:134>  (144) 
0

>  <hbond:GLY:82>  (144) 
0

>  <hydroph_interaction:GLU:104>  (144) 
0

>  <hydroph_interaction:VAL:36>  (144) 
0

>  <hydroph_interaction:MET:49>  (144) 
0

>  <halogenbond:GLU:104>  (144) 
0

>  <hydroph_interaction:LYS:107>  (144) 
0

$$$$
MCULE-6539417644
     RDKit          3D

 29 30  0  0  0  0  0  0  0  0999 V2000
   -6.3930    5.8270  -19.7860 C   0  0  0  0  0  0  0  0  0  0  0  0
   -6.4690    5.2320  -18.3710 C   0  0  0  0  0  0  0  0  0  0  0  0
   -5.3790    5.5230  -17.4390 N   0  0  0  0  0  0  0  0  0  0  0  0
   -4.0230    5.5450  -17.8160 C   0  0  0  0  0  0  0  0  0  0  0  0
   -3.0280    5.3240  -16.7050 C   0  0  0  0  0  0  0  0  0  0  0  0
   -3.3730    4.6830  -15.5210 C   0  0  0  0  0  0  0  0  0  0  0  0
   -2.0760    4.5500  -14.4060 S   0  0  0  0  0  0  0  0  0  0  0  0
   -0.9970    5.3510  -15.4610 C   0  0  0  0  0  0  0  0  0  0  0  0
   -1.6490    5.7020  -16.6480 C   0  0  0  0  0  0  0  0  0  0  0  0
   -3.6330    5.7460  -18.9630 O   0  0  0  0  0  0  0  0  0  0  0  0
   -5.8200    6.3080  -16.2770 C   0  0  0  0  0  0  0  0  0  0  0  0
   -6.8330    5.6040  -15.6120 C   0  0  0  0  0  0  0  0  0  0  0  0
   -7.8970    5.1180  -16.3880 C   0  0  0  0  0  0  0  0  0  0  0  0
   -7.7620    5.6130  -17.6780 C   0  0  0  0  0  0  0  0  0  0  0  0
   -5.3660    6.1280  -20.0110 H   0  0  0  0  0  0  0  0  0  0  0  0
   -7.0340    6.7190  -19.8330 H   0  0  0  0  0  0  0  0  0  0  0  0
   -6.7460    5.0980  -20.5300 H   0  0  0  0  0  0  0  0  0  0  0  0
   -6.4810    4.1630  -18.4740 H   0  0  0  0  0  0  0  0  0  0  0  0
   -4.3530    4.2810  -15.2560 H   0  0  0  0  0  0  0  0  0  0  0  0
    0.0300    5.5240  -15.1810 H   0  0  0  0  0  0  0  0  0  0  0  0
   -1.0390    6.2210  -17.3930 H   0  0  0  0  0  0  0  0  0  0  0  0
   -4.9340    6.5520  -15.6930 H   0  0  0  0  0  0  0  0  0  0  0  0
   -6.1430    7.2540  -16.6930 H   0  0  0  0  0  0  0  0  0  0  0  0
   -6.4960    4.7960  -14.9530 H   0  0  0  0  0  0  0  0  0  0  0  0
   -7.2890    6.3160  -14.9160 H   0  0  0  0  0  0  0  0  0  0  0  0
   -8.1060    4.0570  -16.3200 H   0  0  0  0  0  0  0  0  0  0  0  0
   -8.8120    5.5830  -16.0080 H   0  0  0  0  0  0  0  0  0  0  0  0
   -8.6150    5.2940  -18.2900 H   0  0  0  0  0  0  0  0  0  0  0  0
   -7.8050    6.6880  -17.6070 H   0  0  0  0  0  0  0  0  0  0  0  0
  1  2  1  0
  2  3  1  0
  3  4  1  0
  4  5  1  0
  5  6  2  0
  6  7  1  0
  7  8  1  0
  8  9  2  0
  4 10  2  0
  3 11  1  0
 11 12  1  0
 12 13  1  0
 13 14  1  0
 14  2  1  0
  9  5  1  0
  1 15  1  0
  1 16  1  0
  1 17  1  0
  2 18  1  0
  6 19  1  0
  8 20  1  0
  9 21  1  0
 11 22  1  0
 11 23  1  0
 12 24  1  0
 12 25  1  0
 13 26  1  0
 13 27  1  0
 14 28  1  0
 14 29  1  0
A    1
 C1 
A    2
 C2 
A    3
 N1 
A    4
 C3 
A    5
 C4 
A    6
 C5 
A    7
 S1 
A    8
 C6 
A    9
 C7 
A   10
 O1 
A   11
 C8 
A   12
 C9 
A   13
 C10
A   14
 C11
A   15
 H1 
A   16
 H2 
A   17
 H3 
A   18
 H4 
A   19
 H5 
A   20
 H6 
A   21
 H7 
A   22
 H8 
A   23
 H9 
A   24
 H10
A   25
 H11
A   26
 H12
A   27
 H13
A   28
 H14
A   29
 H15
M  END
>  <ref_pdb>  (145) 
x0051_0B

>  <ref_mols>  (145) 
x0472_0B,x0386_0B

>  <original SMILES>  (145) 
[H]c1sc([H])c(C(=O)N2C([H])([H])C([H])([H])C([H])([H])C([H])([H])C2([H])C([H])([H])[H])c1[H]

>  <index>  (145) 
148

>  <∆∆G>  (145) 
-5.020431

>  <∆G_bound>  (145) 
-4.813757

>  <∆G_unbound>  (145) 
0.206675

>  <comRMSD>  (145) 
0.726972

>  <N_constrained_atoms>  (145) 
14.0

>  <N_unconstrained_atoms>  (145) 
3.0

>  <runtime>  (145) 
19.777766

>  <LE>  (145) 
0.295319

>  <percent_hybrid>  (145) 
20.0

>  <dist>  (145) 
5.0

>  <ecfp4>  (145) 
0.224138

>  <daylight>  (145) 
0.364286

>  <topodist>  (145) 
2.0

>  <mces>  (145) 
14.0

>  <tdn>  (145) 
0.0

>  <tup>  (145) 
0.0

>  <rdn>  (145) 
1.0

>  <rup>  (145) 
1.0

>  <ldn>  (145) 
0.0

>  <lup>  (145) 
0.0

>  <mut>  (145) 
2.0

>  <maj>  (145) 
2.0

>  <min>  (145) 
0.0

>  <hyb>  (145) 
1.0

>  <sub>  (145) 
1.0

>  <query_index>  (145) 
75.0

>  <max_hit_Tanimoto>  (145) 
0.348974

>  <largest_ring>  (145) 
0

>  <N_interactions_kept>  (145) 
3.0

>  <N_interactions_lost>  (145) 
0.0

>  <interaction_uniqueness_metric>  (145) 
0.068423

>  <ad_hoc_penalty>  (145) 
-26.22332

>  <N_rotatable_bonds>  (145) 
2

>  <N_HA>  (145) 
14

>  <cluster>  (145) 
6083

>  <N_interactions>  (145) 
4

>  <Enamine>  (145) 
0

>  <Mcule>  (145) 
1

>  <N_PAINS>  (145) 
0

>  <UFF_Gibbs>  (145) 
81.975679

>  <strain_per_HA>  (145) 
5.855406

>  <saltbridge:HIS:51>  (145) 
0

>  <pistack:HIS:51>  (145) 
0

>  <hydroph_interaction:HIS:51>  (145) 
0

>  <hbond:ALA:132>  (145) 
0

>  <hbond:SER:135>  (145) 
0

>  <hydroph_interaction:TYR:150>  (145) 
0

>  <pistack:TYR:161>  (145) 
0

>  <hydroph_interaction:TYR:161>  (145) 
2

>  <hydroph_interaction:ASP:83>  (145) 
0

>  <hbond:TYR:130>  (145) 
0

>  <hydroph_interaction:ALA:132>  (145) 
1

>  <hbond:HIS:51>  (145) 
0

>  <hbond:ASP:129>  (145) 
0

>  <hbond:TYR:150>  (145) 
0

>  <hbond:GLY:151>  (145) 
0

>  <hbond:TYR:161>  (145) 
0

>  <hydroph_interaction:TYR:130>  (145) 
0

>  <hydroph_interaction:PRO:131>  (145) 
0

>  <hydroph_interaction:ASP:129>  (145) 
0

>  <saltbridge:ASP:75>  (145) 
0

>  <saltbridge:ASP:83>  (145) 
0

>  <hydroph_interaction:ASN:152>  (145) 
0

>  <halogenbond:TYR:150>  (145) 
0

>  <hbond:ASP:83>  (145) 
0

>  <hydroph_interaction:VAL:155>  (145) 
1

>  <pication:TYR:161>  (145) 
0

>  <hbond:PRO:131>  (145) 
0

>  <hbond:LEU:128>  (145) 
0

>  <saltbridge:ASP:129>  (145) 
0

>  <hbond:THR:134>  (145) 
0

>  <pication:HIS:51>  (145) 
0

>  <hbond:SER:81>  (145) 
0

>  <hbond:GLY:159>  (145) 
0

>  <hydroph_interaction:PRO:101>  (145) 
0

>  <hydroph_interaction:THR:134>  (145) 
0

>  <hbond:GLY:82>  (145) 
0

>  <hydroph_interaction:GLU:104>  (145) 
0

>  <hydroph_interaction:VAL:36>  (145) 
0

>  <hydroph_interaction:MET:49>  (145) 
0

>  <halogenbond:GLU:104>  (145) 
0

>  <hydroph_interaction:LYS:107>  (145) 
0

$$$$
CSSS00000099547
     RDKit          3D

 20 21  0  0  0  0  0  0  0  0999 V2000
   -6.8220    4.7990  -20.8570 N   0  0  0  0  0  0  0  0  0  0  0  0
   -6.4950    5.4770  -19.6110 C   0  0  0  0  0  0  0  0  0  0  0  0
   -7.5080    5.2810  -18.6780 C   0  0  0  0  0  0  0  0  0  0  0  0
   -7.2990    5.4620  -17.3110 C   0  0  0  0  0  0  0  0  0  0  0  0
   -6.1980    5.8350  -16.5860 N   0  0  0  0  0  0  0  0  0  0  0  0
   -6.4060    5.8960  -15.2600 N   0  0  0  0  0  0  0  0  0  0  0  0
   -7.6880    5.5460  -15.1420 C   0  0  0  0  0  0  0  0  0  0  0  0
   -8.2940    5.2680  -16.3690 C   0  0  0  0  0  0  0  0  0  0  0  0
   -9.5720    4.8740  -16.7760 C   0  0  0  0  0  0  0  0  0  0  0  0
   -9.8160    4.6860  -18.1400 C   0  0  0  0  0  0  0  0  0  0  0  0
   -8.8010    4.8870  -19.0670 C   0  0  0  0  0  0  0  0  0  0  0  0
   -7.5360    5.3450  -21.3490 H   0  0  0  0  0  0  0  0  0  0  0  0
   -7.2330    3.8910  -20.6510 H   0  0  0  0  0  0  0  0  0  0  0  0
   -6.3520    6.5460  -19.8070 H   0  0  0  0  0  0  0  0  0  0  0  0
   -5.5490    5.0960  -19.2150 H   0  0  0  0  0  0  0  0  0  0  0  0
   -5.2770    6.0620  -16.9350 H   0  0  0  0  0  0  0  0  0  0  0  0
   -8.1330    5.5090  -14.1570 H   0  0  0  0  0  0  0  0  0  0  0  0
  -10.3580    4.7180  -16.0480 H   0  0  0  0  0  0  0  0  0  0  0  0
  -10.8050    4.3820  -18.4720 H   0  0  0  0  0  0  0  0  0  0  0  0
   -9.0130    4.7320  -20.1250 H   0  0  0  0  0  0  0  0  0  0  0  0
  1  2  1  0
  2  3  1  0
  3  4  2  0
  4  5  1  0
  5  6  1  0
  6  7  2  0
  7  8  1  0
  8  9  2  0
  9 10  1  0
 10 11  2  0
 11  3  1  0
  8  4  1  0
  1 12  1  0
  1 13  1  0
  2 14  1  0
  2 15  1  0
  5 16  1  0
  7 17  1  0
  9 18  1  0
 10 19  1  0
 11 20  1  0
A    1
 N1 
A    2
 C1 
A    3
 C2 
A    4
 C3 
A    5
 N2 
A    6
 N3 
A    7
 C4 
A    8
 C5 
A    9
 C6 
A   10
 C7 
A   11
 C8 
A   12
 H1 
A   13
 H2 
A   14
 H3 
A   15
 H4 
A   16
 H5 
A   17
 H6 
A   18
 H7 
A   19
 H8 
A   20
 H9 
M  END
>  <ref_pdb>  (146) 
x0051_0B

>  <ref_mols>  (146) 
x0951_0B,x0693_0B

>  <original SMILES>  (146) 
[H]c1c([H])c(C([H])([H])N([H])[H])c2c(c([H])nn2[H])c1[H]

>  <index>  (146) 
257

>  <∆∆G>  (146) 
-6.97895

>  <∆G_bound>  (146) 
-6.911687

>  <∆G_unbound>  (146) 
0.067263

>  <comRMSD>  (146) 
0.539473

>  <N_constrained_atoms>  (146) 
12.0

>  <N_unconstrained_atoms>  (146) 
0.0

>  <runtime>  (146) 
27.251801

>  <LE>  (146) 
0.581579

>  <percent_hybrid>  (146) 
50.0

>  <dist>  (146) 
7.0

>  <ecfp4>  (146) 
0.065574

>  <daylight>  (146) 
0.236025

>  <topodist>  (146) 
4.0

>  <mces>  (146) 
12.0

>  <tdn>  (146) 
4.0

>  <tup>  (146) 
0.0

>  <rdn>  (146) 
0.0

>  <rup>  (146) 
0.0

>  <ldn>  (146) 
0.0

>  <lup>  (146) 
0.0

>  <mut>  (146) 
2.0

>  <maj>  (146) 
2.0

>  <min>  (146) 
0.0

>  <hyb>  (146) 
1.0

>  <sub>  (146) 
1.0

>  <query_index>  (146) 
138.0

>  <max_hit_Tanimoto>  (146) 
0.155653

>  <largest_ring>  (146) 
0

>  <N_interactions_kept>  (146) 
3.0

>  <N_interactions_lost>  (146) 
1.5

>  <interaction_uniqueness_metric>  (146) 
0.068471

>  <ad_hoc_penalty>  (146) 
-26.220098

>  <N_rotatable_bonds>  (146) 
2

>  <N_HA>  (146) 
11

>  <cluster>  (146) 
5983

>  <N_interactions>  (146) 
5

>  <Enamine>  (146) 
1

>  <Mcule>  (146) 
0

>  <N_PAINS>  (146) 
0

>  <UFF_Gibbs>  (146) 
29.060161

>  <strain_per_HA>  (146) 
2.641833

>  <saltbridge:HIS:51>  (146) 
0

>  <pistack:HIS:51>  (146) 
0

>  <hydroph_interaction:HIS:51>  (146) 
0

>  <hbond:ALA:132>  (146) 
0

>  <hbond:SER:135>  (146) 
0

>  <hydroph_interaction:TYR:150>  (146) 
1

>  <pistack:TYR:161>  (146) 
2

>  <hydroph_interaction:TYR:161>  (146) 
0

>  <hydroph_interaction:ASP:83>  (146) 
0

>  <hbond:TYR:130>  (146) 
2

>  <hydroph_interaction:ALA:132>  (146) 
0

>  <hbond:HIS:51>  (146) 
0

>  <hbond:ASP:129>  (146) 
0

>  <hbond:TYR:150>  (146) 
0

>  <hbond:GLY:151>  (146) 
0

>  <hbond:TYR:161>  (146) 
0

>  <hydroph_interaction:TYR:130>  (146) 
0

>  <hydroph_interaction:PRO:131>  (146) 
0

>  <hydroph_interaction:ASP:129>  (146) 
0

>  <saltbridge:ASP:75>  (146) 
0

>  <saltbridge:ASP:83>  (146) 
0

>  <hydroph_interaction:ASN:152>  (146) 
0

>  <halogenbond:TYR:150>  (146) 
0

>  <hbond:ASP:83>  (146) 
0

>  <hydroph_interaction:VAL:155>  (146) 
0

>  <pication:TYR:161>  (146) 
0

>  <hbond:PRO:131>  (146) 
0

>  <hbond:LEU:128>  (146) 
0

>  <saltbridge:ASP:129>  (146) 
0

>  <hbond:THR:134>  (146) 
0

>  <pication:HIS:51>  (146) 
0

>  <hbond:SER:81>  (146) 
0

>  <hbond:GLY:159>  (146) 
0

>  <hydroph_interaction:PRO:101>  (146) 
0

>  <hydroph_interaction:THR:134>  (146) 
0

>  <hbond:GLY:82>  (146) 
0

>  <hydroph_interaction:GLU:104>  (146) 
0

>  <hydroph_interaction:VAL:36>  (146) 
0

>  <hydroph_interaction:MET:49>  (146) 
0

>  <halogenbond:GLU:104>  (146) 
0

>  <hydroph_interaction:LYS:107>  (146) 
0

$$$$
PV-007090062952
     RDKit          3D

 49 52  0  0  0  0  0  0  0  0999 V2000
   -7.3070    4.3800  -20.8940 O   0  0  0  0  0  0  0  0  0  0  0  0
   -6.4910    5.0100  -20.2290 C   0  0  0  0  0  0  0  0  0  0  0  0
   -6.7270    5.4950  -18.9060 N   0  0  0  0  0  0  0  0  0  0  0  0
   -7.8240    5.2730  -18.1590 C   0  0  0  0  0  0  0  0  0  0  0  0
   -7.4900    5.3860  -16.7940 C   0  0  0  0  0  0  0  0  0  0  0  0
   -8.4270    5.2160  -15.7580 C   0  0  0  0  0  0  0  0  0  0  0  0
   -7.9620    5.3520  -14.3130 C   0  0  0  0  0  0  0  0  0  0  0  0
   -8.6170    4.9850  -13.1920 N   0  0  0  0  0  0  0  0  0  0  0  0
   -8.8210    5.9320  -12.1860 C   0  0  0  0  0  0  0  0  0  0  0  0
   -9.0540    7.3220  -12.4450 O   0  0  0  0  0  0  0  0  0  0  0  0
   -8.8300    5.6630  -10.6660 C   0  0  0  0  0  0  0  0  0  0  0  0
   -8.9380    4.4560   -9.9290 C   0  0  0  0  0  0  0  0  0  0  0  0
   -9.0480    3.1330  -10.3600 C   0  0  0  0  0  0  0  0  0  0  0  0
   -8.6470    2.3090   -9.2910 C   0  0  0  0  0  0  0  0  0  0  0  0
   -9.2780    2.6100   -8.0660 C   0  0  0  0  0  0  0  0  0  0  0  0
   -9.0300    3.8510   -7.5000 C   0  0  0  0  0  0  0  0  0  0  0  0
   -8.9180    4.8120   -8.6020 N   0  0  0  0  0  0  0  0  0  0  0  0
   -8.7860    6.1530   -8.5600 C   0  0  0  0  0  0  0  0  0  0  0  0
   -8.7280    6.7150   -9.7420 N   0  0  0  0  0  0  0  0  0  0  0  0
   -9.7440    4.9280  -16.1220 C   0  0  0  0  0  0  0  0  0  0  0  0
  -10.1860    4.7830  -17.6040 C   0  0  0  0  0  0  0  0  0  0  0  0
   -9.0980    4.9760  -18.6130 C   0  0  0  0  0  0  0  0  0  0  0  0
   -5.1500    5.2860  -20.7920 C   0  0  0  0  0  0  0  0  0  0  0  0
   -5.0310    5.5110  -22.1620 C   0  0  0  0  0  0  0  0  0  0  0  0
   -3.7730    5.7600  -22.6980 C   0  0  0  0  0  0  0  0  0  0  0  0
   -2.6410    5.7970  -21.9580 N   0  0  0  0  0  0  0  0  0  0  0  0
   -2.7750    5.5800  -20.6300 C   0  0  0  0  0  0  0  0  0  0  0  0
   -4.0030    5.3250  -20.0070 C   0  0  0  0  0  0  0  0  0  0  0  0
   -4.0370    5.1220  -18.6820 F   0  0  0  0  0  0  0  0  0  0  0  0
   -6.0980    6.2370  -18.6150 H   0  0  0  0  0  0  0  0  0  0  0  0
   -6.4660    5.6150  -16.5170 H   0  0  0  0  0  0  0  0  0  0  0  0
   -7.6580    6.4030  -14.2070 H   0  0  0  0  0  0  0  0  0  0  0  0
   -7.0280    4.7750  -14.2320 H   0  0  0  0  0  0  0  0  0  0  0  0
   -9.3290    4.2690  -13.3000 H   0  0  0  0  0  0  0  0  0  0  0  0
  -10.0430    2.8950  -10.7160 H   0  0  0  0  0  0  0  0  0  0  0  0
   -8.4800    2.9380  -11.2650 H   0  0  0  0  0  0  0  0  0  0  0  0
   -7.5840    2.4290   -9.0560 H   0  0  0  0  0  0  0  0  0  0  0  0
   -8.6850    1.2760   -9.5750 H   0  0  0  0  0  0  0  0  0  0  0  0
   -8.9530    1.8370   -7.3660 H   0  0  0  0  0  0  0  0  0  0  0  0
  -10.3590    2.4830   -8.1940 H   0  0  0  0  0  0  0  0  0  0  0  0
   -8.1730    3.8130   -6.8260 H   0  0  0  0  0  0  0  0  0  0  0  0
   -9.8920    4.1260   -6.8790 H   0  0  0  0  0  0  0  0  0  0  0  0
   -8.7230    6.8490   -7.7110 H   0  0  0  0  0  0  0  0  0  0  0  0
  -10.5570    4.7770  -15.4030 H   0  0  0  0  0  0  0  0  0  0  0  0
  -11.2100    4.5560  -17.9020 H   0  0  0  0  0  0  0  0  0  0  0  0
   -9.3980    4.8750  -19.6640 H   0  0  0  0  0  0  0  0  0  0  0  0
   -5.9060    5.4900  -22.8040 H   0  0  0  0  0  0  0  0  0  0  0  0
   -3.6410    5.9390  -23.7620 H   0  0  0  0  0  0  0  0  0  0  0  0
   -1.8570    5.6150  -20.0500 H   0  0  0  0  0  0  0  0  0  0  0  0
  1  2  2  0
  2  3  1  0
  3  4  1  0
  4  5  2  0
  5  6  1  0
  6  7  1  0
  7  8  1  0
  8  9  1  0
  9 10  2  0
  9 11  1  0
 11 12  2  0
 12 13  1  0
 13 14  1  0
 14 15  1  0
 15 16  1  0
 16 17  1  0
 17 18  1  0
 18 19  2  0
  6 20  2  0
 20 21  1  0
 21 22  2  0
  2 23  1  0
 23 24  2  0
 24 25  1  0
 25 26  2  0
 26 27  1  0
 27 28  2  0
 28 29  1  0
 22  4  1  0
 19 11  1  0
 17 12  1  0
 28 23  1  0
  3 30  1  0
  5 31  1  0
  7 32  1  0
  7 33  1  0
  8 34  1  0
 13 35  1  0
 13 36  1  0
 14 37  1  0
 14 38  1  0
 15 39  1  0
 15 40  1  0
 16 41  1  0
 16 42  1  0
 18 43  1  0
 20 44  1  0
 21 45  1  0
 22 46  1  0
 24 47  1  0
 25 48  1  0
 27 49  1  0
A    1
 O1 
A    2
 C1 
A    3
 N1 
A    4
 C2 
A    5
 C3 
A    6
 C4 
A    7
 C5 
A    8
 N2 
A    9
 C6 
A   10
 O2 
A   11
 C7 
A   12
 C8 
A   13
 C9 
A   14
 C10
A   15
 C11
A   16
 C12
A   17
 N3 
A   18
 C13
A   19
 N4 
A   20
 C14
A   21
 C15
A   22
 C16
A   23
 C17
A   24
 C18
A   25
 C19
A   26
 N5 
A   27
 C20
A   28
 C21
A   29
 F1 
A   30
 H1 
A   31
 H2 
A   32
 H3 
A   33
 H4 
A   34
 H5 
A   35
 H6 
A   36
 H7 
A   37
 H8 
A   38
 H9 
A   39
 H10
A   40
 H11
A   41
 H12
A   42
 H13
A   43
 H14
A   44
 H15
A   45
 H16
A   46
 H17
A   47
 H18
A   48
 H19
A   49
 H20
M  END
>  <ref_pdb>  (147) 
x0051_0B

>  <ref_mols>  (147) 
x0852_0B,x0969_1B

>  <original SMILES>  (147) 
[H]c1nc([H])c(F)c(C(=O)N([H])c2c([H])c([H])c([H])c(C([H])([H])N([H])C(=O)c3nc([H])n4c3C([H])([H])C([H])([H])C([H])([H])C4([H])[H])c2[H])c1[H]

>  <index>  (147) 
219

>  <∆∆G>  (147) 
-7.38181

>  <∆G_bound>  (147) 
-6.120837

>  <∆G_unbound>  (147) 
1.260973

>  <comRMSD>  (147) 
0.337737

>  <N_constrained_atoms>  (147) 
28.0

>  <N_unconstrained_atoms>  (147) 
3.0

>  <runtime>  (147) 
100.468624

>  <LE>  (147) 
0.238123

>  <percent_hybrid>  (147) 
36.0

>  <dist>  (147) 
9.0

>  <ecfp4>  (147) 
0.346535

>  <daylight>  (147) 
0.349462

>  <topodist>  (147) 
3.0

>  <mces>  (147) 
31.0

>  <tdn>  (147) 
2.0

>  <tup>  (147) 
1.0

>  <rdn>  (147) 
0.0

>  <rup>  (147) 
0.0

>  <ldn>  (147) 
0.0

>  <lup>  (147) 
0.0

>  <mut>  (147) 
5.0

>  <maj>  (147) 
5.0

>  <min>  (147) 
0.0

>  <hyb>  (147) 
1.0

>  <sub>  (147) 
2.0

>  <query_index>  (147) 
46.0

>  <max_hit_Tanimoto>  (147) 
0.422847

>  <largest_ring>  (147) 
0

>  <N_interactions_kept>  (147) 
4.0

>  <N_interactions_lost>  (147) 
2.0

>  <interaction_uniqueness_metric>  (147) 
0.238237

>  <ad_hoc_penalty>  (147) 
-26.142565

>  <N_rotatable_bonds>  (147) 
5

>  <N_HA>  (147) 
29

>  <cluster>  (147) 
6019

>  <N_interactions>  (147) 
7

>  <Enamine>  (147) 
1

>  <Mcule>  (147) 
0

>  <N_PAINS>  (147) 
0

>  <UFF_Gibbs>  (147) 
153.423372

>  <strain_per_HA>  (147) 
5.290461

>  <saltbridge:HIS:51>  (147) 
0

>  <pistack:HIS:51>  (147) 
0

>  <hydroph_interaction:HIS:51>  (147) 
0

>  <hbond:ALA:132>  (147) 
0

>  <hbond:SER:135>  (147) 
0

>  <hydroph_interaction:TYR:150>  (147) 
0

>  <pistack:TYR:161>  (147) 
0

>  <hydroph_interaction:TYR:161>  (147) 
2

>  <hydroph_interaction:ASP:83>  (147) 
1

>  <hbond:TYR:130>  (147) 
1

>  <hydroph_interaction:ALA:132>  (147) 
0

>  <hbond:HIS:51>  (147) 
0

>  <hbond:ASP:129>  (147) 
0

>  <hbond:TYR:150>  (147) 
0

>  <hbond:GLY:151>  (147) 
1

>  <hbond:TYR:161>  (147) 
1

>  <hydroph_interaction:TYR:130>  (147) 
0

>  <hydroph_interaction:PRO:131>  (147) 
0

>  <hydroph_interaction:ASP:129>  (147) 
1

>  <saltbridge:ASP:75>  (147) 
0

>  <saltbridge:ASP:83>  (147) 
0

>  <hydroph_interaction:ASN:152>  (147) 
0

>  <halogenbond:TYR:150>  (147) 
0

>  <hbond:ASP:83>  (147) 
0

>  <hydroph_interaction:VAL:155>  (147) 
0

>  <pication:TYR:161>  (147) 
0

>  <hbond:PRO:131>  (147) 
0

>  <hbond:LEU:128>  (147) 
0

>  <saltbridge:ASP:129>  (147) 
0

>  <hbond:THR:134>  (147) 
0

>  <pication:HIS:51>  (147) 
0

>  <hbond:SER:81>  (147) 
0

>  <hbond:GLY:159>  (147) 
0

>  <hydroph_interaction:PRO:101>  (147) 
0

>  <hydroph_interaction:THR:134>  (147) 
0

>  <hbond:GLY:82>  (147) 
0

>  <hydroph_interaction:GLU:104>  (147) 
0

>  <hydroph_interaction:VAL:36>  (147) 
0

>  <hydroph_interaction:MET:49>  (147) 
0

>  <halogenbond:GLU:104>  (147) 
0

>  <hydroph_interaction:LYS:107>  (147) 
0

$$$$
MCULE-6067026324
     RDKit          3D

 24 25  0  0  0  0  0  0  0  0999 V2000
  -10.2180    4.6600  -18.2460 C   0  0  0  0  0  0  0  0  0  0  0  0
   -9.7200    4.8100  -16.8080 C   0  0  0  0  0  0  0  0  0  0  0  0
   -8.3640    5.0910  -16.6640 C   0  0  0  0  0  0  0  0  0  0  0  0
   -7.4930    5.2250  -17.7470 C   0  0  0  0  0  0  0  0  0  0  0  0
   -6.1950    5.5030  -17.3920 N   0  0  0  0  0  0  0  0  0  0  0  0
   -5.6820    5.6980  -16.0990 C   0  0  0  0  0  0  0  0  0  0  0  0
   -6.5060    5.2010  -15.0840 C   0  0  0  0  0  0  0  0  0  0  0  0
   -7.8860    5.2420  -15.2380 C   0  0  0  0  0  0  0  0  0  0  0  0
   -7.9100    5.0860  -19.0770 C   0  0  0  0  0  0  0  0  0  0  0  0
   -9.3570    4.7910  -19.3060 C   0  0  0  0  0  0  0  0  0  0  0  0
   -6.9560    5.2350  -20.2120 C   0  0  0  0  0  0  0  0  0  0  0  0
   -6.0410    6.0450  -20.2730 O   0  0  0  0  0  0  0  0  0  0  0  0
   -7.1720    4.3750  -21.2400 O   0  0  0  0  0  0  0  0  0  0  0  0
  -11.2820    4.4470  -18.3930 H   0  0  0  0  0  0  0  0  0  0  0  0
  -10.3790    4.7130  -15.9510 H   0  0  0  0  0  0  0  0  0  0  0  0
   -5.7080    6.0290  -18.1280 H   0  0  0  0  0  0  0  0  0  0  0  0
   -5.3540    6.7390  -16.0370 H   0  0  0  0  0  0  0  0  0  0  0  0
   -4.7610    5.1080  -16.0650 H   0  0  0  0  0  0  0  0  0  0  0  0
   -6.2260    4.1660  -14.8820 H   0  0  0  0  0  0  0  0  0  0  0  0
   -6.2610    5.7470  -14.1640 H   0  0  0  0  0  0  0  0  0  0  0  0
   -8.2590    6.1830  -14.8230 H   0  0  0  0  0  0  0  0  0  0  0  0
   -8.3380    4.4290  -14.6520 H   0  0  0  0  0  0  0  0  0  0  0  0
   -9.6340    4.6960  -20.3600 H   0  0  0  0  0  0  0  0  0  0  0  0
   -6.8650    4.9190  -21.9980 H   0  0  0  0  0  0  0  0  0  0  0  0
  1  2  2  0
  2  3  1  0
  3  4  2  0
  4  5  1  0
  5  6  1  0
  6  7  1  0
  7  8  1  0
  4  9  1  0
  9 10  2  0
  9 11  1  0
 11 12  2  0
 11 13  1  0
  1 10  1  0
  8  3  1  0
  1 14  1  0
  2 15  1  0
  5 16  1  0
  6 17  1  0
  6 18  1  0
  7 19  1  0
  7 20  1  0
  8 21  1  0
  8 22  1  0
 10 23  1  0
 13 24  1  0
A    1
 C1 
A    2
 C2 
A    3
 C3 
A    4
 C4 
A    5
 N1 
A    6
 C5 
A    7
 C6 
A    8
 C7 
A    9
 C8 
A   10
 C9 
A   11
 C10
A   12
 O1 
A   13
 O2 
A   14
 H1 
A   15
 H2 
A   16
 H3 
A   17
 H4 
A   18
 H5 
A   19
 H6 
A   20
 H7 
A   21
 H8 
A   22
 H9 
A   23
 H10
A   24
 H11
M  END
>  <ref_pdb>  (148) 
x0051_0B

>  <ref_mols>  (148) 
x0455_0B,x0382_0B

>  <original SMILES>  (148) 
[H]OC(=O)c1c([H])c([H])c([H])c2c1N([H])C([H])([H])C([H])([H])C2([H])[H]

>  <index>  (148) 
160

>  <∆∆G>  (148) 
-5.407203

>  <∆G_bound>  (148) 
-4.743716

>  <∆G_unbound>  (148) 
0.663487

>  <comRMSD>  (148) 
0.540013

>  <N_constrained_atoms>  (148) 
12.0

>  <N_unconstrained_atoms>  (148) 
2.0

>  <runtime>  (148) 
19.661737

>  <LE>  (148) 
0.386229

>  <percent_hybrid>  (148) 
29.0

>  <dist>  (148) 
3.0

>  <ecfp4>  (148) 
0.319149

>  <daylight>  (148) 
0.452229

>  <topodist>  (148) 
1.0

>  <mces>  (148) 
13.0

>  <tdn>  (148) 
0.0

>  <tup>  (148) 
1.0

>  <rdn>  (148) 
0.0

>  <rup>  (148) 
0.0

>  <ldn>  (148) 
0.0

>  <lup>  (148) 
0.0

>  <mut>  (148) 
1.0

>  <maj>  (148) 
1.0

>  <min>  (148) 
0.0

>  <hyb>  (148) 
1.0

>  <sub>  (148) 
0.0

>  <query_index>  (148) 
293.0

>  <max_hit_Tanimoto>  (148) 
0.293525

>  <largest_ring>  (148) 
0

>  <N_interactions_kept>  (148) 
0.0

>  <N_interactions_lost>  (148) 
1.5

>  <interaction_uniqueness_metric>  (148) 
0.095223

>  <ad_hoc_penalty>  (148) 
-26.133221

>  <N_rotatable_bonds>  (148) 
1

>  <N_HA>  (148) 
13

>  <cluster>  (148) 
6072

>  <N_interactions>  (148) 
6

>  <Enamine>  (148) 
0

>  <Mcule>  (148) 
1

>  <N_PAINS>  (148) 
0

>  <UFF_Gibbs>  (148) 
73.922921

>  <strain_per_HA>  (148) 
5.686379

>  <saltbridge:HIS:51>  (148) 
0

>  <pistack:HIS:51>  (148) 
0

>  <hydroph_interaction:HIS:51>  (148) 
0

>  <hbond:ALA:132>  (148) 
0

>  <hbond:SER:135>  (148) 
0

>  <hydroph_interaction:TYR:150>  (148) 
1

>  <pistack:TYR:161>  (148) 
0

>  <hydroph_interaction:TYR:161>  (148) 
3

>  <hydroph_interaction:ASP:83>  (148) 
0

>  <hbond:TYR:130>  (148) 
1

>  <hydroph_interaction:ALA:132>  (148) 
0

>  <hbond:HIS:51>  (148) 
0

>  <hbond:ASP:129>  (148) 
1

>  <hbond:TYR:150>  (148) 
0

>  <hbond:GLY:151>  (148) 
0

>  <hbond:TYR:161>  (148) 
0

>  <hydroph_interaction:TYR:130>  (148) 
0

>  <hydroph_interaction:PRO:131>  (148) 
0

>  <hydroph_interaction:ASP:129>  (148) 
0

>  <saltbridge:ASP:75>  (148) 
0

>  <saltbridge:ASP:83>  (148) 
0

>  <hydroph_interaction:ASN:152>  (148) 
0

>  <halogenbond:TYR:150>  (148) 
0

>  <hbond:ASP:83>  (148) 
0

>  <hydroph_interaction:VAL:155>  (148) 
0

>  <pication:TYR:161>  (148) 
0

>  <hbond:PRO:131>  (148) 
0

>  <hbond:LEU:128>  (148) 
0

>  <saltbridge:ASP:129>  (148) 
0

>  <hbond:THR:134>  (148) 
0

>  <pication:HIS:51>  (148) 
0

>  <hbond:SER:81>  (148) 
0

>  <hbond:GLY:159>  (148) 
0

>  <hydroph_interaction:PRO:101>  (148) 
0

>  <hydroph_interaction:THR:134>  (148) 
0

>  <hbond:GLY:82>  (148) 
0

>  <hydroph_interaction:GLU:104>  (148) 
0

>  <hydroph_interaction:VAL:36>  (148) 
0

>  <hydroph_interaction:MET:49>  (148) 
0

>  <halogenbond:GLU:104>  (148) 
0

>  <hydroph_interaction:LYS:107>  (148) 
0

$$$$
MCULE-9248465651
     RDKit          3D

 32 34  0  0  0  0  0  0  0  0999 V2000
   -6.4150    5.2170  -19.6230 N   0  0  0  0  0  0  0  0  0  0  0  0
   -7.4080    5.1100  -18.6580 C   0  0  0  0  0  0  0  0  0  0  0  0
   -8.7210    5.0100  -18.9970 C   0  0  0  0  0  0  0  0  0  0  0  0
   -9.7510    4.9220  -18.0940 C   0  0  0  0  0  0  0  0  0  0  0  0
  -11.0110    4.8700  -18.6170 C   0  0  0  0  0  0  0  0  0  0  0  0
   -9.4550    4.9150  -16.7060 C   0  0  0  0  0  0  0  0  0  0  0  0
   -8.1110    5.0120  -16.2440 C   0  0  0  0  0  0  0  0  0  0  0  0
   -7.0630    5.1150  -17.1670 C   0  0  0  0  0  0  0  0  0  0  0  0
   -5.7000    5.2270  -16.8500 N   0  0  0  0  0  0  0  0  0  0  0  0
   -4.7220    5.4540  -17.7860 C   0  0  0  0  0  0  0  0  0  0  0  0
   -3.5390    5.2490  -17.5090 O   0  0  0  0  0  0  0  0  0  0  0  0
   -5.2350    5.9610  -19.1710 C   0  0  0  0  0  0  0  0  0  0  0  0
   -5.6250    7.4320  -19.2040 C   0  0  0  0  0  0  0  0  0  0  0  0
   -5.0420    8.0050  -20.4400 C   0  0  0  0  0  0  0  0  0  0  0  0
   -4.2980    7.0850  -21.1840 C   0  0  0  0  0  0  0  0  0  0  0  0
   -4.1630    5.8370  -20.2830 C   0  0  0  0  0  0  0  0  0  0  0  0
   -6.2390    4.4370  -20.2460 H   0  0  0  0  0  0  0  0  0  0  0  0
   -9.0030    5.0090  -20.0600 H   0  0  0  0  0  0  0  0  0  0  0  0
  -11.6170    3.9910  -18.5230 H   0  0  0  0  0  0  0  0  0  0  0  0
  -10.9390    5.1210  -19.6750 H   0  0  0  0  0  0  0  0  0  0  0  0
  -11.5690    5.6880  -18.2030 H   0  0  0  0  0  0  0  0  0  0  0  0
  -10.2560    4.8410  -15.9750 H   0  0  0  0  0  0  0  0  0  0  0  0
   -7.9120    5.0070  -15.1750 H   0  0  0  0  0  0  0  0  0  0  0  0
   -5.3800    5.0210  -15.9130 H   0  0  0  0  0  0  0  0  0  0  0  0
   -5.2330    7.9380  -18.3130 H   0  0  0  0  0  0  0  0  0  0  0  0
   -6.7130    7.5670  -19.2190 H   0  0  0  0  0  0  0  0  0  0  0  0
   -5.8730    8.3580  -21.0650 H   0  0  0  0  0  0  0  0  0  0  0  0
   -4.4370    8.8840  -20.2030 H   0  0  0  0  0  0  0  0  0  0  0  0
   -3.3310    7.5340  -21.4270 H   0  0  0  0  0  0  0  0  0  0  0  0
   -4.8140    6.8330  -22.1190 H   0  0  0  0  0  0  0  0  0  0  0  0
   -4.3450    4.9510  -20.9040 H   0  0  0  0  0  0  0  0  0  0  0  0
   -3.1910    5.6540  -19.8320 H   0  0  0  0  0  0  0  0  0  0  0  0
  1  2  1  0
  2  3  2  0
  3  4  1  0
  4  5  1  0
  4  6  2  0
  6  7  1  0
  7  8  2  0
  8  9  1  0
  9 10  1  0
 10 11  2  0
 10 12  1  0
 12 13  1  0
 13 14  1  0
 14 15  1  0
 15 16  1  0
 12  1  1  0
  8  2  1  0
 16 12  1  0
  1 17  1  0
  3 18  1  0
  5 19  1  0
  5 20  1  0
  5 21  1  0
  6 22  1  0
  7 23  1  0
  9 24  1  0
 13 25  1  0
 13 26  1  0
 14 27  1  0
 14 28  1  0
 15 29  1  0
 15 30  1  0
 16 31  1  0
 16 32  1  0
A    1
 N1 
A    2
 C1 
A    3
 C2 
A    4
 C3 
A    5
 C4 
A    6
 C5 
A    7
 C6 
A    8
 C7 
A    9
 N2 
A   10
 C8 
A   11
 O1 
A   12
 C9 
A   13
 C10
A   14
 C11
A   15
 C12
A   16
 C13
A   17
 H1 
A   18
 H2 
A   19
 H3 
A   20
 H4 
A   21
 H5 
A   22
 H6 
A   23
 H7 
A   24
 H8 
A   25
 H9 
A   26
 H10
A   27
 H11
A   28
 H12
A   29
 H13
A   30
 H14
A   31
 H15
A   32
 H16
M  END
>  <ref_pdb>  (149) 
x0051_0B

>  <ref_mols>  (149) 
x0229_0B,x0945_0B

>  <original SMILES>  (149) 
[H]c1c([H])c(C([H])([H])[H])c([H])c2c1N([H])C(=O)C1(N2[H])C([H])([H])C([H])([H])C([H])([H])C1([H])[H]

>  <index>  (149) 
199

>  <∆∆G>  (149) 
-7.673

>  <∆G_bound>  (149) 
-7.560315

>  <∆G_unbound>  (149) 
0.112685

>  <comRMSD>  (149) 
0.7746

>  <N_constrained_atoms>  (149) 
18.0

>  <N_unconstrained_atoms>  (149) 
0.0

>  <runtime>  (149) 
31.095043

>  <LE>  (149) 
0.426278

>  <percent_hybrid>  (149) 
43.0

>  <dist>  (149) 
2.0

>  <ecfp4>  (149) 
0.586957

>  <daylight>  (149) 
0.431953

>  <topodist>  (149) 
0.0

>  <mces>  (149) 
18.0

>  <tdn>  (149) 
0.0

>  <tup>  (149) 
0.0

>  <rdn>  (149) 
0.0

>  <rup>  (149) 
0.0

>  <ldn>  (149) 
0.0

>  <lup>  (149) 
0.0

>  <mut>  (149) 
2.0

>  <maj>  (149) 
2.0

>  <min>  (149) 
0.0

>  <hyb>  (149) 
0.0

>  <sub>  (149) 
0.0

>  <query_index>  (149) 
101.0

>  <max_hit_Tanimoto>  (149) 
0.407514

>  <largest_ring>  (149) 
0

>  <N_interactions_kept>  (149) 
0.5

>  <N_interactions_lost>  (149) 
1.5

>  <interaction_uniqueness_metric>  (149) 
0.062354

>  <ad_hoc_penalty>  (149) 
-26.097241

>  <N_rotatable_bonds>  (149) 
1

>  <N_HA>  (149) 
16

>  <cluster>  (149) 
6038

>  <N_interactions>  (149) 
4

>  <Enamine>  (149) 
0

>  <Mcule>  (149) 
1

>  <N_PAINS>  (149) 
0

>  <UFF_Gibbs>  (149) 
66.821729

>  <strain_per_HA>  (149) 
4.176358

>  <saltbridge:HIS:51>  (149) 
0

>  <pistack:HIS:51>  (149) 
0

>  <hydroph_interaction:HIS:51>  (149) 
0

>  <hbond:ALA:132>  (149) 
0

>  <hbond:SER:135>  (149) 
0

>  <hydroph_interaction:TYR:150>  (149) 
1

>  <pistack:TYR:161>  (149) 
1

>  <hydroph_interaction:TYR:161>  (149) 
1

>  <hydroph_interaction:ASP:83>  (149) 
0

>  <hbond:TYR:130>  (149) 
1

>  <hydroph_interaction:ALA:132>  (149) 
0

>  <hbond:HIS:51>  (149) 
0

>  <hbond:ASP:129>  (149) 
0

>  <hbond:TYR:150>  (149) 
0

>  <hbond:GLY:151>  (149) 
0

>  <hbond:TYR:161>  (149) 
0

>  <hydroph_interaction:TYR:130>  (149) 
0

>  <hydroph_interaction:PRO:131>  (149) 
0

>  <hydroph_interaction:ASP:129>  (149) 
0

>  <saltbridge:ASP:75>  (149) 
0

>  <saltbridge:ASP:83>  (149) 
0

>  <hydroph_interaction:ASN:152>  (149) 
0

>  <halogenbond:TYR:150>  (149) 
0

>  <hbond:ASP:83>  (149) 
0

>  <hydroph_interaction:VAL:155>  (149) 
0

>  <pication:TYR:161>  (149) 
0

>  <hbond:PRO:131>  (149) 
0

>  <hbond:LEU:128>  (149) 
0

>  <saltbridge:ASP:129>  (149) 
0

>  <hbond:THR:134>  (149) 
0

>  <pication:HIS:51>  (149) 
0

>  <hbond:SER:81>  (149) 
0

>  <hbond:GLY:159>  (149) 
0

>  <hydroph_interaction:PRO:101>  (149) 
0

>  <hydroph_interaction:THR:134>  (149) 
0

>  <hbond:GLY:82>  (149) 
0

>  <hydroph_interaction:GLU:104>  (149) 
0

>  <hydroph_interaction:VAL:36>  (149) 
0

>  <hydroph_interaction:MET:49>  (149) 
0

>  <halogenbond:GLU:104>  (149) 
0

>  <hydroph_interaction:LYS:107>  (149) 
0

$$$$
ABIHWDQUPBOJDY-UHFFFAOYSA-N
     RDKit          3D

 37 40  0  0  0  0  0  0  0  0999 V2000
   -7.8430    6.0110  -12.9290 O   0  0  0  0  0  0  0  0  0  0  0  0
   -7.4870    4.9410  -13.7010 C   0  0  0  0  0  0  0  0  0  0  0  0
   -7.3860    3.8230  -13.2180 O   0  0  0  0  0  0  0  0  0  0  0  0
   -7.2110    5.1650  -15.1310 C   0  0  0  0  0  0  0  0  0  0  0  0
   -8.0380    5.0540  -16.3400 C   0  0  0  0  0  0  0  0  0  0  0  0
   -7.1990    5.3570  -17.4070 C   0  0  0  0  0  0  0  0  0  0  0  0
   -7.5790    5.3500  -18.7430 C   0  0  0  0  0  0  0  0  0  0  0  0
   -8.8830    5.0200  -19.0600 C   0  0  0  0  0  0  0  0  0  0  0  0
   -9.7850    4.7180  -18.0650 C   0  0  0  0  0  0  0  0  0  0  0  0
   -9.3870    4.7330  -16.7110 C   0  0  0  0  0  0  0  0  0  0  0  0
   -5.9630    5.6520  -16.9250 N   0  0  0  0  0  0  0  0  0  0  0  0
   -5.9490    5.5430  -15.5740 C   0  0  0  0  0  0  0  0  0  0  0  0
   -9.0610    5.7360  -12.2190 C   0  0  0  0  0  0  0  0  0  0  0  0
   -8.9630    5.6030  -10.7210 C   0  0  0  0  0  0  0  0  0  0  0  0
   -9.1200    4.4600   -9.9420 C   0  0  0  0  0  0  0  0  0  0  0  0
   -8.9680    4.8660   -8.6460 N   0  0  0  0  0  0  0  0  0  0  0  0
   -9.0740    4.0010   -7.4960 C   0  0  0  0  0  0  0  0  0  0  0  0
   -9.6830    2.6410   -7.8390 C   0  0  0  0  0  0  0  0  0  0  0  0
   -9.4090    2.1750   -9.2740 C   0  0  0  0  0  0  0  0  0  0  0  0
   -9.3810    3.1980  -10.2900 O   0  0  0  0  0  0  0  0  0  0  0  0
   -8.7090    6.1740   -8.5040 N   0  0  0  0  0  0  0  0  0  0  0  0
   -8.7060    6.6210   -9.7670 C   0  0  0  0  0  0  0  0  0  0  0  0
   -6.8750    5.5940  -19.5310 H   0  0  0  0  0  0  0  0  0  0  0  0
   -9.2000    5.0040  -20.1020 H   0  0  0  0  0  0  0  0  0  0  0  0
  -10.8110    4.4670  -18.3220 H   0  0  0  0  0  0  0  0  0  0  0  0
  -10.1250    4.4920  -15.9540 H   0  0  0  0  0  0  0  0  0  0  0  0
   -5.1710    5.9090  -17.4980 H   0  0  0  0  0  0  0  0  0  0  0  0
   -5.0410    5.7360  -15.0170 H   0  0  0  0  0  0  0  0  0  0  0  0
   -9.4890    4.8080  -12.6250 H   0  0  0  0  0  0  0  0  0  0  0  0
   -9.7680    6.5470  -12.4300 H   0  0  0  0  0  0  0  0  0  0  0  0
   -8.0830    3.8910   -7.0570 H   0  0  0  0  0  0  0  0  0  0  0  0
   -9.7110    4.5260   -6.7800 H   0  0  0  0  0  0  0  0  0  0  0  0
  -10.7680    2.7000   -7.6990 H   0  0  0  0  0  0  0  0  0  0  0  0
   -9.3140    1.8940   -7.1320 H   0  0  0  0  0  0  0  0  0  0  0  0
  -10.2100    1.4920   -9.5620 H   0  0  0  0  0  0  0  0  0  0  0  0
   -8.4910    1.5920   -9.3390 H   0  0  0  0  0  0  0  0  0  0  0  0
   -8.5220    7.6730   -9.9470 H   0  0  0  0  0  0  0  0  0  0  0  0
  1  2  1  0
  2  3  2  0
  2  4  1  0
  4  5  1  0
  5  6  1  0
  6  7  2  0
  7  8  1  0
  8  9  2  0
  9 10  1  0
  6 11  1  0
 11 12  1  0
  1 13  1  0
 13 14  1  0
 14 15  2  0
 15 16  1  0
 16 17  1  0
 17 18  1  0
 18 19  1  0
 19 20  1  0
 16 21  1  0
 21 22  2  0
  4 12  2  0
 10  5  2  0
 22 14  1  0
 20 15  1  0
  7 23  1  0
  8 24  1  0
  9 25  1  0
 10 26  1  0
 11 27  1  0
 12 28  1  0
 13 29  1  0
 13 30  1  0
 17 31  1  0
 17 32  1  0
 18 33  1  0
 18 34  1  0
 19 35  1  0
 19 36  1  0
 22 37  1  0
A    1
 O1 
A    2
 C1 
A    3
 O2 
A    4
 C2 
A    5
 C3 
A    6
 C4 
A    7
 C5 
A    8
 C6 
A    9
 C7 
A   10
 C8 
A   11
 N1 
A   12
 C9 
A   13
 C10
A   14
 C11
A   15
 C12
A   16
 N2 
A   17
 C13
A   18
 C14
A   19
 C15
A   20
 O3 
A   21
 N3 
A   22
 C16
A   23
 H1 
A   24
 H2 
A   25
 H3 
A   26
 H4 
A   27
 H5 
A   28
 H6 
A   29
 H7 
A   30
 H8 
A   31
 H9 
A   32
 H10
A   33
 H11
A   34
 H12
A   35
 H13
A   36
 H14
A   37
 H15
M  END
>  <ref_pdb>  (150) 
x0051_0B

>  <ref_mols>  (150) 
x0969_1B,x0455_0B

>  <original SMILES>  (150) 
[H]c1nn2c(c1C([H])([H])OC(=O)c1c([H])n([H])c3c([H])c([H])c([H])c([H])c13)OC([H])([H])C([H])([H])C2([H])[H]

>  <index>  (150) 
309

>  <∆∆G>  (150) 
-5.597266

>  <∆G_bound>  (150) 
-5.285432

>  <∆G_unbound>  (150) 
0.311835

>  <comRMSD>  (150) 
0.802322

>  <N_constrained_atoms>  (150) 
20.0

>  <N_unconstrained_atoms>  (150) 
3.0

>  <runtime>  (150) 
53.053156

>  <LE>  (150) 
0.243359

>  <percent_hybrid>  (150) 
50.0

>  <dist>  (150) 
8.0

>  <ecfp4>  (150) 
0.271605

>  <daylight>  (150) 
0.281337

>  <topodist>  (150) 
2.0

>  <mces>  (150) 
24.0

>  <tdn>  (150) 
0.0

>  <tup>  (150) 
1.0

>  <rdn>  (150) 
0.0

>  <rup>  (150) 
0.0

>  <ldn>  (150) 
1.0

>  <lup>  (150) 
0.0

>  <mut>  (150) 
3.0

>  <maj>  (150) 
3.0

>  <min>  (150) 
0.0

>  <hyb>  (150) 
3.0

>  <sub>  (150) 
0.0

>  <query_index>  (150) 
204.0

>  <max_hit_Tanimoto>  (150) 
0.238382

>  <largest_ring>  (150) 
0

>  <N_interactions_kept>  (150) 
1.5

>  <N_interactions_lost>  (150) 
1.0

>  <interaction_uniqueness_metric>  (150) 
0.159753

>  <ad_hoc_penalty>  (150) 
-26.045757

>  <N_rotatable_bonds>  (150) 
3

>  <N_HA>  (150) 
22

>  <cluster>  (150) 
5936

>  <N_interactions>  (150) 
5

>  <Enamine>  (150) 
0

>  <Mcule>  (150) 
1

>  <N_PAINS>  (150) 
0

>  <UFF_Gibbs>  (150) 
58.948807

>  <strain_per_HA>  (150) 
2.679491

>  <saltbridge:HIS:51>  (150) 
1

>  <pistack:HIS:51>  (150) 
0

>  <hydroph_interaction:HIS:51>  (150) 
1

>  <hbond:ALA:132>  (150) 
0

>  <hbond:SER:135>  (150) 
0

>  <hydroph_interaction:TYR:150>  (150) 
1

>  <pistack:TYR:161>  (150) 
2

>  <hydroph_interaction:TYR:161>  (150) 
0

>  <hydroph_interaction:ASP:83>  (150) 
0

>  <hbond:TYR:130>  (150) 
0

>  <hydroph_interaction:ALA:132>  (150) 
0

>  <hbond:HIS:51>  (150) 
0

>  <hbond:ASP:129>  (150) 
0

>  <hbond:TYR:150>  (150) 
0

>  <hbond:GLY:151>  (150) 
0

>  <hbond:TYR:161>  (150) 
0

>  <hydroph_interaction:TYR:130>  (150) 
0

>  <hydroph_interaction:PRO:131>  (150) 
0

>  <hydroph_interaction:ASP:129>  (150) 
0

>  <saltbridge:ASP:75>  (150) 
0

>  <saltbridge:ASP:83>  (150) 
0

>  <hydroph_interaction:ASN:152>  (150) 
0

>  <halogenbond:TYR:150>  (150) 
0

>  <hbond:ASP:83>  (150) 
0

>  <hydroph_interaction:VAL:155>  (150) 
0

>  <pication:TYR:161>  (150) 
0

>  <hbond:PRO:131>  (150) 
0

>  <hbond:LEU:128>  (150) 
0

>  <saltbridge:ASP:129>  (150) 
0

>  <hbond:THR:134>  (150) 
0

>  <pication:HIS:51>  (150) 
0

>  <hbond:SER:81>  (150) 
0

>  <hbond:GLY:159>  (150) 
0

>  <hydroph_interaction:PRO:101>  (150) 
0

>  <hydroph_interaction:THR:134>  (150) 
0

>  <hbond:GLY:82>  (150) 
0

>  <hydroph_interaction:GLU:104>  (150) 
0

>  <hydroph_interaction:VAL:36>  (150) 
0

>  <hydroph_interaction:MET:49>  (150) 
0

>  <halogenbond:GLU:104>  (150) 
0

>  <hydroph_interaction:LYS:107>  (150) 
0

$$$$
PV-005941073259
     RDKit          3D

 50 53  0  0  0  0  0  0  0  0999 V2000
   -4.2260    5.0990  -18.4470 C   0  0  0  0  0  0  0  0  0  0  0  0
   -4.0150    5.3250  -19.9110 C   0  0  0  0  0  0  0  0  0  0  0  0
   -2.7510    5.5430  -20.4550 C   0  0  0  0  0  0  0  0  0  0  0  0
   -2.6060    5.7600  -21.9090 N   0  0  0  0  0  0  0  0  0  0  0  0
   -3.7970    5.7370  -22.7380 C   0  0  0  0  0  0  0  0  0  0  0  0
   -5.0250    5.5140  -22.1610 C   0  0  0  0  0  0  0  0  0  0  0  0
   -5.1320    5.3120  -20.7900 C   0  0  0  0  0  0  0  0  0  0  0  0
   -6.4170    5.0870  -20.2990 C   0  0  0  0  0  0  0  0  0  0  0  0
   -7.1330    4.3350  -20.9560 O   0  0  0  0  0  0  0  0  0  0  0  0
   -6.7380    5.7240  -19.1210 N   0  0  0  0  0  0  0  0  0  0  0  0
   -7.7900    5.4400  -18.2410 C   0  0  0  0  0  0  0  0  0  0  0  0
   -7.5010    5.6590  -16.7750 C   0  0  0  0  0  0  0  0  0  0  0  0
   -8.4680    5.4270  -15.7860 C   0  0  0  0  0  0  0  0  0  0  0  0
   -8.0420    5.6760  -14.4370 N   0  0  0  0  0  0  0  0  0  0  0  0
   -8.7600    6.1120  -13.3010 C   0  0  0  0  0  0  0  0  0  0  0  0
   -9.2870    7.2120  -13.1340 O   0  0  0  0  0  0  0  0  0  0  0  0
   -8.8140    5.1190  -12.3060 C   0  0  0  0  0  0  0  0  0  0  0  0
   -8.8300    5.3730  -10.9300 C   0  0  0  0  0  0  0  0  0  0  0  0
   -8.9460    4.2670   -9.9530 C   0  0  0  0  0  0  0  0  0  0  0  0
   -9.0490    2.9590  -10.0970 O   0  0  0  0  0  0  0  0  0  0  0  0
   -8.6860    2.3060   -8.8880 C   0  0  0  0  0  0  0  0  0  0  0  0
   -9.4970    2.8220   -7.7050 C   0  0  0  0  0  0  0  0  0  0  0  0
   -9.0280    4.1250   -7.4750 C   0  0  0  0  0  0  0  0  0  0  0  0
   -8.9300    4.8660   -8.7260 N   0  0  0  0  0  0  0  0  0  0  0  0
   -8.8160    6.2140   -8.7730 N   0  0  0  0  0  0  0  0  0  0  0  0
   -8.7580    6.5240  -10.1000 C   0  0  0  0  0  0  0  0  0  0  0  0
   -9.7310    4.9850  -16.1860 C   0  0  0  0  0  0  0  0  0  0  0  0
  -10.0280    4.7700  -17.5460 C   0  0  0  0  0  0  0  0  0  0  0  0
   -9.0460    4.9910  -18.6210 C   0  0  0  0  0  0  0  0  0  0  0  0
   -5.2220    4.6930  -18.2510 H   0  0  0  0  0  0  0  0  0  0  0  0
   -4.1340    6.0450  -17.9030 H   0  0  0  0  0  0  0  0  0  0  0  0
   -3.5000    4.3980  -18.0240 H   0  0  0  0  0  0  0  0  0  0  0  0
   -1.8390    5.5630  -19.8580 H   0  0  0  0  0  0  0  0  0  0  0  0
   -3.6580    5.9010  -23.8000 H   0  0  0  0  0  0  0  0  0  0  0  0
   -5.9210    5.4970  -22.7800 H   0  0  0  0  0  0  0  0  0  0  0  0
   -6.0990    6.4490  -18.8210 H   0  0  0  0  0  0  0  0  0  0  0  0
   -6.5090    6.0090  -16.4760 H   0  0  0  0  0  0  0  0  0  0  0  0
   -7.0980    5.3650  -14.2310 H   0  0  0  0  0  0  0  0  0  0  0  0
   -9.6930    4.5130  -12.5550 H   0  0  0  0  0  0  0  0  0  0  0  0
   -7.9690    4.4350  -12.5050 H   0  0  0  0  0  0  0  0  0  0  0  0
   -8.8470    1.2420   -9.0120 H   0  0  0  0  0  0  0  0  0  0  0  0
   -7.6120    2.4580   -8.7320 H   0  0  0  0  0  0  0  0  0  0  0  0
   -9.1970    2.2280   -6.8420 H   0  0  0  0  0  0  0  0  0  0  0  0
  -10.5710    2.6710   -7.7480 H   0  0  0  0  0  0  0  0  0  0  0  0
   -9.7190    4.6790   -6.8280 H   0  0  0  0  0  0  0  0  0  0  0  0
   -8.0370    4.1060   -7.0090 H   0  0  0  0  0  0  0  0  0  0  0  0
   -8.6670    7.5650  -10.3940 H   0  0  0  0  0  0  0  0  0  0  0  0
  -10.5140    4.7920  -15.4550 H   0  0  0  0  0  0  0  0  0  0  0  0
  -11.0020    4.4260  -17.9110 H   0  0  0  0  0  0  0  0  0  0  0  0
   -9.3290    4.8080  -19.6540 H   0  0  0  0  0  0  0  0  0  0  0  0
  1  2  1  0
  2  3  2  0
  3  4  1  0
  4  5  2  0
  5  6  1  0
  6  7  2  0
  7  8  1  0
  8  9  2  0
  8 10  1  0
 10 11  1  0
 11 12  2  0
 12 13  1  0
 13 14  1  0
 14 15  1  0
 15 16  2  0
 15 17  1  0
 17 18  1  0
 18 19  2  0
 19 20  1  0
 20 21  1  0
 21 22  1  0
 22 23  1  0
 23 24  1  0
 24 25  1  0
 25 26  2  0
 13 27  2  0
 27 28  1  0
 28 29  2  0
  7  2  1  0
 29 11  1  0
 26 18  1  0
 24 19  1  0
  1 30  1  0
  1 31  1  0
  1 32  1  0
  3 33  1  0
  5 34  1  0
  6 35  1  0
 10 36  1  0
 12 37  1  0
 14 38  1  0
 17 39  1  0
 17 40  1  0
 21 41  1  0
 21 42  1  0
 22 43  1  0
 22 44  1  0
 23 45  1  0
 23 46  1  0
 26 47  1  0
 27 48  1  0
 28 49  1  0
 29 50  1  0
A    1
 C1 
A    2
 C2 
A    3
 C3 
A    4
 N1 
A    5
 C4 
A    6
 C5 
A    7
 C6 
A    8
 C7 
A    9
 O1 
A   10
 N2 
A   11
 C8 
A   12
 C9 
A   13
 C10
A   14
 N3 
A   15
 C11
A   16
 O2 
A   17
 C12
A   18
 C13
A   19
 C14
A   20
 O3 
A   21
 C15
A   22
 C16
A   23
 C17
A   24
 N4 
A   25
 N5 
A   26
 C18
A   27
 C19
A   28
 C20
A   29
 C21
A   30
 H1 
A   31
 H2 
A   32
 H3 
A   33
 H4 
A   34
 H5 
A   35
 H6 
A   36
 H7 
A   37
 H8 
A   38
 H9 
A   39
 H10
A   40
 H11
A   41
 H12
A   42
 H13
A   43
 H14
A   44
 H15
A   45
 H16
A   46
 H17
A   47
 H18
A   48
 H19
A   49
 H20
A   50
 H21
M  END
>  <ref_pdb>  (151) 
x0051_0B

>  <ref_mols>  (151) 
x0852_0B,x0969_1B

>  <original SMILES>  (151) 
[H]c1nc([H])c(C([H])([H])[H])c(C(=O)N([H])c2c([H])c([H])c([H])c(N([H])C(=O)C([H])([H])c3c([H])nn4c3OC([H])([H])C([H])([H])C4([H])[H])c2[H])c1[H]

>  <index>  (151) 
198

>  <∆∆G>  (151) 
-8.998019

>  <∆G_bound>  (151) 
-7.912083

>  <∆G_unbound>  (151) 
1.085935

>  <comRMSD>  (151) 
0.399849

>  <N_constrained_atoms>  (151) 
28.0

>  <N_unconstrained_atoms>  (151) 
3.0

>  <runtime>  (151) 
49.790809

>  <LE>  (151) 
0.290259

>  <percent_hybrid>  (151) 
36.0

>  <dist>  (151) 
8.0

>  <ecfp4>  (151) 
0.375

>  <daylight>  (151) 
0.416422

>  <topodist>  (151) 
3.0

>  <mces>  (151) 
31.0

>  <tdn>  (151) 
2.0

>  <tup>  (151) 
1.0

>  <rdn>  (151) 
0.0

>  <rup>  (151) 
0.0

>  <ldn>  (151) 
0.0

>  <lup>  (151) 
0.0

>  <mut>  (151) 
4.0

>  <maj>  (151) 
4.0

>  <min>  (151) 
0.0

>  <hyb>  (151) 
1.0

>  <sub>  (151) 
2.0

>  <query_index>  (151) 
46.0

>  <max_hit_Tanimoto>  (151) 
0.350085

>  <largest_ring>  (151) 
0

>  <N_interactions_kept>  (151) 
4.0

>  <N_interactions_lost>  (151) 
2.0

>  <interaction_uniqueness_metric>  (151) 
0.127758

>  <ad_hoc_penalty>  (151) 
-26.010837

>  <N_rotatable_bonds>  (151) 
6

>  <N_HA>  (151) 
29

>  <cluster>  (151) 
6039

>  <N_interactions>  (151) 
7

>  <Enamine>  (151) 
1

>  <Mcule>  (151) 
0

>  <N_PAINS>  (151) 
0

>  <UFF_Gibbs>  (151) 
144.665428

>  <strain_per_HA>  (151) 
4.988463

>  <saltbridge:HIS:51>  (151) 
0

>  <pistack:HIS:51>  (151) 
1

>  <hydroph_interaction:HIS:51>  (151) 
0

>  <hbond:ALA:132>  (151) 
0

>  <hbond:SER:135>  (151) 
0

>  <hydroph_interaction:TYR:150>  (151) 
0

>  <pistack:TYR:161>  (151) 
0

>  <hydroph_interaction:TYR:161>  (151) 
3

>  <hydroph_interaction:ASP:83>  (151) 
0

>  <hbond:TYR:130>  (151) 
1

>  <hydroph_interaction:ALA:132>  (151) 
1

>  <hbond:HIS:51>  (151) 
0

>  <hbond:ASP:129>  (151) 
0

>  <hbond:TYR:150>  (151) 
0

>  <hbond:GLY:151>  (151) 
0

>  <hbond:TYR:161>  (151) 
0

>  <hydroph_interaction:TYR:130>  (151) 
0

>  <hydroph_interaction:PRO:131>  (151) 
0

>  <hydroph_interaction:ASP:129>  (151) 
1

>  <saltbridge:ASP:75>  (151) 
0

>  <saltbridge:ASP:83>  (151) 
0

>  <hydroph_interaction:ASN:152>  (151) 
0

>  <halogenbond:TYR:150>  (151) 
0

>  <hbond:ASP:83>  (151) 
0

>  <hydroph_interaction:VAL:155>  (151) 
0

>  <pication:TYR:161>  (151) 
0

>  <hbond:PRO:131>  (151) 
0

>  <hbond:LEU:128>  (151) 
0

>  <saltbridge:ASP:129>  (151) 
0

>  <hbond:THR:134>  (151) 
0

>  <pication:HIS:51>  (151) 
0

>  <hbond:SER:81>  (151) 
0

>  <hbond:GLY:159>  (151) 
0

>  <hydroph_interaction:PRO:101>  (151) 
0

>  <hydroph_interaction:THR:134>  (151) 
0

>  <hbond:GLY:82>  (151) 
0

>  <hydroph_interaction:GLU:104>  (151) 
0

>  <hydroph_interaction:VAL:36>  (151) 
0

>  <hydroph_interaction:MET:49>  (151) 
0

>  <halogenbond:GLU:104>  (151) 
0

>  <hydroph_interaction:LYS:107>  (151) 
0

$$$$
PV-002735784781
     RDKit          3D

 25 25  0  0  0  0  0  0  0  0999 V2000
  -10.0830    4.5780  -18.1700 C   0  0  0  0  0  0  0  0  0  0  0  0
   -9.0040    5.2160  -17.3460 C   0  0  0  0  0  0  0  0  0  0  0  0
   -9.3770    5.8710  -16.0300 C   0  0  0  0  0  0  0  0  0  0  0  0
   -9.6960    5.0670  -14.9620 N   0  0  0  0  0  0  0  0  0  0  0  0
   -7.6160    5.2520  -17.8140 C   0  0  0  0  0  0  0  0  0  0  0  0
   -6.5570    5.1450  -16.9420 C   0  0  0  0  0  0  0  0  0  0  0  0
   -6.9270    4.9920  -15.5790 O   0  0  0  0  0  0  0  0  0  0  0  0
   -5.2270    5.1760  -17.3070 C   0  0  0  0  0  0  0  0  0  0  0  0
   -4.0610    5.0590  -16.3840 C   0  0  0  0  0  0  0  0  0  0  0  0
   -4.9490    5.3290  -18.6690 C   0  0  0  0  0  0  0  0  0  0  0  0
   -6.0150    5.4610  -19.7640 C   0  0  0  0  0  0  0  0  0  0  0  0
   -7.3930    5.4050  -19.1890 C   0  0  0  0  0  0  0  0  0  0  0  0
  -11.1250    4.5600  -17.8490 H   0  0  0  0  0  0  0  0  0  0  0  0
   -9.8410    4.1110  -19.1280 H   0  0  0  0  0  0  0  0  0  0  0  0
  -10.2280    6.5350  -16.1900 H   0  0  0  0  0  0  0  0  0  0  0  0
   -8.5390    6.5070  -15.7260 H   0  0  0  0  0  0  0  0  0  0  0  0
  -10.6190    5.3230  -14.6120 H   0  0  0  0  0  0  0  0  0  0  0  0
   -9.7620    4.0940  -15.2520 H   0  0  0  0  0  0  0  0  0  0  0  0
   -7.4820    4.1980  -15.5020 H   0  0  0  0  0  0  0  0  0  0  0  0
   -3.2660    4.4610  -16.8380 H   0  0  0  0  0  0  0  0  0  0  0  0
   -4.3680    4.5440  -15.4670 H   0  0  0  0  0  0  0  0  0  0  0  0
   -3.6360    6.0340  -16.1360 H   0  0  0  0  0  0  0  0  0  0  0  0
   -3.9310    5.3680  -19.0770 H   0  0  0  0  0  0  0  0  0  0  0  0
   -5.7270    5.5790  -20.8150 H   0  0  0  0  0  0  0  0  0  0  0  0
   -8.2400    5.4880  -19.8620 H   0  0  0  0  0  0  0  0  0  0  0  0
  1  2  2  3
  2  3  1  0
  3  4  1  0
  2  5  1  0
  5  6  2  0
  6  7  1  0
  6  8  1  0
  8  9  1  0
  8 10  2  0
 10 11  1  0
 11 12  2  0
 12  5  1  0
  1 13  1  0
  1 14  1  0
  3 15  1  0
  3 16  1  0
  4 17  1  0
  4 18  1  0
  7 19  1  0
  9 20  1  0
  9 21  1  0
  9 22  1  0
 10 23  1  0
 11 24  1  0
 12 25  1  0
A    1
 C1 
A    2
 C2 
A    3
 C3 
A    4
 N1 
A    5
 C4 
A    6
 C5 
A    7
 O1 
A    8
 C6 
A    9
 C7 
A   10
 C8 
A   11
 C9 
A   12
 C10
A   13
 H1 
A   14
 H2 
A   15
 H3 
A   16
 H4 
A   17
 H5 
A   18
 H6 
A   19
 H7 
A   20
 H8 
A   21
 H9 
A   22
 H10
A   23
 H11
A   24
 H12
A   25
 H13
M  END
>  <ref_pdb>  (152) 
x0051_0B

>  <ref_mols>  (152) 
x0425_0B,x0435_0B

>  <original SMILES>  (152) 
[H]Oc1c(C(=C([H])[H])C([H])([H])N([H])[H])c([H])c([H])c([H])c1C([H])([H])[H]

>  <index>  (152) 
214

>  <∆∆G>  (152) 
-6.657566

>  <∆G_bound>  (152) 
-6.550789

>  <∆G_unbound>  (152) 
0.106777

>  <comRMSD>  (152) 
0.70035

>  <N_constrained_atoms>  (152) 
13.0

>  <N_unconstrained_atoms>  (152) 
1.0

>  <runtime>  (152) 
27.646799

>  <LE>  (152) 
0.47554

>  <percent_hybrid>  (152) 
40.0

>  <dist>  (152) 
3.0

>  <ecfp4>  (152) 
0.270833

>  <daylight>  (152) 
0.157895

>  <topodist>  (152) 
2.0

>  <mces>  (152) 
12.0

>  <tdn>  (152) 
1.0

>  <tup>  (152) 
0.0

>  <rdn>  (152) 
1.0

>  <rup>  (152) 
0.0

>  <ldn>  (152) 
0.0

>  <lup>  (152) 
0.0

>  <mut>  (152) 
1.0

>  <maj>  (152) 
1.0

>  <min>  (152) 
0.0

>  <hyb>  (152) 
0.0

>  <sub>  (152) 
1.0

>  <query_index>  (152) 
107.0

>  <max_hit_Tanimoto>  (152) 
0.103314

>  <largest_ring>  (152) 
0

>  <N_interactions_kept>  (152) 
1.0

>  <N_interactions_lost>  (152) 
2.5

>  <interaction_uniqueness_metric>  (152) 
0.225878

>  <ad_hoc_penalty>  (152) 
-25.787032

>  <N_rotatable_bonds>  (152) 
5

>  <N_HA>  (152) 
12

>  <cluster>  (152) 
6023

>  <N_interactions>  (152) 
9

>  <Enamine>  (152) 
1

>  <Mcule>  (152) 
0

>  <N_PAINS>  (152) 
0

>  <UFF_Gibbs>  (152) 
70.878478

>  <strain_per_HA>  (152) 
5.90654

>  <saltbridge:HIS:51>  (152) 
0

>  <pistack:HIS:51>  (152) 
0

>  <hydroph_interaction:HIS:51>  (152) 
0

>  <hbond:ALA:132>  (152) 
0

>  <hbond:SER:135>  (152) 
1

>  <hydroph_interaction:TYR:150>  (152) 
1

>  <pistack:TYR:161>  (152) 
1

>  <hydroph_interaction:TYR:161>  (152) 
3

>  <hydroph_interaction:ASP:83>  (152) 
0

>  <hbond:TYR:130>  (152) 
0

>  <hydroph_interaction:ALA:132>  (152) 
1

>  <hbond:HIS:51>  (152) 
1

>  <hbond:ASP:129>  (152) 
0

>  <hbond:TYR:150>  (152) 
0

>  <hbond:GLY:151>  (152) 
1

>  <hbond:TYR:161>  (152) 
0

>  <hydroph_interaction:TYR:130>  (152) 
0

>  <hydroph_interaction:PRO:131>  (152) 
0

>  <hydroph_interaction:ASP:129>  (152) 
0

>  <saltbridge:ASP:75>  (152) 
0

>  <saltbridge:ASP:83>  (152) 
0

>  <hydroph_interaction:ASN:152>  (152) 
0

>  <halogenbond:TYR:150>  (152) 
0

>  <hbond:ASP:83>  (152) 
0

>  <hydroph_interaction:VAL:155>  (152) 
0

>  <pication:TYR:161>  (152) 
0

>  <hbond:PRO:131>  (152) 
0

>  <hbond:LEU:128>  (152) 
0

>  <saltbridge:ASP:129>  (152) 
0

>  <hbond:THR:134>  (152) 
0

>  <pication:HIS:51>  (152) 
0

>  <hbond:SER:81>  (152) 
0

>  <hbond:GLY:159>  (152) 
0

>  <hydroph_interaction:PRO:101>  (152) 
0

>  <hydroph_interaction:THR:134>  (152) 
0

>  <hbond:GLY:82>  (152) 
0

>  <hydroph_interaction:GLU:104>  (152) 
0

>  <hydroph_interaction:VAL:36>  (152) 
0

>  <hydroph_interaction:MET:49>  (152) 
0

>  <halogenbond:GLU:104>  (152) 
0

>  <hydroph_interaction:LYS:107>  (152) 
0

$$$$
MCULE-4295529499
     RDKit          3D

 55 58  0  0  0  0  0  0  0  0999 V2000
   -6.5680    5.8580  -18.5520 C   0  0  0  0  0  0  0  0  0  0  0  0
   -6.9270    6.7590  -19.7030 C   0  0  0  0  0  0  0  0  0  0  0  0
   -5.8870    6.9570  -20.7880 C   0  0  0  0  0  0  0  0  0  0  0  0
   -4.6070    6.2100  -20.5720 C   0  0  0  0  0  0  0  0  0  0  0  0
   -4.3900    5.3980  -19.4550 C   0  0  0  0  0  0  0  0  0  0  0  0
   -5.3480    5.2250  -18.4650 C   0  0  0  0  0  0  0  0  0  0  0  0
   -7.6530    5.7550  -17.5250 C   0  0  0  0  0  0  0  0  0  0  0  0
   -8.9630    5.0360  -17.7000 C   0  0  0  0  0  0  0  0  0  0  0  0
   -9.1570    4.4130  -19.0540 C   0  0  0  0  0  0  0  0  0  0  0  0
   -9.9460    4.9700  -16.6910 N   0  0  0  0  0  0  0  0  0  0  0  0
   -9.5880    5.6760  -15.5370 C   0  0  0  0  0  0  0  0  0  0  0  0
   -8.4020    6.3850  -15.3430 C   0  0  0  0  0  0  0  0  0  0  0  0
   -8.0430    7.1270  -14.2460 N   0  0  0  0  0  0  0  0  0  0  0  0
   -8.9010    7.6960  -13.2870 C   0  0  0  0  0  0  0  0  0  0  0  0
   -8.9480    6.8260  -12.2300 C   0  0  0  0  0  0  0  0  0  0  0  0
   -8.8810    7.3590  -10.9640 C   0  0  0  0  0  0  0  0  0  0  0  0
   -8.9120    6.5160   -9.8690 C   0  0  0  0  0  0  0  0  0  0  0  0
   -9.0100    5.1400  -10.0220 C   0  0  0  0  0  0  0  0  0  0  0  0
   -9.0500    4.3300   -8.9280 N   0  0  0  0  0  0  0  0  0  0  0  0
   -9.4560    2.9250   -9.0660 C   0  0  0  0  0  0  0  0  0  0  0  0
   -9.7620    2.2800   -7.7430 C   0  0  0  0  0  0  0  0  0  0  0  0
  -10.0430    3.1860   -6.6130 N   0  0  0  0  0  0  0  0  0  0  0  0
  -11.3770    3.0810   -5.9730 C   0  0  0  0  0  0  0  0  0  0  0  0
   -9.4150    4.5230   -6.6430 C   0  0  0  0  0  0  0  0  0  0  0  0
   -8.5190    4.7670   -7.6950 C   0  0  0  0  0  0  0  0  0  0  0  0
   -9.0740    4.6130  -11.3230 C   0  0  0  0  0  0  0  0  0  0  0  0
   -9.0440    5.4510  -12.4310 C   0  0  0  0  0  0  0  0  0  0  0  0
   -9.4920    8.7670  -13.3180 O   0  0  0  0  0  0  0  0  0  0  0  0
   -7.4510    6.3960  -16.3300 C   0  0  0  0  0  0  0  0  0  0  0  0
   -7.8650    7.2420  -19.7700 H   0  0  0  0  0  0  0  0  0  0  0  0
   -6.0980    7.6000  -21.6410 H   0  0  0  0  0  0  0  0  0  0  0  0
   -3.8570    6.3520  -21.3580 H   0  0  0  0  0  0  0  0  0  0  0  0
   -3.4720    4.8470  -19.2680 H   0  0  0  0  0  0  0  0  0  0  0  0
   -5.0470    4.5670  -17.6440 H   0  0  0  0  0  0  0  0  0  0  0  0
   -8.3070    4.3790  -19.7340 H   0  0  0  0  0  0  0  0  0  0  0  0
   -9.9390    4.9850  -19.5650 H   0  0  0  0  0  0  0  0  0  0  0  0
   -9.5280    3.3940  -18.9190 H   0  0  0  0  0  0  0  0  0  0  0  0
  -10.3010    5.6940  -14.7030 H   0  0  0  0  0  0  0  0  0  0  0  0
   -7.0480    7.2240  -14.0920 H   0  0  0  0  0  0  0  0  0  0  0  0
   -8.8030    8.4380  -10.8180 H   0  0  0  0  0  0  0  0  0  0  0  0
   -8.8590    6.9750   -8.8790 H   0  0  0  0  0  0  0  0  0  0  0  0
  -10.3390    2.8650   -9.7080 H   0  0  0  0  0  0  0  0  0  0  0  0
   -8.6690    2.3290   -9.5400 H   0  0  0  0  0  0  0  0  0  0  0  0
  -10.5750    1.5630   -7.7240 H   0  0  0  0  0  0  0  0  0  0  0  0
   -8.8940    1.6800   -7.4840 H   0  0  0  0  0  0  0  0  0  0  0  0
  -11.3640    3.4560   -4.9460 H   0  0  0  0  0  0  0  0  0  0  0  0
  -11.7030    2.0350   -5.9460 H   0  0  0  0  0  0  0  0  0  0  0  0
  -12.1570    3.6060   -6.5050 H   0  0  0  0  0  0  0  0  0  0  0  0
   -8.8500    4.6750   -5.7160 H   0  0  0  0  0  0  0  0  0  0  0  0
  -10.2040    5.2830   -6.6540 H   0  0  0  0  0  0  0  0  0  0  0  0
   -8.3430    5.8470   -7.7150 H   0  0  0  0  0  0  0  0  0  0  0  0
   -7.5670    4.2800   -7.5020 H   0  0  0  0  0  0  0  0  0  0  0  0
   -9.1520    3.5420  -11.4910 H   0  0  0  0  0  0  0  0  0  0  0  0
   -9.0950    5.0120  -13.4230 H   0  0  0  0  0  0  0  0  0  0  0  0
   -6.5190    6.9340  -16.1850 H   0  0  0  0  0  0  0  0  0  0  0  0
  1  2  2  0
  2  3  1  0
  3  4  2  0
  4  5  1  0
  5  6  2  0
  1  7  1  0
  7  8  2  0
  8  9  1  0
  8 10  1  0
 10 11  2  0
 11 12  1  0
 12 13  1  0
 13 14  1  0
 14 15  1  0
 15 16  2  0
 16 17  1  0
 17 18  2  0
 18 19  1  0
 19 20  1  0
 20 21  1  0
 21 22  1  0
 22 23  1  0
 22 24  1  0
 24 25  1  0
 18 26  1  0
 26 27  2  0
 14 28  2  0
 12 29  2  0
  6  1  1  0
  7 29  1  0
 15 27  1  0
 25 19  1  0
  2 30  1  0
  3 31  1  0
  4 32  1  0
  5 33  1  0
  6 34  1  0
  9 35  1  0
  9 36  1  0
  9 37  1  0
 11 38  1  0
 13 39  1  0
 16 40  1  0
 17 41  1  0
 20 42  1  0
 20 43  1  0
 21 44  1  0
 21 45  1  0
 23 46  1  0
 23 47  1  0
 23 48  1  0
 24 49  1  0
 24 50  1  0
 25 51  1  0
 25 52  1  0
 26 53  1  0
 27 54  1  0
 29 55  1  0
A    1
 C1 
A    2
 C2 
A    3
 C3 
A    4
 C4 
A    5
 C5 
A    6
 C6 
A    7
 C7 
A    8
 C8 
A    9
 C9 
A   10
 N1 
A   11
 C10
A   12
 C11
A   13
 N2 
A   14
 C12
A   15
 C13
A   16
 C14
A   17
 C15
A   18
 C16
A   19
 N3 
A   20
 C17
A   21
 C18
A   22
 N4 
A   23
 C19
A   24
 C20
A   25
 C21
A   26
 C22
A   27
 C23
A   28
 O1 
A   29
 C24
A   30
 H1 
A   31
 H2 
A   32
 H3 
A   33
 H4 
A   34
 H5 
A   35
 H6 
A   36
 H7 
A   37
 H8 
A   38
 H9 
A   39
 H10
A   40
 H11
A   41
 H12
A   42
 H13
A   43
 H14
A   44
 H15
A   45
 H16
A   46
 H17
A   47
 H18
A   48
 H19
A   49
 H20
A   50
 H21
A   51
 H22
A   52
 H23
A   53
 H24
A   54
 H25
A   55
 H26
M  END
>  <ref_pdb>  (153) 
x0051_0B

>  <ref_mols>  (153) 
x0404_0B,x0803_0B

>  <original SMILES>  (153) 
[H]c1nc(C([H])([H])[H])c(-c2c([H])c([H])c([H])c([H])c2[H])c([H])c1N([H])C(=O)c1c([H])c([H])c(N2C([H])([H])C([H])([H])N(C([H])([H])[H])C([H])([H])C2([H])[H])c([H])c1[H]

>  <index>  (153) 
296

>  <∆∆G>  (153) 
-7.205671

>  <∆G_bound>  (153) 
-7.239163

>  <∆G_unbound>  (153) 
-0.033492

>  <comRMSD>  (153) 
0.910063

>  <N_constrained_atoms>  (153) 
28.0

>  <N_unconstrained_atoms>  (153) 
1.0

>  <runtime>  (153) 
108.039286

>  <LE>  (153) 
0.248471

>  <percent_hybrid>  (153) 
43.0

>  <dist>  (153) 
12.0

>  <ecfp4>  (153) 
0.172414

>  <daylight>  (153) 
0.196491

>  <topodist>  (153) 
3.0

>  <mces>  (153) 
30.0

>  <tdn>  (153) 
1.0

>  <tup>  (153) 
1.0

>  <rdn>  (153) 
0.0

>  <rup>  (153) 
0.0

>  <ldn>  (153) 
0.0

>  <lup>  (153) 
1.0

>  <mut>  (153) 
3.0

>  <maj>  (153) 
3.0

>  <min>  (153) 
0.0

>  <hyb>  (153) 
6.0

>  <sub>  (153) 
1.0

>  <query_index>  (153) 
94.0

>  <max_hit_Tanimoto>  (153) 
0.25315

>  <largest_ring>  (153) 
0

>  <N_interactions_kept>  (153) 
4.0

>  <N_interactions_lost>  (153) 
3.0

>  <interaction_uniqueness_metric>  (153) 
0.356432

>  <ad_hoc_penalty>  (153) 
-25.719361

>  <N_rotatable_bonds>  (153) 
6

>  <N_HA>  (153) 
29

>  <cluster>  (153) 
488

>  <N_interactions>  (153) 
9

>  <Enamine>  (153) 
0

>  <Mcule>  (153) 
1

>  <N_PAINS>  (153) 
0

>  <UFF_Gibbs>  (153) 
156.003533

>  <strain_per_HA>  (153) 
5.379432

>  <saltbridge:HIS:51>  (153) 
0

>  <pistack:HIS:51>  (153) 
1

>  <hydroph_interaction:HIS:51>  (153) 
1

>  <hbond:ALA:132>  (153) 
0

>  <hbond:SER:135>  (153) 
0

>  <hydroph_interaction:TYR:150>  (153) 
1

>  <pistack:TYR:161>  (153) 
0

>  <hydroph_interaction:TYR:161>  (153) 
3

>  <hydroph_interaction:ASP:83>  (153) 
0

>  <hbond:TYR:130>  (153) 
0

>  <hydroph_interaction:ALA:132>  (153) 
1

>  <hbond:HIS:51>  (153) 
0

>  <hbond:ASP:129>  (153) 
0

>  <hbond:TYR:150>  (153) 
0

>  <hbond:GLY:151>  (153) 
0

>  <hbond:TYR:161>  (153) 
0

>  <hydroph_interaction:TYR:130>  (153) 
0

>  <hydroph_interaction:PRO:131>  (153) 
0

>  <hydroph_interaction:ASP:129>  (153) 
0

>  <saltbridge:ASP:75>  (153) 
1

>  <saltbridge:ASP:83>  (153) 
1

>  <hydroph_interaction:ASN:152>  (153) 
0

>  <halogenbond:TYR:150>  (153) 
0

>  <hbond:ASP:83>  (153) 
0

>  <hydroph_interaction:VAL:155>  (153) 
0

>  <pication:TYR:161>  (153) 
0

>  <hbond:PRO:131>  (153) 
0

>  <hbond:LEU:128>  (153) 
0

>  <saltbridge:ASP:129>  (153) 
0

>  <hbond:THR:134>  (153) 
0

>  <pication:HIS:51>  (153) 
0

>  <hbond:SER:81>  (153) 
0

>  <hbond:GLY:159>  (153) 
0

>  <hydroph_interaction:PRO:101>  (153) 
0

>  <hydroph_interaction:THR:134>  (153) 
0

>  <hbond:GLY:82>  (153) 
0

>  <hydroph_interaction:GLU:104>  (153) 
0

>  <hydroph_interaction:VAL:36>  (153) 
0

>  <hydroph_interaction:MET:49>  (153) 
0

>  <halogenbond:GLU:104>  (153) 
0

>  <hydroph_interaction:LYS:107>  (153) 
0

$$$$
CSSB00028115066
     RDKit          3D

 42 45  0  0  0  0  0  0  0  0999 V2000
   -6.4600   11.1080  -26.1730 O   0  0  0  0  0  0  0  0  0  0  0  0
   -7.4070   10.2670  -26.6190 C   0  0  0  0  0  0  0  0  0  0  0  0
   -8.5240   10.6640  -26.9560 O   0  0  0  0  0  0  0  0  0  0  0  0
   -9.1830    9.5290  -27.4080 C   0  0  0  0  0  0  0  0  0  0  0  0
  -10.6050    9.4470  -27.9700 C   0  0  0  0  0  0  0  0  0  0  0  0
  -11.0940    8.1970  -28.3750 C   0  0  0  0  0  0  0  0  0  0  0  0
  -10.2560    7.0810  -28.2510 C   0  0  0  0  0  0  0  0  0  0  0  0
   -8.9640    7.1880  -27.7310 C   0  0  0  0  0  0  0  0  0  0  0  0
   -8.4040    8.3860  -27.2970 C   0  0  0  0  0  0  0  0  0  0  0  0
   -7.2340    8.8590  -26.7350 N   0  0  0  0  0  0  0  0  0  0  0  0
   -6.1000    8.2050  -26.1360 C   0  0  0  0  0  0  0  0  0  0  0  0
   -6.0490    7.8980  -24.6270 C   0  0  0  0  0  0  0  0  0  0  0  0
   -5.8310    8.7470  -23.5250 C   0  0  0  0  0  0  0  0  0  0  0  0
   -5.7810    8.2330  -22.1800 C   0  0  0  0  0  0  0  0  0  0  0  0
   -5.9450    6.8600  -21.9270 C   0  0  0  0  0  0  0  0  0  0  0  0
   -5.9460    6.0570  -20.7640 O   0  0  0  0  0  0  0  0  0  0  0  0
   -5.9770    6.5250  -19.4000 C   0  0  0  0  0  0  0  0  0  0  0  0
   -7.0930    5.8690  -18.5610 C   0  0  0  0  0  0  0  0  0  0  0  0
   -7.0280    5.9220  -17.1540 C   0  0  0  0  0  0  0  0  0  0  0  0
   -8.0360    5.3630  -16.3570 C   0  0  0  0  0  0  0  0  0  0  0  0
   -9.1240    4.7420  -16.9560 C   0  0  0  0  0  0  0  0  0  0  0  0
   -9.2070    4.6630  -18.3380 C   0  0  0  0  0  0  0  0  0  0  0  0
   -8.2000    5.2180  -19.1390 C   0  0  0  0  0  0  0  0  0  0  0  0
   -6.1620    6.0940  -23.0340 C   0  0  0  0  0  0  0  0  0  0  0  0
   -6.2170    6.6260  -24.3360 C   0  0  0  0  0  0  0  0  0  0  0  0
  -11.2220   10.3360  -28.0520 H   0  0  0  0  0  0  0  0  0  0  0  0
  -12.1010    8.0990  -28.7790 H   0  0  0  0  0  0  0  0  0  0  0  0
  -10.5540    6.0680  -28.5440 H   0  0  0  0  0  0  0  0  0  0  0  0
   -8.3440    6.2860  -27.6470 H   0  0  0  0  0  0  0  0  0  0  0  0
   -5.2140    8.7920  -26.4120 H   0  0  0  0  0  0  0  0  0  0  0  0
   -5.9720    7.2420  -26.6510 H   0  0  0  0  0  0  0  0  0  0  0  0
   -5.6890    9.8150  -23.6830 H   0  0  0  0  0  0  0  0  0  0  0  0
   -5.6090    8.9410  -21.3770 H   0  0  0  0  0  0  0  0  0  0  0  0
   -6.1270    7.6120  -19.3990 H   0  0  0  0  0  0  0  0  0  0  0  0
   -5.0230    6.3070  -18.9070 H   0  0  0  0  0  0  0  0  0  0  0  0
   -6.1840    6.4100  -16.6680 H   0  0  0  0  0  0  0  0  0  0  0  0
   -7.9700    5.4180  -15.2750 H   0  0  0  0  0  0  0  0  0  0  0  0
   -9.9070    4.3180  -16.3430 H   0  0  0  0  0  0  0  0  0  0  0  0
  -10.0560    4.1720  -18.8020 H   0  0  0  0  0  0  0  0  0  0  0  0
   -8.2920    5.1430  -20.2140 H   0  0  0  0  0  0  0  0  0  0  0  0
   -6.3020    5.0310  -22.8770 H   0  0  0  0  0  0  0  0  0  0  0  0
   -6.4000    5.9990  -25.1850 H   0  0  0  0  0  0  0  0  0  0  0  0
  1  2  2  0
  2  3  1  0
  3  4  1  0
  4  5  2  0
  5  6  1  0
  6  7  2  0
  7  8  1  0
  8  9  2  0
  9 10  1  0
 10 11  1  0
 11 12  1  0
 12 13  2  0
 13 14  1  0
 14 15  2  0
 15 16  1  0
 16 17  1  0
 17 18  1  0
 18 19  2  0
 19 20  1  0
 20 21  2  0
 21 22  1  0
 22 23  2  0
 15 24  1  0
 24 25  2  0
 10  2  1  0
  9  4  1  0
 25 12  1  0
 23 18  1  0
  5 26  1  0
  6 27  1  0
  7 28  1  0
  8 29  1  0
 11 30  1  0
 11 31  1  0
 13 32  1  0
 14 33  1  0
 17 34  1  0
 17 35  1  0
 19 36  1  0
 20 37  1  0
 21 38  1  0
 22 39  1  0
 23 40  1  0
 24 41  1  0
 25 42  1  0
A    1
 O1 
A    2
 C1 
A    3
 O2 
A    4
 C2 
A    5
 C3 
A    6
 C4 
A    7
 C5 
A    8
 C6 
A    9
 C7 
A   10
 N1 
A   11
 C8 
A   12
 C9 
A   13
 C10
A   14
 C11
A   15
 C12
A   16
 O3 
A   17
 C13
A   18
 C14
A   19
 C15
A   20
 C16
A   21
 C17
A   22
 C18
A   23
 C19
A   24
 C20
A   25
 C21
A   26
 H1 
A   27
 H2 
A   28
 H3 
A   29
 H4 
A   30
 H5 
A   31
 H6 
A   32
 H7 
A   33
 H8 
A   34
 H9 
A   35
 H10
A   36
 H11
A   37
 H12
A   38
 H13
A   39
 H14
A   40
 H15
A   41
 H16
A   42
 H17
M  END
>  <ref_pdb>  (154) 
x0051_0B

>  <ref_mols>  (154) 
x0846_1B,x0589_0B

>  <original SMILES>  (154) 
[H]c1c([H])c([H])c(C([H])([H])Oc2c([H])c([H])c(C([H])([H])n3c(=O)oc4c([H])c([H])c([H])c([H])c43)c([H])c2[H])c([H])c1[H]

>  <index>  (154) 
297

>  <∆∆G>  (154) 
-6.094874

>  <∆G_bound>  (154) 
-5.823642

>  <∆G_unbound>  (154) 
0.271232

>  <comRMSD>  (154) 
0.749375

>  <N_constrained_atoms>  (154) 
23.0

>  <N_unconstrained_atoms>  (154) 
5.0

>  <runtime>  (154) 
58.457088

>  <LE>  (154) 
0.217674

>  <percent_hybrid>  (154) 
35.0

>  <dist>  (154) 
7.0

>  <ecfp4>  (154) 
0.179487

>  <daylight>  (154) 
0.271493

>  <topodist>  (154) 
5.0

>  <mces>  (154) 
27.0

>  <tdn>  (154) 
2.0

>  <tup>  (154) 
0.0

>  <rdn>  (154) 
1.0

>  <rup>  (154) 
1.0

>  <ldn>  (154) 
1.0

>  <lup>  (154) 
0.0

>  <mut>  (154) 
2.0

>  <maj>  (154) 
2.0

>  <min>  (154) 
0.0

>  <hyb>  (154) 
0.0

>  <sub>  (154) 
3.0

>  <query_index>  (154) 
309.0

>  <max_hit_Tanimoto>  (154) 
0.224299

>  <largest_ring>  (154) 
0

>  <N_interactions_kept>  (154) 
1.0

>  <N_interactions_lost>  (154) 
1.0

>  <interaction_uniqueness_metric>  (154) 
0.177128

>  <ad_hoc_penalty>  (154) 
-25.658869

>  <N_rotatable_bonds>  (154) 
5

>  <N_HA>  (154) 
25

>  <cluster>  (154) 
5946

>  <N_interactions>  (154) 
6

>  <Enamine>  (154) 
1

>  <Mcule>  (154) 
0

>  <N_PAINS>  (154) 
0

>  <UFF_Gibbs>  (154) 
87.315294

>  <strain_per_HA>  (154) 
3.492612

>  <saltbridge:HIS:51>  (154) 
0

>  <pistack:HIS:51>  (154) 
0

>  <hydroph_interaction:HIS:51>  (154) 
0

>  <hbond:ALA:132>  (154) 
0

>  <hbond:SER:135>  (154) 
0

>  <hydroph_interaction:TYR:150>  (154) 
0

>  <pistack:TYR:161>  (154) 
0

>  <hydroph_interaction:TYR:161>  (154) 
2

>  <hydroph_interaction:ASP:83>  (154) 
0

>  <hbond:TYR:130>  (154) 
0

>  <hydroph_interaction:ALA:132>  (154) 
1

>  <hbond:HIS:51>  (154) 
0

>  <hbond:ASP:129>  (154) 
0

>  <hbond:TYR:150>  (154) 
0

>  <hbond:GLY:151>  (154) 
0

>  <hbond:TYR:161>  (154) 
0

>  <hydroph_interaction:TYR:130>  (154) 
1

>  <hydroph_interaction:PRO:131>  (154) 
1

>  <hydroph_interaction:ASP:129>  (154) 
1

>  <saltbridge:ASP:75>  (154) 
0

>  <saltbridge:ASP:83>  (154) 
0

>  <hydroph_interaction:ASN:152>  (154) 
0

>  <halogenbond:TYR:150>  (154) 
0

>  <hbond:ASP:83>  (154) 
0

>  <hydroph_interaction:VAL:155>  (154) 
0

>  <pication:TYR:161>  (154) 
0

>  <hbond:PRO:131>  (154) 
0

>  <hbond:LEU:128>  (154) 
0

>  <saltbridge:ASP:129>  (154) 
0

>  <hbond:THR:134>  (154) 
0

>  <pication:HIS:51>  (154) 
0

>  <hbond:SER:81>  (154) 
0

>  <hbond:GLY:159>  (154) 
0

>  <hydroph_interaction:PRO:101>  (154) 
0

>  <hydroph_interaction:THR:134>  (154) 
0

>  <hbond:GLY:82>  (154) 
0

>  <hydroph_interaction:GLU:104>  (154) 
0

>  <hydroph_interaction:VAL:36>  (154) 
0

>  <hydroph_interaction:MET:49>  (154) 
0

>  <halogenbond:GLU:104>  (154) 
0

>  <hydroph_interaction:LYS:107>  (154) 
0

$$$$
MCULE-2448846059
     RDKit          3D

 32 34  0  0  0  0  0  0  0  0999 V2000
   -7.7280    5.3090  -18.1410 C   0  0  0  0  0  0  0  0  0  0  0  0
   -8.0640    5.3210  -16.7680 C   0  0  0  0  0  0  0  0  0  0  0  0
   -7.0470    5.6760  -15.7230 C   0  0  0  0  0  0  0  0  0  0  0  0
   -5.8760    6.3670  -16.4020 C   0  0  0  0  0  0  0  0  0  0  0  0
   -5.5000    5.6150  -17.5100 N   0  0  0  0  0  0  0  0  0  0  0  0
   -4.0870    5.3040  -17.8000 C   0  0  0  0  0  0  0  0  0  0  0  0
   -3.6290    5.2070  -18.9340 O   0  0  0  0  0  0  0  0  0  0  0  0
   -3.2000    5.1180  -16.7280 C   0  0  0  0  0  0  0  0  0  0  0  0
   -3.6410    4.4260  -15.5180 C   0  0  0  0  0  0  0  0  0  0  0  0
   -2.7430    4.2250  -14.3960 C   0  0  0  0  0  0  0  0  0  0  0  0
   -1.3270    4.7520  -14.4990 C   0  0  0  0  0  0  0  0  0  0  0  0
   -0.9150    5.4320  -15.7030 C   0  0  0  0  0  0  0  0  0  0  0  0
   -1.8670    5.5850  -16.7670 C   0  0  0  0  0  0  0  0  0  0  0  0
   -1.2340    6.4360  -18.2010 S   0  0  0  0  0  0  0  0  0  0  0  0
   -6.3150    5.6590  -18.6020 C   0  0  0  0  0  0  0  0  0  0  0  0
   -9.3730    4.9720  -16.6630 N   0  0  0  0  0  0  0  0  0  0  0  0
   -9.9280    4.7280  -17.8680 N   0  0  0  0  0  0  0  0  0  0  0  0
   -8.9390    4.9280  -18.7480 C   0  0  0  0  0  0  0  0  0  0  0  0
   -9.2660    4.7330  -20.0300 O   0  0  0  0  0  0  0  0  0  0  0  0
   -7.4830    6.3920  -15.0180 H   0  0  0  0  0  0  0  0  0  0  0  0
   -6.8240    4.7840  -15.1270 H   0  0  0  0  0  0  0  0  0  0  0  0
   -6.0330    7.3690  -16.7950 H   0  0  0  0  0  0  0  0  0  0  0  0
   -5.0420    6.4420  -15.6950 H   0  0  0  0  0  0  0  0  0  0  0  0
   -4.6700    4.0590  -15.4750 H   0  0  0  0  0  0  0  0  0  0  0  0
   -3.0790    3.7040  -13.4920 H   0  0  0  0  0  0  0  0  0  0  0  0
   -0.6290    4.6190  -13.6750 H   0  0  0  0  0  0  0  0  0  0  0  0
    0.1010    5.8140  -15.7880 H   0  0  0  0  0  0  0  0  0  0  0  0
   -0.8270    5.3410  -18.8640 H   0  0  0  0  0  0  0  0  0  0  0  0
   -6.3060    6.6750  -19.0100 H   0  0  0  0  0  0  0  0  0  0  0  0
   -6.0120    4.9800  -19.3960 H   0  0  0  0  0  0  0  0  0  0  0  0
   -9.9520    4.8750  -15.8310 H   0  0  0  0  0  0  0  0  0  0  0  0
   -8.9750    5.4640  -20.6130 H   0  0  0  0  0  0  0  0  0  0  0  0
  1  2  2  0
  2  3  1  0
  3  4  1  0
  4  5  1  0
  5  6  1  0
  6  7  2  0
  6  8  1  0
  8  9  2  0
  9 10  1  0
 10 11  2  0
 11 12  1  0
 12 13  2  0
 13 14  1  0
  5 15  1  0
  2 16  1  0
 16 17  1  0
 17 18  2  0
 18 19  1  0
 15  1  1  0
 18  1  1  0
 13  8  1  0
  3 20  1  0
  3 21  1  0
  4 22  1  0
  4 23  1  0
  9 24  1  0
 10 25  1  0
 11 26  1  0
 12 27  1  0
 14 28  1  0
 15 29  1  0
 15 30  1  0
 16 31  1  0
 19 32  1  0
A    1
 C1 
A    2
 C2 
A    3
 C3 
A    4
 C4 
A    5
 N1 
A    6
 C5 
A    7
 O1 
A    8
 C6 
A    9
 C7 
A   10
 C8 
A   11
 C9 
A   12
 C10
A   13
 C11
A   14
 S1 
A   15
 C12
A   16
 N2 
A   17
 N3 
A   18
 C13
A   19
 O2 
A   20
 H1 
A   21
 H2 
A   22
 H3 
A   23
 H4 
A   24
 H5 
A   25
 H6 
A   26
 H7 
A   27
 H8 
A   28
 H9 
A   29
 H10
A   30
 H11
A   31
 H12
A   32
 H13
M  END
>  <ref_pdb>  (155) 
x0051_0B

>  <ref_mols>  (155) 
x0472_0B,x0852_0B

>  <original SMILES>  (155) 
[H]Oc1nn([H])c2c1C([H])([H])N(C(=O)c1c([H])c([H])c([H])c([H])c1S[H])C([H])([H])C2([H])[H]

>  <index>  (155) 
251

>  <∆∆G>  (155) 
-6.860844

>  <∆G_bound>  (155) 
-6.784598

>  <∆G_unbound>  (155) 
0.076246

>  <comRMSD>  (155) 
0.513197

>  <N_constrained_atoms>  (155) 
16.0

>  <N_unconstrained_atoms>  (155) 
5.0

>  <runtime>  (155) 
25.597849

>  <LE>  (155) 
0.326707

>  <percent_hybrid>  (155) 
43.0

>  <dist>  (155) 
10.0

>  <ecfp4>  (155) 
0.144444

>  <daylight>  (155) 
0.294498

>  <topodist>  (155) 
4.0

>  <mces>  (155) 
21.0

>  <tdn>  (155) 
2.0

>  <tup>  (155) 
0.0

>  <rdn>  (155) 
1.0

>  <rup>  (155) 
0.0

>  <ldn>  (155) 
1.0

>  <lup>  (155) 
0.0

>  <mut>  (155) 
5.0

>  <maj>  (155) 
4.0

>  <min>  (155) 
1.0

>  <hyb>  (155) 
1.0

>  <sub>  (155) 
1.0

>  <query_index>  (155) 
178.0

>  <max_hit_Tanimoto>  (155) 
0.253057

>  <largest_ring>  (155) 
0

>  <N_interactions_kept>  (155) 
5.0

>  <N_interactions_lost>  (155) 
1.5

>  <interaction_uniqueness_metric>  (155) 
0.076311

>  <ad_hoc_penalty>  (155) 
-25.531623

>  <N_rotatable_bonds>  (155) 
3

>  <N_HA>  (155) 
19

>  <cluster>  (155) 
5989

>  <N_interactions>  (155) 
6

>  <Enamine>  (155) 
0

>  <Mcule>  (155) 
1

>  <N_PAINS>  (155) 
0

>  <UFF_Gibbs>  (155) 
67.073632

>  <strain_per_HA>  (155) 
3.530191

>  <saltbridge:HIS:51>  (155) 
0

>  <pistack:HIS:51>  (155) 
0

>  <hydroph_interaction:HIS:51>  (155) 
0

>  <hbond:ALA:132>  (155) 
0

>  <hbond:SER:135>  (155) 
0

>  <hydroph_interaction:TYR:150>  (155) 
0

>  <pistack:TYR:161>  (155) 
0

>  <hydroph_interaction:TYR:161>  (155) 
4

>  <hydroph_interaction:ASP:83>  (155) 
0

>  <hbond:TYR:130>  (155) 
1

>  <hydroph_interaction:ALA:132>  (155) 
0

>  <hbond:HIS:51>  (155) 
0

>  <hbond:ASP:129>  (155) 
0

>  <hbond:TYR:150>  (155) 
0

>  <hbond:GLY:151>  (155) 
0

>  <hbond:TYR:161>  (155) 
0

>  <hydroph_interaction:TYR:130>  (155) 
0

>  <hydroph_interaction:PRO:131>  (155) 
0

>  <hydroph_interaction:ASP:129>  (155) 
0

>  <saltbridge:ASP:75>  (155) 
0

>  <saltbridge:ASP:83>  (155) 
0

>  <hydroph_interaction:ASN:152>  (155) 
0

>  <halogenbond:TYR:150>  (155) 
0

>  <hbond:ASP:83>  (155) 
0

>  <hydroph_interaction:VAL:155>  (155) 
1

>  <pication:TYR:161>  (155) 
0

>  <hbond:PRO:131>  (155) 
0

>  <hbond:LEU:128>  (155) 
0

>  <saltbridge:ASP:129>  (155) 
0

>  <hbond:THR:134>  (155) 
0

>  <pication:HIS:51>  (155) 
0

>  <hbond:SER:81>  (155) 
0

>  <hbond:GLY:159>  (155) 
0

>  <hydroph_interaction:PRO:101>  (155) 
0

>  <hydroph_interaction:THR:134>  (155) 
0

>  <hbond:GLY:82>  (155) 
0

>  <hydroph_interaction:GLU:104>  (155) 
0

>  <hydroph_interaction:VAL:36>  (155) 
0

>  <hydroph_interaction:MET:49>  (155) 
0

>  <halogenbond:GLU:104>  (155) 
0

>  <hydroph_interaction:LYS:107>  (155) 
0

$$$$
Z3414280809
     RDKit          3D

 46 49  0  0  0  0  0  0  0  0999 V2000
   -8.2350    7.0550  -12.3320 O   0  0  0  0  0  0  0  0  0  0  0  0
   -8.6320    5.9700  -11.9300 C   0  0  0  0  0  0  0  0  0  0  0  0
   -8.9630    4.9730  -12.8260 N   0  0  0  0  0  0  0  0  0  0  0  0
   -7.9710    4.5370  -13.8050 C   0  0  0  0  0  0  0  0  0  0  0  0
   -7.6030    5.4770  -14.9770 C   0  0  0  0  0  0  0  0  0  0  0  0
   -6.2100    5.3880  -15.1270 C   0  0  0  0  0  0  0  0  0  0  0  0
   -5.7390    6.0890  -16.2330 C   0  0  0  0  0  0  0  0  0  0  0  0
   -6.1570    5.5800  -17.4630 C   0  0  0  0  0  0  0  0  0  0  0  0
   -7.4490    5.2840  -17.5560 C   0  0  0  0  0  0  0  0  0  0  0  0
   -8.0070    5.0570  -18.8210 C   0  0  0  0  0  0  0  0  0  0  0  0
   -9.3320    4.7580  -19.0160 C   0  0  0  0  0  0  0  0  0  0  0  0
  -10.1260    4.6830  -17.8980 C   0  0  0  0  0  0  0  0  0  0  0  0
   -9.6090    4.9000  -16.5880 C   0  0  0  0  0  0  0  0  0  0  0  0
   -8.2610    5.2070  -16.3700 C   0  0  0  0  0  0  0  0  0  0  0  0
   -8.7660    5.7120  -10.4780 C   0  0  0  0  0  0  0  0  0  0  0  0
   -8.9840    4.5430   -9.7550 C   0  0  0  0  0  0  0  0  0  0  0  0
   -9.1220    3.2880  -10.3500 C   0  0  0  0  0  0  0  0  0  0  0  0
   -9.0030    2.3240   -9.3950 N   0  0  0  0  0  0  0  0  0  0  0  0
   -9.7180    2.6010   -8.1260 C   0  0  0  0  0  0  0  0  0  0  0  0
   -9.2650    3.7430   -7.4560 C   0  0  0  0  0  0  0  0  0  0  0  0
   -9.0380    4.7970   -8.4170 N   0  0  0  0  0  0  0  0  0  0  0  0
   -8.8550    6.1290   -8.1580 C   0  0  0  0  0  0  0  0  0  0  0  0
   -8.6830    6.7700   -9.3710 C   0  0  0  0  0  0  0  0  0  0  0  0
   -9.9150    5.0190  -13.1650 H   0  0  0  0  0  0  0  0  0  0  0  0
   -7.0600    4.3490  -13.2280 H   0  0  0  0  0  0  0  0  0  0  0  0
   -8.2690    3.5830  -14.1800 H   0  0  0  0  0  0  0  0  0  0  0  0
   -7.9760    6.4740  -14.7400 H   0  0  0  0  0  0  0  0  0  0  0  0
   -5.7470    4.4100  -15.1390 H   0  0  0  0  0  0  0  0  0  0  0  0
   -5.7630    5.8740  -14.2480 H   0  0  0  0  0  0  0  0  0  0  0  0
   -4.6820    6.3440  -16.2360 H   0  0  0  0  0  0  0  0  0  0  0  0
   -6.2130    7.0760  -16.1510 H   0  0  0  0  0  0  0  0  0  0  0  0
   -5.5580    4.7010  -17.7110 H   0  0  0  0  0  0  0  0  0  0  0  0
   -5.9400    6.3180  -18.2440 H   0  0  0  0  0  0  0  0  0  0  0  0
   -7.3520    5.1250  -19.6970 H   0  0  0  0  0  0  0  0  0  0  0  0
   -9.7470    4.5900  -20.0090 H   0  0  0  0  0  0  0  0  0  0  0  0
  -11.1910    4.4510  -18.0160 H   0  0  0  0  0  0  0  0  0  0  0  0
  -10.2230    4.8450  -15.6810 H   0  0  0  0  0  0  0  0  0  0  0  0
   -8.2870    3.1640  -11.0480 H   0  0  0  0  0  0  0  0  0  0  0  0
  -10.0040    3.0390  -10.9150 H   0  0  0  0  0  0  0  0  0  0  0  0
   -8.0090    2.2570   -9.1940 H   0  0  0  0  0  0  0  0  0  0  0  0
  -10.7820    2.7120   -8.3370 H   0  0  0  0  0  0  0  0  0  0  0  0
   -9.6330    1.7270   -7.4690 H   0  0  0  0  0  0  0  0  0  0  0  0
  -10.0050    4.0870   -6.7250 H   0  0  0  0  0  0  0  0  0  0  0  0
   -8.3180    3.5570   -6.9490 H   0  0  0  0  0  0  0  0  0  0  0  0
   -8.8640    6.5140   -7.1480 H   0  0  0  0  0  0  0  0  0  0  0  0
   -8.5190    7.8320   -9.4850 H   0  0  0  0  0  0  0  0  0  0  0  0
  1  2  2  0
  2  3  1  0
  3  4  1  0
  4  5  1  0
  5  6  1  0
  6  7  1  0
  7  8  1  0
  8  9  1  0
  9 10  2  0
 10 11  1  0
 11 12  2  0
 12 13  1  0
 13 14  2  0
  2 15  1  0
 15 16  2  0
 16 17  1  0
 17 18  1  0
 18 19  1  0
 19 20  1  0
 20 21  1  0
 21 22  1  0
 22 23  2  0
 14  5  1  0
 14  9  1  0
 23 15  1  0
 21 16  1  0
  3 24  1  0
  4 25  1  0
  4 26  1  0
  5 27  1  0
  6 28  1  0
  6 29  1  0
  7 30  1  0
  7 31  1  0
  8 32  1  0
  8 33  1  0
 10 34  1  0
 11 35  1  0
 12 36  1  0
 13 37  1  0
 17 38  1  0
 17 39  1  0
 18 40  1  0
 19 41  1  0
 19 42  1  0
 20 43  1  0
 20 44  1  0
 22 45  1  0
 23 46  1  0
A    1
 O1 
A    2
 C1 
A    3
 N1 
A    4
 C2 
A    5
 C3 
A    6
 C4 
A    7
 C5 
A    8
 C6 
A    9
 C7 
A   10
 C8 
A   11
 C9 
A   12
 C10
A   13
 C11
A   14
 C12
A   15
 C13
A   16
 C14
A   17
 C15
A   18
 N2 
A   19
 C16
A   20
 C17
A   21
 N3 
A   22
 C18
A   23
 C19
A   24
 H1 
A   25
 H2 
A   26
 H3 
A   27
 H4 
A   28
 H5 
A   29
 H6 
A   30
 H7 
A   31
 H8 
A   32
 H9 
A   33
 H10
A   34
 H11
A   35
 H12
A   36
 H13
A   37
 H14
A   38
 H15
A   39
 H16
A   40
 H17
A   41
 H18
A   42
 H19
A   43
 H20
A   44
 H21
A   45
 H22
A   46
 H23
M  END
>  <ref_pdb>  (156) 
x0051_0B

>  <ref_mols>  (156) 
x0969_1B,x0455_0B

>  <original SMILES>  (156) 
[H]c1c([H])c([H])c2c(c1[H])C([H])([H])C([H])([H])C([H])([H])C2([H])C([H])([H])N([H])C(=O)c1c([H])c([H])n2c1C([H])([H])N([H])C([H])([H])C2([H])[H]

>  <index>  (156) 
310

>  <∆∆G>  (156) 
-5.175787

>  <∆G_bound>  (156) 
-4.462196

>  <∆G_unbound>  (156) 
0.713592

>  <comRMSD>  (156) 
0.356821

>  <N_constrained_atoms>  (156) 
20.0

>  <N_unconstrained_atoms>  (156) 
3.0

>  <runtime>  (156) 
66.536399

>  <LE>  (156) 
0.225034

>  <percent_hybrid>  (156) 
50.0

>  <dist>  (156) 
6.0

>  <ecfp4>  (156) 
0.232558

>  <daylight>  (156) 
0.309249

>  <topodist>  (156) 
1.0

>  <mces>  (156) 
25.0

>  <tdn>  (156) 
0.0

>  <tup>  (156) 
1.0

>  <rdn>  (156) 
0.0

>  <rup>  (156) 
0.0

>  <ldn>  (156) 
0.0

>  <lup>  (156) 
0.0

>  <mut>  (156) 
4.0

>  <maj>  (156) 
4.0

>  <min>  (156) 
0.0

>  <hyb>  (156) 
1.0

>  <sub>  (156) 
0.0

>  <query_index>  (156) 
204.0

>  <max_hit_Tanimoto>  (156) 
0.276408

>  <largest_ring>  (156) 
0

>  <N_interactions_kept>  (156) 
0.0

>  <N_interactions_lost>  (156) 
2.5

>  <interaction_uniqueness_metric>  (156) 
0.309474

>  <ad_hoc_penalty>  (156) 
-25.49208

>  <N_rotatable_bonds>  (156) 
3

>  <N_HA>  (156) 
23

>  <cluster>  (156) 
5935

>  <N_interactions>  (156) 
8

>  <Enamine>  (156) 
1

>  <Mcule>  (156) 
0

>  <N_PAINS>  (156) 
0

>  <UFF_Gibbs>  (156) 
115.026861

>  <strain_per_HA>  (156) 
5.001168

>  <saltbridge:HIS:51>  (156) 
0

>  <pistack:HIS:51>  (156) 
0

>  <hydroph_interaction:HIS:51>  (156) 
1

>  <hbond:ALA:132>  (156) 
0

>  <hbond:SER:135>  (156) 
0

>  <hydroph_interaction:TYR:150>  (156) 
1

>  <pistack:TYR:161>  (156) 
1

>  <hydroph_interaction:TYR:161>  (156) 
2

>  <hydroph_interaction:ASP:83>  (156) 
0

>  <hbond:TYR:130>  (156) 
0

>  <hydroph_interaction:ALA:132>  (156) 
0

>  <hbond:HIS:51>  (156) 
2

>  <hbond:ASP:129>  (156) 
0

>  <hbond:TYR:150>  (156) 
0

>  <hbond:GLY:151>  (156) 
0

>  <hbond:TYR:161>  (156) 
0

>  <hydroph_interaction:TYR:130>  (156) 
0

>  <hydroph_interaction:PRO:131>  (156) 
0

>  <hydroph_interaction:ASP:129>  (156) 
0

>  <saltbridge:ASP:75>  (156) 
0

>  <saltbridge:ASP:83>  (156) 
0

>  <hydroph_interaction:ASN:152>  (156) 
0

>  <halogenbond:TYR:150>  (156) 
0

>  <hbond:ASP:83>  (156) 
1

>  <hydroph_interaction:VAL:155>  (156) 
0

>  <pication:TYR:161>  (156) 
0

>  <hbond:PRO:131>  (156) 
0

>  <hbond:LEU:128>  (156) 
0

>  <saltbridge:ASP:129>  (156) 
0

>  <hbond:THR:134>  (156) 
0

>  <pication:HIS:51>  (156) 
0

>  <hbond:SER:81>  (156) 
0

>  <hbond:GLY:159>  (156) 
0

>  <hydroph_interaction:PRO:101>  (156) 
0

>  <hydroph_interaction:THR:134>  (156) 
0

>  <hbond:GLY:82>  (156) 
0

>  <hydroph_interaction:GLU:104>  (156) 
0

>  <hydroph_interaction:VAL:36>  (156) 
0

>  <hydroph_interaction:MET:49>  (156) 
0

>  <halogenbond:GLU:104>  (156) 
0

>  <hydroph_interaction:LYS:107>  (156) 
0

$$$$
Z2835582124
     RDKit          3D

 39 41  0  0  0  0  0  0  0  0999 V2000
   -5.2230    5.4280  -15.9390 C   0  0  0  0  0  0  0  0  0  0  0  0
   -6.6330    5.2780  -16.4500 C   0  0  0  0  0  0  0  0  0  0  0  0
   -6.6820    5.2960  -17.9590 C   0  0  0  0  0  0  0  0  0  0  0  0
   -8.0440    5.1450  -18.6050 C   0  0  0  0  0  0  0  0  0  0  0  0
   -9.1410    5.0020  -17.7860 C   0  0  0  0  0  0  0  0  0  0  0  0
  -10.5440    4.8560  -18.2580 C   0  0  0  0  0  0  0  0  0  0  0  0
  -11.5880    4.8210  -18.6230 N   0  0  0  0  0  0  0  0  0  0  0  0
   -9.0540    4.9930  -16.3820 C   0  0  0  0  0  0  0  0  0  0  0  0
   -7.7850    5.1340  -15.6500 C   0  0  0  0  0  0  0  0  0  0  0  0
   -7.6650    5.1280  -14.2880 N   0  0  0  0  0  0  0  0  0  0  0  0
   -8.3620    5.8790  -13.3040 C   0  0  0  0  0  0  0  0  0  0  0  0
   -8.6720    7.0600  -13.4270 O   0  0  0  0  0  0  0  0  0  0  0  0
   -8.6530    5.1200  -12.1680 N   0  0  0  0  0  0  0  0  0  0  0  0
   -8.7210    5.4920  -10.8310 C   0  0  0  0  0  0  0  0  0  0  0  0
   -8.8960    4.4220   -9.9890 C   0  0  0  0  0  0  0  0  0  0  0  0
   -9.0250    2.9590  -10.2390 C   0  0  0  0  0  0  0  0  0  0  0  0
   -8.6610    2.2270   -8.9520 C   0  0  0  0  0  0  0  0  0  0  0  0
   -9.4960    2.7180   -7.7890 C   0  0  0  0  0  0  0  0  0  0  0  0
   -9.1160    4.1610   -7.4800 C   0  0  0  0  0  0  0  0  0  0  0  0
   -8.9410    4.9310   -8.7080 N   0  0  0  0  0  0  0  0  0  0  0  0
   -8.8040    6.2740   -8.6770 N   0  0  0  0  0  0  0  0  0  0  0  0
   -8.6720    6.6250   -9.9810 C   0  0  0  0  0  0  0  0  0  0  0  0
   -5.0010    6.4830  -15.7560 H   0  0  0  0  0  0  0  0  0  0  0  0
   -4.5050    5.0490  -16.6710 H   0  0  0  0  0  0  0  0  0  0  0  0
   -5.0980    4.8560  -15.0130 H   0  0  0  0  0  0  0  0  0  0  0  0
   -5.7900    5.4090  -18.5730 H   0  0  0  0  0  0  0  0  0  0  0  0
   -8.1440    5.1520  -19.6890 H   0  0  0  0  0  0  0  0  0  0  0  0
   -9.9850    4.8750  -15.8330 H   0  0  0  0  0  0  0  0  0  0  0  0
   -6.9220    4.5590  -13.9210 H   0  0  0  0  0  0  0  0  0  0  0  0
   -8.7600    4.1270  -12.3080 H   0  0  0  0  0  0  0  0  0  0  0  0
  -10.0580    2.7260  -10.5240 H   0  0  0  0  0  0  0  0  0  0  0  0
   -8.3690    2.6350  -11.0560 H   0  0  0  0  0  0  0  0  0  0  0  0
   -7.6030    2.3950   -8.7380 H   0  0  0  0  0  0  0  0  0  0  0  0
   -8.7920    1.1620   -9.0650 H   0  0  0  0  0  0  0  0  0  0  0  0
   -9.3060    2.0830   -6.9180 H   0  0  0  0  0  0  0  0  0  0  0  0
  -10.5660    2.6450   -8.0190 H   0  0  0  0  0  0  0  0  0  0  0  0
   -9.8990    4.6560   -6.8950 H   0  0  0  0  0  0  0  0  0  0  0  0
   -8.1780    4.1950   -6.9170 H   0  0  0  0  0  0  0  0  0  0  0  0
   -8.5460    7.6680  -10.2380 H   0  0  0  0  0  0  0  0  0  0  0  0
  1  2  1  0
  2  3  2  0
  3  4  1  0
  4  5  2  0
  5  6  1  0
  6  7  3  0
  5  8  1  0
  8  9  2  0
  9 10  1  0
 10 11  1  0
 11 12  2  0
 11 13  1  0
 13 14  1  0
 14 15  2  0
 15 16  1  0
 16 17  1  0
 17 18  1  0
 18 19  1  0
 19 20  1  0
 20 21  1  0
 21 22  2  0
  9  2  1  0
 22 14  1  0
 20 15  1  0
  1 23  1  0
  1 24  1  0
  1 25  1  0
  3 26  1  0
  4 27  1  0
  8 28  1  0
 10 29  1  0
 13 30  1  0
 16 31  1  0
 16 32  1  0
 17 33  1  0
 17 34  1  0
 18 35  1  0
 18 36  1  0
 19 37  1  0
 19 38  1  0
 22 39  1  0
A    1
 C1 
A    2
 C2 
A    3
 C3 
A    4
 C4 
A    5
 C5 
A    6
 C6 
A    7
 N1 
A    8
 C7 
A    9
 C8 
A   10
 N2 
A   11
 C9 
A   12
 O1 
A   13
 N3 
A   14
 C10
A   15
 C11
A   16
 C12
A   17
 C13
A   18
 C14
A   19
 C15
A   20
 N4 
A   21
 N5 
A   22
 C16
A   23
 H1 
A   24
 H2 
A   25
 H3 
A   26
 H4 
A   27
 H5 
A   28
 H6 
A   29
 H7 
A   30
 H8 
A   31
 H9 
A   32
 H10
A   33
 H11
A   34
 H12
A   35
 H13
A   36
 H14
A   37
 H15
A   38
 H16
A   39
 H17
M  END
>  <ref_pdb>  (157) 
x0051_0B

>  <ref_mols>  (157) 
x0553_0B,x0969_1B

>  <original SMILES>  (157) 
[H]c1nn2c(c1N([H])C(=O)N([H])c1c([H])c(C#N)c([H])c([H])c1C([H])([H])[H])C([H])([H])C([H])([H])C([H])([H])C2([H])[H]

>  <index>  (157) 
280

>  <∆∆G>  (157) 
-5.754283

>  <∆G_bound>  (157) 
-5.052154

>  <∆G_unbound>  (157) 
0.702129

>  <comRMSD>  (157) 
0.504252

>  <N_constrained_atoms>  (157) 
19.0

>  <N_unconstrained_atoms>  (157) 
3.0

>  <runtime>  (157) 
60.016714

>  <LE>  (157) 
0.261558

>  <percent_hybrid>  (157) 
48.0

>  <dist>  (157) 
5.0

>  <ecfp4>  (157) 
0.445946

>  <daylight>  (157) 
0.259136

>  <topodist>  (157) 
1.0

>  <mces>  (157) 
23.0

>  <tdn>  (157) 
0.0

>  <tup>  (157) 
1.0

>  <rdn>  (157) 
0.0

>  <rup>  (157) 
0.0

>  <ldn>  (157) 
0.0

>  <lup>  (157) 
0.0

>  <mut>  (157) 
3.0

>  <maj>  (157) 
3.0

>  <min>  (157) 
0.0

>  <hyb>  (157) 
1.0

>  <sub>  (157) 
0.0

>  <query_index>  (157) 
375.0

>  <max_hit_Tanimoto>  (157) 
0.267992

>  <largest_ring>  (157) 
0

>  <N_interactions_kept>  (157) 
1.5

>  <N_interactions_lost>  (157) 
1.0

>  <interaction_uniqueness_metric>  (157) 
0.177326

>  <ad_hoc_penalty>  (157) 
-25.47197

>  <N_rotatable_bonds>  (157) 
3

>  <N_HA>  (157) 
22

>  <cluster>  (157) 
5960

>  <N_interactions>  (157) 
5

>  <Enamine>  (157) 
1

>  <Mcule>  (157) 
0

>  <N_PAINS>  (157) 
0

>  <UFF_Gibbs>  (157) 
85.91869

>  <strain_per_HA>  (157) 
3.905395

>  <saltbridge:HIS:51>  (157) 
0

>  <pistack:HIS:51>  (157) 
1

>  <hydroph_interaction:HIS:51>  (157) 
0

>  <hbond:ALA:132>  (157) 
0

>  <hbond:SER:135>  (157) 
0

>  <hydroph_interaction:TYR:150>  (157) 
0

>  <pistack:TYR:161>  (157) 
1

>  <hydroph_interaction:TYR:161>  (157) 
1

>  <hydroph_interaction:ASP:83>  (157) 
1

>  <hbond:TYR:130>  (157) 
0

>  <hydroph_interaction:ALA:132>  (157) 
0

>  <hbond:HIS:51>  (157) 
0

>  <hbond:ASP:129>  (157) 
0

>  <hbond:TYR:150>  (157) 
0

>  <hbond:GLY:151>  (157) 
0

>  <hbond:TYR:161>  (157) 
1

>  <hydroph_interaction:TYR:130>  (157) 
0

>  <hydroph_interaction:PRO:131>  (157) 
0

>  <hydroph_interaction:ASP:129>  (157) 
0

>  <saltbridge:ASP:75>  (157) 
0

>  <saltbridge:ASP:83>  (157) 
0

>  <hydroph_interaction:ASN:152>  (157) 
0

>  <halogenbond:TYR:150>  (157) 
0

>  <hbond:ASP:83>  (157) 
0

>  <hydroph_interaction:VAL:155>  (157) 
0

>  <pication:TYR:161>  (157) 
0

>  <hbond:PRO:131>  (157) 
0

>  <hbond:LEU:128>  (157) 
0

>  <saltbridge:ASP:129>  (157) 
0

>  <hbond:THR:134>  (157) 
0

>  <pication:HIS:51>  (157) 
0

>  <hbond:SER:81>  (157) 
0

>  <hbond:GLY:159>  (157) 
0

>  <hydroph_interaction:PRO:101>  (157) 
0

>  <hydroph_interaction:THR:134>  (157) 
0

>  <hbond:GLY:82>  (157) 
0

>  <hydroph_interaction:GLU:104>  (157) 
0

>  <hydroph_interaction:VAL:36>  (157) 
0

>  <hydroph_interaction:MET:49>  (157) 
0

>  <halogenbond:GLU:104>  (157) 
0

>  <hydroph_interaction:LYS:107>  (157) 
0

$$$$
MCULE-2460649188
     RDKit          3D

 29 31  0  0  0  0  0  0  0  0999 V2000
   -9.0310    4.6400  -19.8950 O   0  0  0  0  0  0  0  0  0  0  0  0
   -8.8690    4.8810  -18.5500 C   0  0  0  0  0  0  0  0  0  0  0  0
   -7.6080    5.2030  -17.9970 C   0  0  0  0  0  0  0  0  0  0  0  0
   -6.3600    5.3020  -18.7330 C   0  0  0  0  0  0  0  0  0  0  0  0
   -6.2930    5.3940  -20.1200 C   0  0  0  0  0  0  0  0  0  0  0  0
   -5.0560    5.4630  -20.7750 C   0  0  0  0  0  0  0  0  0  0  0  0
   -3.8620    5.4360  -20.0170 C   0  0  0  0  0  0  0  0  0  0  0  0
   -2.6300    5.4920  -20.6700 C   0  0  0  0  0  0  0  0  0  0  0  0
   -2.5680    5.5780  -22.0570 C   0  0  0  0  0  0  0  0  0  0  0  0
   -3.7420    5.6120  -22.8050 C   0  0  0  0  0  0  0  0  0  0  0  0
   -4.9820    5.5540  -22.1670 C   0  0  0  0  0  0  0  0  0  0  0  0
   -3.9340    5.3500  -18.6280 C   0  0  0  0  0  0  0  0  0  0  0  0
   -5.1690    5.2840  -17.9970 C   0  0  0  0  0  0  0  0  0  0  0  0
   -7.5070    5.4320  -16.6210 C   0  0  0  0  0  0  0  0  0  0  0  0
   -8.6050    5.3370  -15.8020 C   0  0  0  0  0  0  0  0  0  0  0  0
   -9.8240    5.0160  -16.3380 C   0  0  0  0  0  0  0  0  0  0  0  0
   -9.9820    4.7900  -17.7100 C   0  0  0  0  0  0  0  0  0  0  0  0
   -8.8560    5.4340  -20.4500 H   0  0  0  0  0  0  0  0  0  0  0  0
   -7.2110    5.4070  -20.6950 H   0  0  0  0  0  0  0  0  0  0  0  0
   -1.7020    5.4680  -20.1020 H   0  0  0  0  0  0  0  0  0  0  0  0
   -1.6030    5.6200  -22.5560 H   0  0  0  0  0  0  0  0  0  0  0  0
   -3.6920    5.6820  -23.8870 H   0  0  0  0  0  0  0  0  0  0  0  0
   -5.8920    5.5800  -22.7630 H   0  0  0  0  0  0  0  0  0  0  0  0
   -3.0290    5.3290  -18.0260 H   0  0  0  0  0  0  0  0  0  0  0  0
   -5.1970    5.2120  -16.9130 H   0  0  0  0  0  0  0  0  0  0  0  0
   -6.5460    5.6830  -16.1770 H   0  0  0  0  0  0  0  0  0  0  0  0
   -8.5050    5.5100  -14.7350 H   0  0  0  0  0  0  0  0  0  0  0  0
  -10.6540    4.9410  -15.6590 H   0  0  0  0  0  0  0  0  0  0  0  0
  -10.9640    4.5420  -18.1000 H   0  0  0  0  0  0  0  0  0  0  0  0
  1  2  1  0
  2  3  2  0
  3  4  1  0
  4  5  2  0
  5  6  1  0
  6  7  2  0
  7  8  1  0
  8  9  2  0
  9 10  1  0
 10 11  2  0
  7 12  1  0
 12 13  2  0
  3 14  1  0
 14 15  2  0
 15 16  1  0
 16 17  2  0
  2 17  1  0
  4 13  1  0
 11  6  1  0
  1 18  1  0
  5 19  1  0
  8 20  1  0
  9 21  1  0
 10 22  1  0
 11 23  1  0
 12 24  1  0
 13 25  1  0
 14 26  1  0
 15 27  1  0
 16 28  1  0
 17 29  1  0
A    1
 O1 
A    2
 C1 
A    3
 C2 
A    4
 C3 
A    5
 C4 
A    6
 C5 
A    7
 C6 
A    8
 C7 
A    9
 C8 
A   10
 C9 
A   11
 C10
A   12
 C11
A   13
 C12
A   14
 C13
A   15
 C14
A   16
 C15
A   17
 C16
A   18
 H1 
A   19
 H2 
A   20
 H3 
A   21
 H4 
A   22
 H5 
A   23
 H6 
A   24
 H7 
A   25
 H8 
A   26
 H9 
A   27
 H10
A   28
 H11
A   29
 H12
M  END
>  <ref_pdb>  (158) 
x0051_0B

>  <ref_mols>  (158) 
x0852_0B,x0680_0B

>  <original SMILES>  (158) 
[H]Oc1c([H])c([H])c([H])c([H])c1-c1c([H])c([H])c2c([H])c([H])c([H])c([H])c2c1[H]

>  <index>  (158) 
166

>  <∆∆G>  (158) 
-7.213922

>  <∆G_bound>  (158) 
-7.16398

>  <∆G_unbound>  (158) 
0.049942

>  <comRMSD>  (158) 
0.583056

>  <N_constrained_atoms>  (158) 
20.0

>  <N_unconstrained_atoms>  (158) 
0.0

>  <runtime>  (158) 
32.21427

>  <LE>  (158) 
0.360696

>  <percent_hybrid>  (158) 
19.0

>  <dist>  (158) 
4.0

>  <ecfp4>  (158) 
0.229167

>  <daylight>  (158) 
0.342593

>  <topodist>  (158) 
3.0

>  <mces>  (158) 
19.0

>  <tdn>  (158) 
2.0

>  <tup>  (158) 
0.0

>  <rdn>  (158) 
1.0

>  <rup>  (158) 
0.0

>  <ldn>  (158) 
0.0

>  <lup>  (158) 
0.0

>  <mut>  (158) 
1.0

>  <maj>  (158) 
1.0

>  <min>  (158) 
0.0

>  <hyb>  (158) 
0.0

>  <sub>  (158) 
3.0

>  <query_index>  (158) 
135.0

>  <max_hit_Tanimoto>  (158) 
0.11245

>  <largest_ring>  (158) 
0

>  <N_interactions_kept>  (158) 
5.0

>  <N_interactions_lost>  (158) 
2.5

>  <interaction_uniqueness_metric>  (158) 
0.08997

>  <ad_hoc_penalty>  (158) 
-25.465433

>  <N_rotatable_bonds>  (158) 
2

>  <N_HA>  (158) 
17

>  <cluster>  (158) 
6068

>  <N_interactions>  (158) 
7

>  <Enamine>  (158) 
0

>  <Mcule>  (158) 
1

>  <N_PAINS>  (158) 
0

>  <UFF_Gibbs>  (158) 
103.499119

>  <strain_per_HA>  (158) 
6.088183

>  <saltbridge:HIS:51>  (158) 
0

>  <pistack:HIS:51>  (158) 
0

>  <hydroph_interaction:HIS:51>  (158) 
0

>  <hbond:ALA:132>  (158) 
0

>  <hbond:SER:135>  (158) 
0

>  <hydroph_interaction:TYR:150>  (158) 
0

>  <pistack:TYR:161>  (158) 
0

>  <hydroph_interaction:TYR:161>  (158) 
4

>  <hydroph_interaction:ASP:83>  (158) 
0

>  <hbond:TYR:130>  (158) 
2

>  <hydroph_interaction:ALA:132>  (158) 
0

>  <hbond:HIS:51>  (158) 
0

>  <hbond:ASP:129>  (158) 
0

>  <hbond:TYR:150>  (158) 
0

>  <hbond:GLY:151>  (158) 
0

>  <hbond:TYR:161>  (158) 
0

>  <hydroph_interaction:TYR:130>  (158) 
0

>  <hydroph_interaction:PRO:131>  (158) 
0

>  <hydroph_interaction:ASP:129>  (158) 
1

>  <saltbridge:ASP:75>  (158) 
0

>  <saltbridge:ASP:83>  (158) 
0

>  <hydroph_interaction:ASN:152>  (158) 
0

>  <halogenbond:TYR:150>  (158) 
0

>  <hbond:ASP:83>  (158) 
0

>  <hydroph_interaction:VAL:155>  (158) 
0

>  <pication:TYR:161>  (158) 
0

>  <hbond:PRO:131>  (158) 
0

>  <hbond:LEU:128>  (158) 
0

>  <saltbridge:ASP:129>  (158) 
0

>  <hbond:THR:134>  (158) 
0

>  <pication:HIS:51>  (158) 
0

>  <hbond:SER:81>  (158) 
0

>  <hbond:GLY:159>  (158) 
0

>  <hydroph_interaction:PRO:101>  (158) 
0

>  <hydroph_interaction:THR:134>  (158) 
0

>  <hbond:GLY:82>  (158) 
0

>  <hydroph_interaction:GLU:104>  (158) 
0

>  <hydroph_interaction:VAL:36>  (158) 
0

>  <hydroph_interaction:MET:49>  (158) 
0

>  <halogenbond:GLU:104>  (158) 
0

>  <hydroph_interaction:LYS:107>  (158) 
0

$$$$
QUWHDNGEIUUFRW-UHFFFAOYSA-N
     RDKit          3D

 42 44  0  0  0  0  0  0  0  0999 V2000
   -8.0400    5.1070  -13.7480 O   0  0  0  0  0  0  0  0  0  0  0  0
   -8.4270    5.9740  -14.7730 C   0  0  0  0  0  0  0  0  0  0  0  0
   -8.7580    7.1310  -14.5110 O   0  0  0  0  0  0  0  0  0  0  0  0
   -8.4440    5.5150  -16.2500 C   0  0  0  0  0  0  0  0  0  0  0  0
   -9.6720    4.8670  -16.8810 C   0  0  0  0  0  0  0  0  0  0  0  0
   -9.6680    4.5090  -18.2260 C   0  0  0  0  0  0  0  0  0  0  0  0
   -8.5550    4.7160  -19.0280 C   0  0  0  0  0  0  0  0  0  0  0  0
   -7.4100    5.2900  -18.4860 C   0  0  0  0  0  0  0  0  0  0  0  0
   -6.3650    5.4250  -19.4190 O   0  0  0  0  0  0  0  0  0  0  0  0
   -5.1590    6.0220  -19.1270 C   0  0  0  0  0  0  0  0  0  0  0  0
   -4.1190    5.4690  -19.8820 N   0  0  0  0  0  0  0  0  0  0  0  0
   -2.9510    4.9770  -19.1780 C   0  0  0  0  0  0  0  0  0  0  0  0
   -4.1990    5.2190  -21.3190 C   0  0  0  0  0  0  0  0  0  0  0  0
   -4.9960    6.9270  -18.3120 O   0  0  0  0  0  0  0  0  0  0  0  0
   -7.3230    5.6980  -17.1180 C   0  0  0  0  0  0  0  0  0  0  0  0
   -9.0780    4.8710  -12.7230 C   0  0  0  0  0  0  0  0  0  0  0  0
   -8.9160    5.2870  -11.1990 C   0  0  0  0  0  0  0  0  0  0  0  0
   -9.0580    4.3250  -10.1970 C   0  0  0  0  0  0  0  0  0  0  0  0
   -8.8990    5.0030   -8.9600 N   0  0  0  0  0  0  0  0  0  0  0  0
   -9.0050    4.3330   -7.7360 C   0  0  0  0  0  0  0  0  0  0  0  0
   -9.2700    2.9950   -7.7680 C   0  0  0  0  0  0  0  0  0  0  0  0
   -9.4170    2.2950   -8.9490 C   0  0  0  0  0  0  0  0  0  0  0  0
   -9.3200    2.9130  -10.1470 C   0  0  0  0  0  0  0  0  0  0  0  0
   -8.6500    6.3260   -9.1560 N   0  0  0  0  0  0  0  0  0  0  0  0
   -8.6610    6.4900  -10.4920 C   0  0  0  0  0  0  0  0  0  0  0  0
  -10.5520    4.6850  -16.2970 H   0  0  0  0  0  0  0  0  0  0  0  0
  -10.5600    4.0600  -18.6460 H   0  0  0  0  0  0  0  0  0  0  0  0
   -8.5810    4.4250  -20.0750 H   0  0  0  0  0  0  0  0  0  0  0  0
   -2.3780    5.8270  -18.8250 H   0  0  0  0  0  0  0  0  0  0  0  0
   -3.2690    4.3740  -18.3240 H   0  0  0  0  0  0  0  0  0  0  0  0
   -2.3100    4.3670  -19.8220 H   0  0  0  0  0  0  0  0  0  0  0  0
   -4.1990    6.1770  -21.8430 H   0  0  0  0  0  0  0  0  0  0  0  0
   -3.3310    4.6280  -21.6330 H   0  0  0  0  0  0  0  0  0  0  0  0
   -5.1000    4.6680  -21.5900 H   0  0  0  0  0  0  0  0  0  0  0  0
   -6.4070    6.1490  -16.7470 H   0  0  0  0  0  0  0  0  0  0  0  0
   -9.9660    5.3830  -13.0780 H   0  0  0  0  0  0  0  0  0  0  0  0
   -9.3030    3.7970  -12.7480 H   0  0  0  0  0  0  0  0  0  0  0  0
   -8.8720    4.9270   -6.8230 H   0  0  0  0  0  0  0  0  0  0  0  0
   -9.3660    2.4340   -6.8480 H   0  0  0  0  0  0  0  0  0  0  0  0
   -9.6060    1.2480   -8.8580 H   0  0  0  0  0  0  0  0  0  0  0  0
   -9.4370    2.3510  -11.0700 H   0  0  0  0  0  0  0  0  0  0  0  0
   -8.4910    7.4790  -10.8970 H   0  0  0  0  0  0  0  0  0  0  0  0
  1  2  1  0
  2  3  2  0
  2  4  1  0
  4  5  2  0
  5  6  1  0
  6  7  2  0
  7  8  1  0
  8  9  1  0
  9 10  1  0
 10 11  1  0
 11 12  1  0
 11 13  1  0
 10 14  2  0
  8 15  2  0
  1 16  1  0
 16 17  1  0
 17 18  2  0
 18 19  1  0
 19 20  1  0
 20 21  2  0
 21 22  1  0
 22 23  2  0
 19 24  1  0
 24 25  2  0
  4 15  1  0
 25 17  1  0
 23 18  1  0
  5 26  1  0
  6 27  1  0
  7 28  1  0
 12 29  1  0
 12 30  1  0
 12 31  1  0
 13 32  1  0
 13 33  1  0
 13 34  1  0
 15 35  1  0
 16 36  1  0
 16 37  1  0
 20 38  1  0
 21 39  1  0
 22 40  1  0
 23 41  1  0
 25 42  1  0
A    1
 O1 
A    2
 C1 
A    3
 O2 
A    4
 C2 
A    5
 C3 
A    6
 C4 
A    7
 C5 
A    8
 C6 
A    9
 O3 
A   10
 C7 
A   11
 N1 
A   12
 C8 
A   13
 C9 
A   14
 O4 
A   15
 C10
A   16
 C11
A   17
 C12
A   18
 C13
A   19
 N2 
A   20
 C14
A   21
 C15
A   22
 C16
A   23
 C17
A   24
 N3 
A   25
 C18
A   26
 H1 
A   27
 H2 
A   28
 H3 
A   29
 H4 
A   30
 H5 
A   31
 H6 
A   32
 H7 
A   33
 H8 
A   34
 H9 
A   35
 H10
A   36
 H11
A   37
 H12
A   38
 H13
A   39
 H14
A   40
 H15
A   41
 H16
A   42
 H17
M  END
>  <ref_pdb>  (159) 
x0051_0B

>  <ref_mols>  (159) 
x0969_1B,x0904_0B

>  <original SMILES>  (159) 
[H]c1nn2c([H])c([H])c([H])c([H])c2c1C([H])([H])OC(=O)c1c([H])c([H])c([H])c(OC(=O)N(C([H])([H])[H])C([H])([H])[H])c1[H]

>  <index>  (159) 
301

>  <∆∆G>  (159) 
-6.698746

>  <∆G_bound>  (159) 
-6.219995

>  <∆G_unbound>  (159) 
0.478751

>  <comRMSD>  (159) 
0.865704

>  <N_constrained_atoms>  (159) 
24.0

>  <N_unconstrained_atoms>  (159) 
3.0

>  <runtime>  (159) 
84.026029

>  <LE>  (159) 
0.248102

>  <percent_hybrid>  (159) 
42.0

>  <dist>  (159) 
8.0

>  <ecfp4>  (159) 
0.292683

>  <daylight>  (159) 
0.243728

>  <topodist>  (159) 
3.0

>  <mces>  (159) 
26.0

>  <tdn>  (159) 
0.0

>  <tup>  (159) 
1.0

>  <rdn>  (159) 
0.0

>  <rup>  (159) 
0.0

>  <ldn>  (159) 
2.0

>  <lup>  (159) 
0.0

>  <mut>  (159) 
1.0

>  <maj>  (159) 
1.0

>  <min>  (159) 
0.0

>  <hyb>  (159) 
4.0

>  <sub>  (159) 
0.0

>  <query_index>  (159) 
111.0

>  <max_hit_Tanimoto>  (159) 
0.178814

>  <largest_ring>  (159) 
0

>  <N_interactions_kept>  (159) 
2.5

>  <N_interactions_lost>  (159) 
1.0

>  <interaction_uniqueness_metric>  (159) 
0.167587

>  <ad_hoc_penalty>  (159) 
-25.42262

>  <N_rotatable_bonds>  (159) 
6

>  <N_HA>  (159) 
25

>  <cluster>  (159) 
5942

>  <N_interactions>  (159) 
6

>  <Enamine>  (159) 
0

>  <Mcule>  (159) 
1

>  <N_PAINS>  (159) 
0

>  <UFF_Gibbs>  (159) 
87.60444

>  <strain_per_HA>  (159) 
3.504178

>  <saltbridge:HIS:51>  (159) 
1

>  <pistack:HIS:51>  (159) 
1

>  <hydroph_interaction:HIS:51>  (159) 
0

>  <hbond:ALA:132>  (159) 
0

>  <hbond:SER:135>  (159) 
0

>  <hydroph_interaction:TYR:150>  (159) 
1

>  <pistack:TYR:161>  (159) 
0

>  <hydroph_interaction:TYR:161>  (159) 
2

>  <hydroph_interaction:ASP:83>  (159) 
0

>  <hbond:TYR:130>  (159) 
0

>  <hydroph_interaction:ALA:132>  (159) 
1

>  <hbond:HIS:51>  (159) 
0

>  <hbond:ASP:129>  (159) 
0

>  <hbond:TYR:150>  (159) 
0

>  <hbond:GLY:151>  (159) 
0

>  <hbond:TYR:161>  (159) 
0

>  <hydroph_interaction:TYR:130>  (159) 
0

>  <hydroph_interaction:PRO:131>  (159) 
0

>  <hydroph_interaction:ASP:129>  (159) 
0

>  <saltbridge:ASP:75>  (159) 
0

>  <saltbridge:ASP:83>  (159) 
0

>  <hydroph_interaction:ASN:152>  (159) 
0

>  <halogenbond:TYR:150>  (159) 
0

>  <hbond:ASP:83>  (159) 
0

>  <hydroph_interaction:VAL:155>  (159) 
0

>  <pication:TYR:161>  (159) 
0

>  <hbond:PRO:131>  (159) 
0

>  <hbond:LEU:128>  (159) 
0

>  <saltbridge:ASP:129>  (159) 
0

>  <hbond:THR:134>  (159) 
0

>  <pication:HIS:51>  (159) 
0

>  <hbond:SER:81>  (159) 
0

>  <hbond:GLY:159>  (159) 
0

>  <hydroph_interaction:PRO:101>  (159) 
0

>  <hydroph_interaction:THR:134>  (159) 
0

>  <hbond:GLY:82>  (159) 
0

>  <hydroph_interaction:GLU:104>  (159) 
0

>  <hydroph_interaction:VAL:36>  (159) 
0

>  <hydroph_interaction:MET:49>  (159) 
0

>  <halogenbond:GLU:104>  (159) 
0

>  <hydroph_interaction:LYS:107>  (159) 
0

$$$$
PV-006984779329
     RDKit          3D

 26 26  0  0  0  0  0  0  0  0999 V2000
   -2.7050    5.1270  -17.3360 C   0  0  0  0  0  0  0  0  0  0  0  0
   -3.3810    5.3020  -15.9730 C   0  0  0  0  0  0  0  0  0  0  0  0
   -4.9120    5.1690  -16.1240 C   0  0  0  0  0  0  0  0  0  0  0  0
   -5.5960    5.4060  -17.3240 C   0  0  0  0  0  0  0  0  0  0  0  0
   -7.1180    5.2300  -17.4160 C   0  0  0  0  0  0  0  0  0  0  0  0
   -7.9100    5.1510  -16.1110 C   0  0  0  0  0  0  0  0  0  0  0  0
   -9.4010    4.9680  -16.2920 C   0  0  0  0  0  0  0  0  0  0  0  0
   -9.9910    4.8800  -17.5450 C   0  0  0  0  0  0  0  0  0  0  0  0
   -9.1000    4.9760  -18.7760 C   0  0  0  0  0  0  0  0  0  0  0  0
   -9.6920    4.9030  -19.9820 O   0  0  0  0  0  0  0  0  0  0  0  0
   -7.7110    5.1440  -18.6870 C   0  0  0  0  0  0  0  0  0  0  0  0
   -6.8880    5.2250  -19.9690 C   0  0  0  0  0  0  0  0  0  0  0  0
   -1.6160    5.1670  -17.2460 H   0  0  0  0  0  0  0  0  0  0  0  0
   -2.9700    4.1710  -17.7980 H   0  0  0  0  0  0  0  0  0  0  0  0
   -3.0110    5.9240  -18.0250 H   0  0  0  0  0  0  0  0  0  0  0  0
   -3.0090    4.4900  -15.3310 H   0  0  0  0  0  0  0  0  0  0  0  0
   -3.0940    6.2610  -15.5230 H   0  0  0  0  0  0  0  0  0  0  0  0
   -5.5010    4.8630  -15.2550 H   0  0  0  0  0  0  0  0  0  0  0  0
   -5.0510    5.7110  -18.2130 H   0  0  0  0  0  0  0  0  0  0  0  0
   -7.4490    5.2160  -15.1280 H   0  0  0  0  0  0  0  0  0  0  0  0
   -9.9570    4.9110  -15.3490 H   0  0  0  0  0  0  0  0  0  0  0  0
  -11.0540    4.7490  -17.6810 H   0  0  0  0  0  0  0  0  0  0  0  0
   -9.2830    5.5470  -20.6070 H   0  0  0  0  0  0  0  0  0  0  0  0
   -7.3460    4.5930  -20.7410 H   0  0  0  0  0  0  0  0  0  0  0  0
   -6.7480    6.1910  -20.4450 H   0  0  0  0  0  0  0  0  0  0  0  0
   -5.9000    4.7840  -19.7880 H   0  0  0  0  0  0  0  0  0  0  0  0
  1  2  1  0
  2  3  1  0
  3  4  2  3
  4  5  1  0
  5  6  2  0
  6  7  1  0
  7  8  2  0
  8  9  1  0
  9 10  1  0
  9 11  2  0
 11 12  1  0
 11  5  1  0
  1 13  1  0
  1 14  1  0
  1 15  1  0
  2 16  1  0
  2 17  1  0
  3 18  1  0
  4 19  1  0
  6 20  1  0
  7 21  1  0
  8 22  1  0
 10 23  1  0
 12 24  1  0
 12 25  1  0
 12 26  1  0
A    1
 C1 
A    2
 C2 
A    3
 C3 
A    4
 C4 
A    5
 C5 
A    6
 C6 
A    7
 C7 
A    8
 C8 
A    9
 C9 
A   10
 O1 
A   11
 C10
A   12
 C11
A   13
 H1 
A   14
 H2 
A   15
 H3 
A   16
 H4 
A   17
 H5 
A   18
 H6 
A   19
 H7 
A   20
 H8 
A   21
 H9 
A   22
 H10
A   23
 H11
A   24
 H12
A   25
 H13
A   26
 H14
M  END
>  <ref_pdb>  (160) 
x0051_0B

>  <ref_mols>  (160) 
x0727_0B,x0800_0B

>  <original SMILES>  (160) 
[H]Oc1c([H])c([H])c([H])c(C([H])=C([H])C([H])([H])C([H])([H])[H])c1C([H])([H])[H]

>  <index>  (160) 
224

>  <∆∆G>  (160) 
-6.978789

>  <∆G_bound>  (160) 
-7.340336

>  <∆G_unbound>  (160) 
-0.361547

>  <comRMSD>  (160) 
0.678083

>  <N_constrained_atoms>  (160) 
13.0

>  <N_unconstrained_atoms>  (160) 
1.0

>  <runtime>  (160) 
26.774176

>  <LE>  (160) 
0.498485

>  <percent_hybrid>  (160) 
20.0

>  <dist>  (160) 
4.0

>  <ecfp4>  (160) 
0.2

>  <daylight>  (160) 
0.191176

>  <topodist>  (160) 
2.0

>  <mces>  (160) 
12.0

>  <tdn>  (160) 
0.0

>  <tup>  (160) 
0.0

>  <rdn>  (160) 
1.0

>  <rup>  (160) 
0.0

>  <ldn>  (160) 
1.0

>  <lup>  (160) 
0.0

>  <mut>  (160) 
0.0

>  <maj>  (160) 
0.0

>  <min>  (160) 
0.0

>  <hyb>  (160) 
2.0

>  <sub>  (160) 
1.0

>  <query_index>  (160) 
67.0

>  <max_hit_Tanimoto>  (160) 
0.098947

>  <largest_ring>  (160) 
0

>  <N_interactions_kept>  (160) 
3.0

>  <N_interactions_lost>  (160) 
1.0

>  <interaction_uniqueness_metric>  (160) 
0.083886

>  <ad_hoc_penalty>  (160) 
-25.38698

>  <N_rotatable_bonds>  (160) 
5

>  <N_HA>  (160) 
12

>  <cluster>  (160) 
6015

>  <N_interactions>  (160) 
6

>  <Enamine>  (160) 
1

>  <Mcule>  (160) 
0

>  <N_PAINS>  (160) 
0

>  <UFF_Gibbs>  (160) 
53.112585

>  <strain_per_HA>  (160) 
4.426049

>  <saltbridge:HIS:51>  (160) 
0

>  <pistack:HIS:51>  (160) 
0

>  <hydroph_interaction:HIS:51>  (160) 
0

>  <hbond:ALA:132>  (160) 
0

>  <hbond:SER:135>  (160) 
0

>  <hydroph_interaction:TYR:150>  (160) 
0

>  <pistack:TYR:161>  (160) 
0

>  <hydroph_interaction:TYR:161>  (160) 
3

>  <hydroph_interaction:ASP:83>  (160) 
0

>  <hbond:TYR:130>  (160) 
2

>  <hydroph_interaction:ALA:132>  (160) 
0

>  <hbond:HIS:51>  (160) 
0

>  <hbond:ASP:129>  (160) 
0

>  <hbond:TYR:150>  (160) 
0

>  <hbond:GLY:151>  (160) 
0

>  <hbond:TYR:161>  (160) 
0

>  <hydroph_interaction:TYR:130>  (160) 
0

>  <hydroph_interaction:PRO:131>  (160) 
0

>  <hydroph_interaction:ASP:129>  (160) 
0

>  <saltbridge:ASP:75>  (160) 
0

>  <saltbridge:ASP:83>  (160) 
0

>  <hydroph_interaction:ASN:152>  (160) 
0

>  <halogenbond:TYR:150>  (160) 
0

>  <hbond:ASP:83>  (160) 
0

>  <hydroph_interaction:VAL:155>  (160) 
1

>  <pication:TYR:161>  (160) 
0

>  <hbond:PRO:131>  (160) 
0

>  <hbond:LEU:128>  (160) 
0

>  <saltbridge:ASP:129>  (160) 
0

>  <hbond:THR:134>  (160) 
0

>  <pication:HIS:51>  (160) 
0

>  <hbond:SER:81>  (160) 
0

>  <hbond:GLY:159>  (160) 
0

>  <hydroph_interaction:PRO:101>  (160) 
0

>  <hydroph_interaction:THR:134>  (160) 
0

>  <hbond:GLY:82>  (160) 
0

>  <hydroph_interaction:GLU:104>  (160) 
0

>  <hydroph_interaction:VAL:36>  (160) 
0

>  <hydroph_interaction:MET:49>  (160) 
0

>  <halogenbond:GLU:104>  (160) 
0

>  <hydroph_interaction:LYS:107>  (160) 
0

$$$$
DNGZCMZWBIQLDO-UHFFFAOYSA-N
     RDKit          3D

 40 43  0  0  0  0  0  0  0  0999 V2000
   -7.2330    5.0770  -13.6750 C   0  0  0  0  0  0  0  0  0  0  0  0
   -8.4460    4.9660  -13.0330 N   0  0  0  0  0  0  0  0  0  0  0  0
   -8.8550    5.9520  -12.1670 C   0  0  0  0  0  0  0  0  0  0  0  0
   -8.8940    5.6630  -10.6330 C   0  0  0  0  0  0  0  0  0  0  0  0
   -9.0070    4.4840   -9.9290 C   0  0  0  0  0  0  0  0  0  0  0  0
   -9.0080    4.8670   -8.6220 N   0  0  0  0  0  0  0  0  0  0  0  0
   -9.1280    3.9450   -7.6510 C   0  0  0  0  0  0  0  0  0  0  0  0
   -9.5770    2.6800   -7.9820 C   0  0  0  0  0  0  0  0  0  0  0  0
   -9.3480    2.1640   -9.3270 C   0  0  0  0  0  0  0  0  0  0  0  0
   -9.1190    3.0470  -10.3300 C   0  0  0  0  0  0  0  0  0  0  0  0
   -8.8840    6.2110   -8.4390 N   0  0  0  0  0  0  0  0  0  0  0  0
   -8.8160    6.7060   -9.7050 C   0  0  0  0  0  0  0  0  0  0  0  0
   -6.1440    5.1070  -13.1110 O   0  0  0  0  0  0  0  0  0  0  0  0
   -7.0840    5.1850  -15.1610 C   0  0  0  0  0  0  0  0  0  0  0  0
   -8.0320    5.0340  -16.3200 C   0  0  0  0  0  0  0  0  0  0  0  0
   -7.1510    5.2640  -17.4920 C   0  0  0  0  0  0  0  0  0  0  0  0
   -7.6800    5.1900  -18.7590 C   0  0  0  0  0  0  0  0  0  0  0  0
   -8.9950    4.9140  -19.0170 C   0  0  0  0  0  0  0  0  0  0  0  0
   -9.8610    4.7010  -17.9640 C   0  0  0  0  0  0  0  0  0  0  0  0
   -9.4090    4.7570  -16.6260 C   0  0  0  0  0  0  0  0  0  0  0  0
   -5.8710    5.5260  -17.0320 N   0  0  0  0  0  0  0  0  0  0  0  0
   -5.8040    5.4840  -15.6470 C   0  0  0  0  0  0  0  0  0  0  0  0
   -9.1750    4.3770  -13.4150 H   0  0  0  0  0  0  0  0  0  0  0  0
   -8.2230    6.8250  -12.3780 H   0  0  0  0  0  0  0  0  0  0  0  0
   -9.8770    6.2160  -12.4590 H   0  0  0  0  0  0  0  0  0  0  0  0
   -9.6780    4.4830   -6.8870 H   0  0  0  0  0  0  0  0  0  0  0  0
   -8.1270    3.8400   -7.2360 H   0  0  0  0  0  0  0  0  0  0  0  0
  -10.6640    2.6880   -7.8390 H   0  0  0  0  0  0  0  0  0  0  0  0
   -9.2160    2.0230   -7.1970 H   0  0  0  0  0  0  0  0  0  0  0  0
   -8.6890    1.3060   -9.3540 H   0  0  0  0  0  0  0  0  0  0  0  0
  -10.3070    1.7260   -9.5910 H   0  0  0  0  0  0  0  0  0  0  0  0
   -8.1770    2.7690  -10.8200 H   0  0  0  0  0  0  0  0  0  0  0  0
   -9.9000    2.9280  -11.0850 H   0  0  0  0  0  0  0  0  0  0  0  0
   -8.7190    7.7710   -9.8740 H   0  0  0  0  0  0  0  0  0  0  0  0
   -6.9360    5.3760  -19.5440 H   0  0  0  0  0  0  0  0  0  0  0  0
   -9.3630    4.8660  -20.0420 H   0  0  0  0  0  0  0  0  0  0  0  0
  -10.9040    4.4890  -18.1710 H   0  0  0  0  0  0  0  0  0  0  0  0
  -10.1220    4.5860  -15.8250 H   0  0  0  0  0  0  0  0  0  0  0  0
   -5.0850    5.7190  -17.6360 H   0  0  0  0  0  0  0  0  0  0  0  0
   -4.8740    5.6610  -15.1220 H   0  0  0  0  0  0  0  0  0  0  0  0
  1  2  1  0
  2  3  1  0
  3  4  1  0
  4  5  2  0
  5  6  1  0
  6  7  1  0
  7  8  1  0
  8  9  1  0
  9 10  1  0
  6 11  1  0
 11 12  2  0
  1 13  2  0
  1 14  1  0
 14 15  1  0
 15 16  1  0
 16 17  2  0
 17 18  1  0
 18 19  2  0
 19 20  1  0
 16 21  1  0
 21 22  1  0
 12  4  1  0
 10  5  1  0
 14 22  2  0
 20 15  2  0
  2 23  1  0
  3 24  1  0
  3 25  1  0
  7 26  1  0
  7 27  1  0
  8 28  1  0
  8 29  1  0
  9 30  1  0
  9 31  1  0
 10 32  1  0
 10 33  1  0
 12 34  1  0
 17 35  1  0
 18 36  1  0
 19 37  1  0
 20 38  1  0
 21 39  1  0
 22 40  1  0
A    1
 C1 
A    2
 N1 
A    3
 C2 
A    4
 C3 
A    5
 C4 
A    6
 N2 
A    7
 C5 
A    8
 C6 
A    9
 C7 
A   10
 C8 
A   11
 N3 
A   12
 C9 
A   13
 O1 
A   14
 C10
A   15
 C11
A   16
 C12
A   17
 C13
A   18
 C14
A   19
 C15
A   20
 C16
A   21
 N4 
A   22
 C17
A   23
 H1 
A   24
 H2 
A   25
 H3 
A   26
 H4 
A   27
 H5 
A   28
 H6 
A   29
 H7 
A   30
 H8 
A   31
 H9 
A   32
 H10
A   33
 H11
A   34
 H12
A   35
 H13
A   36
 H14
A   37
 H15
A   38
 H16
A   39
 H17
A   40
 H18
M  END
>  <ref_pdb>  (161) 
x0051_0B

>  <ref_mols>  (161) 
x0969_1B,x0455_0B

>  <original SMILES>  (161) 
[H]c1nn2c(c1C([H])([H])N([H])C(=O)c1c([H])n([H])c3c([H])c([H])c([H])c([H])c13)C([H])([H])C([H])([H])C([H])([H])C2([H])[H]

>  <index>  (161) 
185

>  <∆∆G>  (161) 
-6.735034

>  <∆G_bound>  (161) 
-6.122866

>  <∆G_unbound>  (161) 
0.612168

>  <comRMSD>  (161) 
0.814704

>  <N_constrained_atoms>  (161) 
20.0

>  <N_unconstrained_atoms>  (161) 
3.0

>  <runtime>  (161) 
53.668837

>  <LE>  (161) 
0.292828

>  <percent_hybrid>  (161) 
50.0

>  <dist>  (161) 
8.0

>  <ecfp4>  (161) 
0.271605

>  <daylight>  (161) 
0.28169

>  <topodist>  (161) 
2.0

>  <mces>  (161) 
24.0

>  <tdn>  (161) 
0.0

>  <tup>  (161) 
1.0

>  <rdn>  (161) 
0.0

>  <rup>  (161) 
0.0

>  <ldn>  (161) 
1.0

>  <lup>  (161) 
0.0

>  <mut>  (161) 
3.0

>  <maj>  (161) 
3.0

>  <min>  (161) 
0.0

>  <hyb>  (161) 
3.0

>  <sub>  (161) 
0.0

>  <query_index>  (161) 
204.0

>  <max_hit_Tanimoto>  (161) 
0.320647

>  <largest_ring>  (161) 
0

>  <N_interactions_kept>  (161) 
1.5

>  <N_interactions_lost>  (161) 
1.0

>  <interaction_uniqueness_metric>  (161) 
0.108789

>  <ad_hoc_penalty>  (161) 
-25.378411

>  <N_rotatable_bonds>  (161) 
3

>  <N_HA>  (161) 
22

>  <cluster>  (161) 
6051

>  <N_interactions>  (161) 
5

>  <Enamine>  (161) 
0

>  <Mcule>  (161) 
1

>  <N_PAINS>  (161) 
0

>  <UFF_Gibbs>  (161) 
128.108634

>  <strain_per_HA>  (161) 
5.82312

>  <saltbridge:HIS:51>  (161) 
0

>  <pistack:HIS:51>  (161) 
0

>  <hydroph_interaction:HIS:51>  (161) 
1

>  <hbond:ALA:132>  (161) 
0

>  <hbond:SER:135>  (161) 
0

>  <hydroph_interaction:TYR:150>  (161) 
1

>  <pistack:TYR:161>  (161) 
2

>  <hydroph_interaction:TYR:161>  (161) 
0

>  <hydroph_interaction:ASP:83>  (161) 
0

>  <hbond:TYR:130>  (161) 
0

>  <hydroph_interaction:ALA:132>  (161) 
0

>  <hbond:HIS:51>  (161) 
0

>  <hbond:ASP:129>  (161) 
0

>  <hbond:TYR:150>  (161) 
0

>  <hbond:GLY:151>  (161) 
1

>  <hbond:TYR:161>  (161) 
0

>  <hydroph_interaction:TYR:130>  (161) 
0

>  <hydroph_interaction:PRO:131>  (161) 
0

>  <hydroph_interaction:ASP:129>  (161) 
0

>  <saltbridge:ASP:75>  (161) 
0

>  <saltbridge:ASP:83>  (161) 
0

>  <hydroph_interaction:ASN:152>  (161) 
0

>  <halogenbond:TYR:150>  (161) 
0

>  <hbond:ASP:83>  (161) 
0

>  <hydroph_interaction:VAL:155>  (161) 
0

>  <pication:TYR:161>  (161) 
0

>  <hbond:PRO:131>  (161) 
0

>  <hbond:LEU:128>  (161) 
0

>  <saltbridge:ASP:129>  (161) 
0

>  <hbond:THR:134>  (161) 
0

>  <pication:HIS:51>  (161) 
0

>  <hbond:SER:81>  (161) 
0

>  <hbond:GLY:159>  (161) 
0

>  <hydroph_interaction:PRO:101>  (161) 
0

>  <hydroph_interaction:THR:134>  (161) 
0

>  <hbond:GLY:82>  (161) 
0

>  <hydroph_interaction:GLU:104>  (161) 
0

>  <hydroph_interaction:VAL:36>  (161) 
0

>  <hydroph_interaction:MET:49>  (161) 
0

>  <halogenbond:GLU:104>  (161) 
0

>  <hydroph_interaction:LYS:107>  (161) 
0

$$$$
Z2368203387
     RDKit          3D

 36 38  0  0  0  0  0  0  0  0999 V2000
   -7.8740    5.1640  -15.1370 C   0  0  0  0  0  0  0  0  0  0  0  0
   -8.2650    5.0950  -16.5730 C   0  0  0  0  0  0  0  0  0  0  0  0
   -9.6000    4.8300  -16.8630 C   0  0  0  0  0  0  0  0  0  0  0  0
  -10.0430    4.7420  -18.1850 C   0  0  0  0  0  0  0  0  0  0  0  0
   -9.0770    4.9380  -19.2270 C   0  0  0  0  0  0  0  0  0  0  0  0
   -7.7590    5.2040  -18.9170 C   0  0  0  0  0  0  0  0  0  0  0  0
   -7.0110    5.3590  -20.0260 N   0  0  0  0  0  0  0  0  0  0  0  0
   -5.6690    5.6310  -19.8110 C   0  0  0  0  0  0  0  0  0  0  0  0
   -5.1000    5.7370  -18.6160 N   0  0  0  0  0  0  0  0  0  0  0  0
   -5.8930    5.5680  -17.5230 C   0  0  0  0  0  0  0  0  0  0  0  0
   -5.2030    5.6750  -16.2820 N   0  0  0  0  0  0  0  0  0  0  0  0
   -3.8300    5.1570  -16.4160 C   0  0  0  0  0  0  0  0  0  0  0  0
   -3.2280    4.7140  -15.2180 C   0  0  0  0  0  0  0  0  0  0  0  0
   -4.0280    4.8800  -14.0930 C   0  0  0  0  0  0  0  0  0  0  0  0
   -4.2140    6.2680  -13.6760 N   0  0  0  0  0  0  0  0  0  0  0  0
   -4.3010    7.2640  -14.7650 C   0  0  0  0  0  0  0  0  0  0  0  0
   -5.3340    7.0160  -15.6850 C   0  0  0  0  0  0  0  0  0  0  0  0
   -7.3050    5.2910  -17.5950 C   0  0  0  0  0  0  0  0  0  0  0  0
   -6.8690    4.7560  -15.0010 H   0  0  0  0  0  0  0  0  0  0  0  0
   -7.8770    6.1990  -14.7790 H   0  0  0  0  0  0  0  0  0  0  0  0
   -8.5770    4.5880  -14.5250 H   0  0  0  0  0  0  0  0  0  0  0  0
  -10.3000    4.6890  -16.0430 H   0  0  0  0  0  0  0  0  0  0  0  0
  -11.0900    4.5340  -18.3990 H   0  0  0  0  0  0  0  0  0  0  0  0
   -9.3840    4.8770  -20.2680 H   0  0  0  0  0  0  0  0  0  0  0  0
   -5.0360    5.7670  -20.6800 H   0  0  0  0  0  0  0  0  0  0  0  0
   -3.8480    4.3410  -17.1430 H   0  0  0  0  0  0  0  0  0  0  0  0
   -3.1770    5.9100  -16.8820 H   0  0  0  0  0  0  0  0  0  0  0  0
   -2.2230    5.0980  -15.0600 H   0  0  0  0  0  0  0  0  0  0  0  0
   -3.0860    3.6330  -15.3210 H   0  0  0  0  0  0  0  0  0  0  0  0
   -5.0080    4.4680  -14.3460 H   0  0  0  0  0  0  0  0  0  0  0  0
   -3.6080    4.3120  -13.2590 H   0  0  0  0  0  0  0  0  0  0  0  0
   -3.4500    6.5290  -13.0530 H   0  0  0  0  0  0  0  0  0  0  0  0
   -4.3940    8.2740  -14.3490 H   0  0  0  0  0  0  0  0  0  0  0  0
   -3.3250    7.2350  -15.2530 H   0  0  0  0  0  0  0  0  0  0  0  0
   -5.2580    7.7640  -16.4870 H   0  0  0  0  0  0  0  0  0  0  0  0
   -6.3100    7.1710  -15.2130 H   0  0  0  0  0  0  0  0  0  0  0  0
  1  2  1  0
  2  3  2  0
  3  4  1  0
  4  5  2  0
  5  6  1  0
  6  7  2  0
  7  8  1  0
  8  9  2  0
  9 10  1  0
 10 11  1  0
 11 12  1  0
 12 13  1  0
 13 14  1  0
 14 15  1  0
 15 16  1  0
 16 17  1  0
 10 18  2  0
 18  2  1  0
 18  6  1  0
 17 11  1  0
  1 19  1  0
  1 20  1  0
  1 21  1  0
  3 22  1  0
  4 23  1  0
  5 24  1  0
  8 25  1  0
 12 26  1  0
 12 27  1  0
 13 28  1  0
 13 29  1  0
 14 30  1  0
 14 31  1  0
 15 32  1  0
 16 33  1  0
 16 34  1  0
 17 35  1  0
 17 36  1  0
A    1
 C1 
A    2
 C2 
A    3
 C3 
A    4
 C4 
A    5
 C5 
A    6
 C6 
A    7
 N1 
A    8
 C7 
A    9
 N2 
A   10
 C8 
A   11
 N3 
A   12
 C9 
A   13
 C10
A   14
 C11
A   15
 N4 
A   16
 C12
A   17
 C13
A   18
 C14
A   19
 H1 
A   20
 H2 
A   21
 H3 
A   22
 H4 
A   23
 H5 
A   24
 H6 
A   25
 H7 
A   26
 H8 
A   27
 H9 
A   28
 H10
A   29
 H11
A   30
 H12
A   31
 H13
A   32
 H14
A   33
 H15
A   34
 H16
A   35
 H17
A   36
 H18
M  END
>  <ref_pdb>  (162) 
x0051_0B

>  <ref_mols>  (162) 
x0429_0B,x0693_0B

>  <original SMILES>  (162) 
[H]c1nc(N2C([H])([H])C([H])([H])N([H])C([H])([H])C([H])([H])C2([H])[H])c2c(C([H])([H])[H])c([H])c([H])c([H])c2n1

>  <index>  (162) 
233

>  <∆∆G>  (162) 
-6.790734

>  <∆G_bound>  (162) 
-6.214204

>  <∆G_unbound>  (162) 
0.57653

>  <comRMSD>  (162) 
0.549842

>  <N_constrained_atoms>  (162) 
18.0

>  <N_unconstrained_atoms>  (162) 
1.0

>  <runtime>  (162) 
24.672945

>  <LE>  (162) 
0.357407

>  <percent_hybrid>  (162) 
20.0

>  <dist>  (162) 
2.0

>  <ecfp4>  (162) 
0.6

>  <daylight>  (162) 
0.529851

>  <topodist>  (162) 
1.0

>  <mces>  (162) 
19.0

>  <tdn>  (162) 
0.0

>  <tup>  (162) 
0.0

>  <rdn>  (162) 
0.0

>  <rup>  (162) 
0.0

>  <ldn>  (162) 
0.0

>  <lup>  (162) 
1.0

>  <mut>  (162) 
1.0

>  <maj>  (162) 
1.0

>  <min>  (162) 
0.0

>  <hyb>  (162) 
0.0

>  <sub>  (162) 
0.0

>  <query_index>  (162) 
179.0

>  <max_hit_Tanimoto>  (162) 
0.403263

>  <largest_ring>  (162) 
0

>  <N_interactions_kept>  (162) 
2.5

>  <N_interactions_lost>  (162) 
2.0

>  <interaction_uniqueness_metric>  (162) 
0.078036

>  <ad_hoc_penalty>  (162) 
-25.370476

>  <N_rotatable_bonds>  (162) 
2

>  <N_HA>  (162) 
18

>  <cluster>  (162) 
6007

>  <N_interactions>  (162) 
6

>  <Enamine>  (162) 
1

>  <Mcule>  (162) 
0

>  <N_PAINS>  (162) 
0

>  <UFF_Gibbs>  (162) 
73.182613

>  <strain_per_HA>  (162) 
4.065701

>  <saltbridge:HIS:51>  (162) 
0

>  <pistack:HIS:51>  (162) 
0

>  <hydroph_interaction:HIS:51>  (162) 
0

>  <hbond:ALA:132>  (162) 
0

>  <hbond:SER:135>  (162) 
0

>  <hydroph_interaction:TYR:150>  (162) 
1

>  <pistack:TYR:161>  (162) 
1

>  <hydroph_interaction:TYR:161>  (162) 
3

>  <hydroph_interaction:ASP:83>  (162) 
0

>  <hbond:TYR:130>  (162) 
0

>  <hydroph_interaction:ALA:132>  (162) 
0

>  <hbond:HIS:51>  (162) 
0

>  <hbond:ASP:129>  (162) 
0

>  <hbond:TYR:150>  (162) 
0

>  <hbond:GLY:151>  (162) 
0

>  <hbond:TYR:161>  (162) 
0

>  <hydroph_interaction:TYR:130>  (162) 
0

>  <hydroph_interaction:PRO:131>  (162) 
0

>  <hydroph_interaction:ASP:129>  (162) 
0

>  <saltbridge:ASP:75>  (162) 
0

>  <saltbridge:ASP:83>  (162) 
0

>  <hydroph_interaction:ASN:152>  (162) 
0

>  <halogenbond:TYR:150>  (162) 
0

>  <hbond:ASP:83>  (162) 
0

>  <hydroph_interaction:VAL:155>  (162) 
1

>  <pication:TYR:161>  (162) 
0

>  <hbond:PRO:131>  (162) 
0

>  <hbond:LEU:128>  (162) 
0

>  <saltbridge:ASP:129>  (162) 
0

>  <hbond:THR:134>  (162) 
0

>  <pication:HIS:51>  (162) 
0

>  <hbond:SER:81>  (162) 
0

>  <hbond:GLY:159>  (162) 
0

>  <hydroph_interaction:PRO:101>  (162) 
0

>  <hydroph_interaction:THR:134>  (162) 
0

>  <hbond:GLY:82>  (162) 
0

>  <hydroph_interaction:GLU:104>  (162) 
0

>  <hydroph_interaction:VAL:36>  (162) 
0

>  <hydroph_interaction:MET:49>  (162) 
0

>  <halogenbond:GLU:104>  (162) 
0

>  <hydroph_interaction:LYS:107>  (162) 
0

$$$$
ZSVROKJTCSXVJJ-UHFFFAOYSA-N
     RDKit          3D

 48 52  0  0  0  0  0  0  0  0999 V2000
   -5.8150    7.3830  -19.9660 C   0  0  0  0  0  0  0  0  0  0  0  0
   -5.7420    6.0260  -19.7040 N   0  0  0  0  0  0  0  0  0  0  0  0
   -4.9200    5.6370  -18.6470 C   0  0  0  0  0  0  0  0  0  0  0  0
   -5.3620    5.9710  -17.3610 C   0  0  0  0  0  0  0  0  0  0  0  0
   -6.6820    5.6540  -17.0350 C   0  0  0  0  0  0  0  0  0  0  0  0
   -7.4790    5.3060  -18.1520 C   0  0  0  0  0  0  0  0  0  0  0  0
   -8.9170    4.9430  -17.8260 C   0  0  0  0  0  0  0  0  0  0  0  0
   -9.3430    4.9820  -16.5030 C   0  0  0  0  0  0  0  0  0  0  0  0
   -8.4270    5.3650  -15.4230 C   0  0  0  0  0  0  0  0  0  0  0  0
   -7.1350    5.6850  -15.7070 C   0  0  0  0  0  0  0  0  0  0  0  0
   -6.9320    5.2980  -19.5480 C   0  0  0  0  0  0  0  0  0  0  0  0
   -7.5200    4.6580  -20.4100 O   0  0  0  0  0  0  0  0  0  0  0  0
   -5.8730    8.2130  -19.0680 O   0  0  0  0  0  0  0  0  0  0  0  0
   -5.8180    8.0220  -21.3360 C   0  0  0  0  0  0  0  0  0  0  0  0
   -6.0830    7.3770  -22.6970 C   0  0  0  0  0  0  0  0  0  0  0  0
   -6.0730    8.2000  -23.8340 C   0  0  0  0  0  0  0  0  0  0  0  0
   -5.8170    9.5870  -23.7290 C   0  0  0  0  0  0  0  0  0  0  0  0
   -5.8170   10.4510  -24.8290 C   0  0  0  0  0  0  0  0  0  0  0  0
   -5.4360    9.6310  -26.3950 S   0  0  0  0  0  0  0  0  0  0  0  0
   -7.0430    9.2780  -26.9580 C   0  0  0  0  0  0  0  0  0  0  0  0
   -8.2370   10.4780  -27.1200 S   0  0  0  0  0  0  0  0  0  0  0  0
   -9.3650    9.2890  -27.6400 C   0  0  0  0  0  0  0  0  0  0  0  0
   -8.7110    8.0510  -27.6640 C   0  0  0  0  0  0  0  0  0  0  0  0
   -9.4530    6.8070  -28.0900 C   0  0  0  0  0  0  0  0  0  0  0  0
  -10.9310    7.0050  -28.4690 C   0  0  0  0  0  0  0  0  0  0  0  0
  -11.4710    8.4240  -28.3720 C   0  0  0  0  0  0  0  0  0  0  0  0
  -10.7000    9.4940  -27.9770 C   0  0  0  0  0  0  0  0  0  0  0  0
   -7.3910    8.0680  -27.2750 N   0  0  0  0  0  0  0  0  0  0  0  0
   -5.5550   10.1490  -22.4780 C   0  0  0  0  0  0  0  0  0  0  0  0
   -5.5560    9.3900  -21.3170 C   0  0  0  0  0  0  0  0  0  0  0  0
   -4.8320    4.5540  -18.6780 H   0  0  0  0  0  0  0  0  0  0  0  0
   -3.9490    6.1210  -18.7940 H   0  0  0  0  0  0  0  0  0  0  0  0
   -5.2340    7.0570  -17.2670 H   0  0  0  0  0  0  0  0  0  0  0  0
   -4.6860    5.5470  -16.6120 H   0  0  0  0  0  0  0  0  0  0  0  0
   -9.5950    4.6590  -18.6290 H   0  0  0  0  0  0  0  0  0  0  0  0
  -10.3710    4.7230  -16.2540 H   0  0  0  0  0  0  0  0  0  0  0  0
   -8.7750    5.3920  -14.3810 H   0  0  0  0  0  0  0  0  0  0  0  0
   -6.5270    5.9530  -14.8360 H   0  0  0  0  0  0  0  0  0  0  0  0
   -6.2870    6.3110  -22.7860 H   0  0  0  0  0  0  0  0  0  0  0  0
   -6.2740    7.7320  -24.7940 H   0  0  0  0  0  0  0  0  0  0  0  0
   -5.0820   11.2460  -24.6560 H   0  0  0  0  0  0  0  0  0  0  0  0
   -6.8040   10.9250  -24.8990 H   0  0  0  0  0  0  0  0  0  0  0  0
   -8.9670    5.8360  -28.1200 H   0  0  0  0  0  0  0  0  0  0  0  0
  -11.5540    6.1730  -28.7870 H   0  0  0  0  0  0  0  0  0  0  0  0
  -12.5120    8.6040  -28.6300 H   0  0  0  0  0  0  0  0  0  0  0  0
  -11.1350   10.4890  -27.9290 H   0  0  0  0  0  0  0  0  0  0  0  0
   -5.3500   11.2160  -22.4000 H   0  0  0  0  0  0  0  0  0  0  0  0
   -5.3540    9.8910  -20.3760 H   0  0  0  0  0  0  0  0  0  0  0  0
  1  2  1  0
  2  3  1  0
  3  4  1  0
  4  5  1  0
  5  6  2  0
  6  7  1  0
  7  8  2  0
  8  9  1  0
  9 10  2  0
  6 11  1  0
 11 12  2  0
  1 13  2  0
  1 14  1  0
 14 15  2  0
 15 16  1  0
 16 17  2  0
 17 18  1  0
 18 19  1  0
 19 20  1  0
 20 21  1  0
 21 22  1  0
 22 23  2  0
 23 24  1  0
 24 25  2  0
 25 26  1  0
 26 27  2  0
 23 28  1  0
 17 29  1  0
 29 30  2  0
 11  2  1  0
 10  5  1  0
 30 14  1  0
 20 28  2  0
 27 22  1  0
  3 31  1  0
  3 32  1  0
  4 33  1  0
  4 34  1  0
  7 35  1  0
  8 36  1  0
  9 37  1  0
 10 38  1  0
 15 39  1  0
 16 40  1  0
 18 41  1  0
 18 42  1  0
 24 43  1  0
 25 44  1  0
 26 45  1  0
 27 46  1  0
 29 47  1  0
 30 48  1  0
A    1
 C1 
A    2
 N1 
A    3
 C2 
A    4
 C3 
A    5
 C4 
A    6
 C5 
A    7
 C6 
A    8
 C7 
A    9
 C8 
A   10
 C9 
A   11
 C10
A   12
 O1 
A   13
 O2 
A   14
 C11
A   15
 C12
A   16
 C13
A   17
 C14
A   18
 C15
A   19
 S1 
A   20
 C16
A   21
 S2 
A   22
 C17
A   23
 C18
A   24
 C19
A   25
 C20
A   26
 C21
A   27
 C22
A   28
 N2 
A   29
 C23
A   30
 C24
A   31
 H1 
A   32
 H2 
A   33
 H3 
A   34
 H4 
A   35
 H5 
A   36
 H6 
A   37
 H7 
A   38
 H8 
A   39
 H9 
A   40
 H10
A   41
 H11
A   42
 H12
A   43
 H13
A   44
 H14
A   45
 H15
A   46
 H16
A   47
 H17
A   48
 H18
M  END
>  <ref_pdb>  (163) 
x0051_0B

>  <ref_mols>  (163) 
x0846_1B,x0969_0B

>  <original SMILES>  (163) 
[H]c1c([H])c([H])c2c(c1[H])C(=O)N(C(=O)c1c([H])c([H])c(C([H])([H])Sc3nc4c([H])c([H])c([H])c([H])c4s3)c([H])c1[H])C([H])([H])C2([H])[H]

>  <index>  (163) 
277

>  <∆∆G>  (163) 
-9.664455

>  <∆G_bound>  (163) 
-9.057212

>  <∆G_unbound>  (163) 
0.607243

>  <comRMSD>  (163) 
0.807875

>  <N_constrained_atoms>  (163) 
28.0

>  <N_unconstrained_atoms>  (163) 
4.0

>  <runtime>  (163) 
48.925997

>  <LE>  (163) 
0.302014

>  <percent_hybrid>  (163) 
36.0

>  <dist>  (163) 
11.0

>  <ecfp4>  (163) 
0.168421

>  <daylight>  (163) 
0.204678

>  <topodist>  (163) 
5.0

>  <mces>  (163) 
31.0

>  <tdn>  (163) 
2.0

>  <tup>  (163) 
2.0

>  <rdn>  (163) 
0.0

>  <rup>  (163) 
0.0

>  <ldn>  (163) 
0.0

>  <lup>  (163) 
1.0

>  <mut>  (163) 
5.0

>  <maj>  (163) 
5.0

>  <min>  (163) 
0.0

>  <hyb>  (163) 
1.0

>  <sub>  (163) 
2.0

>  <query_index>  (163) 
45.0

>  <max_hit_Tanimoto>  (163) 
0.210478

>  <largest_ring>  (163) 
0

>  <N_interactions_kept>  (163) 
0.5

>  <N_interactions_lost>  (163) 
2.0

>  <interaction_uniqueness_metric>  (163) 
0.201812

>  <ad_hoc_penalty>  (163) 
-25.366528

>  <N_rotatable_bonds>  (163) 
4

>  <N_HA>  (163) 
30

>  <cluster>  (163) 
5963

>  <N_interactions>  (163) 
5

>  <Enamine>  (163) 
0

>  <Mcule>  (163) 
1

>  <N_PAINS>  (163) 
0

>  <UFF_Gibbs>  (163) 
134.206742

>  <strain_per_HA>  (163) 
4.473558

>  <saltbridge:HIS:51>  (163) 
0

>  <pistack:HIS:51>  (163) 
0

>  <hydroph_interaction:HIS:51>  (163) 
0

>  <hbond:ALA:132>  (163) 
1

>  <hbond:SER:135>  (163) 
0

>  <hydroph_interaction:TYR:150>  (163) 
0

>  <pistack:TYR:161>  (163) 
1

>  <hydroph_interaction:TYR:161>  (163) 
0

>  <hydroph_interaction:ASP:83>  (163) 
0

>  <hbond:TYR:130>  (163) 
1

>  <hydroph_interaction:ALA:132>  (163) 
0

>  <hbond:HIS:51>  (163) 
0

>  <hbond:ASP:129>  (163) 
0

>  <hbond:TYR:150>  (163) 
0

>  <hbond:GLY:151>  (163) 
0

>  <hbond:TYR:161>  (163) 
0

>  <hydroph_interaction:TYR:130>  (163) 
1

>  <hydroph_interaction:PRO:131>  (163) 
1

>  <hydroph_interaction:ASP:129>  (163) 
0

>  <saltbridge:ASP:75>  (163) 
0

>  <saltbridge:ASP:83>  (163) 
0

>  <hydroph_interaction:ASN:152>  (163) 
0

>  <halogenbond:TYR:150>  (163) 
0

>  <hbond:ASP:83>  (163) 
0

>  <hydroph_interaction:VAL:155>  (163) 
0

>  <pication:TYR:161>  (163) 
0

>  <hbond:PRO:131>  (163) 
0

>  <hbond:LEU:128>  (163) 
0

>  <saltbridge:ASP:129>  (163) 
0

>  <hbond:THR:134>  (163) 
0

>  <pication:HIS:51>  (163) 
0

>  <hbond:SER:81>  (163) 
0

>  <hbond:GLY:159>  (163) 
0

>  <hydroph_interaction:PRO:101>  (163) 
0

>  <hydroph_interaction:THR:134>  (163) 
0

>  <hbond:GLY:82>  (163) 
0

>  <hydroph_interaction:GLU:104>  (163) 
0

>  <hydroph_interaction:VAL:36>  (163) 
0

>  <hydroph_interaction:MET:49>  (163) 
0

>  <halogenbond:GLU:104>  (163) 
0

>  <hydroph_interaction:LYS:107>  (163) 
0

$$$$
Z2783651219
     RDKit          3D

 46 49  0  0  0  0  0  0  0  0999 V2000
   -9.9010    4.6220  -18.6690 C   0  0  0  0  0  0  0  0  0  0  0  0
   -9.0780    5.0290  -17.4710 C   0  0  0  0  0  0  0  0  0  0  0  0
   -9.6910    4.9390  -16.2130 N   0  0  0  0  0  0  0  0  0  0  0  0
   -8.7890    5.3480  -15.3030 N   0  0  0  0  0  0  0  0  0  0  0  0
   -9.3100    5.2780  -14.1020 C   0  0  0  0  0  0  0  0  0  0  0  0
   -9.0280    6.1680  -12.9520 C   0  0  0  0  0  0  0  0  0  0  0  0
   -9.3900    7.3490  -12.9410 O   0  0  0  0  0  0  0  0  0  0  0  0
   -8.3410    5.5060  -11.9460 N   0  0  0  0  0  0  0  0  0  0  0  0
   -8.5690    5.5570  -10.5790 C   0  0  0  0  0  0  0  0  0  0  0  0
   -8.8170    4.4100   -9.7290 C   0  0  0  0  0  0  0  0  0  0  0  0
   -8.8890    3.0410  -10.0760 C   0  0  0  0  0  0  0  0  0  0  0  0
   -8.7440    2.2820   -8.9140 C   0  0  0  0  0  0  0  0  0  0  0  0
   -9.5720    2.5820   -7.8330 C   0  0  0  0  0  0  0  0  0  0  0  0
   -9.2380    3.9900   -7.3370 C   0  0  0  0  0  0  0  0  0  0  0  0
   -8.9760    4.8650   -8.4710 N   0  0  0  0  0  0  0  0  0  0  0  0
   -8.8710    6.1990   -8.3680 N   0  0  0  0  0  0  0  0  0  0  0  0
   -8.6270    6.6210   -9.6350 C   0  0  0  0  0  0  0  0  0  0  0  0
   -7.5940    5.7110  -15.8950 C   0  0  0  0  0  0  0  0  0  0  0  0
   -7.7500    5.5190  -17.2990 C   0  0  0  0  0  0  0  0  0  0  0  0
   -6.7170    5.7910  -18.2900 C   0  0  0  0  0  0  0  0  0  0  0  0
   -5.4470    5.2390  -18.1740 C   0  0  0  0  0  0  0  0  0  0  0  0
   -4.4650    5.5050  -19.1380 C   0  0  0  0  0  0  0  0  0  0  0  0
   -4.7510    6.3300  -20.2220 C   0  0  0  0  0  0  0  0  0  0  0  0
   -6.0070    6.8850  -20.3450 C   0  0  0  0  0  0  0  0  0  0  0  0
   -6.9740    6.6110  -19.3870 C   0  0  0  0  0  0  0  0  0  0  0  0
   -9.6960    3.5800  -18.9340 H   0  0  0  0  0  0  0  0  0  0  0  0
  -10.9730    4.7140  -18.4570 H   0  0  0  0  0  0  0  0  0  0  0  0
   -9.6690    5.2470  -19.5390 H   0  0  0  0  0  0  0  0  0  0  0  0
  -10.3890    5.3530  -14.2740 H   0  0  0  0  0  0  0  0  0  0  0  0
   -9.1410    4.2420  -13.8370 H   0  0  0  0  0  0  0  0  0  0  0  0
   -7.6750    4.8000  -12.2590 H   0  0  0  0  0  0  0  0  0  0  0  0
   -9.7410    2.7850  -10.6950 H   0  0  0  0  0  0  0  0  0  0  0  0
   -8.0670    2.7030  -10.7020 H   0  0  0  0  0  0  0  0  0  0  0  0
   -8.8620    1.2380   -9.1550 H   0  0  0  0  0  0  0  0  0  0  0  0
   -7.7050    2.3790   -8.5860 H   0  0  0  0  0  0  0  0  0  0  0  0
   -9.3500    1.8640   -7.0350 H   0  0  0  0  0  0  0  0  0  0  0  0
  -10.6400    2.5190   -7.9950 H   0  0  0  0  0  0  0  0  0  0  0  0
   -8.3300    3.9830   -6.7280 H   0  0  0  0  0  0  0  0  0  0  0  0
  -10.0600    4.4120   -6.7540 H   0  0  0  0  0  0  0  0  0  0  0  0
   -8.5020    7.6870   -9.8080 H   0  0  0  0  0  0  0  0  0  0  0  0
   -6.7600    6.0630  -15.2990 H   0  0  0  0  0  0  0  0  0  0  0  0
   -5.2060    4.5980  -17.3360 H   0  0  0  0  0  0  0  0  0  0  0  0
   -3.4820    5.0640  -19.0300 H   0  0  0  0  0  0  0  0  0  0  0  0
   -3.9860    6.5360  -20.9700 H   0  0  0  0  0  0  0  0  0  0  0  0
   -6.2490    7.5300  -21.1860 H   0  0  0  0  0  0  0  0  0  0  0  0
   -7.9310    7.0500  -19.5240 H   0  0  0  0  0  0  0  0  0  0  0  0
  1  2  1  0
  2  3  2  0
  3  4  1  0
  4  5  1  0
  5  6  1  0
  6  7  2  0
  6  8  1  0
  8  9  1  0
  9 10  2  0
 10 11  1  0
 11 12  1  0
 12 13  1  0
 13 14  1  0
 14 15  1  0
 15 16  1  0
 16 17  2  0
  4 18  1  0
 18 19  2  0
 19 20  1  0
 20 21  2  0
 21 22  1  0
 22 23  2  0
 23 24  1  0
 24 25  2  0
 19  2  1  0
 17  9  1  0
 15 10  1  0
 25 20  1  0
  1 26  1  0
  1 27  1  0
  1 28  1  0
  5 29  1  0
  5 30  1  0
  8 31  1  0
 11 32  1  0
 11 33  1  0
 12 34  1  0
 12 35  1  0
 13 36  1  0
 13 37  1  0
 14 38  1  0
 14 39  1  0
 17 40  1  0
 18 41  1  0
 21 42  1  0
 22 43  1  0
 23 44  1  0
 24 45  1  0
 25 46  1  0
A    1
 C1 
A    2
 C2 
A    3
 N1 
A    4
 N2 
A    5
 C3 
A    6
 C4 
A    7
 O1 
A    8
 N3 
A    9
 C5 
A   10
 C6 
A   11
 C7 
A   12
 C8 
A   13
 C9 
A   14
 C10
A   15
 N4 
A   16
 N5 
A   17
 C11
A   18
 C12
A   19
 C13
A   20
 C14
A   21
 C15
A   22
 C16
A   23
 C17
A   24
 C18
A   25
 C19
A   26
 H1 
A   27
 H2 
A   28
 H3 
A   29
 H4 
A   30
 H5 
A   31
 H6 
A   32
 H7 
A   33
 H8 
A   34
 H9 
A   35
 H10
A   36
 H11
A   37
 H12
A   38
 H13
A   39
 H14
A   40
 H15
A   41
 H16
A   42
 H17
A   43
 H18
A   44
 H19
A   45
 H20
A   46
 H21
M  END
>  <ref_pdb>  (164) 
x0051_0B

>  <ref_mols>  (164) 
x0969_1B,x0803_0B

>  <original SMILES>  (164) 
[H]c1nn2c(c1N([H])C(=O)C([H])([H])n1nc(C([H])([H])[H])c(-c3c([H])c([H])c([H])c([H])c3[H])c1[H])C([H])([H])C([H])([H])C([H])([H])C2([H])[H]

>  <index>  (164) 
238

>  <∆∆G>  (164) 
-9.581827

>  <∆G_bound>  (164) 
-8.927272

>  <∆G_unbound>  (164) 
0.654555

>  <comRMSD>  (164) 
0.451992

>  <N_constrained_atoms>  (164) 
22.0

>  <N_unconstrained_atoms>  (164) 
3.0

>  <runtime>  (164) 
74.713171

>  <LE>  (164) 
0.383273

>  <percent_hybrid>  (164) 
46.0

>  <dist>  (164) 
10.0

>  <ecfp4>  (164) 
0.26506

>  <daylight>  (164) 
0.285294

>  <topodist>  (164) 
1.0

>  <mces>  (164) 
27.0

>  <tdn>  (164) 
0.0

>  <tup>  (164) 
1.0

>  <rdn>  (164) 
0.0

>  <rup>  (164) 
0.0

>  <ldn>  (164) 
0.0

>  <lup>  (164) 
0.0

>  <mut>  (164) 
4.0

>  <maj>  (164) 
4.0

>  <min>  (164) 
0.0

>  <hyb>  (164) 
5.0

>  <sub>  (164) 
0.0

>  <query_index>  (164) 
360.0

>  <max_hit_Tanimoto>  (164) 
0.28259

>  <largest_ring>  (164) 
0

>  <N_interactions_kept>  (164) 
4.0

>  <N_interactions_lost>  (164) 
2.0

>  <interaction_uniqueness_metric>  (164) 
0.154519

>  <ad_hoc_penalty>  (164) 
-25.349711

>  <N_rotatable_bonds>  (164) 
5

>  <N_HA>  (164) 
25

>  <cluster>  (164) 
6002

>  <N_interactions>  (164) 
6

>  <Enamine>  (164) 
1

>  <Mcule>  (164) 
0

>  <N_PAINS>  (164) 
0

>  <UFF_Gibbs>  (164) 
116.718511

>  <strain_per_HA>  (164) 
4.66874

>  <saltbridge:HIS:51>  (164) 
0

>  <pistack:HIS:51>  (164) 
1

>  <hydroph_interaction:HIS:51>  (164) 
0

>  <hbond:ALA:132>  (164) 
0

>  <hbond:SER:135>  (164) 
0

>  <hydroph_interaction:TYR:150>  (164) 
1

>  <pistack:TYR:161>  (164) 
1

>  <hydroph_interaction:TYR:161>  (164) 
2

>  <hydroph_interaction:ASP:83>  (164) 
1

>  <hbond:TYR:130>  (164) 
0

>  <hydroph_interaction:ALA:132>  (164) 
0

>  <hbond:HIS:51>  (164) 
0

>  <hbond:ASP:129>  (164) 
0

>  <hbond:TYR:150>  (164) 
0

>  <hbond:GLY:151>  (164) 
0

>  <hbond:TYR:161>  (164) 
0

>  <hydroph_interaction:TYR:130>  (164) 
0

>  <hydroph_interaction:PRO:131>  (164) 
0

>  <hydroph_interaction:ASP:129>  (164) 
0

>  <saltbridge:ASP:75>  (164) 
0

>  <saltbridge:ASP:83>  (164) 
0

>  <hydroph_interaction:ASN:152>  (164) 
0

>  <halogenbond:TYR:150>  (164) 
0

>  <hbond:ASP:83>  (164) 
0

>  <hydroph_interaction:VAL:155>  (164) 
0

>  <pication:TYR:161>  (164) 
0

>  <hbond:PRO:131>  (164) 
0

>  <hbond:LEU:128>  (164) 
0

>  <saltbridge:ASP:129>  (164) 
0

>  <hbond:THR:134>  (164) 
0

>  <pication:HIS:51>  (164) 
0

>  <hbond:SER:81>  (164) 
0

>  <hbond:GLY:159>  (164) 
0

>  <hydroph_interaction:PRO:101>  (164) 
0

>  <hydroph_interaction:THR:134>  (164) 
0

>  <hbond:GLY:82>  (164) 
0

>  <hydroph_interaction:GLU:104>  (164) 
0

>  <hydroph_interaction:VAL:36>  (164) 
0

>  <hydroph_interaction:MET:49>  (164) 
0

>  <halogenbond:GLU:104>  (164) 
0

>  <hydroph_interaction:LYS:107>  (164) 
0

$$$$
Z3537468956
     RDKit          3D

 40 43  0  0  0  0  0  0  0  0999 V2000
   -6.4930    5.1440  -20.4210 C   0  0  0  0  0  0  0  0  0  0  0  0
   -6.5290    5.2490  -18.9840 N   0  0  0  0  0  0  0  0  0  0  0  0
   -5.4040    5.4940  -18.2980 N   0  0  0  0  0  0  0  0  0  0  0  0
   -5.7240    5.5390  -17.0040 N   0  0  0  0  0  0  0  0  0  0  0  0
   -7.0740    5.3190  -16.8680 C   0  0  0  0  0  0  0  0  0  0  0  0
   -7.9270    5.2650  -15.7230 C   0  0  0  0  0  0  0  0  0  0  0  0
   -7.3480    5.4890  -14.3300 C   0  0  0  0  0  0  0  0  0  0  0  0
   -6.3470    6.1570  -14.1330 O   0  0  0  0  0  0  0  0  0  0  0  0
   -8.0430    4.8760  -13.2900 O   0  0  0  0  0  0  0  0  0  0  0  0
   -8.8220    5.7850  -12.4530 C   0  0  0  0  0  0  0  0  0  0  0  0
   -8.8260    5.5780  -10.9370 C   0  0  0  0  0  0  0  0  0  0  0  0
   -8.9180    4.4370  -10.1220 C   0  0  0  0  0  0  0  0  0  0  0  0
   -9.0310    2.9810  -10.3960 C   0  0  0  0  0  0  0  0  0  0  0  0
   -8.6120    2.2100   -9.1510 C   0  0  0  0  0  0  0  0  0  0  0  0
   -9.4210    2.6550   -7.9430 C   0  0  0  0  0  0  0  0  0  0  0  0
   -8.9840    4.0700   -7.6110 C   0  0  0  0  0  0  0  0  0  0  0  0
   -8.8940    4.8920   -8.8130 N   0  0  0  0  0  0  0  0  0  0  0  0
   -8.7830    6.2150   -8.7050 N   0  0  0  0  0  0  0  0  0  0  0  0
   -8.7430    6.6280   -9.9770 C   0  0  0  0  0  0  0  0  0  0  0  0
   -9.2960    5.0090  -15.9840 C   0  0  0  0  0  0  0  0  0  0  0  0
   -9.7820    4.8180  -17.2910 C   0  0  0  0  0  0  0  0  0  0  0  0
   -8.9520    4.8720  -18.4020 C   0  0  0  0  0  0  0  0  0  0  0  0
   -7.6090    5.1260  -18.1540 C   0  0  0  0  0  0  0  0  0  0  0  0
   -7.3460    4.5580  -20.7750 H   0  0  0  0  0  0  0  0  0  0  0  0
   -6.5290    6.1520  -20.8380 H   0  0  0  0  0  0  0  0  0  0  0  0
   -5.5670    4.6500  -20.7170 H   0  0  0  0  0  0  0  0  0  0  0  0
   -9.8620    5.7340  -12.7940 H   0  0  0  0  0  0  0  0  0  0  0  0
   -8.4650    6.8020  -12.6570 H   0  0  0  0  0  0  0  0  0  0  0  0
  -10.0630    2.7300  -10.6620 H   0  0  0  0  0  0  0  0  0  0  0  0
   -8.3960    2.6920  -11.2430 H   0  0  0  0  0  0  0  0  0  0  0  0
   -7.5490    2.3830   -8.9630 H   0  0  0  0  0  0  0  0  0  0  0  0
   -8.7340    1.1490   -9.3050 H   0  0  0  0  0  0  0  0  0  0  0  0
   -9.2190    1.9870   -7.1020 H   0  0  0  0  0  0  0  0  0  0  0  0
  -10.4980    2.6150   -8.1520 H   0  0  0  0  0  0  0  0  0  0  0  0
   -8.0020    4.0640   -7.1230 H   0  0  0  0  0  0  0  0  0  0  0  0
   -9.7090    4.5570   -6.9500 H   0  0  0  0  0  0  0  0  0  0  0  0
   -8.6560    7.6910  -10.1640 H   0  0  0  0  0  0  0  0  0  0  0  0
  -10.0070    4.9560  -15.1620 H   0  0  0  0  0  0  0  0  0  0  0  0
  -10.8390    4.6240  -17.4400 H   0  0  0  0  0  0  0  0  0  0  0  0
   -9.3430    4.7230  -19.4030 H   0  0  0  0  0  0  0  0  0  0  0  0
  1  2  1  0
  2  3  1  0
  3  4  2  0
  4  5  1  0
  5  6  2  0
  6  7  1  0
  7  8  2  0
  7  9  1  0
  9 10  1  0
 10 11  1  0
 11 12  2  0
 12 13  1  0
 13 14  1  0
 14 15  1  0
 15 16  1  0
 16 17  1  0
 17 18  1  0
 18 19  2  0
  6 20  1  0
 20 21  2  0
 21 22  1  0
 22 23  2  0
 23  2  1  0
 23  5  1  0
 19 11  1  0
 17 12  1  0
  1 24  1  0
  1 25  1  0
  1 26  1  0
 10 27  1  0
 10 28  1  0
 13 29  1  0
 13 30  1  0
 14 31  1  0
 14 32  1  0
 15 33  1  0
 15 34  1  0
 16 35  1  0
 16 36  1  0
 19 37  1  0
 20 38  1  0
 21 39  1  0
 22 40  1  0
A    1
 C1 
A    2
 N1 
A    3
 N2 
A    4
 N3 
A    5
 C2 
A    6
 C3 
A    7
 C4 
A    8
 O1 
A    9
 O2 
A   10
 C5 
A   11
 C6 
A   12
 C7 
A   13
 C8 
A   14
 C9 
A   15
 C10
A   16
 C11
A   17
 N4 
A   18
 N5 
A   19
 C12
A   20
 C13
A   21
 C14
A   22
 C15
A   23
 C16
A   24
 H1 
A   25
 H2 
A   26
 H3 
A   27
 H4 
A   28
 H5 
A   29
 H6 
A   30
 H7 
A   31
 H8 
A   32
 H9 
A   33
 H10
A   34
 H11
A   35
 H12
A   36
 H13
A   37
 H14
A   38
 H15
A   39
 H16
A   40
 H17
M  END
>  <ref_pdb>  (165) 
x0051_0B

>  <ref_mols>  (165) 
x0969_1B,x0435_0B

>  <original SMILES>  (165) 
[H]c1nn2c(c1C([H])([H])OC(=O)c1c([H])c([H])c([H])c3c1nnn3C([H])([H])[H])C([H])([H])C([H])([H])C([H])([H])C2([H])[H]

>  <index>  (165) 
368

>  <∆∆G>  (165) 
-7.886131

>  <∆G_bound>  (165) 
-7.266658

>  <∆G_unbound>  (165) 
0.619473

>  <comRMSD>  (165) 
0.384331

>  <N_constrained_atoms>  (165) 
20.0

>  <N_unconstrained_atoms>  (165) 
3.0

>  <runtime>  (165) 
61.988242

>  <LE>  (165) 
0.342875

>  <percent_hybrid>  (165) 
50.0

>  <dist>  (165) 
6.0

>  <ecfp4>  (165) 
0.197674

>  <daylight>  (165) 
0.332335

>  <topodist>  (165) 
1.0

>  <mces>  (165) 
25.0

>  <tdn>  (165) 
0.0

>  <tup>  (165) 
1.0

>  <rdn>  (165) 
0.0

>  <rup>  (165) 
0.0

>  <ldn>  (165) 
0.0

>  <lup>  (165) 
0.0

>  <mut>  (165) 
4.0

>  <maj>  (165) 
4.0

>  <min>  (165) 
0.0

>  <hyb>  (165) 
1.0

>  <sub>  (165) 
0.0

>  <query_index>  (165) 
343.0

>  <max_hit_Tanimoto>  (165) 
0.299233

>  <largest_ring>  (165) 
0

>  <N_interactions_kept>  (165) 
2.5

>  <N_interactions_lost>  (165) 
1.0

>  <interaction_uniqueness_metric>  (165) 
0.131133

>  <ad_hoc_penalty>  (165) 
-25.338246

>  <N_rotatable_bonds>  (165) 
4

>  <N_HA>  (165) 
23

>  <cluster>  (165) 
5881

>  <N_interactions>  (165) 
4

>  <Enamine>  (165) 
1

>  <Mcule>  (165) 
0

>  <N_PAINS>  (165) 
0

>  <UFF_Gibbs>  (165) 
40.066731

>  <strain_per_HA>  (165) 
1.742032

>  <saltbridge:HIS:51>  (165) 
0

>  <pistack:HIS:51>  (165) 
1

>  <hydroph_interaction:HIS:51>  (165) 
0

>  <hbond:ALA:132>  (165) 
0

>  <hbond:SER:135>  (165) 
0

>  <hydroph_interaction:TYR:150>  (165) 
0

>  <pistack:TYR:161>  (165) 
2

>  <hydroph_interaction:TYR:161>  (165) 
0

>  <hydroph_interaction:ASP:83>  (165) 
1

>  <hbond:TYR:130>  (165) 
0

>  <hydroph_interaction:ALA:132>  (165) 
0

>  <hbond:HIS:51>  (165) 
0

>  <hbond:ASP:129>  (165) 
0

>  <hbond:TYR:150>  (165) 
0

>  <hbond:GLY:151>  (165) 
0

>  <hbond:TYR:161>  (165) 
0

>  <hydroph_interaction:TYR:130>  (165) 
0

>  <hydroph_interaction:PRO:131>  (165) 
0

>  <hydroph_interaction:ASP:129>  (165) 
0

>  <saltbridge:ASP:75>  (165) 
0

>  <saltbridge:ASP:83>  (165) 
0

>  <hydroph_interaction:ASN:152>  (165) 
0

>  <halogenbond:TYR:150>  (165) 
0

>  <hbond:ASP:83>  (165) 
0

>  <hydroph_interaction:VAL:155>  (165) 
0

>  <pication:TYR:161>  (165) 
0

>  <hbond:PRO:131>  (165) 
0

>  <hbond:LEU:128>  (165) 
0

>  <saltbridge:ASP:129>  (165) 
0

>  <hbond:THR:134>  (165) 
0

>  <pication:HIS:51>  (165) 
0

>  <hbond:SER:81>  (165) 
0

>  <hbond:GLY:159>  (165) 
0

>  <hydroph_interaction:PRO:101>  (165) 
0

>  <hydroph_interaction:THR:134>  (165) 
0

>  <hbond:GLY:82>  (165) 
0

>  <hydroph_interaction:GLU:104>  (165) 
0

>  <hydroph_interaction:VAL:36>  (165) 
0

>  <hydroph_interaction:MET:49>  (165) 
0

>  <halogenbond:GLU:104>  (165) 
0

>  <hydroph_interaction:LYS:107>  (165) 
0

$$$$
Z5453069706
     RDKit          3D

 38 40  0  0  0  0  0  0  0  0999 V2000
   -5.4610    5.3550  -16.1310 C   0  0  0  0  0  0  0  0  0  0  0  0
   -6.8170    5.2050  -16.7280 C   0  0  0  0  0  0  0  0  0  0  0  0
   -6.9590    5.3340  -18.1120 C   0  0  0  0  0  0  0  0  0  0  0  0
   -8.3200    5.1680  -18.7130 C   0  0  0  0  0  0  0  0  0  0  0  0
   -9.4440    4.8870  -17.8110 C   0  0  0  0  0  0  0  0  0  0  0  0
  -10.7320    4.7130  -18.2180 C   0  0  0  0  0  0  0  0  0  0  0  0
  -11.3560    5.4930  -19.1800 N   0  0  0  0  0  0  0  0  0  0  0  0
   -9.1740    4.7890  -16.4380 C   0  0  0  0  0  0  0  0  0  0  0  0
   -7.9370    4.9270  -15.8930 C   0  0  0  0  0  0  0  0  0  0  0  0
   -7.7220    4.7740  -14.4700 N   0  0  0  0  0  0  0  0  0  0  0  0
   -7.8890    5.6570  -13.3710 C   0  0  0  0  0  0  0  0  0  0  0  0
   -7.2380    6.6780  -13.1590 O   0  0  0  0  0  0  0  0  0  0  0  0
   -8.9160    5.2700  -12.4680 C   0  0  0  0  0  0  0  0  0  0  0  0
   -8.8670    5.4200  -10.9570 C   0  0  0  0  0  0  0  0  0  0  0  0
   -8.9640    4.4050  -10.0120 C   0  0  0  0  0  0  0  0  0  0  0  0
   -9.1070    3.1020  -10.1890 O   0  0  0  0  0  0  0  0  0  0  0  0
   -9.4380    2.2810   -9.0550 C   0  0  0  0  0  0  0  0  0  0  0  0
   -9.5750    2.9150   -7.6660 C   0  0  0  0  0  0  0  0  0  0  0  0
   -8.9590    4.3000   -7.5200 C   0  0  0  0  0  0  0  0  0  0  0  0
   -8.8900    4.9990   -8.7850 N   0  0  0  0  0  0  0  0  0  0  0  0
   -8.7420    6.3420   -8.8370 N   0  0  0  0  0  0  0  0  0  0  0  0
   -8.7310    6.5920  -10.1560 C   0  0  0  0  0  0  0  0  0  0  0  0
   -4.7000    5.3010  -16.9110 H   0  0  0  0  0  0  0  0  0  0  0  0
   -5.2990    4.5580  -15.4000 H   0  0  0  0  0  0  0  0  0  0  0  0
   -5.3700    6.3260  -15.6310 H   0  0  0  0  0  0  0  0  0  0  0  0
   -6.1030    5.5460  -18.7520 H   0  0  0  0  0  0  0  0  0  0  0  0
   -8.4610    5.2580  -19.7970 H   0  0  0  0  0  0  0  0  0  0  0  0
  -10.0340    4.5810  -15.7940 H   0  0  0  0  0  0  0  0  0  0  0  0
   -7.5680    3.7950  -14.2080 H   0  0  0  0  0  0  0  0  0  0  0  0
   -9.8030    5.8080  -12.8160 H   0  0  0  0  0  0  0  0  0  0  0  0
   -9.1370    4.2190  -12.6950 H   0  0  0  0  0  0  0  0  0  0  0  0
  -10.4050    1.8730   -9.2980 H   0  0  0  0  0  0  0  0  0  0  0  0
   -8.7330    1.4480   -9.0230 H   0  0  0  0  0  0  0  0  0  0  0  0
   -9.0680    2.2510   -6.9530 H   0  0  0  0  0  0  0  0  0  0  0  0
  -10.6280    2.9420   -7.3690 H   0  0  0  0  0  0  0  0  0  0  0  0
   -7.9340    4.2320   -7.1440 H   0  0  0  0  0  0  0  0  0  0  0  0
   -9.5500    4.9080   -6.8280 H   0  0  0  0  0  0  0  0  0  0  0  0
   -8.6270    7.6190  -10.4870 H   0  0  0  0  0  0  0  0  0  0  0  0
  1  2  1  0
  2  3  2  0
  3  4  1  0
  4  5  2  0
  5  6  1  0
  6  7  3  0
  5  8  1  0
  8  9  2  0
  9 10  1  0
 10 11  1  0
 11 12  2  0
 11 13  1  0
 13 14  1  0
 14 15  2  0
 15 16  1  0
 16 17  1  0
 17 18  1  0
 18 19  1  0
 19 20  1  0
 20 21  1  0
 21 22  2  0
  9  2  1  0
 22 14  1  0
 20 15  1  0
  1 23  1  0
  1 24  1  0
  1 25  1  0
  3 26  1  0
  4 27  1  0
  8 28  1  0
 10 29  1  0
 13 30  1  0
 13 31  1  0
 17 32  1  0
 17 33  1  0
 18 34  1  0
 18 35  1  0
 19 36  1  0
 19 37  1  0
 22 38  1  0
A    1
 C1 
A    2
 C2 
A    3
 C3 
A    4
 C4 
A    5
 C5 
A    6
 C6 
A    7
 N1 
A    8
 C7 
A    9
 C8 
A   10
 N2 
A   11
 C9 
A   12
 O1 
A   13
 C10
A   14
 C11
A   15
 C12
A   16
 O2 
A   17
 C13
A   18
 C14
A   19
 C15
A   20
 N3 
A   21
 N4 
A   22
 C16
A   23
 H1 
A   24
 H2 
A   25
 H3 
A   26
 H4 
A   27
 H5 
A   28
 H6 
A   29
 H7 
A   30
 H8 
A   31
 H9 
A   32
 H10
A   33
 H11
A   34
 H12
A   35
 H13
A   36
 H14
A   37
 H15
A   38
 H16
M  END
>  <ref_pdb>  (166) 
x0051_0B

>  <ref_mols>  (166) 
x0553_0B,x0969_1B

>  <original SMILES>  (166) 
[H]c1nn2c(c1C([H])([H])C(=O)N([H])c1c([H])c(C#N)c([H])c([H])c1C([H])([H])[H])OC([H])([H])C([H])([H])C2([H])[H]

>  <index>  (166) 
162

>  <∆∆G>  (166) 
-5.911013

>  <∆G_bound>  (166) 
-5.012307

>  <∆G_unbound>  (166) 
0.898707

>  <comRMSD>  (166) 
0.528172

>  <N_constrained_atoms>  (166) 
19.0

>  <N_unconstrained_atoms>  (166) 
3.0

>  <runtime>  (166) 
49.207972

>  <LE>  (166) 
0.268682

>  <percent_hybrid>  (166) 
48.0

>  <dist>  (166) 
5.0

>  <ecfp4>  (166) 
0.44

>  <daylight>  (166) 
0.333333

>  <topodist>  (166) 
1.0

>  <mces>  (166) 
23.0

>  <tdn>  (166) 
0.0

>  <tup>  (166) 
1.0

>  <rdn>  (166) 
0.0

>  <rup>  (166) 
0.0

>  <ldn>  (166) 
0.0

>  <lup>  (166) 
0.0

>  <mut>  (166) 
3.0

>  <maj>  (166) 
3.0

>  <min>  (166) 
0.0

>  <hyb>  (166) 
1.0

>  <sub>  (166) 
0.0

>  <query_index>  (166) 
375.0

>  <max_hit_Tanimoto>  (166) 
0.255771

>  <largest_ring>  (166) 
0

>  <N_interactions_kept>  (166) 
1.0

>  <N_interactions_lost>  (166) 
1.5

>  <interaction_uniqueness_metric>  (166) 
0.312932

>  <ad_hoc_penalty>  (166) 
-25.225529

>  <N_rotatable_bonds>  (166) 
4

>  <N_HA>  (166) 
22

>  <cluster>  (166) 
6070

>  <N_interactions>  (166) 
7

>  <Enamine>  (166) 
1

>  <Mcule>  (166) 
0

>  <N_PAINS>  (166) 
0

>  <UFF_Gibbs>  (166) 
205.082185

>  <strain_per_HA>  (166) 
9.321918

>  <saltbridge:HIS:51>  (166) 
0

>  <pistack:HIS:51>  (166) 
1

>  <hydroph_interaction:HIS:51>  (166) 
1

>  <hbond:ALA:132>  (166) 
0

>  <hbond:SER:135>  (166) 
0

>  <hydroph_interaction:TYR:150>  (166) 
0

>  <pistack:TYR:161>  (166) 
1

>  <hydroph_interaction:TYR:161>  (166) 
1

>  <hydroph_interaction:ASP:83>  (166) 
0

>  <hbond:TYR:130>  (166) 
1

>  <hydroph_interaction:ALA:132>  (166) 
0

>  <hbond:HIS:51>  (166) 
0

>  <hbond:ASP:129>  (166) 
0

>  <hbond:TYR:150>  (166) 
0

>  <hbond:GLY:151>  (166) 
0

>  <hbond:TYR:161>  (166) 
1

>  <hydroph_interaction:TYR:130>  (166) 
0

>  <hydroph_interaction:PRO:131>  (166) 
0

>  <hydroph_interaction:ASP:129>  (166) 
0

>  <saltbridge:ASP:75>  (166) 
0

>  <saltbridge:ASP:83>  (166) 
0

>  <hydroph_interaction:ASN:152>  (166) 
0

>  <halogenbond:TYR:150>  (166) 
0

>  <hbond:ASP:83>  (166) 
0

>  <hydroph_interaction:VAL:155>  (166) 
0

>  <pication:TYR:161>  (166) 
0

>  <hbond:PRO:131>  (166) 
0

>  <hbond:LEU:128>  (166) 
0

>  <saltbridge:ASP:129>  (166) 
0

>  <hbond:THR:134>  (166) 
1

>  <pication:HIS:51>  (166) 
0

>  <hbond:SER:81>  (166) 
0

>  <hbond:GLY:159>  (166) 
0

>  <hydroph_interaction:PRO:101>  (166) 
0

>  <hydroph_interaction:THR:134>  (166) 
0

>  <hbond:GLY:82>  (166) 
0

>  <hydroph_interaction:GLU:104>  (166) 
0

>  <hydroph_interaction:VAL:36>  (166) 
0

>  <hydroph_interaction:MET:49>  (166) 
0

>  <halogenbond:GLU:104>  (166) 
0

>  <hydroph_interaction:LYS:107>  (166) 
0

$$$$
CSSB00015753763
     RDKit          3D

 24 26  0  0  0  0  0  0  0  0999 V2000
   -5.4960    4.8400  -15.0130 N   0  0  0  0  0  0  0  0  0  0  0  0
   -6.3610    5.7210  -15.6740 C   0  0  2  0  0  0  0  0  0  0  0  0
   -7.7440    5.4870  -15.4700 C   0  0  0  0  0  0  0  0  0  0  0  0
   -8.3910    5.2290  -16.6630 C   0  0  0  0  0  0  0  0  0  0  0  0
   -9.7300    4.9320  -16.8720 C   0  0  0  0  0  0  0  0  0  0  0  0
  -10.1920    4.7120  -18.1800 C   0  0  0  0  0  0  0  0  0  0  0  0
   -9.1810    4.8050  -19.3240 C   0  0  0  0  0  0  0  0  0  0  0  0
   -7.8570    5.1020  -18.9850 C   0  0  0  0  0  0  0  0  0  0  0  0
   -6.7310    5.2250  -19.9620 C   0  0  0  0  0  0  0  0  0  0  0  0
   -5.4450    5.5240  -19.4670 C   0  0  0  0  0  0  0  0  0  0  0  0
   -5.2000    5.7070  -18.0910 C   0  0  0  0  0  0  0  0  0  0  0  0
   -6.2560    5.5950  -17.1820 C   0  0  0  0  0  0  0  0  0  0  0  0
   -7.5300    5.2980  -17.6720 C   0  0  0  0  0  0  0  0  0  0  0  0
   -4.6620    4.6080  -15.5440 H   0  0  0  0  0  0  0  0  0  0  0  0
   -5.9510    3.9980  -14.6610 H   0  0  0  0  0  0  0  0  0  0  0  0
   -6.0910    6.7410  -15.3900 H   0  0  0  0  0  0  0  0  0  0  0  0
   -8.0560    6.2520  -14.7700 H   0  0  0  0  0  0  0  0  0  0  0  0
   -7.8180    4.5620  -14.8840 H   0  0  0  0  0  0  0  0  0  0  0  0
  -10.4030    4.8730  -16.0270 H   0  0  0  0  0  0  0  0  0  0  0  0
  -11.2370    4.4830  -18.3770 H   0  0  0  0  0  0  0  0  0  0  0  0
   -9.4790    4.6480  -20.3550 H   0  0  0  0  0  0  0  0  0  0  0  0
   -6.8710    5.0900  -21.0400 H   0  0  0  0  0  0  0  0  0  0  0  0
   -4.5970    5.6200  -20.1540 H   0  0  0  0  0  0  0  0  0  0  0  0
   -4.1890    5.9350  -17.7410 H   0  0  0  0  0  0  0  0  0  0  0  0
  1  2  1  0
  2  3  1  0
  3  4  1  0
  4  5  2  0
  5  6  1  0
  6  7  2  0
  7  8  1  0
  8  9  2  0
  9 10  1  0
 10 11  2  0
 11 12  1  0
 12 13  2  0
 12  2  1  0
 13  4  1  0
 13  8  1  0
  1 14  1  0
  1 15  1  0
  2 16  1  6
  3 17  1  0
  3 18  1  0
  5 19  1  0
  6 20  1  0
  7 21  1  0
  9 22  1  0
 10 23  1  0
 11 24  1  0
A    1
 N1 
A    2
 C1 
A    3
 C2 
A    4
 C3 
A    5
 C4 
A    6
 C5 
A    7
 C6 
A    8
 C7 
A    9
 C8 
A   10
 C9 
A   11
 C10
A   12
 C11
A   13
 C12
A   14
 H1 
A   15
 H2 
A   16
 H3 
A   17
 H4 
A   18
 H5 
A   19
 H6 
A   20
 H7 
A   21
 H8 
A   22
 H9 
A   23
 H10
A   24
 H11
M  END
>  <ref_pdb>  (167) 
x0051_0B

>  <ref_mols>  (167) 
x0727_0B,x0455_0B

>  <original SMILES>  (167) 
[H]c1c([H])c2c3c(c([H])c([H])c([H])c3c1[H])[C@]([H])(N([H])[H])C2([H])[H]

>  <index>  (167) 
268

>  <∆∆G>  (167) 
-7.34554

>  <∆G_bound>  (167) 
-7.40258

>  <∆G_unbound>  (167) 
-0.05704

>  <comRMSD>  (167) 
0.858977

>  <N_constrained_atoms>  (167) 
14.0

>  <N_unconstrained_atoms>  (167) 
0.0

>  <runtime>  (167) 
20.044541

>  <LE>  (167) 
0.524681

>  <percent_hybrid>  (167) 
34.0

>  <dist>  (167) 
3.0

>  <ecfp4>  (167) 
0.27907

>  <daylight>  (167) 
0.284314

>  <topodist>  (167) 
1.0

>  <mces>  (167) 
15.0

>  <tdn>  (167) 
0.0

>  <tup>  (167) 
0.0

>  <rdn>  (167) 
0.0

>  <rup>  (167) 
0.0

>  <ldn>  (167) 
1.0

>  <lup>  (167) 
0.0

>  <mut>  (167) 
2.0

>  <maj>  (167) 
2.0

>  <min>  (167) 
0.0

>  <hyb>  (167) 
0.0

>  <sub>  (167) 
0.0

>  <query_index>  (167) 
57.0

>  <max_hit_Tanimoto>  (167) 
0.164782

>  <largest_ring>  (167) 
0

>  <N_interactions_kept>  (167) 
0.0

>  <N_interactions_lost>  (167) 
3.0

>  <interaction_uniqueness_metric>  (167) 
0.092505

>  <ad_hoc_penalty>  (167) 
-25.197171

>  <N_rotatable_bonds>  (167) 
1

>  <N_HA>  (167) 
13

>  <cluster>  (167) 
5972

>  <N_interactions>  (167) 
7

>  <Enamine>  (167) 
1

>  <Mcule>  (167) 
0

>  <N_PAINS>  (167) 
0

>  <UFF_Gibbs>  (167) 
47.506318

>  <strain_per_HA>  (167) 
3.654332

>  <saltbridge:HIS:51>  (167) 
0

>  <pistack:HIS:51>  (167) 
0

>  <hydroph_interaction:HIS:51>  (167) 
0

>  <hbond:ALA:132>  (167) 
0

>  <hbond:SER:135>  (167) 
0

>  <hydroph_interaction:TYR:150>  (167) 
1

>  <pistack:TYR:161>  (167) 
2

>  <hydroph_interaction:TYR:161>  (167) 
3

>  <hydroph_interaction:ASP:83>  (167) 
0

>  <hbond:TYR:130>  (167) 
0

>  <hydroph_interaction:ALA:132>  (167) 
0

>  <hbond:HIS:51>  (167) 
0

>  <hbond:ASP:129>  (167) 
0

>  <hbond:TYR:150>  (167) 
0

>  <hbond:GLY:151>  (167) 
0

>  <hbond:TYR:161>  (167) 
1

>  <hydroph_interaction:TYR:130>  (167) 
0

>  <hydroph_interaction:PRO:131>  (167) 
0

>  <hydroph_interaction:ASP:129>  (167) 
0

>  <saltbridge:ASP:75>  (167) 
0

>  <saltbridge:ASP:83>  (167) 
0

>  <hydroph_interaction:ASN:152>  (167) 
0

>  <halogenbond:TYR:150>  (167) 
0

>  <hbond:ASP:83>  (167) 
0

>  <hydroph_interaction:VAL:155>  (167) 
0

>  <pication:TYR:161>  (167) 
0

>  <hbond:PRO:131>  (167) 
0

>  <hbond:LEU:128>  (167) 
0

>  <saltbridge:ASP:129>  (167) 
0

>  <hbond:THR:134>  (167) 
0

>  <pication:HIS:51>  (167) 
0

>  <hbond:SER:81>  (167) 
0

>  <hbond:GLY:159>  (167) 
0

>  <hydroph_interaction:PRO:101>  (167) 
0

>  <hydroph_interaction:THR:134>  (167) 
0

>  <hbond:GLY:82>  (167) 
0

>  <hydroph_interaction:GLU:104>  (167) 
0

>  <hydroph_interaction:VAL:36>  (167) 
0

>  <hydroph_interaction:MET:49>  (167) 
0

>  <halogenbond:GLU:104>  (167) 
0

>  <hydroph_interaction:LYS:107>  (167) 
0

$$$$
PV-003834261888
     RDKit          3D

 24 25  0  0  0  0  0  0  0  0999 V2000
   -9.9980    5.3470  -15.1690 C   0  0  0  0  0  0  0  0  0  0  0  0
   -9.4880    5.1300  -16.5930 C   0  0  0  0  0  0  0  0  0  0  0  0
   -8.0850    5.3610  -16.9060 C   0  0  0  0  0  0  0  0  0  0  0  0
   -7.8020    5.1400  -18.1350 C   0  0  0  0  0  0  0  0  0  0  0  0
   -6.5350    5.2670  -18.7070 C   0  0  0  0  0  0  0  0  0  0  0  0
   -6.3730    5.2790  -20.0900 C   0  0  0  0  0  0  0  0  0  0  0  0
   -5.0100    5.4020  -20.5450 N   0  0  0  0  0  0  0  0  0  0  0  0
   -3.9540    5.4980  -19.7070 C   0  0  0  0  0  0  0  0  0  0  0  0
   -4.0900    5.4900  -18.3280 C   0  0  0  0  0  0  0  0  0  0  0  0
   -5.4060    5.3750  -17.8580 C   0  0  0  0  0  0  0  0  0  0  0  0
   -5.4780    5.3760  -16.3410 C   0  0  0  0  0  0  0  0  0  0  0  0
   -9.0590    4.7550  -18.6530 C   0  0  0  0  0  0  0  0  0  0  0  0
  -10.0630    4.7690  -17.6450 O   0  0  0  0  0  0  0  0  0  0  0  0
  -10.3330    6.3560  -14.8950 H   0  0  0  0  0  0  0  0  0  0  0  0
  -10.7660    4.6570  -14.8150 H   0  0  0  0  0  0  0  0  0  0  0  0
   -9.1500    5.1830  -14.5020 H   0  0  0  0  0  0  0  0  0  0  0  0
   -7.4290    5.6860  -16.0960 H   0  0  0  0  0  0  0  0  0  0  0  0
   -7.1660    5.2020  -20.8270 H   0  0  0  0  0  0  0  0  0  0  0  0
   -2.9790    5.5820  -20.1810 H   0  0  0  0  0  0  0  0  0  0  0  0
   -3.3320    5.5610  -17.5620 H   0  0  0  0  0  0  0  0  0  0  0  0
   -4.5040    5.1300  -15.9030 H   0  0  0  0  0  0  0  0  0  0  0  0
   -5.7560    6.3640  -15.9620 H   0  0  0  0  0  0  0  0  0  0  0  0
   -6.1960    4.6280  -15.9870 H   0  0  0  0  0  0  0  0  0  0  0  0
   -9.4020    4.4570  -19.6360 H   0  0  0  0  0  0  0  0  0  0  0  0
  1  2  1  0
  2  3  2  0
  3  4  1  0
  4  5  1  0
  5  6  2  0
  6  7  1  0
  7  8  2  0
  8  9  1  0
  9 10  2  0
 10 11  1  0
  4 12  2  0
 12 13  1  0
 13  2  1  0
 10  5  1  0
  1 14  1  0
  1 15  1  0
  1 16  1  0
  3 17  1  0
  6 18  1  0
  8 19  1  0
  9 20  1  0
 11 21  1  0
 11 22  1  0
 11 23  1  0
 12 24  1  0
A    1
 C1 
A    2
 C2 
A    3
 C3 
A    4
 C4 
A    5
 C5 
A    6
 C6 
A    7
 N1 
A    8
 C7 
A    9
 C8 
A   10
 C9 
A   11
 C10
A   12
 C11
A   13
 O1 
A   14
 H1 
A   15
 H2 
A   16
 H3 
A   17
 H4 
A   18
 H5 
A   19
 H6 
A   20
 H7 
A   21
 H8 
A   22
 H9 
A   23
 H10
A   24
 H11
M  END
>  <ref_pdb>  (168) 
x0051_0B

>  <ref_mols>  (168) 
x0680_0B,x0386_0B

>  <original SMILES>  (168) 
[H]c1nc([H])c(-c2c([H])oc(C([H])([H])[H])c2[H])c(C([H])([H])[H])c1[H]

>  <index>  (168) 
71

>  <∆∆G>  (168) 
-7.412835

>  <∆G_bound>  (168) 
-7.569619

>  <∆G_unbound>  (168) 
-0.156783

>  <comRMSD>  (168) 
0.964236

>  <N_constrained_atoms>  (168) 
13.0

>  <N_unconstrained_atoms>  (168) 
1.0

>  <runtime>  (168) 
29.235873

>  <LE>  (168) 
0.529488

>  <percent_hybrid>  (168) 
25.0

>  <dist>  (168) 
2.0

>  <ecfp4>  (168) 
0.477273

>  <daylight>  (168) 
0.446043

>  <topodist>  (168) 
1.0

>  <mces>  (168) 
13.0

>  <tdn>  (168) 
0.0

>  <tup>  (168) 
1.0

>  <rdn>  (168) 
0.0

>  <rup>  (168) 
0.0

>  <ldn>  (168) 
0.0

>  <lup>  (168) 
0.0

>  <mut>  (168) 
1.0

>  <maj>  (168) 
1.0

>  <min>  (168) 
0.0

>  <hyb>  (168) 
0.0

>  <sub>  (168) 
1.0

>  <query_index>  (168) 
296.0

>  <max_hit_Tanimoto>  (168) 
0.167987

>  <largest_ring>  (168) 
0

>  <N_interactions_kept>  (168) 
3.5

>  <N_interactions_lost>  (168) 
0.5

>  <interaction_uniqueness_metric>  (168) 
0.040756

>  <ad_hoc_penalty>  (168) 
-25.189444

>  <N_rotatable_bonds>  (168) 
3

>  <N_HA>  (168) 
13

>  <cluster>  (168) 
6153

>  <N_interactions>  (168) 
5

>  <Enamine>  (168) 
1

>  <Mcule>  (168) 
0

>  <N_PAINS>  (168) 
0

>  <UFF_Gibbs>  (168) 
144.718212

>  <strain_per_HA>  (168) 
11.13217

>  <saltbridge:HIS:51>  (168) 
0

>  <pistack:HIS:51>  (168) 
0

>  <hydroph_interaction:HIS:51>  (168) 
0

>  <hbond:ALA:132>  (168) 
0

>  <hbond:SER:135>  (168) 
0

>  <hydroph_interaction:TYR:150>  (168) 
0

>  <pistack:TYR:161>  (168) 
0

>  <hydroph_interaction:TYR:161>  (168) 
4

>  <hydroph_interaction:ASP:83>  (168) 
0

>  <hbond:TYR:130>  (168) 
0

>  <hydroph_interaction:ALA:132>  (168) 
1

>  <hbond:HIS:51>  (168) 
0

>  <hbond:ASP:129>  (168) 
0

>  <hbond:TYR:150>  (168) 
0

>  <hbond:GLY:151>  (168) 
0

>  <hbond:TYR:161>  (168) 
0

>  <hydroph_interaction:TYR:130>  (168) 
0

>  <hydroph_interaction:PRO:131>  (168) 
0

>  <hydroph_interaction:ASP:129>  (168) 
0

>  <saltbridge:ASP:75>  (168) 
0

>  <saltbridge:ASP:83>  (168) 
0

>  <hydroph_interaction:ASN:152>  (168) 
0

>  <halogenbond:TYR:150>  (168) 
0

>  <hbond:ASP:83>  (168) 
0

>  <hydroph_interaction:VAL:155>  (168) 
0

>  <pication:TYR:161>  (168) 
0

>  <hbond:PRO:131>  (168) 
0

>  <hbond:LEU:128>  (168) 
0

>  <saltbridge:ASP:129>  (168) 
0

>  <hbond:THR:134>  (168) 
0

>  <pication:HIS:51>  (168) 
0

>  <hbond:SER:81>  (168) 
0

>  <hbond:GLY:159>  (168) 
0

>  <hydroph_interaction:PRO:101>  (168) 
0

>  <hydroph_interaction:THR:134>  (168) 
0

>  <hbond:GLY:82>  (168) 
0

>  <hydroph_interaction:GLU:104>  (168) 
0

>  <hydroph_interaction:VAL:36>  (168) 
0

>  <hydroph_interaction:MET:49>  (168) 
0

>  <halogenbond:GLU:104>  (168) 
0

>  <hydroph_interaction:LYS:107>  (168) 
0

$$$$
YMXOFAHCTREWQI-UHFFFAOYSA-N
     RDKit          3D

 36 38  0  0  0  0  0  0  0  0999 V2000
   -8.8060    5.7700  -13.6020 O   0  0  0  0  0  0  0  0  0  0  0  0
   -9.5230    5.3570  -14.7440 C   0  0  0  0  0  0  0  0  0  0  0  0
  -10.6950    5.1000  -14.6980 O   0  0  0  0  0  0  0  0  0  0  0  0
   -8.7030    5.2570  -16.0510 C   0  0  0  0  0  0  0  0  0  0  0  0
   -9.1780    5.0040  -17.3870 C   0  0  0  0  0  0  0  0  0  0  0  0
  -10.4850    4.7940  -17.7330 C   0  0  0  0  0  0  0  0  0  0  0  0
   -8.2880    4.9560  -18.4630 C   0  0  0  0  0  0  0  0  0  0  0  0
   -6.9310    5.1520  -18.2510 C   0  0  0  0  0  0  0  0  0  0  0  0
   -6.4840    5.3890  -16.9650 C   0  0  0  0  0  0  0  0  0  0  0  0
   -4.6530    5.6550  -16.6570 Br  0  0  0  0  0  0  0  0  0  0  0  0
   -7.3370    5.4410  -15.8940 C   0  0  0  0  0  0  0  0  0  0  0  0
   -8.8310    4.7940  -12.5040 C   0  0  0  0  0  0  0  0  0  0  0  0
   -8.8380    5.2040  -11.1270 C   0  0  0  0  0  0  0  0  0  0  0  0
   -8.9520    4.2410  -10.1130 C   0  0  0  0  0  0  0  0  0  0  0  0
   -8.9300    4.9160   -8.9200 N   0  0  0  0  0  0  0  0  0  0  0  0
   -9.0310    4.2450   -7.6280 C   0  0  0  0  0  0  0  0  0  0  0  0
   -9.4510    2.7970   -7.8490 C   0  0  0  0  0  0  0  0  0  0  0  0
   -8.7150    2.2930   -8.9200 C   0  0  0  0  0  0  0  0  0  0  0  0
   -9.0640    2.9220  -10.1540 O   0  0  0  0  0  0  0  0  0  0  0  0
   -8.8090    6.2490   -9.0550 N   0  0  0  0  0  0  0  0  0  0  0  0
   -8.7550    6.4310  -10.4020 C   0  0  0  0  0  0  0  0  0  0  0  0
  -10.9690    4.3840  -16.8630 H   0  0  0  0  0  0  0  0  0  0  0  0
  -10.6820    4.1160  -18.5550 H   0  0  0  0  0  0  0  0  0  0  0  0
  -10.9670    5.7220  -18.0200 H   0  0  0  0  0  0  0  0  0  0  0  0
   -8.6470    4.7650  -19.4790 H   0  0  0  0  0  0  0  0  0  0  0  0
   -6.2390    5.1150  -19.0860 H   0  0  0  0  0  0  0  0  0  0  0  0
   -6.9320    5.6340  -14.9060 H   0  0  0  0  0  0  0  0  0  0  0  0
   -7.9530    4.1470  -12.6330 H   0  0  0  0  0  0  0  0  0  0  0  0
   -9.7060    4.1700  -12.6650 H   0  0  0  0  0  0  0  0  0  0  0  0
   -8.0580    4.3000   -7.1280 H   0  0  0  0  0  0  0  0  0  0  0  0
   -9.7730    4.7910   -7.0360 H   0  0  0  0  0  0  0  0  0  0  0  0
  -10.5280    2.7180   -8.0310 H   0  0  0  0  0  0  0  0  0  0  0  0
   -9.2150    2.2100   -6.9520 H   0  0  0  0  0  0  0  0  0  0  0  0
   -8.8870    1.2290   -9.0210 H   0  0  0  0  0  0  0  0  0  0  0  0
   -7.6410    2.4380   -8.7580 H   0  0  0  0  0  0  0  0  0  0  0  0
   -8.6580    7.4360  -10.7950 H   0  0  0  0  0  0  0  0  0  0  0  0
  1  2  1  0
  2  3  2  0
  2  4  1  0
  4  5  2  0
  5  6  1  0
  5  7  1  0
  7  8  2  0
  8  9  1  0
  9 10  1  0
  9 11  2  0
  1 12  1  0
 12 13  1  0
 13 14  2  0
 14 15  1  0
 15 16  1  0
 16 17  1  0
 17 18  1  0
 18 19  1  0
 15 20  1  0
 20 21  2  0
 11  4  1  0
 21 13  1  0
 19 14  1  0
  6 22  1  0
  6 23  1  0
  6 24  1  0
  7 25  1  0
  8 26  1  0
 11 27  1  0
 12 28  1  0
 12 29  1  0
 16 30  1  0
 16 31  1  0
 17 32  1  0
 17 33  1  0
 18 34  1  0
 18 35  1  0
 21 36  1  0
A    1
 O1 
A    2
 C1 
A    3
 O2 
A    4
 C2 
A    5
 C3 
A    6
 C4 
A    7
 C5 
A    8
 C6 
A    9
 C7 
A   10
BR1 
A   11
 C8 
A   12
 C9 
A   13
 C10
A   14
 C11
A   15
 N1 
A   16
 C12
A   17
 C13
A   18
 C14
A   19
 O3 
A   20
 N2 
A   21
 C15
A   22
 H1 
A   23
 H2 
A   24
 H3 
A   25
 H4 
A   26
 H5 
A   27
 H6 
A   28
 H7 
A   29
 H8 
A   30
 H9 
A   31
 H10
A   32
 H11
A   33
 H12
A   34
 H13
A   35
 H14
A   36
 H15
M  END
>  <ref_pdb>  (169) 
x0051_0B

>  <ref_mols>  (169) 
x0969_1B,x0553_0B

>  <original SMILES>  (169) 
[H]c1nn2c(c1C([H])([H])OC(=O)c1c([H])c(Br)c([H])c([H])c1C([H])([H])[H])OC([H])([H])C([H])([H])C2([H])[H]

>  <index>  (169) 
334

>  <∆∆G>  (169) 
-6.36227

>  <∆G_bound>  (169) 
-6.016767

>  <∆G_unbound>  (169) 
0.345502

>  <comRMSD>  (169) 
0.794711

>  <N_constrained_atoms>  (169) 
19.0

>  <N_unconstrained_atoms>  (169) 
3.0

>  <runtime>  (169) 
58.344996

>  <LE>  (169) 
0.289194

>  <percent_hybrid>  (169) 
48.0

>  <dist>  (169) 
6.0

>  <ecfp4>  (169) 
0.303797

>  <daylight>  (169) 
0.378277

>  <topodist>  (169) 
2.0

>  <mces>  (169) 
22.0

>  <tdn>  (169) 
1.0

>  <tup>  (169) 
1.0

>  <rdn>  (169) 
0.0

>  <rup>  (169) 
0.0

>  <ldn>  (169) 
0.0

>  <lup>  (169) 
0.0

>  <mut>  (169) 
3.0

>  <maj>  (169) 
3.0

>  <min>  (169) 
0.0

>  <hyb>  (169) 
1.0

>  <sub>  (169) 
0.0

>  <query_index>  (169) 
376.0

>  <max_hit_Tanimoto>  (169) 
0.237065

>  <largest_ring>  (169) 
0

>  <N_interactions_kept>  (169) 
1.5

>  <N_interactions_lost>  (169) 
1.0

>  <interaction_uniqueness_metric>  (169) 
0.193303

>  <ad_hoc_penalty>  (169) 
-25.168725

>  <N_rotatable_bonds>  (169) 
4

>  <N_HA>  (169) 
21

>  <cluster>  (169) 
5914

>  <N_interactions>  (169) 
5

>  <Enamine>  (169) 
0

>  <Mcule>  (169) 
1

>  <N_PAINS>  (169) 
0

>  <UFF_Gibbs>  (169) 
69.7452

>  <strain_per_HA>  (169) 
3.3212

>  <saltbridge:HIS:51>  (169) 
1

>  <pistack:HIS:51>  (169) 
1

>  <hydroph_interaction:HIS:51>  (169) 
0

>  <hbond:ALA:132>  (169) 
0

>  <hbond:SER:135>  (169) 
1

>  <hydroph_interaction:TYR:150>  (169) 
1

>  <pistack:TYR:161>  (169) 
1

>  <hydroph_interaction:TYR:161>  (169) 
0

>  <hydroph_interaction:ASP:83>  (169) 
0

>  <hbond:TYR:130>  (169) 
0

>  <hydroph_interaction:ALA:132>  (169) 
0

>  <hbond:HIS:51>  (169) 
0

>  <hbond:ASP:129>  (169) 
0

>  <hbond:TYR:150>  (169) 
0

>  <hbond:GLY:151>  (169) 
0

>  <hbond:TYR:161>  (169) 
0

>  <hydroph_interaction:TYR:130>  (169) 
0

>  <hydroph_interaction:PRO:131>  (169) 
0

>  <hydroph_interaction:ASP:129>  (169) 
0

>  <saltbridge:ASP:75>  (169) 
0

>  <saltbridge:ASP:83>  (169) 
0

>  <hydroph_interaction:ASN:152>  (169) 
0

>  <halogenbond:TYR:150>  (169) 
0

>  <hbond:ASP:83>  (169) 
0

>  <hydroph_interaction:VAL:155>  (169) 
0

>  <pication:TYR:161>  (169) 
0

>  <hbond:PRO:131>  (169) 
0

>  <hbond:LEU:128>  (169) 
0

>  <saltbridge:ASP:129>  (169) 
0

>  <hbond:THR:134>  (169) 
0

>  <pication:HIS:51>  (169) 
0

>  <hbond:SER:81>  (169) 
0

>  <hbond:GLY:159>  (169) 
0

>  <hydroph_interaction:PRO:101>  (169) 
0

>  <hydroph_interaction:THR:134>  (169) 
0

>  <hbond:GLY:82>  (169) 
0

>  <hydroph_interaction:GLU:104>  (169) 
0

>  <hydroph_interaction:VAL:36>  (169) 
0

>  <hydroph_interaction:MET:49>  (169) 
0

>  <halogenbond:GLU:104>  (169) 
0

>  <hydroph_interaction:LYS:107>  (169) 
0

$$$$
CSSB00020595381
     RDKit          3D

 32 33  0  0  0  0  0  0  0  0999 V2000
   -9.7240    6.4420  -13.2290 N   0  0  0  0  0  0  0  0  0  0  0  0
   -8.9750    5.3300  -13.6670 N   0  0  0  0  0  0  0  0  0  0  0  0
   -8.0060    5.5090  -14.6430 C   0  0  0  0  0  0  0  0  0  0  0  0
   -6.8270    5.8060  -14.4600 O   0  0  0  0  0  0  0  0  0  0  0  0
   -8.3540    5.3480  -16.1150 C   0  0  0  0  0  0  0  0  0  0  0  0
   -9.7020    4.8600  -16.4810 C   0  0  0  0  0  0  0  0  0  0  0  0
   -9.9960    4.7080  -17.9930 C   0  0  0  0  0  0  0  0  0  0  0  0
   -8.9880    5.0400  -18.9070 C   0  0  0  0  0  0  0  0  0  0  0  0
   -7.7350    5.5100  -18.4400 C   0  0  0  0  0  0  0  0  0  0  0  0
   -6.8000    5.8390  -19.4040 N   0  0  0  0  0  0  0  0  0  0  0  0
   -6.4260    5.0900  -20.4670 C   0  0  0  0  0  0  0  0  0  0  0  0
   -7.1160    4.2780  -21.0720 O   0  0  0  0  0  0  0  0  0  0  0  0
   -5.1180    5.2890  -20.8870 C   0  0  0  0  0  0  0  0  0  0  0  0
   -4.9170    5.4530  -22.2430 C   0  0  0  0  0  0  0  0  0  0  0  0
   -3.6360    5.6430  -22.7660 C   0  0  0  0  0  0  0  0  0  0  0  0
   -2.5360    5.6720  -21.9180 C   0  0  0  0  0  0  0  0  0  0  0  0
   -2.7200    5.5180  -20.5470 C   0  0  0  0  0  0  0  0  0  0  0  0
   -4.0050    5.3310  -20.0260 C   0  0  0  0  0  0  0  0  0  0  0  0
   -4.1000    5.1580  -18.3110 Cl  0  0  0  0  0  0  0  0  0  0  0  0
   -7.4300    5.6540  -17.0890 C   0  0  0  0  0  0  0  0  0  0  0  0
   -9.9110    7.0130  -14.0640 H   0  0  0  0  0  0  0  0  0  0  0  0
  -10.6700    6.0810  -12.9990 H   0  0  0  0  0  0  0  0  0  0  0  0
   -9.0770    4.4420  -13.1760 H   0  0  0  0  0  0  0  0  0  0  0  0
  -10.4530    4.6150  -15.7380 H   0  0  0  0  0  0  0  0  0  0  0  0
  -10.9620    4.3550  -18.3410 H   0  0  0  0  0  0  0  0  0  0  0  0
   -9.1920    4.9360  -19.9720 H   0  0  0  0  0  0  0  0  0  0  0  0
   -6.5770    6.8240  -19.4590 H   0  0  0  0  0  0  0  0  0  0  0  0
   -5.7810    5.4270  -22.9030 H   0  0  0  0  0  0  0  0  0  0  0  0
   -3.5020    5.7650  -23.8370 H   0  0  0  0  0  0  0  0  0  0  0  0
   -1.5360    5.8150  -22.3240 H   0  0  0  0  0  0  0  0  0  0  0  0
   -1.8530    5.5460  -19.8880 H   0  0  0  0  0  0  0  0  0  0  0  0
   -6.4560    6.0140  -16.7710 H   0  0  0  0  0  0  0  0  0  0  0  0
  1  2  1  0
  2  3  1  0
  3  4  2  0
  3  5  1  0
  5  6  2  0
  6  7  1  0
  7  8  2  0
  8  9  1  0
  9 10  1  0
 10 11  1  0
 11 12  2  0
 11 13  1  0
 13 14  2  0
 14 15  1  0
 15 16  2  0
 16 17  1  0
 17 18  2  0
 18 19  1  0
  9 20  2  0
 20  5  1  0
 18 13  1  0
  1 21  1  0
  1 22  1  0
  2 23  1  0
  6 24  1  0
  7 25  1  0
  8 26  1  0
 10 27  1  0
 14 28  1  0
 15 29  1  0
 16 30  1  0
 17 31  1  0
 20 32  1  0
A    1
 N1 
A    2
 N2 
A    3
 C1 
A    4
 O1 
A    5
 C2 
A    6
 C3 
A    7
 C4 
A    8
 C5 
A    9
 C6 
A   10
 N3 
A   11
 C7 
A   12
 O2 
A   13
 C8 
A   14
 C9 
A   15
 C10
A   16
 C11
A   17
 C12
A   18
 C13
A   19
CL1 
A   20
 C14
A   21
 H1 
A   22
 H2 
A   23
 H3 
A   24
 H4 
A   25
 H5 
A   26
 H6 
A   27
 H7 
A   28
 H8 
A   29
 H9 
A   30
 H10
A   31
 H11
A   32
 H12
M  END
>  <ref_pdb>  (170) 
x0051_0B

>  <ref_mols>  (170) 
x0852_0B,x0951_0B

>  <original SMILES>  (170) 
[H]c1c([H])c([H])c(C(=O)N([H])c2c([H])c([H])c([H])c(C(=O)N([H])N([H])[H])c2[H])c(Cl)c1[H]

>  <index>  (170) 
398

>  <∆∆G>  (170) 
-6.685775

>  <∆G_bound>  (170) 
-6.000373

>  <∆G_unbound>  (170) 
0.685403

>  <comRMSD>  (170) 
0.397459

>  <N_constrained_atoms>  (170) 
22.0

>  <N_unconstrained_atoms>  (170) 
0.0

>  <runtime>  (170) 
43.097692

>  <LE>  (170) 
0.303899

>  <percent_hybrid>  (170) 
27.0

>  <dist>  (170) 
8.0

>  <ecfp4>  (170) 
0.2

>  <daylight>  (170) 
0.271028

>  <topodist>  (170) 
4.0

>  <mces>  (170) 
21.0

>  <tdn>  (170) 
3.0

>  <tup>  (170) 
0.0

>  <rdn>  (170) 
1.0

>  <rup>  (170) 
0.0

>  <ldn>  (170) 
0.0

>  <lup>  (170) 
0.0

>  <mut>  (170) 
3.0

>  <maj>  (170) 
2.0

>  <min>  (170) 
1.0

>  <hyb>  (170) 
1.0

>  <sub>  (170) 
3.0

>  <query_index>  (170) 
95.0

>  <max_hit_Tanimoto>  (170) 
0.346059

>  <largest_ring>  (170) 
0

>  <N_interactions_kept>  (170) 
2.0

>  <N_interactions_lost>  (170) 
4.0

>  <interaction_uniqueness_metric>  (170) 
0.265078

>  <ad_hoc_penalty>  (170) 
-25.135081

>  <N_rotatable_bonds>  (170) 
4

>  <N_HA>  (170) 
20

>  <cluster>  (170) 
514

>  <N_interactions>  (170) 
10

>  <Enamine>  (170) 
1

>  <Mcule>  (170) 
0

>  <N_PAINS>  (170) 
0

>  <UFF_Gibbs>  (170) 
59.397388

>  <strain_per_HA>  (170) 
2.969869

>  <saltbridge:HIS:51>  (170) 
0

>  <pistack:HIS:51>  (170) 
0

>  <hydroph_interaction:HIS:51>  (170) 
0

>  <hbond:ALA:132>  (170) 
0

>  <hbond:SER:135>  (170) 
0

>  <hydroph_interaction:TYR:150>  (170) 
1

>  <pistack:TYR:161>  (170) 
0

>  <hydroph_interaction:TYR:161>  (170) 
3

>  <hydroph_interaction:ASP:83>  (170) 
0

>  <hbond:TYR:130>  (170) 
1

>  <hydroph_interaction:ALA:132>  (170) 
1

>  <hbond:HIS:51>  (170) 
1

>  <hbond:ASP:129>  (170) 
1

>  <hbond:TYR:150>  (170) 
0

>  <hbond:GLY:151>  (170) 
1

>  <hbond:TYR:161>  (170) 
0

>  <hydroph_interaction:TYR:130>  (170) 
0

>  <hydroph_interaction:PRO:131>  (170) 
0

>  <hydroph_interaction:ASP:129>  (170) 
1

>  <saltbridge:ASP:75>  (170) 
0

>  <saltbridge:ASP:83>  (170) 
0

>  <hydroph_interaction:ASN:152>  (170) 
0

>  <halogenbond:TYR:150>  (170) 
0

>  <hbond:ASP:83>  (170) 
0

>  <hydroph_interaction:VAL:155>  (170) 
0

>  <pication:TYR:161>  (170) 
0

>  <hbond:PRO:131>  (170) 
0

>  <hbond:LEU:128>  (170) 
0

>  <saltbridge:ASP:129>  (170) 
0

>  <hbond:THR:134>  (170) 
0

>  <pication:HIS:51>  (170) 
0

>  <hbond:SER:81>  (170) 
0

>  <hbond:GLY:159>  (170) 
0

>  <hydroph_interaction:PRO:101>  (170) 
0

>  <hydroph_interaction:THR:134>  (170) 
0

>  <hbond:GLY:82>  (170) 
0

>  <hydroph_interaction:GLU:104>  (170) 
0

>  <hydroph_interaction:VAL:36>  (170) 
0

>  <hydroph_interaction:MET:49>  (170) 
0

>  <halogenbond:GLU:104>  (170) 
0

>  <hydroph_interaction:LYS:107>  (170) 
0

$$$$
DWRSLZLWOONHIZ-UHFFFAOYSA-N
     RDKit          3D

 28 29  0  0  0  0  0  0  0  0999 V2000
   -5.9470    5.4390  -17.7150 N   0  0  0  0  0  0  0  0  0  0  0  0
   -4.9530    5.5080  -16.6430 C   0  0  0  0  0  0  0  0  0  0  0  0
   -3.6750    4.8220  -17.1160 C   0  0  0  0  0  0  0  0  0  0  0  0
   -5.4230    4.8740  -15.3400 C   0  0  0  0  0  0  0  0  0  0  0  0
   -5.3730    5.9200  -18.9830 C   0  0  0  0  0  0  0  0  0  0  0  0
   -5.9160    5.3290  -20.1350 C   0  0  0  0  0  0  0  0  0  0  0  0
   -5.2210    4.9900  -21.0940 O   0  0  0  0  0  0  0  0  0  0  0  0
   -7.2670    5.1630  -20.1680 N   0  0  0  0  0  0  0  0  0  0  0  0
   -8.0140    5.0940  -18.9940 C   0  0  0  0  0  0  0  0  0  0  0  0
   -7.3180    5.2440  -17.6710 C   0  0  0  0  0  0  0  0  0  0  0  0
   -8.0950    5.1730  -16.5250 C   0  0  0  0  0  0  0  0  0  0  0  0
   -9.6010    4.9480  -16.6600 C   0  0  0  0  0  0  0  0  0  0  0  0
  -10.2600    4.8000  -18.0420 C   0  0  0  0  0  0  0  0  0  0  0  0
   -9.3840    4.8900  -19.1150 C   0  0  0  0  0  0  0  0  0  0  0  0
   -4.7230    6.5550  -16.4250 H   0  0  0  0  0  0  0  0  0  0  0  0
   -2.8640    5.5510  -17.2090 H   0  0  0  0  0  0  0  0  0  0  0  0
   -3.3380    4.0580  -16.4050 H   0  0  0  0  0  0  0  0  0  0  0  0
   -3.8000    4.3470  -18.0930 H   0  0  0  0  0  0  0  0  0  0  0  0
   -4.6890    4.1640  -14.9400 H   0  0  0  0  0  0  0  0  0  0  0  0
   -5.5820    5.6430  -14.5780 H   0  0  0  0  0  0  0  0  0  0  0  0
   -6.3730    4.3490  -15.4640 H   0  0  0  0  0  0  0  0  0  0  0  0
   -4.2970    5.7240  -18.9960 H   0  0  0  0  0  0  0  0  0  0  0  0
   -5.5630    6.9950  -19.0770 H   0  0  0  0  0  0  0  0  0  0  0  0
   -7.7220    5.5360  -20.9920 H   0  0  0  0  0  0  0  0  0  0  0  0
   -7.6940    5.2680  -15.5280 H   0  0  0  0  0  0  0  0  0  0  0  0
  -10.2070    4.8910  -15.7620 H   0  0  0  0  0  0  0  0  0  0  0  0
  -11.3270    4.6400  -18.1750 H   0  0  0  0  0  0  0  0  0  0  0  0
   -9.8900    4.7860  -20.0760 H   0  0  0  0  0  0  0  0  0  0  0  0
  1  2  1  0
  2  3  1  0
  2  4  1  0
  1  5  1  0
  5  6  1  0
  6  7  2  0
  6  8  1  0
  8  9  1  0
  9 10  2  0
 10 11  1  0
 11 12  2  0
 12 13  1  0
 13 14  2  0
 10  1  1  0
 14  9  1  0
  2 15  1  0
  3 16  1  0
  3 17  1  0
  3 18  1  0
  4 19  1  0
  4 20  1  0
  4 21  1  0
  5 22  1  0
  5 23  1  0
  8 24  1  0
 11 25  1  0
 12 26  1  0
 13 27  1  0
 14 28  1  0
A    1
 N1 
A    2
 C1 
A    3
 C2 
A    4
 C3 
A    5
 C4 
A    6
 C5 
A    7
 O1 
A    8
 N2 
A    9
 C6 
A   10
 C7 
A   11
 C8 
A   12
 C9 
A   13
 C10
A   14
 C11
A   15
 H1 
A   16
 H2 
A   17
 H3 
A   18
 H4 
A   19
 H5 
A   20
 H6 
A   21
 H7 
A   22
 H8 
A   23
 H9 
A   24
 H10
A   25
 H11
A   26
 H12
A   27
 H13
A   28
 H14
M  END
>  <ref_pdb>  (171) 
x0051_0B

>  <ref_mols>  (171) 
x0443_0B,x0490_0B

>  <original SMILES>  (171) 
[H]c1c([H])c([H])c2c(c1[H])N([H])C(=O)C([H])([H])N2C([H])(C([H])([H])[H])C([H])([H])[H]

>  <index>  (171) 
85

>  <∆∆G>  (171) 
-7.060221

>  <∆G_bound>  (171) 
-7.33934

>  <∆G_unbound>  (171) 
-0.279119

>  <comRMSD>  (171) 
0.515684

>  <N_constrained_atoms>  (171) 
12.0

>  <N_unconstrained_atoms>  (171) 
2.0

>  <runtime>  (171) 
21.121028

>  <LE>  (171) 
0.504301

>  <percent_hybrid>  (171) 
50.0

>  <dist>  (171) 
4.0

>  <ecfp4>  (171) 
0.22

>  <daylight>  (171) 
0.112069

>  <topodist>  (171) 
2.0

>  <mces>  (171) 
13.0

>  <tdn>  (171) 
0.0

>  <tup>  (171) 
1.0

>  <rdn>  (171) 
0.0

>  <rup>  (171) 
0.0

>  <ldn>  (171) 
0.0

>  <lup>  (171) 
1.0

>  <mut>  (171) 
1.0

>  <maj>  (171) 
1.0

>  <min>  (171) 
0.0

>  <hyb>  (171) 
1.0

>  <sub>  (171) 
1.0

>  <query_index>  (171) 
234.0

>  <max_hit_Tanimoto>  (171) 
0.126822

>  <largest_ring>  (171) 
0

>  <N_interactions_kept>  (171) 
2.0

>  <N_interactions_lost>  (171) 
2.0

>  <interaction_uniqueness_metric>  (171) 
0.130907

>  <ad_hoc_penalty>  (171) 
-25.130007

>  <N_rotatable_bonds>  (171) 
3

>  <N_HA>  (171) 
14

>  <cluster>  (171) 
6139

>  <N_interactions>  (171) 
8

>  <Enamine>  (171) 
0

>  <Mcule>  (171) 
1

>  <N_PAINS>  (171) 
0

>  <UFF_Gibbs>  (171) 
156.738771

>  <strain_per_HA>  (171) 
11.195626

>  <saltbridge:HIS:51>  (171) 
0

>  <pistack:HIS:51>  (171) 
0

>  <hydroph_interaction:HIS:51>  (171) 
0

>  <hbond:ALA:132>  (171) 
0

>  <hbond:SER:135>  (171) 
0

>  <hydroph_interaction:TYR:150>  (171) 
1

>  <pistack:TYR:161>  (171) 
0

>  <hydroph_interaction:TYR:161>  (171) 
4

>  <hydroph_interaction:ASP:83>  (171) 
0

>  <hbond:TYR:130>  (171) 
1

>  <hydroph_interaction:ALA:132>  (171) 
0

>  <hbond:HIS:51>  (171) 
0

>  <hbond:ASP:129>  (171) 
1

>  <hbond:TYR:150>  (171) 
0

>  <hbond:GLY:151>  (171) 
0

>  <hbond:TYR:161>  (171) 
0

>  <hydroph_interaction:TYR:130>  (171) 
0

>  <hydroph_interaction:PRO:131>  (171) 
0

>  <hydroph_interaction:ASP:129>  (171) 
0

>  <saltbridge:ASP:75>  (171) 
0

>  <saltbridge:ASP:83>  (171) 
0

>  <hydroph_interaction:ASN:152>  (171) 
0

>  <halogenbond:TYR:150>  (171) 
0

>  <hbond:ASP:83>  (171) 
0

>  <hydroph_interaction:VAL:155>  (171) 
1

>  <pication:TYR:161>  (171) 
0

>  <hbond:PRO:131>  (171) 
0

>  <hbond:LEU:128>  (171) 
0

>  <saltbridge:ASP:129>  (171) 
0

>  <hbond:THR:134>  (171) 
0

>  <pication:HIS:51>  (171) 
0

>  <hbond:SER:81>  (171) 
0

>  <hbond:GLY:159>  (171) 
0

>  <hydroph_interaction:PRO:101>  (171) 
0

>  <hydroph_interaction:THR:134>  (171) 
0

>  <hbond:GLY:82>  (171) 
0

>  <hydroph_interaction:GLU:104>  (171) 
0

>  <hydroph_interaction:VAL:36>  (171) 
0

>  <hydroph_interaction:MET:49>  (171) 
0

>  <halogenbond:GLU:104>  (171) 
0

>  <hydroph_interaction:LYS:107>  (171) 
0

$$$$
QWPOYYNQZFRCFT-UHFFFAOYSA-N
     RDKit          3D

 46 49  0  0  0  0  0  0  0  0999 V2000
   -6.2310   10.4430  -24.7380 C   0  0  0  0  0  0  0  0  0  0  0  0
   -6.1970    9.9100  -26.0290 N   0  0  0  0  0  0  0  0  0  0  0  0
   -7.3190    9.3810  -26.6850 C   0  0  0  0  0  0  0  0  0  0  0  0
   -7.4540    8.1340  -27.0690 N   0  0  0  0  0  0  0  0  0  0  0  0
   -8.7140    8.0540  -27.6200 C   0  0  0  0  0  0  0  0  0  0  0  0
   -9.3390    9.3090  -27.5710 C   0  0  0  0  0  0  0  0  0  0  0  0
  -10.6320    9.4990  -28.0540 C   0  0  0  0  0  0  0  0  0  0  0  0
  -11.3260    8.3370  -28.6150 C   0  0  0  0  0  0  0  0  0  0  0  0
  -10.6810    7.0940  -28.6570 C   0  0  0  0  0  0  0  0  0  0  0  0
   -9.3790    6.9480  -28.1650 C   0  0  0  0  0  0  0  0  0  0  0  0
   -8.4240   10.1250  -26.9880 N   0  0  0  0  0  0  0  0  0  0  0  0
   -6.6250   11.6850  -24.3210 O   0  0  0  0  0  0  0  0  0  0  0  0
   -5.7820    9.5510  -23.5750 C   0  0  0  0  0  0  0  0  0  0  0  0
   -6.1270    8.0710  -23.6750 C   0  0  0  0  0  0  0  0  0  0  0  0
   -5.6610    7.2110  -22.4950 C   0  0  0  0  0  0  0  0  0  0  0  0
   -4.9130    7.9350  -21.3730 C   0  0  0  0  0  0  0  0  0  0  0  0
   -4.5090    7.1330  -20.3470 O   0  0  0  0  0  0  0  0  0  0  0  0
   -4.9160    7.4250  -19.0060 C   0  0  0  0  0  0  0  0  0  0  0  0
   -6.0070    6.4520  -18.6940 C   0  0  0  0  0  0  0  0  0  0  0  0
   -5.9730    5.4560  -17.5550 C   0  0  0  0  0  0  0  0  0  0  0  0
   -7.1930    4.5540  -17.4120 C   0  0  0  0  0  0  0  0  0  0  0  0
   -8.2190    4.7300  -18.3290 C   0  0  0  0  0  0  0  0  0  0  0  0
   -9.4520    3.9490  -18.2920 C   0  0  0  0  0  0  0  0  0  0  0  0
   -8.1590    5.6340  -19.3080 C   0  0  0  0  0  0  0  0  0  0  0  0
   -7.0990    6.4700  -19.4950 C   0  0  0  0  0  0  0  0  0  0  0  0
   -4.6730    9.3020  -21.4200 C   0  0  0  0  0  0  0  0  0  0  0  0
   -5.0940   10.0920  -22.4900 C   0  0  0  0  0  0  0  0  0  0  0  0
   -5.4620   10.2440  -26.6360 H   0  0  0  0  0  0  0  0  0  0  0  0
  -11.1160   10.4690  -28.0140 H   0  0  0  0  0  0  0  0  0  0  0  0
  -12.3420    8.4410  -29.0000 H   0  0  0  0  0  0  0  0  0  0  0  0
  -11.1950    6.2330  -29.0760 H   0  0  0  0  0  0  0  0  0  0  0  0
   -8.8830    5.9830  -28.1980 H   0  0  0  0  0  0  0  0  0  0  0  0
   -8.5140   11.1120  -26.7800 H   0  0  0  0  0  0  0  0  0  0  0  0
   -6.6630    7.6250  -24.5090 H   0  0  0  0  0  0  0  0  0  0  0  0
   -5.8500    6.1400  -22.4570 H   0  0  0  0  0  0  0  0  0  0  0  0
   -5.2900    8.4520  -18.9340 H   0  0  0  0  0  0  0  0  0  0  0  0
   -4.0980    7.2830  -18.2900 H   0  0  0  0  0  0  0  0  0  0  0  0
   -5.1350    5.3780  -16.8690 H   0  0  0  0  0  0  0  0  0  0  0  0
   -7.2550    3.8120  -16.6200 H   0  0  0  0  0  0  0  0  0  0  0  0
   -9.9020    4.0560  -17.3010 H   0  0  0  0  0  0  0  0  0  0  0  0
  -10.1720    4.3360  -19.0140 H   0  0  0  0  0  0  0  0  0  0  0  0
   -9.2450    2.8950  -18.5070 H   0  0  0  0  0  0  0  0  0  0  0  0
   -9.0050    5.7030  -19.9820 H   0  0  0  0  0  0  0  0  0  0  0  0
   -7.1330    7.1810  -20.3180 H   0  0  0  0  0  0  0  0  0  0  0  0
   -4.1430    9.8030  -20.6180 H   0  0  0  0  0  0  0  0  0  0  0  0
   -4.8740   11.1590  -22.4710 H   0  0  0  0  0  0  0  0  0  0  0  0
  1  2  1  0
  2  3  1  0
  3  4  2  0
  4  5  1  0
  5  6  2  0
  6  7  1  0
  7  8  2  0
  8  9  1  0
  9 10  2  0
  6 11  1  0
  1 12  2  0
  1 13  1  0
 13 14  2  0
 14 15  1  0
 15 16  2  0
 16 17  1  0
 17 18  1  0
 18 19  1  0
 19 20  2  0
 20 21  1  0
 21 22  2  0
 22 23  1  0
 22 24  1  0
 24 25  2  0
 16 26  1  0
 26 27  2  0
 11  3  1  0
 10  5  1  0
 27 13  1  0
 25 19  1  0
  2 28  1  0
  7 29  1  0
  8 30  1  0
  9 31  1  0
 10 32  1  0
 11 33  1  0
 14 34  1  0
 15 35  1  0
 18 36  1  0
 18 37  1  0
 20 38  1  0
 21 39  1  0
 23 40  1  0
 23 41  1  0
 23 42  1  0
 24 43  1  0
 25 44  1  0
 26 45  1  0
 27 46  1  0
A    1
 C1 
A    2
 N1 
A    3
 C2 
A    4
 N2 
A    5
 C3 
A    6
 C4 
A    7
 C5 
A    8
 C6 
A    9
 C7 
A   10
 C8 
A   11
 N3 
A   12
 O1 
A   13
 C9 
A   14
 C10
A   15
 C11
A   16
 C12
A   17
 O2 
A   18
 C13
A   19
 C14
A   20
 C15
A   21
 C16
A   22
 C17
A   23
 C18
A   24
 C19
A   25
 C20
A   26
 C21
A   27
 C22
A   28
 H1 
A   29
 H2 
A   30
 H3 
A   31
 H4 
A   32
 H5 
A   33
 H6 
A   34
 H7 
A   35
 H8 
A   36
 H9 
A   37
 H10
A   38
 H11
A   39
 H12
A   40
 H13
A   41
 H14
A   42
 H15
A   43
 H16
A   44
 H17
A   45
 H18
A   46
 H19
M  END
>  <ref_pdb>  (172) 
x0051_0B

>  <ref_mols>  (172) 
x0559_0B,x0846_1B

>  <original SMILES>  (172) 
[H]c1c([H])c(C(=O)N([H])c2nc3c([H])c([H])c([H])c([H])c3n2[H])c([H])c([H])c1OC([H])([H])c1c([H])c([H])c(C([H])([H])[H])c([H])c1[H]

>  <index>  (172) 
285

>  <∆∆G>  (172) 
-8.49797

>  <∆G_bound>  (172) 
-7.996442

>  <∆G_unbound>  (172) 
0.501529

>  <comRMSD>  (172) 
0.997262

>  <N_constrained_atoms>  (172) 
25.0

>  <N_unconstrained_atoms>  (172) 
4.0

>  <runtime>  (172) 
63.208564

>  <LE>  (172) 
0.293033

>  <percent_hybrid>  (172) 
28.0

>  <dist>  (172) 
9.0

>  <ecfp4>  (172) 
0.26506

>  <daylight>  (172) 
0.4

>  <topodist>  (172) 
4.0

>  <mces>  (172) 
28.0

>  <tdn>  (172) 
1.0

>  <tup>  (172) 
1.0

>  <rdn>  (172) 
1.0

>  <rup>  (172) 
1.0

>  <ldn>  (172) 
0.0

>  <lup>  (172) 
0.0

>  <mut>  (172) 
3.0

>  <maj>  (172) 
3.0

>  <min>  (172) 
0.0

>  <hyb>  (172) 
2.0

>  <sub>  (172) 
2.0

>  <query_index>  (172) 
315.0

>  <max_hit_Tanimoto>  (172) 
0.586957

>  <largest_ring>  (172) 
0

>  <N_interactions_kept>  (172) 
2.0

>  <N_interactions_lost>  (172) 
1.5

>  <interaction_uniqueness_metric>  (172) 
0.155915

>  <ad_hoc_penalty>  (172) 
-25.099897

>  <N_rotatable_bonds>  (172) 
6

>  <N_HA>  (172) 
27

>  <cluster>  (172) 
5956

>  <N_interactions>  (172) 
6

>  <Enamine>  (172) 
0

>  <Mcule>  (172) 
1

>  <N_PAINS>  (172) 
0

>  <UFF_Gibbs>  (172) 
110.680325

>  <strain_per_HA>  (172) 
4.099271

>  <saltbridge:HIS:51>  (172) 
0

>  <pistack:HIS:51>  (172) 
0

>  <hydroph_interaction:HIS:51>  (172) 
0

>  <hbond:ALA:132>  (172) 
0

>  <hbond:SER:135>  (172) 
0

>  <hydroph_interaction:TYR:150>  (172) 
1

>  <pistack:TYR:161>  (172) 
0

>  <hydroph_interaction:TYR:161>  (172) 
2

>  <hydroph_interaction:ASP:83>  (172) 
0

>  <hbond:TYR:130>  (172) 
0

>  <hydroph_interaction:ALA:132>  (172) 
1

>  <hbond:HIS:51>  (172) 
0

>  <hbond:ASP:129>  (172) 
0

>  <hbond:TYR:150>  (172) 
0

>  <hbond:GLY:151>  (172) 
0

>  <hbond:TYR:161>  (172) 
0

>  <hydroph_interaction:TYR:130>  (172) 
1

>  <hydroph_interaction:PRO:131>  (172) 
1

>  <hydroph_interaction:ASP:129>  (172) 
0

>  <saltbridge:ASP:75>  (172) 
0

>  <saltbridge:ASP:83>  (172) 
0

>  <hydroph_interaction:ASN:152>  (172) 
0

>  <halogenbond:TYR:150>  (172) 
0

>  <hbond:ASP:83>  (172) 
0

>  <hydroph_interaction:VAL:155>  (172) 
0

>  <pication:TYR:161>  (172) 
0

>  <hbond:PRO:131>  (172) 
0

>  <hbond:LEU:128>  (172) 
0

>  <saltbridge:ASP:129>  (172) 
0

>  <hbond:THR:134>  (172) 
0

>  <pication:HIS:51>  (172) 
0

>  <hbond:SER:81>  (172) 
0

>  <hbond:GLY:159>  (172) 
0

>  <hydroph_interaction:PRO:101>  (172) 
0

>  <hydroph_interaction:THR:134>  (172) 
0

>  <hbond:GLY:82>  (172) 
0

>  <hydroph_interaction:GLU:104>  (172) 
0

>  <hydroph_interaction:VAL:36>  (172) 
0

>  <hydroph_interaction:MET:49>  (172) 
0

>  <halogenbond:GLU:104>  (172) 
0

>  <hydroph_interaction:LYS:107>  (172) 
0

$$$$
MCULE-4074595668
     RDKit          3D

 21 22  0  0  0  0  0  0  0  0999 V2000
   -7.9160    5.0830  -18.0990 C   0  0  0  0  0  0  0  0  0  0  0  0
   -8.4640    5.0510  -16.7050 C   0  0  0  0  0  0  0  0  0  0  0  0
   -9.7910    4.8440  -16.8170 C   0  0  0  0  0  0  0  0  0  0  0  0
  -10.0870    4.7580  -18.1430 C   0  0  0  0  0  0  0  0  0  0  0  0
   -8.9980    4.8940  -18.9660 O   0  0  0  0  0  0  0  0  0  0  0  0
   -6.5850    5.2410  -18.6250 C   0  0  0  0  0  0  0  0  0  0  0  0
   -6.2550    5.2910  -20.1030 C   0  0  0  0  0  0  0  0  0  0  0  0
   -5.0140    5.4200  -20.6100 N   0  0  0  0  0  0  0  0  0  0  0  0
   -3.9940    5.5040  -19.7300 C   0  0  0  0  0  0  0  0  0  0  0  0
   -4.0910    5.4800  -18.3500 C   0  0  0  0  0  0  0  0  0  0  0  0
   -5.3420    5.3540  -17.7260 C   0  0  0  0  0  0  0  0  0  0  0  0
   -5.4160    5.3290  -16.2280 C   0  0  0  0  0  0  0  0  0  0  0  0
   -7.9070    5.1660  -15.7870 H   0  0  0  0  0  0  0  0  0  0  0  0
  -10.4720    4.7590  -15.9870 H   0  0  0  0  0  0  0  0  0  0  0  0
  -11.0180    4.6030  -18.6690 H   0  0  0  0  0  0  0  0  0  0  0  0
   -7.0110    5.2220  -20.8890 H   0  0  0  0  0  0  0  0  0  0  0  0
   -3.0200    5.6000  -20.1990 H   0  0  0  0  0  0  0  0  0  0  0  0
   -3.2020    5.5560  -17.7360 H   0  0  0  0  0  0  0  0  0  0  0  0
   -4.4580    5.0260  -15.7930 H   0  0  0  0  0  0  0  0  0  0  0  0
   -6.1990    4.6440  -15.8960 H   0  0  0  0  0  0  0  0  0  0  0  0
   -5.6480    6.3170  -15.8250 H   0  0  0  0  0  0  0  0  0  0  0  0
  1  2  2  0
  2  3  1  0
  3  4  2  0
  4  5  1  0
  1  6  1  0
  6  7  2  0
  7  8  1  0
  8  9  2  0
  9 10  1  0
 10 11  2  0
 11 12  1  0
  5  1  1  0
  6 11  1  0
  2 13  1  0
  3 14  1  0
  4 15  1  0
  7 16  1  0
  9 17  1  0
 10 18  1  0
 12 19  1  0
 12 20  1  0
 12 21  1  0
A    1
 C1 
A    2
 C2 
A    3
 C3 
A    4
 C4 
A    5
 O1 
A    6
 C5 
A    7
 C6 
A    8
 N1 
A    9
 C7 
A   10
 C8 
A   11
 C9 
A   12
 C10
A   13
 H1 
A   14
 H2 
A   15
 H3 
A   16
 H4 
A   17
 H5 
A   18
 H6 
A   19
 H7 
A   20
 H8 
A   21
 H9 
M  END
>  <ref_pdb>  (173) 
x0051_0B

>  <ref_mols>  (173) 
x0680_0B,x0386_0B

>  <original SMILES>  (173) 
[H]c1nc([H])c(-c2oc([H])c([H])c2[H])c(C([H])([H])[H])c1[H]

>  <index>  (173) 
203

>  <∆∆G>  (173) 
-5.876176

>  <∆G_bound>  (173) 
-6.049082

>  <∆G_unbound>  (173) 
-0.172906

>  <comRMSD>  (173) 
0.605373

>  <N_constrained_atoms>  (173) 
13.0

>  <N_unconstrained_atoms>  (173) 
0.0

>  <runtime>  (173) 
22.028279

>  <LE>  (173) 
0.452014

>  <percent_hybrid>  (173) 
25.0

>  <dist>  (173) 
2.0

>  <ecfp4>  (173) 
0.465116

>  <daylight>  (173) 
0.347222

>  <topodist>  (173) 
0.0

>  <mces>  (173) 
13.0

>  <tdn>  (173) 
0.0

>  <tup>  (173) 
0.0

>  <rdn>  (173) 
0.0

>  <rup>  (173) 
0.0

>  <ldn>  (173) 
0.0

>  <lup>  (173) 
0.0

>  <mut>  (173) 
2.0

>  <maj>  (173) 
2.0

>  <min>  (173) 
0.0

>  <hyb>  (173) 
0.0

>  <sub>  (173) 
0.0

>  <query_index>  (173) 
296.0

>  <max_hit_Tanimoto>  (173) 
0.1518

>  <largest_ring>  (173) 
0

>  <N_interactions_kept>  (173) 
3.5

>  <N_interactions_lost>  (173) 
0.5

>  <interaction_uniqueness_metric>  (173) 
0.018782

>  <ad_hoc_penalty>  (173) 
-25.091923

>  <N_rotatable_bonds>  (173) 
2

>  <N_HA>  (173) 
12

>  <cluster>  (173) 
6034

>  <N_interactions>  (173) 
4

>  <Enamine>  (173) 
0

>  <Mcule>  (173) 
1

>  <N_PAINS>  (173) 
0

>  <UFF_Gibbs>  (173) 
55.968548

>  <strain_per_HA>  (173) 
4.664046

>  <saltbridge:HIS:51>  (173) 
0

>  <pistack:HIS:51>  (173) 
0

>  <hydroph_interaction:HIS:51>  (173) 
0

>  <hbond:ALA:132>  (173) 
0

>  <hbond:SER:135>  (173) 
0

>  <hydroph_interaction:TYR:150>  (173) 
0

>  <pistack:TYR:161>  (173) 
0

>  <hydroph_interaction:TYR:161>  (173) 
4

>  <hydroph_interaction:ASP:83>  (173) 
0

>  <hbond:TYR:130>  (173) 
0

>  <hydroph_interaction:ALA:132>  (173) 
0

>  <hbond:HIS:51>  (173) 
0

>  <hbond:ASP:129>  (173) 
0

>  <hbond:TYR:150>  (173) 
0

>  <hbond:GLY:151>  (173) 
0

>  <hbond:TYR:161>  (173) 
0

>  <hydroph_interaction:TYR:130>  (173) 
0

>  <hydroph_interaction:PRO:131>  (173) 
0

>  <hydroph_interaction:ASP:129>  (173) 
0

>  <saltbridge:ASP:75>  (173) 
0

>  <saltbridge:ASP:83>  (173) 
0

>  <hydroph_interaction:ASN:152>  (173) 
0

>  <halogenbond:TYR:150>  (173) 
0

>  <hbond:ASP:83>  (173) 
0

>  <hydroph_interaction:VAL:155>  (173) 
0

>  <pication:TYR:161>  (173) 
0

>  <hbond:PRO:131>  (173) 
0

>  <hbond:LEU:128>  (173) 
0

>  <saltbridge:ASP:129>  (173) 
0

>  <hbond:THR:134>  (173) 
0

>  <pication:HIS:51>  (173) 
0

>  <hbond:SER:81>  (173) 
0

>  <hbond:GLY:159>  (173) 
0

>  <hydroph_interaction:PRO:101>  (173) 
0

>  <hydroph_interaction:THR:134>  (173) 
0

>  <hbond:GLY:82>  (173) 
0

>  <hydroph_interaction:GLU:104>  (173) 
0

>  <hydroph_interaction:VAL:36>  (173) 
0

>  <hydroph_interaction:MET:49>  (173) 
0

>  <halogenbond:GLU:104>  (173) 
0

>  <hydroph_interaction:LYS:107>  (173) 
0

$$$$
Z2782970119
     RDKit          3D

 44 47  0  0  0  0  0  0  0  0999 V2000
   -7.4830    7.4570  -12.5260 O   0  0  0  0  0  0  0  0  0  0  0  0
   -8.1210    6.5330  -13.0130 C   0  0  0  0  0  0  0  0  0  0  0  0
   -8.7060    5.3470  -12.2350 C   0  0  0  0  0  0  0  0  0  0  0  0
   -8.7580    5.6320  -10.7160 C   0  0  0  0  0  0  0  0  0  0  0  0
   -8.9300    4.5760   -9.7750 C   0  0  0  0  0  0  0  0  0  0  0  0
   -9.0780    3.1130  -10.1570 C   0  0  0  0  0  0  0  0  0  0  0  0
   -9.4530    2.3040   -9.0780 C   0  0  0  0  0  0  0  0  0  0  0  0
   -9.6070    2.7730   -7.7630 C   0  0  0  0  0  0  0  0  0  0  0  0
   -9.1060    4.1600   -7.3970 C   0  0  0  0  0  0  0  0  0  0  0  0
   -8.9550    4.9370   -8.5300 N   0  0  0  0  0  0  0  0  0  0  0  0
   -8.7920    6.3600   -8.5000 N   0  0  0  0  0  0  0  0  0  0  0  0
   -8.6680    6.8420   -9.8280 C   0  0  0  0  0  0  0  0  0  0  0  0
   -8.4080    6.4180  -14.3570 O   0  0  0  0  0  0  0  0  0  0  0  0
   -7.9440    5.2230  -15.0290 C   0  0  0  0  0  0  0  0  0  0  0  0
   -6.5350    5.1910  -14.9190 C   0  0  0  0  0  0  0  0  0  0  0  0
   -5.6990    5.6960  -15.9240 C   0  0  0  0  0  0  0  0  0  0  0  0
   -6.1430    5.5370  -17.3590 C   0  0  0  0  0  0  0  0  0  0  0  0
   -7.4930    5.2780  -17.5610 C   0  0  0  0  0  0  0  0  0  0  0  0
   -7.8860    5.1760  -19.0260 C   0  0  0  0  0  0  0  0  0  0  0  0
   -9.3590    4.8930  -19.2530 C   0  0  0  0  0  0  0  0  0  0  0  0
  -10.2770    4.7480  -18.0610 C   0  0  0  0  0  0  0  0  0  0  0  0
   -9.7420    4.8770  -16.7150 N   0  0  0  0  0  0  0  0  0  0  0  0
   -8.4170    5.1220  -16.5010 C   0  0  0  0  0  0  0  0  0  0  0  0
   -8.0140    4.5130  -12.3970 H   0  0  0  0  0  0  0  0  0  0  0  0
   -9.6720    4.9560  -12.5800 H   0  0  0  0  0  0  0  0  0  0  0  0
   -9.7570    2.8690  -10.9720 H   0  0  0  0  0  0  0  0  0  0  0  0
   -8.0950    2.7760  -10.5000 H   0  0  0  0  0  0  0  0  0  0  0  0
  -10.4230    1.9170   -9.3240 H   0  0  0  0  0  0  0  0  0  0  0  0
   -8.7710    1.4490   -9.0280 H   0  0  0  0  0  0  0  0  0  0  0  0
   -9.0370    2.0610   -7.1580 H   0  0  0  0  0  0  0  0  0  0  0  0
  -10.6130    2.7180   -7.3310 H   0  0  0  0  0  0  0  0  0  0  0  0
   -8.1390    4.0800   -6.8910 H   0  0  0  0  0  0  0  0  0  0  0  0
   -9.8210    4.6620   -6.7420 H   0  0  0  0  0  0  0  0  0  0  0  0
   -8.5330    7.9070  -10.0580 H   0  0  0  0  0  0  0  0  0  0  0  0
   -8.3240    4.3380  -14.5050 H   0  0  0  0  0  0  0  0  0  0  0  0
   -6.2390    4.1530  -14.7270 H   0  0  0  0  0  0  0  0  0  0  0  0
   -6.2630    5.6970  -13.9840 H   0  0  0  0  0  0  0  0  0  0  0  0
   -4.7330    5.1910  -15.8330 H   0  0  0  0  0  0  0  0  0  0  0  0
   -5.5290    6.7630  -15.7500 H   0  0  0  0  0  0  0  0  0  0  0  0
   -5.9020    6.4520  -17.9130 H   0  0  0  0  0  0  0  0  0  0  0  0
   -5.5450    4.7370  -17.8120 H   0  0  0  0  0  0  0  0  0  0  0  0
   -7.1760    5.2940  -19.8420 H   0  0  0  0  0  0  0  0  0  0  0  0
   -9.7450    4.8000  -20.2760 H   0  0  0  0  0  0  0  0  0  0  0  0
  -11.3360    4.5500  -18.2620 H   0  0  0  0  0  0  0  0  0  0  0  0
  1  2  2  0
  2  3  1  0
  3  4  1  0
  4  5  2  0
  5  6  1  0
  6  7  1  0
  7  8  1  0
  8  9  1  0
  9 10  1  0
 10 11  1  0
 11 12  2  0
  2 13  1  0
 13 14  1  0
 14 15  1  0
 15 16  1  0
 16 17  1  0
 17 18  1  0
 18 19  2  0
 19 20  1  0
 20 21  2  0
 21 22  1  0
 22 23  2  0
 12  4  1  0
 10  5  1  0
 23 14  1  0
 23 18  1  0
  3 24  1  0
  3 25  1  0
  6 26  1  0
  6 27  1  0
  7 28  1  0
  7 29  1  0
  8 30  1  0
  8 31  1  0
  9 32  1  0
  9 33  1  0
 12 34  1  0
 14 35  1  0
 15 36  1  0
 15 37  1  0
 16 38  1  0
 16 39  1  0
 17 40  1  0
 17 41  1  0
 19 42  1  0
 20 43  1  0
 21 44  1  0
A    1
 O1 
A    2
 C1 
A    3
 C2 
A    4
 C3 
A    5
 C4 
A    6
 C5 
A    7
 C6 
A    8
 C7 
A    9
 C8 
A   10
 N1 
A   11
 N2 
A   12
 C9 
A   13
 O2 
A   14
 C10
A   15
 C11
A   16
 C12
A   17
 C13
A   18
 C14
A   19
 C15
A   20
 C16
A   21
 C17
A   22
 N3 
A   23
 C18
A   24
 H1 
A   25
 H2 
A   26
 H3 
A   27
 H4 
A   28
 H5 
A   29
 H6 
A   30
 H7 
A   31
 H8 
A   32
 H9 
A   33
 H10
A   34
 H11
A   35
 H12
A   36
 H13
A   37
 H14
A   38
 H15
A   39
 H16
A   40
 H17
A   41
 H18
A   42
 H19
A   43
 H20
A   44
 H21
M  END
>  <ref_pdb>  (174) 
x0051_0B

>  <ref_mols>  (174) 
x0969_1B,x0455_0B

>  <original SMILES>  (174) 
[H]c1nc2c(c([H])c1[H])C([H])([H])C([H])([H])C([H])([H])C2([H])OC(=O)C([H])([H])c1c([H])nn2c1C([H])([H])C([H])([H])C([H])([H])C2([H])[H]

>  <index>  (174) 
173

>  <∆∆G>  (174) 
-6.646981

>  <∆G_bound>  (174) 
-5.096464

>  <∆G_unbound>  (174) 
1.550517

>  <comRMSD>  (174) 
0.359987

>  <N_constrained_atoms>  (174) 
20.0

>  <N_unconstrained_atoms>  (174) 
3.0

>  <runtime>  (174) 
49.196815

>  <LE>  (174) 
0.288999

>  <percent_hybrid>  (174) 
50.0

>  <dist>  (174) 
5.0

>  <ecfp4>  (174) 
0.35

>  <daylight>  (174) 
0.340426

>  <topodist>  (174) 
1.0

>  <mces>  (174) 
25.0

>  <tdn>  (174) 
0.0

>  <tup>  (174) 
1.0

>  <rdn>  (174) 
0.0

>  <rup>  (174) 
0.0

>  <ldn>  (174) 
0.0

>  <lup>  (174) 
0.0

>  <mut>  (174) 
4.0

>  <maj>  (174) 
4.0

>  <min>  (174) 
0.0

>  <hyb>  (174) 
0.0

>  <sub>  (174) 
0.0

>  <query_index>  (174) 
204.0

>  <max_hit_Tanimoto>  (174) 
0.282285

>  <largest_ring>  (174) 
0

>  <N_interactions_kept>  (174) 
1.0

>  <N_interactions_lost>  (174) 
1.5

>  <interaction_uniqueness_metric>  (174) 
0.182959

>  <ad_hoc_penalty>  (174) 
-25.074428

>  <N_rotatable_bonds>  (174) 
3

>  <N_HA>  (174) 
23

>  <cluster>  (174) 
6062

>  <N_interactions>  (174) 
6

>  <Enamine>  (174) 
1

>  <Mcule>  (174) 
0

>  <N_PAINS>  (174) 
0

>  <UFF_Gibbs>  (174) 
168.083505

>  <strain_per_HA>  (174) 
7.307978

>  <saltbridge:HIS:51>  (174) 
1

>  <pistack:HIS:51>  (174) 
1

>  <hydroph_interaction:HIS:51>  (174) 
1

>  <hbond:ALA:132>  (174) 
0

>  <hbond:SER:135>  (174) 
0

>  <hydroph_interaction:TYR:150>  (174) 
1

>  <pistack:TYR:161>  (174) 
0

>  <hydroph_interaction:TYR:161>  (174) 
2

>  <hydroph_interaction:ASP:83>  (174) 
0

>  <hbond:TYR:130>  (174) 
0

>  <hydroph_interaction:ALA:132>  (174) 
0

>  <hbond:HIS:51>  (174) 
0

>  <hbond:ASP:129>  (174) 
0

>  <hbond:TYR:150>  (174) 
0

>  <hbond:GLY:151>  (174) 
0

>  <hbond:TYR:161>  (174) 
0

>  <hydroph_interaction:TYR:130>  (174) 
0

>  <hydroph_interaction:PRO:131>  (174) 
0

>  <hydroph_interaction:ASP:129>  (174) 
0

>  <saltbridge:ASP:75>  (174) 
0

>  <saltbridge:ASP:83>  (174) 
0

>  <hydroph_interaction:ASN:152>  (174) 
0

>  <halogenbond:TYR:150>  (174) 
0

>  <hbond:ASP:83>  (174) 
0

>  <hydroph_interaction:VAL:155>  (174) 
0

>  <pication:TYR:161>  (174) 
0

>  <hbond:PRO:131>  (174) 
0

>  <hbond:LEU:128>  (174) 
0

>  <saltbridge:ASP:129>  (174) 
0

>  <hbond:THR:134>  (174) 
0

>  <pication:HIS:51>  (174) 
0

>  <hbond:SER:81>  (174) 
0

>  <hbond:GLY:159>  (174) 
0

>  <hydroph_interaction:PRO:101>  (174) 
0

>  <hydroph_interaction:THR:134>  (174) 
0

>  <hbond:GLY:82>  (174) 
0

>  <hydroph_interaction:GLU:104>  (174) 
0

>  <hydroph_interaction:VAL:36>  (174) 
0

>  <hydroph_interaction:MET:49>  (174) 
0

>  <halogenbond:GLU:104>  (174) 
0

>  <hydroph_interaction:LYS:107>  (174) 
0

$$$$
MCULE-5707150281
     RDKit          3D

 24 25  0  0  0  0  0  0  0  0999 V2000
   -5.8940    5.8290  -20.1030 O   0  0  0  0  0  0  0  0  0  0  0  0
   -6.9210    5.1720  -20.1660 C   0  0  0  0  0  0  0  0  0  0  0  0
   -7.2290    4.4550  -21.2710 O   0  0  0  0  0  0  0  0  0  0  0  0
   -7.9810    5.0660  -19.0580 C   0  0  0  0  0  0  0  0  0  0  0  0
   -7.4960    5.2360  -17.7490 C   0  0  0  0  0  0  0  0  0  0  0  0
   -6.1600    5.4870  -17.4520 C   0  0  0  0  0  0  0  0  0  0  0  0
   -5.8110    5.7170  -16.1240 C   0  0  0  0  0  0  0  0  0  0  0  0
   -6.6080    5.1320  -15.1180 C   0  0  0  0  0  0  0  0  0  0  0  0
   -7.9940    5.3050  -15.2730 C   0  0  0  0  0  0  0  0  0  0  0  0
   -8.4280    5.1410  -16.7070 C   0  0  0  0  0  0  0  0  0  0  0  0
   -9.7580    4.9020  -16.8860 N   0  0  0  0  0  0  0  0  0  0  0  0
  -10.2240    4.7400  -18.1410 C   0  0  0  0  0  0  0  0  0  0  0  0
   -9.3090    4.8190  -19.3440 C   0  0  0  0  0  0  0  0  0  0  0  0
   -7.8480    5.0750  -21.7200 H   0  0  0  0  0  0  0  0  0  0  0  0
   -5.8240    6.3600  -18.0230 H   0  0  0  0  0  0  0  0  0  0  0  0
   -5.5790    4.6260  -17.7990 H   0  0  0  0  0  0  0  0  0  0  0  0
   -4.7860    5.3520  -15.9810 H   0  0  0  0  0  0  0  0  0  0  0  0
   -5.7630    6.7950  -15.9390 H   0  0  0  0  0  0  0  0  0  0  0  0
   -6.3560    5.6760  -14.2020 H   0  0  0  0  0  0  0  0  0  0  0  0
   -6.3180    4.1220  -14.8470 H   0  0  0  0  0  0  0  0  0  0  0  0
   -8.6300    4.6780  -14.6510 H   0  0  0  0  0  0  0  0  0  0  0  0
   -8.2340    6.3390  -14.9940 H   0  0  0  0  0  0  0  0  0  0  0  0
  -11.2980    4.5510  -18.2410 H   0  0  0  0  0  0  0  0  0  0  0  0
   -9.6750    4.6910  -20.3560 H   0  0  0  0  0  0  0  0  0  0  0  0
  1  2  2  0
  2  3  1  0
  2  4  1  0
  4  5  2  0
  5  6  1  0
  6  7  1  0
  7  8  1  0
  8  9  1  0
  9 10  1  0
 10 11  2  0
 11 12  1  0
 12 13  2  0
  4 13  1  0
  5 10  1  0
  3 14  1  0
  6 15  1  0
  6 16  1  0
  7 17  1  0
  7 18  1  0
  8 19  1  0
  8 20  1  0
  9 21  1  0
  9 22  1  0
 12 23  1  0
 13 24  1  0
A    1
 O1 
A    2
 C1 
A    3
 O2 
A    4
 C2 
A    5
 C3 
A    6
 C4 
A    7
 C5 
A    8
 C6 
A    9
 C7 
A   10
 C8 
A   11
 N1 
A   12
 C9 
A   13
 C10
A   14
 H1 
A   15
 H2 
A   16
 H3 
A   17
 H4 
A   18
 H5 
A   19
 H6 
A   20
 H7 
A   21
 H8 
A   22
 H9 
A   23
 H10
A   24
 H11
M  END
>  <ref_pdb>  (175) 
x0051_0B

>  <ref_mols>  (175) 
x0455_0B,x0382_0B

>  <original SMILES>  (175) 
[H]OC(=O)c1c([H])c([H])nc2c1C([H])([H])C([H])([H])C([H])([H])C2([H])[H]

>  <index>  (175) 
177

>  <∆∆G>  (175) 
-5.232818

>  <∆G_bound>  (175) 
-4.596154

>  <∆G_unbound>  (175) 
0.636664

>  <comRMSD>  (175) 
0.568277

>  <N_constrained_atoms>  (175) 
12.0

>  <N_unconstrained_atoms>  (175) 
2.0

>  <runtime>  (175) 
19.167342

>  <LE>  (175) 
0.373773

>  <percent_hybrid>  (175) 
29.0

>  <dist>  (175) 
3.0

>  <ecfp4>  (175) 
0.304348

>  <daylight>  (175) 
0.414773

>  <topodist>  (175) 
1.0

>  <mces>  (175) 
13.0

>  <tdn>  (175) 
0.0

>  <tup>  (175) 
1.0

>  <rdn>  (175) 
0.0

>  <rup>  (175) 
0.0

>  <ldn>  (175) 
0.0

>  <lup>  (175) 
0.0

>  <mut>  (175) 
1.0

>  <maj>  (175) 
1.0

>  <min>  (175) 
0.0

>  <hyb>  (175) 
1.0

>  <sub>  (175) 
0.0

>  <query_index>  (175) 
293.0

>  <max_hit_Tanimoto>  (175) 
0.26148

>  <largest_ring>  (175) 
0

>  <N_interactions_kept>  (175) 
0.0

>  <N_interactions_lost>  (175) 
1.5

>  <interaction_uniqueness_metric>  (175) 
0.095223

>  <ad_hoc_penalty>  (175) 
-25.072245

>  <N_rotatable_bonds>  (175) 
1

>  <N_HA>  (175) 
13

>  <cluster>  (175) 
6059

>  <N_interactions>  (175) 
6

>  <Enamine>  (175) 
0

>  <Mcule>  (175) 
1

>  <N_PAINS>  (175) 
0

>  <UFF_Gibbs>  (175) 
80.498003

>  <strain_per_HA>  (175) 
6.192154

>  <saltbridge:HIS:51>  (175) 
0

>  <pistack:HIS:51>  (175) 
0

>  <hydroph_interaction:HIS:51>  (175) 
0

>  <hbond:ALA:132>  (175) 
0

>  <hbond:SER:135>  (175) 
0

>  <hydroph_interaction:TYR:150>  (175) 
1

>  <pistack:TYR:161>  (175) 
0

>  <hydroph_interaction:TYR:161>  (175) 
3

>  <hydroph_interaction:ASP:83>  (175) 
0

>  <hbond:TYR:130>  (175) 
1

>  <hydroph_interaction:ALA:132>  (175) 
0

>  <hbond:HIS:51>  (175) 
0

>  <hbond:ASP:129>  (175) 
1

>  <hbond:TYR:150>  (175) 
0

>  <hbond:GLY:151>  (175) 
0

>  <hbond:TYR:161>  (175) 
0

>  <hydroph_interaction:TYR:130>  (175) 
0

>  <hydroph_interaction:PRO:131>  (175) 
0

>  <hydroph_interaction:ASP:129>  (175) 
0

>  <saltbridge:ASP:75>  (175) 
0

>  <saltbridge:ASP:83>  (175) 
0

>  <hydroph_interaction:ASN:152>  (175) 
0

>  <halogenbond:TYR:150>  (175) 
0

>  <hbond:ASP:83>  (175) 
0

>  <hydroph_interaction:VAL:155>  (175) 
0

>  <pication:TYR:161>  (175) 
0

>  <hbond:PRO:131>  (175) 
0

>  <hbond:LEU:128>  (175) 
0

>  <saltbridge:ASP:129>  (175) 
0

>  <hbond:THR:134>  (175) 
0

>  <pication:HIS:51>  (175) 
0

>  <hbond:SER:81>  (175) 
0

>  <hbond:GLY:159>  (175) 
0

>  <hydroph_interaction:PRO:101>  (175) 
0

>  <hydroph_interaction:THR:134>  (175) 
0

>  <hbond:GLY:82>  (175) 
0

>  <hydroph_interaction:GLU:104>  (175) 
0

>  <hydroph_interaction:VAL:36>  (175) 
0

>  <hydroph_interaction:MET:49>  (175) 
0

>  <halogenbond:GLU:104>  (175) 
0

>  <hydroph_interaction:LYS:107>  (175) 
0

$$$$
CSSB00009826571
     RDKit          3D

 26 27  0  0  0  0  0  0  0  0999 V2000
   -3.3720    4.2940  -15.7570 N   0  0  0  0  0  0  0  0  0  0  0  0
   -3.1980    5.3980  -16.7000 C   0  0  0  0  0  0  0  0  0  0  0  0
   -4.1190    5.3190  -17.8930 C   0  0  0  0  0  0  0  0  0  0  0  0
   -5.5410    5.5060  -17.5750 N   0  0  0  0  0  0  0  0  0  0  0  0
   -5.9290    6.1330  -16.3030 C   0  0  0  0  0  0  0  0  0  0  0  0
   -7.2680    5.6040  -15.7410 C   0  0  0  0  0  0  0  0  0  0  0  0
   -8.1850    5.2800  -16.8250 N   0  0  0  0  0  0  0  0  0  0  0  0
   -9.5280    4.9940  -16.7560 C   0  0  0  0  0  0  0  0  0  0  0  0
   -9.9820    4.7430  -18.0680 C   0  0  0  0  0  0  0  0  0  0  0  0
   -8.8800    4.8840  -18.8770 C   0  0  0  0  0  0  0  0  0  0  0  0
   -7.7650    5.2170  -18.1240 C   0  0  0  0  0  0  0  0  0  0  0  0
   -6.4780    5.4430  -18.5950 C   0  0  0  0  0  0  0  0  0  0  0  0
   -6.2130    5.5720  -19.7870 O   0  0  0  0  0  0  0  0  0  0  0  0
   -2.4590    3.8880  -15.5470 H   0  0  0  0  0  0  0  0  0  0  0  0
   -3.9170    3.5500  -16.1880 H   0  0  0  0  0  0  0  0  0  0  0  0
   -3.3480    6.3430  -16.1700 H   0  0  0  0  0  0  0  0  0  0  0  0
   -2.1550    5.3980  -17.0380 H   0  0  0  0  0  0  0  0  0  0  0  0
   -4.0220    4.3580  -18.3790 H   0  0  0  0  0  0  0  0  0  0  0  0
   -3.8310    6.0900  -18.6120 H   0  0  0  0  0  0  0  0  0  0  0  0
   -5.1220    5.9370  -15.5880 H   0  0  0  0  0  0  0  0  0  0  0  0
   -6.0050    7.2150  -16.4510 H   0  0  0  0  0  0  0  0  0  0  0  0
   -7.1170    4.6740  -15.1800 H   0  0  0  0  0  0  0  0  0  0  0  0
   -7.7430    6.3450  -15.0940 H   0  0  0  0  0  0  0  0  0  0  0  0
  -10.0580    4.9900  -15.8120 H   0  0  0  0  0  0  0  0  0  0  0  0
  -10.9920    4.4900  -18.3650 H   0  0  0  0  0  0  0  0  0  0  0  0
   -8.8660    4.7630  -19.9540 H   0  0  0  0  0  0  0  0  0  0  0  0
  1  2  1  0
  2  3  1  0
  3  4  1  0
  4  5  1  0
  5  6  1  0
  6  7  1  0
  7  8  1  0
  8  9  2  0
  9 10  1  0
 10 11  2  0
 11 12  1  0
 12 13  2  0
 12  4  1  0
 11  7  1  0
  1 14  1  0
  1 15  1  0
  2 16  1  0
  2 17  1  0
  3 18  1  0
  3 19  1  0
  5 20  1  0
  5 21  1  0
  6 22  1  0
  6 23  1  0
  8 24  1  0
  9 25  1  0
 10 26  1  0
A    1
 N1 
A    2
 C1 
A    3
 C2 
A    4
 N2 
A    5
 C3 
A    6
 C4 
A    7
 N3 
A    8
 C5 
A    9
 C6 
A   10
 C7 
A   11
 C8 
A   12
 C9 
A   13
 O1 
A   14
 H1 
A   15
 H2 
A   16
 H3 
A   17
 H4 
A   18
 H5 
A   19
 H6 
A   20
 H7 
A   21
 H8 
A   22
 H9 
A   23
 H10
A   24
 H11
A   25
 H12
A   26
 H13
M  END
>  <ref_pdb>  (176) 
x0051_0B

>  <ref_mols>  (176) 
x0472_0B,x0386_0B

>  <original SMILES>  (176) 
[H]c1c([H])c2n(c1[H])C([H])([H])C([H])([H])N(C([H])([H])C([H])([H])N([H])[H])C2=O

>  <index>  (176) 
289

>  <∆∆G>  (176) 
-6.057553

>  <∆G_bound>  (176) 
-5.795887

>  <∆G_unbound>  (176) 
0.261666

>  <comRMSD>  (176) 
0.324228

>  <N_constrained_atoms>  (176) 
14.0

>  <N_unconstrained_atoms>  (176) 
0.0

>  <runtime>  (176) 
23.037153

>  <LE>  (176) 
0.432682

>  <percent_hybrid>  (176) 
13.0

>  <dist>  (176) 
5.0

>  <ecfp4>  (176) 
0.118644

>  <daylight>  (176) 
0.160622

>  <topodist>  (176) 
1.0

>  <mces>  (176) 
14.0

>  <tdn>  (176) 
1.0

>  <tup>  (176) 
0.0

>  <rdn>  (176) 
0.0

>  <rup>  (176) 
0.0

>  <ldn>  (176) 
0.0

>  <lup>  (176) 
0.0

>  <mut>  (176) 
3.0

>  <maj>  (176) 
3.0

>  <min>  (176) 
0.0

>  <hyb>  (176) 
1.0

>  <sub>  (176) 
1.0

>  <query_index>  (176) 
75.0

>  <max_hit_Tanimoto>  (176) 
0.219672

>  <largest_ring>  (176) 
0

>  <N_interactions_kept>  (176) 
3.0

>  <N_interactions_lost>  (176) 
0.0

>  <interaction_uniqueness_metric>  (176) 
0.028804

>  <ad_hoc_penalty>  (176) 
-24.990981

>  <N_rotatable_bonds>  (176) 
3

>  <N_HA>  (176) 
13

>  <cluster>  (176) 
5953

>  <N_interactions>  (176) 
3

>  <Enamine>  (176) 
1

>  <Mcule>  (176) 
0

>  <N_PAINS>  (176) 
0

>  <UFF_Gibbs>  (176) 
36.106579

>  <strain_per_HA>  (176) 
2.777429

>  <saltbridge:HIS:51>  (176) 
0

>  <pistack:HIS:51>  (176) 
0

>  <hydroph_interaction:HIS:51>  (176) 
0

>  <hbond:ALA:132>  (176) 
0

>  <hbond:SER:135>  (176) 
0

>  <hydroph_interaction:TYR:150>  (176) 
1

>  <pistack:TYR:161>  (176) 
0

>  <hydroph_interaction:TYR:161>  (176) 
2

>  <hydroph_interaction:ASP:83>  (176) 
0

>  <hbond:TYR:130>  (176) 
0

>  <hydroph_interaction:ALA:132>  (176) 
0

>  <hbond:HIS:51>  (176) 
0

>  <hbond:ASP:129>  (176) 
0

>  <hbond:TYR:150>  (176) 
0

>  <hbond:GLY:151>  (176) 
0

>  <hbond:TYR:161>  (176) 
0

>  <hydroph_interaction:TYR:130>  (176) 
0

>  <hydroph_interaction:PRO:131>  (176) 
0

>  <hydroph_interaction:ASP:129>  (176) 
0

>  <saltbridge:ASP:75>  (176) 
0

>  <saltbridge:ASP:83>  (176) 
0

>  <hydroph_interaction:ASN:152>  (176) 
0

>  <halogenbond:TYR:150>  (176) 
0

>  <hbond:ASP:83>  (176) 
0

>  <hydroph_interaction:VAL:155>  (176) 
0

>  <pication:TYR:161>  (176) 
0

>  <hbond:PRO:131>  (176) 
0

>  <hbond:LEU:128>  (176) 
0

>  <saltbridge:ASP:129>  (176) 
0

>  <hbond:THR:134>  (176) 
0

>  <pication:HIS:51>  (176) 
0

>  <hbond:SER:81>  (176) 
0

>  <hbond:GLY:159>  (176) 
0

>  <hydroph_interaction:PRO:101>  (176) 
0

>  <hydroph_interaction:THR:134>  (176) 
0

>  <hbond:GLY:82>  (176) 
0

>  <hydroph_interaction:GLU:104>  (176) 
0

>  <hydroph_interaction:VAL:36>  (176) 
0

>  <hydroph_interaction:MET:49>  (176) 
0

>  <halogenbond:GLU:104>  (176) 
0

>  <hydroph_interaction:LYS:107>  (176) 
0

$$$$
CSSB00025702687
     RDKit          3D

 28 30  0  0  0  0  0  0  0  0999 V2000
   -9.0060    4.5970  -19.8350 Br  0  0  0  0  0  0  0  0  0  0  0  0
   -8.7270    4.9720  -18.0460 C   0  0  0  0  0  0  0  0  0  0  0  0
   -9.9070    4.9260  -17.1700 C   0  0  0  0  0  0  0  0  0  0  0  0
   -9.7110    5.2010  -15.8090 C   0  0  0  0  0  0  0  0  0  0  0  0
   -8.4470    5.5100  -15.3090 C   0  0  0  0  0  0  0  0  0  0  0  0
   -7.3450    5.5480  -16.1690 C   0  0  0  0  0  0  0  0  0  0  0  0
   -7.4760    5.2770  -17.5440 C   0  0  0  0  0  0  0  0  0  0  0  0
   -6.2880    5.3300  -18.2740 C   0  0  0  0  0  0  0  0  0  0  0  0
   -6.4470    5.4690  -19.7880 C   0  0  0  0  0  0  0  0  0  0  0  0
   -5.1460    5.4980  -20.5980 C   0  0  0  0  0  0  0  0  0  0  0  0
   -5.1040    5.6140  -22.0030 C   0  0  0  0  0  0  0  0  0  0  0  0
   -3.8380    5.6230  -22.6790 C   0  0  0  0  0  0  0  0  0  0  0  0
   -2.7400    5.5140  -21.8700 C   0  0  0  0  0  0  0  0  0  0  0  0
   -2.7170    5.4030  -20.5200 C   0  0  0  0  0  0  0  0  0  0  0  0
   -3.9260    5.3940  -19.8440 C   0  0  0  0  0  0  0  0  0  0  0  0
   -3.8980    5.2760  -18.4410 C   0  0  0  0  0  0  0  0  0  0  0  0
   -5.0500    5.2440  -17.6740 C   0  0  0  0  0  0  0  0  0  0  0  0
  -10.8890    4.6850  -17.5620 H   0  0  0  0  0  0  0  0  0  0  0  0
  -10.5470    5.1750  -15.1190 H   0  0  0  0  0  0  0  0  0  0  0  0
   -8.3170    5.7210  -14.2510 H   0  0  0  0  0  0  0  0  0  0  0  0
   -6.3690    5.7900  -15.7560 H   0  0  0  0  0  0  0  0  0  0  0  0
   -7.4200    5.5390  -20.2590 H   0  0  0  0  0  0  0  0  0  0  0  0
   -6.0220    5.6960  -22.5840 H   0  0  0  0  0  0  0  0  0  0  0  0
   -3.7560    5.7100  -23.7580 H   0  0  0  0  0  0  0  0  0  0  0  0
   -1.7720    5.5160  -22.3690 H   0  0  0  0  0  0  0  0  0  0  0  0
   -1.7680    5.3240  -19.9950 H   0  0  0  0  0  0  0  0  0  0  0  0
   -2.9440    5.2030  -17.9270 H   0  0  0  0  0  0  0  0  0  0  0  0
   -4.9690    5.1450  -16.5930 H   0  0  0  0  0  0  0  0  0  0  0  0
  1  2  1  0
  2  3  2  0
  3  4  1  0
  4  5  2  0
  5  6  1  0
  6  7  2  0
  7  8  1  0
  8  9  2  0
  9 10  1  0
 10 11  2  0
 11 12  1  0
 12 13  2  0
 13 14  1  0
 14 15  2  0
 15 16  1  0
 16 17  2  0
  7  2  1  0
 17  8  1  0
 15 10  1  0
  3 18  1  0
  4 19  1  0
  5 20  1  0
  6 21  1  0
  9 22  1  0
 11 23  1  0
 12 24  1  0
 13 25  1  0
 14 26  1  0
 16 27  1  0
 17 28  1  0
A    1
BR1 
A    2
 C1 
A    3
 C2 
A    4
 C3 
A    5
 C4 
A    6
 C5 
A    7
 C6 
A    8
 C7 
A    9
 C8 
A   10
 C9 
A   11
 C10
A   12
 C11
A   13
 C12
A   14
 C13
A   15
 C14
A   16
 C15
A   17
 C16
A   18
 H1 
A   19
 H2 
A   20
 H3 
A   21
 H4 
A   22
 H5 
A   23
 H6 
A   24
 H7 
A   25
 H8 
A   26
 H9 
A   27
 H10
A   28
 H11
M  END
>  <ref_pdb>  (177) 
x0051_0B

>  <ref_mols>  (177) 
x0852_0B,x0680_0B

>  <original SMILES>  (177) 
[H]c1c([H])c([H])c(-c2c([H])c([H])c3c([H])c([H])c([H])c([H])c3c2[H])c(Br)c1[H]

>  <index>  (177) 
83

>  <∆∆G>  (177) 
-5.770054

>  <∆G_bound>  (177) 
-5.985693

>  <∆G_unbound>  (177) 
-0.21564

>  <comRMSD>  (177) 
0.775037

>  <N_constrained_atoms>  (177) 
20.0

>  <N_unconstrained_atoms>  (177) 
0.0

>  <runtime>  (177) 
66.421844

>  <LE>  (177) 
0.288503

>  <percent_hybrid>  (177) 
19.0

>  <dist>  (177) 
5.0

>  <ecfp4>  (177) 
0.113208

>  <daylight>  (177) 
0.198347

>  <topodist>  (177) 
3.0

>  <mces>  (177) 
19.0

>  <tdn>  (177) 
2.0

>  <tup>  (177) 
0.0

>  <rdn>  (177) 
1.0

>  <rup>  (177) 
0.0

>  <ldn>  (177) 
0.0

>  <lup>  (177) 
0.0

>  <mut>  (177) 
2.0

>  <maj>  (177) 
2.0

>  <min>  (177) 
0.0

>  <hyb>  (177) 
0.0

>  <sub>  (177) 
3.0

>  <query_index>  (177) 
135.0

>  <max_hit_Tanimoto>  (177) 
0.104222

>  <largest_ring>  (177) 
0

>  <N_interactions_kept>  (177) 
6.0

>  <N_interactions_lost>  (177) 
1.5

>  <interaction_uniqueness_metric>  (177) 
0.209821

>  <ad_hoc_penalty>  (177) 
-24.912626

>  <N_rotatable_bonds>  (177) 
1

>  <N_HA>  (177) 
17

>  <cluster>  (177) 
6141

>  <N_interactions>  (177) 
6

>  <Enamine>  (177) 
1

>  <Mcule>  (177) 
0

>  <N_PAINS>  (177) 
0

>  <UFF_Gibbs>  (177) 
215.869096

>  <strain_per_HA>  (177) 
12.698182

>  <saltbridge:HIS:51>  (177) 
0

>  <pistack:HIS:51>  (177) 
0

>  <hydroph_interaction:HIS:51>  (177) 
0

>  <hbond:ALA:132>  (177) 
0

>  <hbond:SER:135>  (177) 
0

>  <hydroph_interaction:TYR:150>  (177) 
0

>  <pistack:TYR:161>  (177) 
0

>  <hydroph_interaction:TYR:161>  (177) 
4

>  <hydroph_interaction:ASP:83>  (177) 
0

>  <hbond:TYR:130>  (177) 
0

>  <hydroph_interaction:ALA:132>  (177) 
0

>  <hbond:HIS:51>  (177) 
0

>  <hbond:ASP:129>  (177) 
0

>  <hbond:TYR:150>  (177) 
0

>  <hbond:GLY:151>  (177) 
0

>  <hbond:TYR:161>  (177) 
0

>  <hydroph_interaction:TYR:130>  (177) 
0

>  <hydroph_interaction:PRO:131>  (177) 
0

>  <hydroph_interaction:ASP:129>  (177) 
1

>  <saltbridge:ASP:75>  (177) 
0

>  <saltbridge:ASP:83>  (177) 
0

>  <hydroph_interaction:ASN:152>  (177) 
0

>  <halogenbond:TYR:150>  (177) 
1

>  <hbond:ASP:83>  (177) 
0

>  <hydroph_interaction:VAL:155>  (177) 
0

>  <pication:TYR:161>  (177) 
0

>  <hbond:PRO:131>  (177) 
0

>  <hbond:LEU:128>  (177) 
0

>  <saltbridge:ASP:129>  (177) 
0

>  <hbond:THR:134>  (177) 
0

>  <pication:HIS:51>  (177) 
0

>  <hbond:SER:81>  (177) 
0

>  <hbond:GLY:159>  (177) 
0

>  <hydroph_interaction:PRO:101>  (177) 
0

>  <hydroph_interaction:THR:134>  (177) 
0

>  <hbond:GLY:82>  (177) 
0

>  <hydroph_interaction:GLU:104>  (177) 
0

>  <hydroph_interaction:VAL:36>  (177) 
0

>  <hydroph_interaction:MET:49>  (177) 
0

>  <halogenbond:GLU:104>  (177) 
0

>  <hydroph_interaction:LYS:107>  (177) 
0

$$$$
GYWDORNTNIQTQJ-UHFFFAOYSA-N
     RDKit          3D

 48 51  0  0  0  0  0  0  0  0999 V2000
   -6.9570    9.6410  -25.3610 O   0  0  0  0  0  0  0  0  0  0  0  0
   -5.7500    9.7900  -24.7400 C   0  0  0  0  0  0  0  0  0  0  0  0
   -4.7930   10.4450  -25.1440 O   0  0  0  0  0  0  0  0  0  0  0  0
   -5.7670    9.0240  -23.4530 C   0  0  0  0  0  0  0  0  0  0  0  0
   -5.9150    7.5450  -23.5190 C   0  0  0  0  0  0  0  0  0  0  0  0
   -5.9640    6.7460  -22.2700 C   0  0  0  0  0  0  0  0  0  0  0  0
   -5.8870    7.3010  -20.9840 C   0  0  0  0  0  0  0  0  0  0  0  0
   -5.9800    6.5430  -19.7650 C   0  0  0  0  0  0  0  0  0  0  0  0
   -7.2590    6.0820  -19.3510 C   0  0  0  0  0  0  0  0  0  0  0  0
   -7.4410    5.3620  -18.1660 C   0  0  0  0  0  0  0  0  0  0  0  0
   -8.7170    4.9210  -17.7750 C   0  0  0  0  0  0  0  0  0  0  0  0
   -6.3380    5.0910  -17.3680 C   0  0  0  0  0  0  0  0  0  0  0  0
   -5.0580    5.5180  -17.7380 C   0  0  0  0  0  0  0  0  0  0  0  0
   -3.9660    5.2300  -16.9190 C   0  0  0  0  0  0  0  0  0  0  0  0
   -4.8920    6.2370  -18.9340 C   0  0  0  0  0  0  0  0  0  0  0  0
   -5.7210    8.7170  -20.9230 C   0  0  0  0  0  0  0  0  0  0  0  0
   -5.6580    9.6060  -22.1880 C   0  0  0  0  0  0  0  0  0  0  0  0
   -7.0310    9.6420  -26.8020 C   0  0  0  0  0  0  0  0  0  0  0  0
   -7.2890    8.3380  -27.2750 C   0  0  0  0  0  0  0  0  0  0  0  0
   -8.5990    8.2270  -27.6110 C   0  0  0  0  0  0  0  0  0  0  0  0
   -9.1990    9.4490  -27.5990 C   0  0  0  0  0  0  0  0  0  0  0  0
  -10.5720    9.5750  -27.8890 C   0  0  0  0  0  0  0  0  0  0  0  0
  -11.2830    8.4120  -28.1980 C   0  0  0  0  0  0  0  0  0  0  0  0
  -10.6300    7.1580  -28.2180 C   0  0  0  0  0  0  0  0  0  0  0  0
   -9.2660    7.0580  -27.9180 C   0  0  0  0  0  0  0  0  0  0  0  0
   -8.1200   10.4460  -27.2450 C   0  0  0  0  0  0  0  0  0  0  0  0
   -5.9930    7.0420  -24.4780 H   0  0  0  0  0  0  0  0  0  0  0  0
   -6.0820    5.6760  -22.4570 H   0  0  0  0  0  0  0  0  0  0  0  0
   -8.1240    6.2910  -19.9530 H   0  0  0  0  0  0  0  0  0  0  0  0
   -8.5750    4.0970  -17.0720 H   0  0  0  0  0  0  0  0  0  0  0  0
   -9.3680    4.5310  -18.5520 H   0  0  0  0  0  0  0  0  0  0  0  0
   -9.3330    5.6130  -17.2130 H   0  0  0  0  0  0  0  0  0  0  0  0
   -6.4700    4.5370  -16.4450 H   0  0  0  0  0  0  0  0  0  0  0  0
   -3.2260    4.5680  -17.3590 H   0  0  0  0  0  0  0  0  0  0  0  0
   -4.3460    4.7290  -16.0350 H   0  0  0  0  0  0  0  0  0  0  0  0
   -3.3890    6.0830  -16.5640 H   0  0  0  0  0  0  0  0  0  0  0  0
   -3.8980    6.5680  -19.2150 H   0  0  0  0  0  0  0  0  0  0  0  0
   -5.6430    9.2050  -19.9480 H   0  0  0  0  0  0  0  0  0  0  0  0
   -5.5350   10.6910  -22.0720 H   0  0  0  0  0  0  0  0  0  0  0  0
   -6.0880    9.9910  -27.2300 H   0  0  0  0  0  0  0  0  0  0  0  0
   -6.6520    8.1320  -28.1410 H   0  0  0  0  0  0  0  0  0  0  0  0
   -7.0510    7.5950  -26.5020 H   0  0  0  0  0  0  0  0  0  0  0  0
  -11.0690   10.5390  -27.8770 H   0  0  0  0  0  0  0  0  0  0  0  0
  -12.3440    8.4730  -28.4270 H   0  0  0  0  0  0  0  0  0  0  0  0
  -11.1930    6.2640  -28.4630 H   0  0  0  0  0  0  0  0  0  0  0  0
   -8.7570    6.1010  -27.9230 H   0  0  0  0  0  0  0  0  0  0  0  0
   -7.8180   11.0040  -28.1370 H   0  0  0  0  0  0  0  0  0  0  0  0
   -8.4470   11.1650  -26.4990 H   0  0  0  0  0  0  0  0  0  0  0  0
  1  2  1  0
  2  3  2  0
  2  4  1  0
  4  5  2  0
  5  6  1  0
  6  7  2  0
  7  8  1  0
  8  9  2  0
  9 10  1  0
 10 11  1  0
 10 12  2  0
 12 13  1  0
 13 14  1  0
 13 15  2  0
  7 16  1  0
 16 17  2  0
  1 18  1  0
 18 19  1  0
 19 20  1  0
 20 21  2  0
 21 22  1  0
 22 23  2  0
 23 24  1  0
 24 25  2  0
 21 26  1  0
 17  4  1  0
  8 15  1  0
 26 18  1  0
 25 20  1  0
  5 27  1  0
  6 28  1  0
  9 29  1  0
 11 30  1  0
 11 31  1  0
 11 32  1  0
 12 33  1  0
 14 34  1  0
 14 35  1  0
 14 36  1  0
 15 37  1  0
 16 38  1  0
 17 39  1  0
 18 40  1  0
 19 41  1  0
 19 42  1  0
 22 43  1  0
 23 44  1  0
 24 45  1  0
 25 46  1  0
 26 47  1  0
 26 48  1  0
A    1
 O1 
A    2
 C1 
A    3
 O2 
A    4
 C2 
A    5
 C3 
A    6
 C4 
A    7
 C5 
A    8
 C6 
A    9
 C7 
A   10
 C8 
A   11
 C9 
A   12
 C10
A   13
 C11
A   14
 C12
A   15
 C13
A   16
 C14
A   17
 C15
A   18
 C16
A   19
 C17
A   20
 C18
A   21
 C19
A   22
 C20
A   23
 C21
A   24
 C22
A   25
 C23
A   26
 C24
A   27
 H1 
A   28
 H2 
A   29
 H3 
A   30
 H4 
A   31
 H5 
A   32
 H6 
A   33
 H7 
A   34
 H8 
A   35
 H9 
A   36
 H10
A   37
 H11
A   38
 H12
A   39
 H13
A   40
 H14
A   41
 H15
A   42
 H16
A   43
 H17
A   44
 H18
A   45
 H19
A   46
 H20
A   47
 H21
A   48
 H22
M  END
>  <ref_pdb>  (178) 
x0051_0B

>  <ref_mols>  (178) 
x0846_1B,x0425_0B

>  <original SMILES>  (178) 
[H]c1c([H])c([H])c2c(c1[H])C([H])([H])C([H])(OC(=O)c1c([H])c([H])c(-c3c([H])c(C([H])([H])[H])c([H])c(C([H])([H])[H])c3[H])c([H])c1[H])C2([H])[H]

>  <index>  (178) 
331

>  <∆∆G>  (178) 
-10.067874

>  <∆G_bound>  (178) 
-10.04596

>  <∆G_unbound>  (178) 
0.021914

>  <comRMSD>  (178) 
0.979295

>  <N_constrained_atoms>  (178) 
29.0

>  <N_unconstrained_atoms>  (178) 
2.0

>  <runtime>  (178) 
55.813025

>  <LE>  (178) 
0.32477

>  <percent_hybrid>  (178) 
38.0

>  <dist>  (178) 
12.0

>  <ecfp4>  (178) 
0.113636

>  <daylight>  (178) 
0.082645

>  <topodist>  (178) 
6.0

>  <mces>  (178) 
28.0

>  <tdn>  (178) 
3.0

>  <tup>  (178) 
1.0

>  <rdn>  (178) 
0.0

>  <rup>  (178) 
0.0

>  <ldn>  (178) 
2.0

>  <lup>  (178) 
0.0

>  <mut>  (178) 
4.0

>  <maj>  (178) 
4.0

>  <min>  (178) 
0.0

>  <hyb>  (178) 
2.0

>  <sub>  (178) 
2.0

>  <query_index>  (178) 
25.0

>  <max_hit_Tanimoto>  (178) 
0.158568

>  <largest_ring>  (178) 
0

>  <N_interactions_kept>  (178) 
0.0

>  <N_interactions_lost>  (178) 
2.5

>  <interaction_uniqueness_metric>  (178) 
0.153471

>  <ad_hoc_penalty>  (178) 
-24.906186

>  <N_rotatable_bonds>  (178) 
5

>  <N_HA>  (178) 
26

>  <cluster>  (178) 
5917

>  <N_interactions>  (178) 
6

>  <Enamine>  (178) 
0

>  <Mcule>  (178) 
1

>  <N_PAINS>  (178) 
0

>  <UFF_Gibbs>  (178) 
86.460942

>  <strain_per_HA>  (178) 
3.325421

>  <saltbridge:HIS:51>  (178) 
0

>  <pistack:HIS:51>  (178) 
0

>  <hydroph_interaction:HIS:51>  (178) 
0

>  <hbond:ALA:132>  (178) 
0

>  <hbond:SER:135>  (178) 
0

>  <hydroph_interaction:TYR:150>  (178) 
0

>  <pistack:TYR:161>  (178) 
1

>  <hydroph_interaction:TYR:161>  (178) 
2

>  <hydroph_interaction:ASP:83>  (178) 
0

>  <hbond:TYR:130>  (178) 
0

>  <hydroph_interaction:ALA:132>  (178) 
1

>  <hbond:HIS:51>  (178) 
0

>  <hbond:ASP:129>  (178) 
0

>  <hbond:TYR:150>  (178) 
0

>  <hbond:GLY:151>  (178) 
0

>  <hbond:TYR:161>  (178) 
0

>  <hydroph_interaction:TYR:130>  (178) 
1

>  <hydroph_interaction:PRO:131>  (178) 
1

>  <hydroph_interaction:ASP:129>  (178) 
0

>  <saltbridge:ASP:75>  (178) 
0

>  <saltbridge:ASP:83>  (178) 
0

>  <hydroph_interaction:ASN:152>  (178) 
0

>  <halogenbond:TYR:150>  (178) 
0

>  <hbond:ASP:83>  (178) 
0

>  <hydroph_interaction:VAL:155>  (178) 
0

>  <pication:TYR:161>  (178) 
0

>  <hbond:PRO:131>  (178) 
0

>  <hbond:LEU:128>  (178) 
0

>  <saltbridge:ASP:129>  (178) 
0

>  <hbond:THR:134>  (178) 
0

>  <pication:HIS:51>  (178) 
0

>  <hbond:SER:81>  (178) 
0

>  <hbond:GLY:159>  (178) 
0

>  <hydroph_interaction:PRO:101>  (178) 
0

>  <hydroph_interaction:THR:134>  (178) 
0

>  <hbond:GLY:82>  (178) 
0

>  <hydroph_interaction:GLU:104>  (178) 
0

>  <hydroph_interaction:VAL:36>  (178) 
0

>  <hydroph_interaction:MET:49>  (178) 
0

>  <halogenbond:GLU:104>  (178) 
0

>  <hydroph_interaction:LYS:107>  (178) 
0

$$$$
CSSB00020653639
     RDKit          3D

 35 37  0  0  0  0  0  0  0  0999 V2000
   -8.2020    2.5440   -9.5200 C   0  0  0  0  0  0  0  0  0  0  0  0
   -7.4760    3.7700   -9.6290 O   0  0  0  0  0  0  0  0  0  0  0  0
   -8.1180    4.7560  -10.2930 C   0  0  0  0  0  0  0  0  0  0  0  0
   -8.9110    5.8310   -9.5680 C   0  0  0  0  0  0  0  0  0  0  0  0
   -9.5580    6.8080  -10.5090 C   0  0  0  0  0  0  0  0  0  0  0  0
   -9.3970    6.6710  -11.9970 C   0  0  0  0  0  0  0  0  0  0  0  0
   -9.9490    7.4670  -12.9660 N   0  0  0  0  0  0  0  0  0  0  0  0
   -9.5710    7.0480  -14.1900 C   0  0  0  0  0  0  0  0  0  0  0  0
   -8.6640    5.8640  -13.9980 C   0  0  0  0  0  0  0  0  0  0  0  0
   -7.9670    5.1230  -15.0290 C   0  0  0  0  0  0  0  0  0  0  0  0
   -6.9040    4.6300  -14.7450 O   0  0  0  0  0  0  0  0  0  0  0  0
   -8.4010    5.0120  -16.4410 C   0  0  0  0  0  0  0  0  0  0  0  0
   -9.8270    4.7540  -16.8300 C   0  0  0  0  0  0  0  0  0  0  0  0
  -10.1660    4.6590  -18.1750 C   0  0  0  0  0  0  0  0  0  0  0  0
   -9.1820    4.7990  -19.1500 C   0  0  0  0  0  0  0  0  0  0  0  0
   -7.8430    5.0400  -18.8020 C   0  0  0  0  0  0  0  0  0  0  0  0
   -6.8970    5.1700  -19.8100 C   0  0  0  0  0  0  0  0  0  0  0  0
   -7.4540    5.1460  -17.4570 C   0  0  0  0  0  0  0  0  0  0  0  0
   -8.6230    5.6540  -12.5730 C   0  0  0  0  0  0  0  0  0  0  0  0
   -7.9970    4.7080  -11.7080 C   0  0  0  0  0  0  0  0  0  0  0  0
   -7.7080    1.8030  -10.1580 H   0  0  0  0  0  0  0  0  0  0  0  0
   -8.1860    2.1600   -8.4950 H   0  0  0  0  0  0  0  0  0  0  0  0
   -9.2300    2.6570   -9.8820 H   0  0  0  0  0  0  0  0  0  0  0  0
   -9.0260    5.9150   -8.4930 H   0  0  0  0  0  0  0  0  0  0  0  0
  -10.1670    7.6300  -10.1080 H   0  0  0  0  0  0  0  0  0  0  0  0
  -10.5520    8.2580  -12.7800 H   0  0  0  0  0  0  0  0  0  0  0  0
   -9.9170    7.5600  -15.0620 H   0  0  0  0  0  0  0  0  0  0  0  0
  -10.5780    4.6390  -16.0650 H   0  0  0  0  0  0  0  0  0  0  0  0
  -11.1960    4.4750  -18.4660 H   0  0  0  0  0  0  0  0  0  0  0  0
   -9.4620    4.7220  -20.1990 H   0  0  0  0  0  0  0  0  0  0  0  0
   -6.8590    6.2120  -20.1450 H   0  0  0  0  0  0  0  0  0  0  0  0
   -5.9070    4.8690  -19.4560 H   0  0  0  0  0  0  0  0  0  0  0  0
   -7.1500    4.5290  -20.6650 H   0  0  0  0  0  0  0  0  0  0  0  0
   -6.4110    5.3320  -17.2000 H   0  0  0  0  0  0  0  0  0  0  0  0
   -7.4010    3.9120  -12.1500 H   0  0  0  0  0  0  0  0  0  0  0  0
  1  2  1  0
  2  3  1  0
  3  4  2  0
  4  5  1  0
  5  6  2  0
  6  7  1  0
  7  8  1  0
  8  9  2  0
  9 10  1  0
 10 11  2  0
 10 12  1  0
 12 13  2  0
 13 14  1  0
 14 15  2  0
 15 16  1  0
 16 17  1  0
 16 18  2  0
  9 19  1  0
 19 20  2  0
 20  3  1  0
 19  6  1  0
 18 12  1  0
  1 21  1  0
  1 22  1  0
  1 23  1  0
  4 24  1  0
  5 25  1  0
  7 26  1  0
  8 27  1  0
 13 28  1  0
 14 29  1  0
 15 30  1  0
 17 31  1  0
 17 32  1  0
 17 33  1  0
 18 34  1  0
 20 35  1  0
A    1
 C1 
A    2
 O1 
A    3
 C2 
A    4
 C3 
A    5
 C4 
A    6
 C5 
A    7
 N1 
A    8
 C6 
A    9
 C7 
A   10
 C8 
A   11
 O2 
A   12
 C9 
A   13
 C10
A   14
 C11
A   15
 C12
A   16
 C13
A   17
 C14
A   18
 C15
A   19
 C16
A   20
 C17
A   21
 H1 
A   22
 H2 
A   23
 H3 
A   24
 H4 
A   25
 H5 
A   26
 H6 
A   27
 H7 
A   28
 H8 
A   29
 H9 
A   30
 H10
A   31
 H11
A   32
 H12
A   33
 H13
A   34
 H14
A   35
 H15
M  END
>  <ref_pdb>  (179) 
x0051_0B

>  <ref_mols>  (179) 
x1098_0B,x0727_0B

>  <original SMILES>  (179) 
[H]c1c([H])c(C(=O)c2c([H])n([H])c3c([H])c([H])c(OC([H])([H])[H])c([H])c23)c([H])c(C([H])([H])[H])c1[H]

>  <index>  (179) 
437

>  <∆∆G>  (179) 
-8.487877

>  <∆G_bound>  (179) 
-8.33782

>  <∆G_unbound>  (179) 
0.150057

>  <comRMSD>  (179) 
0.819406

>  <N_constrained_atoms>  (179) 
18.0

>  <N_unconstrained_atoms>  (179) 
4.0

>  <runtime>  (179) 
64.046641

>  <LE>  (179) 
0.385813

>  <percent_hybrid>  (179) 
10.0

>  <dist>  (179) 
8.0

>  <ecfp4>  (179) 
0.205128

>  <daylight>  (179) 
0.247253

>  <topodist>  (179) 
4.0

>  <mces>  (179) 
21.0

>  <tdn>  (179) 
1.0

>  <tup>  (179) 
0.0

>  <rdn>  (179) 
1.0

>  <rup>  (179) 
1.0

>  <ldn>  (179) 
1.0

>  <lup>  (179) 
0.0

>  <mut>  (179) 
4.0

>  <maj>  (179) 
4.0

>  <min>  (179) 
0.0

>  <hyb>  (179) 
0.0

>  <sub>  (179) 
2.0

>  <query_index>  (179) 
11.0

>  <max_hit_Tanimoto>  (179) 
0.215139

>  <largest_ring>  (179) 
0

>  <N_interactions_kept>  (179) 
4.0

>  <N_interactions_lost>  (179) 
2.0

>  <interaction_uniqueness_metric>  (179) 
0.289756

>  <ad_hoc_penalty>  (179) 
-24.824332

>  <N_rotatable_bonds>  (179) 
5

>  <N_HA>  (179) 
20

>  <cluster>  (179) 
5821

>  <N_interactions>  (179) 
6

>  <Enamine>  (179) 
1

>  <Mcule>  (179) 
0

>  <N_PAINS>  (179) 
0

>  <UFF_Gibbs>  (179) 
64.991366

>  <strain_per_HA>  (179) 
3.249568

>  <saltbridge:HIS:51>  (179) 
0

>  <pistack:HIS:51>  (179) 
0

>  <hydroph_interaction:HIS:51>  (179) 
1

>  <hbond:ALA:132>  (179) 
0

>  <hbond:SER:135>  (179) 
0

>  <hydroph_interaction:TYR:150>  (179) 
1

>  <pistack:TYR:161>  (179) 
0

>  <hydroph_interaction:TYR:161>  (179) 
2

>  <hydroph_interaction:ASP:83>  (179) 
0

>  <hbond:TYR:130>  (179) 
0

>  <hydroph_interaction:ALA:132>  (179) 
0

>  <hbond:HIS:51>  (179) 
0

>  <hbond:ASP:129>  (179) 
0

>  <hbond:TYR:150>  (179) 
0

>  <hbond:GLY:151>  (179) 
0

>  <hbond:TYR:161>  (179) 
0

>  <hydroph_interaction:TYR:130>  (179) 
0

>  <hydroph_interaction:PRO:131>  (179) 
0

>  <hydroph_interaction:ASP:129>  (179) 
0

>  <saltbridge:ASP:75>  (179) 
0

>  <saltbridge:ASP:83>  (179) 
0

>  <hydroph_interaction:ASN:152>  (179) 
0

>  <halogenbond:TYR:150>  (179) 
0

>  <hbond:ASP:83>  (179) 
0

>  <hydroph_interaction:VAL:155>  (179) 
0

>  <pication:TYR:161>  (179) 
0

>  <hbond:PRO:131>  (179) 
0

>  <hbond:LEU:128>  (179) 
0

>  <saltbridge:ASP:129>  (179) 
0

>  <hbond:THR:134>  (179) 
0

>  <pication:HIS:51>  (179) 
2

>  <hbond:SER:81>  (179) 
0

>  <hbond:GLY:159>  (179) 
0

>  <hydroph_interaction:PRO:101>  (179) 
0

>  <hydroph_interaction:THR:134>  (179) 
0

>  <hbond:GLY:82>  (179) 
0

>  <hydroph_interaction:GLU:104>  (179) 
0

>  <hydroph_interaction:VAL:36>  (179) 
0

>  <hydroph_interaction:MET:49>  (179) 
0

>  <halogenbond:GLU:104>  (179) 
0

>  <hydroph_interaction:LYS:107>  (179) 
0

$$$$
Z1083027216
     RDKit          3D

 46 49  0  0  0  0  0  0  0  0999 V2000
   -4.0620    5.7540  -21.5410 O   0  0  0  0  0  0  0  0  0  0  0  0
   -5.1590    6.2980  -21.4580 C   0  0  0  0  0  0  0  0  0  0  0  0
   -6.2380    5.8170  -20.6100 N   0  0  0  0  0  0  0  0  0  0  0  0
   -5.9080    5.7040  -19.1810 C   0  0  0  0  0  0  0  0  0  0  0  0
   -7.1080    5.4100  -18.2960 C   0  0  0  0  0  0  0  0  0  0  0  0
   -8.3450    4.9630  -19.0320 C   0  0  0  0  0  0  0  0  0  0  0  0
   -9.5750    4.6560  -18.2000 C   0  0  0  0  0  0  0  0  0  0  0  0
   -9.4510    4.8240  -16.6770 C   0  0  0  0  0  0  0  0  0  0  0  0
   -8.1180    5.2850  -16.0740 C   0  0  0  0  0  0  0  0  0  0  0  0
   -7.0470    5.5450  -16.9080 C   0  0  0  0  0  0  0  0  0  0  0  0
   -5.4310    7.5140  -22.2340 C   0  0  0  0  0  0  0  0  0  0  0  0
   -6.1250    7.3580  -23.5690 C   0  0  0  0  0  0  0  0  0  0  0  0
   -6.3950    8.4720  -24.3230 C   0  0  0  0  0  0  0  0  0  0  0  0
   -6.0230    9.7250  -23.8410 C   0  0  0  0  0  0  0  0  0  0  0  0
   -6.3860   11.1190  -24.8570 S   0  0  0  0  0  0  0  0  0  0  0  0
   -6.1070   10.3040  -26.4700 C   0  0  0  0  0  0  0  0  0  0  0  0
   -7.2450    9.6350  -26.9410 C   0  0  0  0  0  0  0  0  0  0  0  0
   -7.3500    8.3620  -27.2780 N   0  0  0  0  0  0  0  0  0  0  0  0
   -8.6550    8.1790  -27.6610 C   0  0  0  0  0  0  0  0  0  0  0  0
   -9.3230    7.0240  -28.1040 C   0  0  0  0  0  0  0  0  0  0  0  0
  -10.6830    7.1180  -28.4250 C   0  0  0  0  0  0  0  0  0  0  0  0
  -11.3660    8.3320  -28.3100 C   0  0  0  0  0  0  0  0  0  0  0  0
  -10.7130    9.4870  -27.8780 C   0  0  0  0  0  0  0  0  0  0  0  0
   -9.3630    9.3730  -27.5630 C   0  0  0  0  0  0  0  0  0  0  0  0
   -8.4430   10.2790  -27.1090 N   0  0  0  0  0  0  0  0  0  0  0  0
   -5.3790    9.8920  -22.6010 C   0  0  0  0  0  0  0  0  0  0  0  0
   -5.0810    8.7940  -21.7930 C   0  0  0  0  0  0  0  0  0  0  0  0
   -7.1920    6.0680  -20.8760 H   0  0  0  0  0  0  0  0  0  0  0  0
   -5.4590    6.6460  -18.8480 H   0  0  0  0  0  0  0  0  0  0  0  0
   -5.1180    4.9570  -19.1380 H   0  0  0  0  0  0  0  0  0  0  0  0
   -8.3740    4.8600  -20.1160 H   0  0  0  0  0  0  0  0  0  0  0  0
  -10.5070    4.3340  -18.6470 H   0  0  0  0  0  0  0  0  0  0  0  0
  -10.2440    4.6450  -15.9390 H   0  0  0  0  0  0  0  0  0  0  0  0
   -8.0300    5.4030  -14.9970 H   0  0  0  0  0  0  0  0  0  0  0  0
   -6.1500    5.8650  -16.3730 H   0  0  0  0  0  0  0  0  0  0  0  0
   -6.4050    6.3690  -23.9200 H   0  0  0  0  0  0  0  0  0  0  0  0
   -6.8940    8.3630  -25.2800 H   0  0  0  0  0  0  0  0  0  0  0  0
   -5.7490   11.0400  -27.1990 H   0  0  0  0  0  0  0  0  0  0  0  0
   -5.3010    9.5770  -26.3280 H   0  0  0  0  0  0  0  0  0  0  0  0
   -8.7890    6.0820  -28.1910 H   0  0  0  0  0  0  0  0  0  0  0  0
  -11.2140    6.2330  -28.7660 H   0  0  0  0  0  0  0  0  0  0  0  0
  -12.4220    8.3800  -28.5630 H   0  0  0  0  0  0  0  0  0  0  0  0
  -11.2690   10.4190  -27.7990 H   0  0  0  0  0  0  0  0  0  0  0  0
   -8.6230   11.2520  -26.9240 H   0  0  0  0  0  0  0  0  0  0  0  0
   -5.1050   10.8890  -22.2570 H   0  0  0  0  0  0  0  0  0  0  0  0
   -4.5840    8.9530  -20.8430 H   0  0  0  0  0  0  0  0  0  0  0  0
  1  2  2  0
  2  3  1  0
  3  4  1  0
  4  5  1  0
  5  6  2  0
  6  7  1  0
  7  8  2  0
  8  9  1  0
  9 10  2  0
  2 11  1  0
 11 12  2  0
 12 13  1  0
 13 14  2  0
 14 15  1  0
 15 16  1  0
 16 17  1  0
 17 18  2  0
 18 19  1  0
 19 20  2  0
 20 21  1  0
 21 22  2  0
 22 23  1  0
 23 24  2  0
 24 25  1  0
 14 26  1  0
 26 27  2  0
 10  5  1  0
 27 11  1  0
 25 17  1  0
 24 19  1  0
  3 28  1  0
  4 29  1  0
  4 30  1  0
  6 31  1  0
  7 32  1  0
  8 33  1  0
  9 34  1  0
 10 35  1  0
 12 36  1  0
 13 37  1  0
 16 38  1  0
 16 39  1  0
 20 40  1  0
 21 41  1  0
 22 42  1  0
 23 43  1  0
 25 44  1  0
 26 45  1  0
 27 46  1  0
A    1
 O1 
A    2
 C1 
A    3
 N1 
A    4
 C2 
A    5
 C3 
A    6
 C4 
A    7
 C5 
A    8
 C6 
A    9
 C7 
A   10
 C8 
A   11
 C9 
A   12
 C10
A   13
 C11
A   14
 C12
A   15
 S1 
A   16
 C13
A   17
 C14
A   18
 N2 
A   19
 C15
A   20
 C16
A   21
 C17
A   22
 C18
A   23
 C19
A   24
 C20
A   25
 N3 
A   26
 C21
A   27
 C22
A   28
 H1 
A   29
 H2 
A   30
 H3 
A   31
 H4 
A   32
 H5 
A   33
 H6 
A   34
 H7 
A   35
 H8 
A   36
 H9 
A   37
 H10
A   38
 H11
A   39
 H12
A   40
 H13
A   41
 H14
A   42
 H15
A   43
 H16
A   44
 H17
A   45
 H18
A   46
 H19
M  END
>  <ref_pdb>  (180) 
x0051_0B

>  <ref_mols>  (180) 
x0589_0B,x0846_1B

>  <original SMILES>  (180) 
[H]c1c([H])c([H])c(C([H])([H])N([H])C(=O)c2c([H])c([H])c(SC([H])([H])c3nc4c([H])c([H])c([H])c([H])c4n3[H])c([H])c2[H])c([H])c1[H]

>  <index>  (180) 
288

>  <∆∆G>  (180) 
-9.667995

>  <∆G_bound>  (180) 
-8.972165

>  <∆G_unbound>  (180) 
0.69583

>  <comRMSD>  (180) 
0.612236

>  <N_constrained_atoms>  (180) 
26.0

>  <N_unconstrained_atoms>  (180) 
2.0

>  <runtime>  (180) 
37.391982

>  <LE>  (180) 
0.345286

>  <percent_hybrid>  (180) 
31.0

>  <dist>  (180) 
7.0

>  <ecfp4>  (180) 
0.297297

>  <daylight>  (180) 
0.32967

>  <topodist>  (180) 
3.0

>  <mces>  (180) 
29.0

>  <tdn>  (180) 
2.0

>  <tup>  (180) 
1.0

>  <rdn>  (180) 
0.0

>  <rup>  (180) 
0.0

>  <ldn>  (180) 
0.0

>  <lup>  (180) 
0.0

>  <mut>  (180) 
3.0

>  <maj>  (180) 
3.0

>  <min>  (180) 
0.0

>  <hyb>  (180) 
1.0

>  <sub>  (180) 
2.0

>  <query_index>  (180) 
340.0

>  <max_hit_Tanimoto>  (180) 
0.335821

>  <largest_ring>  (180) 
0

>  <N_interactions_kept>  (180) 
0.0

>  <N_interactions_lost>  (180) 
2.0

>  <interaction_uniqueness_metric>  (180) 
0.197174

>  <ad_hoc_penalty>  (180) 
-24.797321

>  <N_rotatable_bonds>  (180) 
6

>  <N_HA>  (180) 
27

>  <cluster>  (180) 
5954

>  <N_interactions>  (180) 
6

>  <Enamine>  (180) 
1

>  <Mcule>  (180) 
0

>  <N_PAINS>  (180) 
0

>  <UFF_Gibbs>  (180) 
126.520809

>  <strain_per_HA>  (180) 
4.685956

>  <saltbridge:HIS:51>  (180) 
0

>  <pistack:HIS:51>  (180) 
0

>  <hydroph_interaction:HIS:51>  (180) 
0

>  <hbond:ALA:132>  (180) 
0

>  <hbond:SER:135>  (180) 
0

>  <hydroph_interaction:TYR:150>  (180) 
1

>  <pistack:TYR:161>  (180) 
1

>  <hydroph_interaction:TYR:161>  (180) 
0

>  <hydroph_interaction:ASP:83>  (180) 
0

>  <hbond:TYR:130>  (180) 
1

>  <hydroph_interaction:ALA:132>  (180) 
0

>  <hbond:HIS:51>  (180) 
0

>  <hbond:ASP:129>  (180) 
1

>  <hbond:TYR:150>  (180) 
0

>  <hbond:GLY:151>  (180) 
0

>  <hbond:TYR:161>  (180) 
0

>  <hydroph_interaction:TYR:130>  (180) 
1

>  <hydroph_interaction:PRO:131>  (180) 
1

>  <hydroph_interaction:ASP:129>  (180) 
0

>  <saltbridge:ASP:75>  (180) 
0

>  <saltbridge:ASP:83>  (180) 
0

>  <hydroph_interaction:ASN:152>  (180) 
0

>  <halogenbond:TYR:150>  (180) 
0

>  <hbond:ASP:83>  (180) 
0

>  <hydroph_interaction:VAL:155>  (180) 
0

>  <pication:TYR:161>  (180) 
0

>  <hbond:PRO:131>  (180) 
0

>  <hbond:LEU:128>  (180) 
0

>  <saltbridge:ASP:129>  (180) 
0

>  <hbond:THR:134>  (180) 
0

>  <pication:HIS:51>  (180) 
0

>  <hbond:SER:81>  (180) 
0

>  <hbond:GLY:159>  (180) 
0

>  <hydroph_interaction:PRO:101>  (180) 
0

>  <hydroph_interaction:THR:134>  (180) 
0

>  <hbond:GLY:82>  (180) 
0

>  <hydroph_interaction:GLU:104>  (180) 
0

>  <hydroph_interaction:VAL:36>  (180) 
0

>  <hydroph_interaction:MET:49>  (180) 
0

>  <halogenbond:GLU:104>  (180) 
0

>  <hydroph_interaction:LYS:107>  (180) 
0

$$$$
LSLTWAPCGDNIFV-UHFFFAOYSA-N
     RDKit          3D

 38 41  0  0  0  0  0  0  0  0999 V2000
   -8.0130    6.3480  -12.8470 O   0  0  0  0  0  0  0  0  0  0  0  0
   -8.4070    6.3800  -14.1590 C   0  0  0  0  0  0  0  0  0  0  0  0
   -9.1220    7.2560  -14.6120 O   0  0  0  0  0  0  0  0  0  0  0  0
   -7.8660    5.1940  -15.0010 C   0  0  0  0  0  0  0  0  0  0  0  0
   -8.4180    5.0720  -16.2940 C   0  0  0  0  0  0  0  0  0  0  0  0
   -7.4320    5.3020  -17.3770 C   0  0  0  0  0  0  0  0  0  0  0  0
   -7.8060    5.2040  -18.7290 C   0  0  0  0  0  0  0  0  0  0  0  0
   -9.1160    4.8890  -19.0700 C   0  0  0  0  0  0  0  0  0  0  0  0
  -10.0560    4.6790  -18.0800 C   0  0  0  0  0  0  0  0  0  0  0  0
   -9.7090    4.7700  -16.7200 C   0  0  0  0  0  0  0  0  0  0  0  0
   -6.2010    5.5980  -16.8450 O   0  0  0  0  0  0  0  0  0  0  0  0
   -6.3820    5.3870  -15.4010 C   0  0  0  0  0  0  0  0  0  0  0  0
   -8.6950    5.3310  -12.0970 C   0  0  0  0  0  0  0  0  0  0  0  0
   -8.7490    5.6240  -10.5990 C   0  0  0  0  0  0  0  0  0  0  0  0
   -8.9460    4.4020   -9.7760 C   0  0  0  0  0  0  0  0  0  0  0  0
   -8.9640    4.9080   -8.5060 N   0  0  0  0  0  0  0  0  0  0  0  0
   -9.1470    4.0380   -7.3290 C   0  0  0  0  0  0  0  0  0  0  0  0
   -9.3800    2.5790   -7.7230 C   0  0  0  0  0  0  0  0  0  0  0  0
   -8.6210    2.2650   -9.0090 C   0  0  0  0  0  0  0  0  0  0  0  0
   -9.0830    3.1150  -10.0600 O   0  0  0  0  0  0  0  0  0  0  0  0
   -8.8050    6.2560   -8.4160 N   0  0  0  0  0  0  0  0  0  0  0  0
   -8.6760    6.6940   -9.6920 C   0  0  0  0  0  0  0  0  0  0  0  0
   -8.0100    4.2640  -14.4440 H   0  0  0  0  0  0  0  0  0  0  0  0
   -7.0840    5.3710  -19.5300 H   0  0  0  0  0  0  0  0  0  0  0  0
   -9.4010    4.8120  -20.1190 H   0  0  0  0  0  0  0  0  0  0  0  0
  -11.0770    4.4390  -18.3470 H   0  0  0  0  0  0  0  0  0  0  0  0
  -10.4710    4.5930  -15.9750 H   0  0  0  0  0  0  0  0  0  0  0  0
   -5.7970    4.5110  -15.1190 H   0  0  0  0  0  0  0  0  0  0  0  0
   -5.9280    6.2500  -14.8960 H   0  0  0  0  0  0  0  0  0  0  0  0
   -9.7110    5.2160  -12.4850 H   0  0  0  0  0  0  0  0  0  0  0  0
   -8.1840    4.3750  -12.2580 H   0  0  0  0  0  0  0  0  0  0  0  0
   -9.9850    4.4070   -6.7240 H   0  0  0  0  0  0  0  0  0  0  0  0
   -8.2400    4.1190   -6.7210 H   0  0  0  0  0  0  0  0  0  0  0  0
  -10.4540    2.3910   -7.8300 H   0  0  0  0  0  0  0  0  0  0  0  0
   -9.0070    1.9270   -6.9310 H   0  0  0  0  0  0  0  0  0  0  0  0
   -8.8130    1.2600   -9.2970 H   0  0  0  0  0  0  0  0  0  0  0  0
   -7.5450    2.3600   -9.0370 H   0  0  0  0  0  0  0  0  0  0  0  0
   -8.5370    7.7500   -9.8870 H   0  0  0  0  0  0  0  0  0  0  0  0
  1  2  1  0
  2  3  2  0
  2  4  1  0
  4  5  1  0
  5  6  1  0
  6  7  2  0
  7  8  1  0
  8  9  2  0
  9 10  1  0
  6 11  1  0
 11 12  1  0
  1 13  1  0
 13 14  1  0
 14 15  2  0
 15 16  1  0
 16 17  1  0
 17 18  1  0
 18 19  1  0
 19 20  1  0
 16 21  1  0
 21 22  2  0
 12  4  1  0
 10  5  2  0
 22 14  1  0
 20 15  1  0
  4 23  1  0
  7 24  1  0
  8 25  1  0
  9 26  1  0
 10 27  1  0
 12 28  1  0
 12 29  1  0
 13 30  1  0
 13 31  1  0
 17 32  1  0
 17 33  1  0
 18 34  1  0
 18 35  1  0
 19 36  1  0
 19 37  1  0
 22 38  1  0
A    1
 O1 
A    2
 C1 
A    3
 O2 
A    4
 C2 
A    5
 C3 
A    6
 C4 
A    7
 C5 
A    8
 C6 
A    9
 C7 
A   10
 C8 
A   11
 O3 
A   12
 C9 
A   13
 C10
A   14
 C11
A   15
 C12
A   16
 N1 
A   17
 C13
A   18
 C14
A   19
 C15
A   20
 O4 
A   21
 N2 
A   22
 C16
A   23
 H1 
A   24
 H2 
A   25
 H3 
A   26
 H4 
A   27
 H5 
A   28
 H6 
A   29
 H7 
A   30
 H8 
A   31
 H9 
A   32
 H10
A   33
 H11
A   34
 H12
A   35
 H13
A   36
 H14
A   37
 H15
A   38
 H16
M  END
>  <ref_pdb>  (181) 
x0051_0B

>  <ref_mols>  (181) 
x0969_1B,x0455_0B

>  <original SMILES>  (181) 
[H]c1nn2c(c1C([H])([H])OC(=O)C1([H])c3c([H])c([H])c([H])c([H])c3OC1([H])[H])OC([H])([H])C([H])([H])C2([H])[H]

>  <index>  (181) 
327

>  <∆∆G>  (181) 
-7.200223

>  <∆G_bound>  (181) 
-6.532919

>  <∆G_unbound>  (181) 
0.667305

>  <comRMSD>  (181) 
0.39556

>  <N_constrained_atoms>  (181) 
19.0

>  <N_unconstrained_atoms>  (181) 
3.0

>  <runtime>  (181) 
58.830484

>  <LE>  (181) 
0.327283

>  <percent_hybrid>  (181) 
48.0

>  <dist>  (181) 
7.0

>  <ecfp4>  (181) 
0.256098

>  <daylight>  (181) 
0.310541

>  <topodist>  (181) 
2.0

>  <mces>  (181) 
24.0

>  <tdn>  (181) 
0.0

>  <tup>  (181) 
1.0

>  <rdn>  (181) 
0.0

>  <rup>  (181) 
0.0

>  <ldn>  (181) 
1.0

>  <lup>  (181) 
0.0

>  <mut>  (181) 
4.0

>  <maj>  (181) 
4.0

>  <min>  (181) 
0.0

>  <hyb>  (181) 
1.0

>  <sub>  (181) 
0.0

>  <query_index>  (181) 
204.0

>  <max_hit_Tanimoto>  (181) 
0.252377

>  <largest_ring>  (181) 
0

>  <N_interactions_kept>  (181) 
1.0

>  <N_interactions_lost>  (181) 
1.5

>  <interaction_uniqueness_metric>  (181) 
0.154538

>  <ad_hoc_penalty>  (181) 
-24.706919

>  <N_rotatable_bonds>  (181) 
3

>  <N_HA>  (181) 
22

>  <cluster>  (181) 
5921

>  <N_interactions>  (181) 
5

>  <Enamine>  (181) 
0

>  <Mcule>  (181) 
1

>  <N_PAINS>  (181) 
0

>  <UFF_Gibbs>  (181) 
77.811506

>  <strain_per_HA>  (181) 
3.536887

>  <saltbridge:HIS:51>  (181) 
1

>  <pistack:HIS:51>  (181) 
0

>  <hydroph_interaction:HIS:51>  (181) 
1

>  <hbond:ALA:132>  (181) 
0

>  <hbond:SER:135>  (181) 
0

>  <hydroph_interaction:TYR:150>  (181) 
1

>  <pistack:TYR:161>  (181) 
0

>  <hydroph_interaction:TYR:161>  (181) 
2

>  <hydroph_interaction:ASP:83>  (181) 
0

>  <hbond:TYR:130>  (181) 
0

>  <hydroph_interaction:ALA:132>  (181) 
0

>  <hbond:HIS:51>  (181) 
0

>  <hbond:ASP:129>  (181) 
0

>  <hbond:TYR:150>  (181) 
0

>  <hbond:GLY:151>  (181) 
0

>  <hbond:TYR:161>  (181) 
0

>  <hydroph_interaction:TYR:130>  (181) 
0

>  <hydroph_interaction:PRO:131>  (181) 
0

>  <hydroph_interaction:ASP:129>  (181) 
0

>  <saltbridge:ASP:75>  (181) 
0

>  <saltbridge:ASP:83>  (181) 
0

>  <hydroph_interaction:ASN:152>  (181) 
0

>  <halogenbond:TYR:150>  (181) 
0

>  <hbond:ASP:83>  (181) 
0

>  <hydroph_interaction:VAL:155>  (181) 
0

>  <pication:TYR:161>  (181) 
0

>  <hbond:PRO:131>  (181) 
0

>  <hbond:LEU:128>  (181) 
0

>  <saltbridge:ASP:129>  (181) 
0

>  <hbond:THR:134>  (181) 
0

>  <pication:HIS:51>  (181) 
0

>  <hbond:SER:81>  (181) 
0

>  <hbond:GLY:159>  (181) 
0

>  <hydroph_interaction:PRO:101>  (181) 
0

>  <hydroph_interaction:THR:134>  (181) 
0

>  <hbond:GLY:82>  (181) 
0

>  <hydroph_interaction:GLU:104>  (181) 
0

>  <hydroph_interaction:VAL:36>  (181) 
0

>  <hydroph_interaction:MET:49>  (181) 
0

>  <halogenbond:GLU:104>  (181) 
0

>  <hydroph_interaction:LYS:107>  (181) 
0

$$$$
Z2765507614
     RDKit          3D

 45 48  0  0  0  0  0  0  0  0999 V2000
   -8.3530    7.5500  -13.3090 O   0  0  0  0  0  0  0  0  0  0  0  0
   -8.4820    6.1790  -13.6730 C   0  0  0  0  0  0  0  0  0  0  0  0
   -8.7620    5.1290  -12.6610 N   0  0  0  0  0  0  0  0  0  0  0  0
   -8.7940    5.3780  -11.2370 C   0  0  0  0  0  0  0  0  0  0  0  0
   -8.9990    4.2650  -10.2040 C   0  0  0  0  0  0  0  0  0  0  0  0
   -9.1900    2.8170  -10.5210 C   0  0  0  0  0  0  0  0  0  0  0  0
   -9.3360    2.0150   -9.2170 C   0  0  0  0  0  0  0  0  0  0  0  0
   -9.7440    2.7310   -8.0770 C   0  0  0  0  0  0  0  0  0  0  0  0
   -9.1460    3.9650   -7.7600 C   0  0  0  0  0  0  0  0  0  0  0  0
   -8.9780    4.7960   -8.9800 N   0  0  0  0  0  0  0  0  0  0  0  0
   -8.7890    6.1380   -8.9840 N   0  0  0  0  0  0  0  0  0  0  0  0
   -8.6800    6.4950  -10.3440 C   0  0  0  0  0  0  0  0  0  0  0  0
   -8.3090    5.8630  -15.1490 C   0  0  0  0  0  0  0  0  0  0  0  0
   -9.1450    5.0800  -16.1700 C   0  0  0  0  0  0  0  0  0  0  0  0
   -8.4440    5.1870  -17.3570 N   0  0  0  0  0  0  0  0  0  0  0  0
   -7.3010    5.9430  -17.1460 C   0  0  0  0  0  0  0  0  0  0  0  0
   -6.2710    6.3020  -18.2160 C   0  0  0  0  0  0  0  0  0  0  0  0
   -6.8220    6.8780  -19.5190 C   0  0  0  0  0  0  0  0  0  0  0  0
   -5.8300    6.6800  -20.6680 C   0  0  0  0  0  0  0  0  0  0  0  0
   -4.4130    6.7030  -20.2430 N   0  0  0  0  0  0  0  0  0  0  0  0
   -4.1420    5.6980  -19.2060 C   0  0  0  0  0  0  0  0  0  0  0  0
   -5.3190    5.1890  -18.6390 C   0  0  0  0  0  0  0  0  0  0  0  0
   -7.2130    6.3320  -15.8720 N   0  0  0  0  0  0  0  0  0  0  0  0
   -9.1490    4.2520  -12.9720 H   0  0  0  0  0  0  0  0  0  0  0  0
  -10.0890    2.6920  -11.1340 H   0  0  0  0  0  0  0  0  0  0  0  0
   -8.3430    2.4290  -11.0980 H   0  0  0  0  0  0  0  0  0  0  0  0
  -10.1880    1.3600   -9.3990 H   0  0  0  0  0  0  0  0  0  0  0  0
   -8.5540    1.3080   -9.0450 H   0  0  0  0  0  0  0  0  0  0  0  0
   -9.8210    2.0740   -7.2100 H   0  0  0  0  0  0  0  0  0  0  0  0
  -10.7850    2.9490   -8.2790 H   0  0  0  0  0  0  0  0  0  0  0  0
   -9.8110    4.5200   -7.0900 H   0  0  0  0  0  0  0  0  0  0  0  0
   -8.1650    3.9680   -7.2990 H   0  0  0  0  0  0  0  0  0  0  0  0
   -8.5220    7.5510  -10.5900 H   0  0  0  0  0  0  0  0  0  0  0  0
  -10.0710    4.5350  -16.1150 H   0  0  0  0  0  0  0  0  0  0  0  0
   -8.6920    4.7940  -18.2610 H   0  0  0  0  0  0  0  0  0  0  0  0
   -5.6570    7.0890  -17.7600 H   0  0  0  0  0  0  0  0  0  0  0  0
   -6.9660    7.9530  -19.4030 H   0  0  0  0  0  0  0  0  0  0  0  0
   -7.7960    6.4410  -19.7690 H   0  0  0  0  0  0  0  0  0  0  0  0
   -5.9770    7.4650  -21.4190 H   0  0  0  0  0  0  0  0  0  0  0  0
   -6.0520    5.7300  -21.1710 H   0  0  0  0  0  0  0  0  0  0  0  0
   -3.8310    6.5030  -21.0620 H   0  0  0  0  0  0  0  0  0  0  0  0
   -3.5650    4.8830  -19.6450 H   0  0  0  0  0  0  0  0  0  0  0  0
   -3.5050    6.1330  -18.4260 H   0  0  0  0  0  0  0  0  0  0  0  0
   -5.8150    4.5250  -19.3510 H   0  0  0  0  0  0  0  0  0  0  0  0
   -5.0500    4.5850  -17.7650 H   0  0  0  0  0  0  0  0  0  0  0  0
  1  2  2  0
  2  3  1  0
  3  4  1  0
  4  5  2  0
  5  6  1  0
  6  7  1  0
  7  8  1  0
  8  9  1  0
  9 10  1  0
 10 11  1  0
 11 12  2  0
  2 13  1  0
 13 14  2  0
 14 15  1  0
 15 16  1  0
 16 17  1  0
 17 18  1  0
 18 19  1  0
 19 20  1  0
 20 21  1  0
 21 22  1  0
 16 23  2  0
 12  4  1  0
 10  5  1  0
 23 13  1  0
 22 17  1  0
  3 24  1  0
  6 25  1  0
  6 26  1  0
  7 27  1  0
  7 28  1  0
  8 29  1  0
  8 30  1  0
  9 31  1  0
  9 32  1  0
 12 33  1  0
 14 34  1  0
 15 35  1  0
 17 36  1  0
 18 37  1  0
 18 38  1  0
 19 39  1  0
 19 40  1  0
 20 41  1  0
 21 42  1  0
 21 43  1  0
 22 44  1  0
 22 45  1  0
A    1
 O1 
A    2
 C1 
A    3
 N1 
A    4
 C2 
A    5
 C3 
A    6
 C4 
A    7
 C5 
A    8
 C6 
A    9
 C7 
A   10
 N2 
A   11
 N3 
A   12
 C8 
A   13
 C9 
A   14
 C10
A   15
 N4 
A   16
 C11
A   17
 C12
A   18
 C13
A   19
 C14
A   20
 N5 
A   21
 C15
A   22
 C16
A   23
 N6 
A   24
 H1 
A   25
 H2 
A   26
 H3 
A   27
 H4 
A   28
 H5 
A   29
 H6 
A   30
 H7 
A   31
 H8 
A   32
 H9 
A   33
 H10
A   34
 H11
A   35
 H12
A   36
 H13
A   37
 H14
A   38
 H15
A   39
 H16
A   40
 H17
A   41
 H18
A   42
 H19
A   43
 H20
A   44
 H21
A   45
 H22
M  END
>  <ref_pdb>  (182) 
x0051_0B

>  <ref_mols>  (182) 
x0917_1B,x0969_1B

>  <original SMILES>  (182) 
[H]c1nn2c(c1N([H])C(=O)c1nc(C3([H])C([H])([H])C([H])([H])N([H])C([H])([H])C3([H])[H])n([H])c1[H])C([H])([H])C([H])([H])C([H])([H])C2([H])[H]

>  <index>  (182) 
225

>  <∆∆G>  (182) 
-5.420562

>  <∆G_bound>  (182) 
-3.94455

>  <∆G_unbound>  (182) 
1.476012

>  <comRMSD>  (182) 
0.620954

>  <N_constrained_atoms>  (182) 
25.0

>  <N_unconstrained_atoms>  (182) 
0.0

>  <runtime>  (182) 
76.64133

>  <LE>  (182) 
0.216822

>  <percent_hybrid>  (182) 
38.0

>  <dist>  (182) 
8.0

>  <ecfp4>  (182) 
0.235294

>  <daylight>  (182) 
0.334247

>  <topodist>  (182) 
2.0

>  <mces>  (182) 
26.0

>  <tdn>  (182) 
2.0

>  <tup>  (182) 
0.0

>  <rdn>  (182) 
0.0

>  <rup>  (182) 
0.0

>  <ldn>  (182) 
0.0

>  <lup>  (182) 
0.0

>  <mut>  (182) 
5.0

>  <maj>  (182) 
5.0

>  <min>  (182) 
0.0

>  <hyb>  (182) 
1.0

>  <sub>  (182) 
1.0

>  <query_index>  (182) 
298.0

>  <max_hit_Tanimoto>  (182) 
0.323651

>  <largest_ring>  (182) 
0

>  <N_interactions_kept>  (182) 
2.0

>  <N_interactions_lost>  (182) 
1.0

>  <interaction_uniqueness_metric>  (182) 
0.134556

>  <ad_hoc_penalty>  (182) 
-24.696625

>  <N_rotatable_bonds>  (182) 
3

>  <N_HA>  (182) 
23

>  <cluster>  (182) 
6014

>  <N_interactions>  (182) 
5

>  <Enamine>  (182) 
1

>  <Mcule>  (182) 
0

>  <N_PAINS>  (182) 
0

>  <UFF_Gibbs>  (182) 
128.336036

>  <strain_per_HA>  (182) 
5.579828

>  <saltbridge:HIS:51>  (182) 
0

>  <pistack:HIS:51>  (182) 
1

>  <hydroph_interaction:HIS:51>  (182) 
1

>  <hbond:ALA:132>  (182) 
0

>  <hbond:SER:135>  (182) 
0

>  <hydroph_interaction:TYR:150>  (182) 
0

>  <pistack:TYR:161>  (182) 
0

>  <hydroph_interaction:TYR:161>  (182) 
1

>  <hydroph_interaction:ASP:83>  (182) 
0

>  <hbond:TYR:130>  (182) 
0

>  <hydroph_interaction:ALA:132>  (182) 
1

>  <hbond:HIS:51>  (182) 
0

>  <hbond:ASP:129>  (182) 
0

>  <hbond:TYR:150>  (182) 
0

>  <hbond:GLY:151>  (182) 
1

>  <hbond:TYR:161>  (182) 
0

>  <hydroph_interaction:TYR:130>  (182) 
0

>  <hydroph_interaction:PRO:131>  (182) 
0

>  <hydroph_interaction:ASP:129>  (182) 
0

>  <saltbridge:ASP:75>  (182) 
0

>  <saltbridge:ASP:83>  (182) 
0

>  <hydroph_interaction:ASN:152>  (182) 
0

>  <halogenbond:TYR:150>  (182) 
0

>  <hbond:ASP:83>  (182) 
0

>  <hydroph_interaction:VAL:155>  (182) 
0

>  <pication:TYR:161>  (182) 
0

>  <hbond:PRO:131>  (182) 
0

>  <hbond:LEU:128>  (182) 
0

>  <saltbridge:ASP:129>  (182) 
0

>  <hbond:THR:134>  (182) 
0

>  <pication:HIS:51>  (182) 
0

>  <hbond:SER:81>  (182) 
0

>  <hbond:GLY:159>  (182) 
0

>  <hydroph_interaction:PRO:101>  (182) 
0

>  <hydroph_interaction:THR:134>  (182) 
0

>  <hbond:GLY:82>  (182) 
0

>  <hydroph_interaction:GLU:104>  (182) 
0

>  <hydroph_interaction:VAL:36>  (182) 
0

>  <hydroph_interaction:MET:49>  (182) 
0

>  <halogenbond:GLU:104>  (182) 
0

>  <hydroph_interaction:LYS:107>  (182) 
0

$$$$
PV-004245494497
     RDKit          3D

 53 56  0  0  0  0  0  0  0  0999 V2000
   -3.4170    4.4470  -15.3530 C   0  0  0  0  0  0  0  0  0  0  0  0
   -2.9100    5.2850  -16.5020 C   0  0  0  0  0  0  0  0  0  0  0  0
   -3.9180    5.3690  -17.6120 C   0  0  0  0  0  0  0  0  0  0  0  0
   -3.5560    5.1630  -18.7740 O   0  0  0  0  0  0  0  0  0  0  0  0
   -5.2320    5.6710  -17.2940 N   0  0  0  0  0  0  0  0  0  0  0  0
   -6.1680    5.7110  -18.3260 C   0  0  0  0  0  0  0  0  0  0  0  0
   -7.5250    5.3680  -17.8690 C   0  0  0  0  0  0  0  0  0  0  0  0
   -8.4860    5.0580  -18.8320 C   0  0  0  0  0  0  0  0  0  0  0  0
   -9.7540    4.7300  -18.4400 C   0  0  0  0  0  0  0  0  0  0  0  0
  -10.0690    4.7060  -17.1140 C   0  0  0  0  0  0  0  0  0  0  0  0
   -9.1470    5.0100  -16.1310 C   0  0  0  0  0  0  0  0  0  0  0  0
   -7.8540    5.3460  -16.4850 C   0  0  0  0  0  0  0  0  0  0  0  0
   -6.8460    5.6660  -15.3610 C   0  0  0  0  0  0  0  0  0  0  0  0
   -7.3080    6.5640  -14.3880 C   0  0  0  0  0  0  0  0  0  0  0  0
   -7.3620    5.9400  -13.1350 N   0  0  0  0  0  0  0  0  0  0  0  0
   -8.5810    5.5260  -12.4250 C   0  0  0  0  0  0  0  0  0  0  0  0
   -9.5320    5.0810  -13.0440 O   0  0  0  0  0  0  0  0  0  0  0  0
   -8.6650    5.6730  -10.8680 C   0  0  0  0  0  0  0  0  0  0  0  0
   -8.8730    4.5030   -9.9400 C   0  0  0  0  0  0  0  0  0  0  0  0
   -9.0340    3.0370  -10.2590 C   0  0  0  0  0  0  0  0  0  0  0  0
   -9.4330    2.2440   -8.9970 C   0  0  0  0  0  0  0  0  0  0  0  0
   -9.5350    2.9280   -7.6080 C   0  0  0  0  0  0  0  0  0  0  0  0
   -9.0690    4.2460   -7.6040 C   0  0  0  0  0  0  0  0  0  0  0  0
   -8.8980    5.0030   -8.7140 N   0  0  0  0  0  0  0  0  0  0  0  0
   -8.7380    6.3500   -8.6320 N   0  0  0  0  0  0  0  0  0  0  0  0
   -8.5980    6.7560   -9.9380 C   0  0  0  0  0  0  0  0  0  0  0  0
   -5.6400    6.3520  -16.0560 C   0  0  0  0  0  0  0  0  0  0  0  0
   -4.5020    4.3360  -15.4140 H   0  0  0  0  0  0  0  0  0  0  0  0
   -2.9300    3.4720  -15.3930 H   0  0  0  0  0  0  0  0  0  0  0  0
   -3.1810    4.9050  -14.3900 H   0  0  0  0  0  0  0  0  0  0  0  0
   -2.6960    6.2890  -16.1240 H   0  0  0  0  0  0  0  0  0  0  0  0
   -1.9770    4.8690  -16.8880 H   0  0  0  0  0  0  0  0  0  0  0  0
   -6.1580    6.7050  -18.7970 H   0  0  0  0  0  0  0  0  0  0  0  0
   -5.8340    5.0020  -19.0930 H   0  0  0  0  0  0  0  0  0  0  0  0
   -8.2330    5.0770  -19.8900 H   0  0  0  0  0  0  0  0  0  0  0  0
  -10.4990    4.4930  -19.1700 H   0  0  0  0  0  0  0  0  0  0  0  0
  -11.0560    4.4370  -16.8330 H   0  0  0  0  0  0  0  0  0  0  0  0
   -9.4550    4.9770  -15.0910 H   0  0  0  0  0  0  0  0  0  0  0  0
   -6.3850    4.7830  -14.9300 H   0  0  0  0  0  0  0  0  0  0  0  0
   -8.2550    7.0670  -14.5710 H   0  0  0  0  0  0  0  0  0  0  0  0
   -6.5570    7.3560  -14.2660 H   0  0  0  0  0  0  0  0  0  0  0  0
   -6.4820    5.6650  -12.7320 H   0  0  0  0  0  0  0  0  0  0  0  0
   -8.1030    2.6220  -10.6560 H   0  0  0  0  0  0  0  0  0  0  0  0
   -9.8000    2.9130  -11.0350 H   0  0  0  0  0  0  0  0  0  0  0  0
  -10.4140    1.8450   -9.1920 H   0  0  0  0  0  0  0  0  0  0  0  0
   -8.7620    1.3850   -8.9050 H   0  0  0  0  0  0  0  0  0  0  0  0
   -8.9160    2.3590   -6.9070 H   0  0  0  0  0  0  0  0  0  0  0  0
  -10.5540    2.7760   -7.2550 H   0  0  0  0  0  0  0  0  0  0  0  0
   -8.1200    4.3880   -7.0910 H   0  0  0  0  0  0  0  0  0  0  0  0
   -9.8080    4.7950   -7.0070 H   0  0  0  0  0  0  0  0  0  0  0  0
   -8.4550    7.8090  -10.1550 H   0  0  0  0  0  0  0  0  0  0  0  0
   -4.7650    6.3620  -15.3890 H   0  0  0  0  0  0  0  0  0  0  0  0
   -5.8870    7.3930  -16.2540 H   0  0  0  0  0  0  0  0  0  0  0  0
  1  2  1  0
  2  3  1  0
  3  4  2  0
  3  5  1  0
  5  6  1  0
  6  7  1  0
  7  8  2  0
  8  9  1  0
  9 10  2  0
 10 11  1  0
 11 12  2  0
 12 13  1  0
 13 14  1  0
 14 15  1  0
 15 16  1  0
 16 17  2  0
 16 18  1  0
 18 19  2  0
 19 20  1  0
 20 21  1  0
 21 22  1  0
 22 23  1  0
 23 24  1  0
 24 25  1  0
 25 26  2  0
 13 27  1  0
 27  5  1  0
 12  7  1  0
 26 18  1  0
 24 19  1  0
  1 28  1  0
  1 29  1  0
  1 30  1  0
  2 31  1  0
  2 32  1  0
  6 33  1  0
  6 34  1  0
  8 35  1  0
  9 36  1  0
 10 37  1  0
 11 38  1  0
 13 39  1  0
 14 40  1  0
 14 41  1  0
 15 42  1  0
 20 43  1  0
 20 44  1  0
 21 45  1  0
 21 46  1  0
 22 47  1  0
 22 48  1  0
 23 49  1  0
 23 50  1  0
 26 51  1  0
 27 52  1  0
 27 53  1  0
A    1
 C1 
A    2
 C2 
A    3
 C3 
A    4
 O1 
A    5
 N1 
A    6
 C4 
A    7
 C5 
A    8
 C6 
A    9
 C7 
A   10
 C8 
A   11
 C9 
A   12
 C10
A   13
 C11
A   14
 C12
A   15
 N2 
A   16
 C13
A   17
 O2 
A   18
 C14
A   19
 C15
A   20
 C16
A   21
 C17
A   22
 C18
A   23
 C19
A   24
 N3 
A   25
 N4 
A   26
 C20
A   27
 C21
A   28
 H1 
A   29
 H2 
A   30
 H3 
A   31
 H4 
A   32
 H5 
A   33
 H6 
A   34
 H7 
A   35
 H8 
A   36
 H9 
A   37
 H10
A   38
 H11
A   39
 H12
A   40
 H13
A   41
 H14
A   42
 H15
A   43
 H16
A   44
 H17
A   45
 H18
A   46
 H19
A   47
 H20
A   48
 H21
A   49
 H22
A   50
 H23
A   51
 H24
A   52
 H25
A   53
 H26
M  END
>  <ref_pdb>  (183) 
x0051_0B

>  <ref_mols>  (183) 
x0472_0B,x0969_1B

>  <original SMILES>  (183) 
[H]c1nn2c(c1C(=O)N([H])C([H])([H])C1([H])c3c([H])c([H])c([H])c([H])c3C([H])([H])N(C(=O)C([H])([H])C([H])([H])[H])C1([H])[H])C([H])([H])C([H])([H])C([H])([H])C2([H])[H]

>  <index>  (183) 
256

>  <∆∆G>  (183) 
-7.994727

>  <∆G_bound>  (183) 
-7.026151

>  <∆G_unbound>  (183) 
0.968576

>  <comRMSD>  (183) 
0.463645

>  <N_constrained_atoms>  (183) 
23.0

>  <N_unconstrained_atoms>  (183) 
4.0

>  <runtime>  (183) 
48.678771

>  <LE>  (183) 
0.296101

>  <percent_hybrid>  (183) 
44.0

>  <dist>  (183) 
10.0

>  <ecfp4>  (183) 
0.165049

>  <daylight>  (183) 
0.295455

>  <topodist>  (183) 
2.0

>  <mces>  (183) 
28.0

>  <tdn>  (183) 
0.0

>  <tup>  (183) 
1.0

>  <rdn>  (183) 
0.0

>  <rup>  (183) 
0.0

>  <ldn>  (183) 
0.0

>  <lup>  (183) 
1.0

>  <mut>  (183) 
6.0

>  <maj>  (183) 
6.0

>  <min>  (183) 
0.0

>  <hyb>  (183) 
2.0

>  <sub>  (183) 
0.0

>  <query_index>  (183) 
24.0

>  <max_hit_Tanimoto>  (183) 
0.310463

>  <largest_ring>  (183) 
0

>  <N_interactions_kept>  (183) 
2.0

>  <N_interactions_lost>  (183) 
1.5

>  <interaction_uniqueness_metric>  (183) 
0.136928

>  <ad_hoc_penalty>  (183) 
-24.667514

>  <N_rotatable_bonds>  (183) 
5

>  <N_HA>  (183) 
27

>  <cluster>  (183) 
5984

>  <N_interactions>  (183) 
6

>  <Enamine>  (183) 
1

>  <Mcule>  (183) 
0

>  <N_PAINS>  (183) 
0

>  <UFF_Gibbs>  (183) 
134.073329

>  <strain_per_HA>  (183) 
4.965679

>  <saltbridge:HIS:51>  (183) 
0

>  <pistack:HIS:51>  (183) 
1

>  <hydroph_interaction:HIS:51>  (183) 
1

>  <hbond:ALA:132>  (183) 
0

>  <hbond:SER:135>  (183) 
0

>  <hydroph_interaction:TYR:150>  (183) 
1

>  <pistack:TYR:161>  (183) 
1

>  <hydroph_interaction:TYR:161>  (183) 
1

>  <hydroph_interaction:ASP:83>  (183) 
0

>  <hbond:TYR:130>  (183) 
0

>  <hydroph_interaction:ALA:132>  (183) 
0

>  <hbond:HIS:51>  (183) 
0

>  <hbond:ASP:129>  (183) 
0

>  <hbond:TYR:150>  (183) 
0

>  <hbond:GLY:151>  (183) 
0

>  <hbond:TYR:161>  (183) 
0

>  <hydroph_interaction:TYR:130>  (183) 
0

>  <hydroph_interaction:PRO:131>  (183) 
0

>  <hydroph_interaction:ASP:129>  (183) 
0

>  <saltbridge:ASP:75>  (183) 
0

>  <saltbridge:ASP:83>  (183) 
0

>  <hydroph_interaction:ASN:152>  (183) 
0

>  <halogenbond:TYR:150>  (183) 
0

>  <hbond:ASP:83>  (183) 
0

>  <hydroph_interaction:VAL:155>  (183) 
1

>  <pication:TYR:161>  (183) 
0

>  <hbond:PRO:131>  (183) 
0

>  <hbond:LEU:128>  (183) 
0

>  <saltbridge:ASP:129>  (183) 
0

>  <hbond:THR:134>  (183) 
0

>  <pication:HIS:51>  (183) 
0

>  <hbond:SER:81>  (183) 
0

>  <hbond:GLY:159>  (183) 
0

>  <hydroph_interaction:PRO:101>  (183) 
0

>  <hydroph_interaction:THR:134>  (183) 
0

>  <hbond:GLY:82>  (183) 
0

>  <hydroph_interaction:GLU:104>  (183) 
0

>  <hydroph_interaction:VAL:36>  (183) 
0

>  <hydroph_interaction:MET:49>  (183) 
0

>  <halogenbond:GLU:104>  (183) 
0

>  <hydroph_interaction:LYS:107>  (183) 
0

$$$$
HRPNTGMNOCOSPB-UHFFFAOYSA-N
     RDKit          3D

 48 52  0  0  0  0  0  0  0  0999 V2000
   -5.5130    6.0590  -20.9400 C   0  0  0  0  0  0  0  0  0  0  0  0
   -5.9550    6.0460  -19.5870 N   0  0  0  0  0  0  0  0  0  0  0  0
   -4.9050    5.9610  -18.5630 C   0  0  0  0  0  0  0  0  0  0  0  0
   -5.2730    6.6970  -17.3290 C   0  0  0  0  0  0  0  0  0  0  0  0
   -5.9630    5.7900  -16.3450 C   0  0  0  0  0  0  0  0  0  0  0  0
   -7.2000    5.4760  -16.8080 C   0  0  0  0  0  0  0  0  0  0  0  0
   -7.7360    5.2290  -18.0760 C   0  0  0  0  0  0  0  0  0  0  0  0
   -9.0950    4.9510  -17.7780 C   0  0  0  0  0  0  0  0  0  0  0  0
   -9.3090    5.0440  -16.4360 C   0  0  0  0  0  0  0  0  0  0  0  0
   -8.1440    5.3700  -15.8330 O   0  0  0  0  0  0  0  0  0  0  0  0
   -7.0790    5.2370  -19.3980 C   0  0  0  0  0  0  0  0  0  0  0  0
   -7.5120    4.5280  -20.2970 O   0  0  0  0  0  0  0  0  0  0  0  0
   -5.0040    5.0850  -21.4810 O   0  0  0  0  0  0  0  0  0  0  0  0
   -5.6200    7.2570  -21.8370 C   0  0  0  0  0  0  0  0  0  0  0  0
   -6.0840    7.0510  -23.1530 C   0  0  0  0  0  0  0  0  0  0  0  0
   -6.2000    8.2190  -24.0600 C   0  0  0  0  0  0  0  0  0  0  0  0
   -5.8550    9.4910  -23.6300 C   0  0  0  0  0  0  0  0  0  0  0  0
   -5.9850   10.6410  -24.5940 C   0  0  0  0  0  0  0  0  0  0  0  0
   -5.6160   10.1480  -26.3040 S   0  0  0  0  0  0  0  0  0  0  0  0
   -7.1700    9.6350  -26.9090 C   0  0  0  0  0  0  0  0  0  0  0  0
   -8.4580   10.7140  -27.1810 S   0  0  0  0  0  0  0  0  0  0  0  0
   -9.4420    9.4000  -27.6630 C   0  0  0  0  0  0  0  0  0  0  0  0
   -8.7050    8.2160  -27.6080 C   0  0  0  0  0  0  0  0  0  0  0  0
   -9.3120    7.0180  -27.9680 C   0  0  0  0  0  0  0  0  0  0  0  0
  -10.6520    7.0150  -28.3680 C   0  0  0  0  0  0  0  0  0  0  0  0
  -11.3760    8.2060  -28.4070 C   0  0  0  0  0  0  0  0  0  0  0  0
  -10.7820    9.4130  -28.0580 C   0  0  0  0  0  0  0  0  0  0  0  0
   -7.3980    8.3720  -27.1750 N   0  0  0  0  0  0  0  0  0  0  0  0
   -5.3890    9.6580  -22.3040 C   0  0  0  0  0  0  0  0  0  0  0  0
   -5.2710    8.5610  -21.4130 C   0  0  0  0  0  0  0  0  0  0  0  0
   -3.9930    6.3940  -18.9910 H   0  0  0  0  0  0  0  0  0  0  0  0
   -4.6940    4.9210  -18.3090 H   0  0  0  0  0  0  0  0  0  0  0  0
   -4.3780    7.1520  -16.8800 H   0  0  0  0  0  0  0  0  0  0  0  0
   -5.9410    7.5200  -17.6030 H   0  0  0  0  0  0  0  0  0  0  0  0
   -5.3760    4.8710  -16.2300 H   0  0  0  0  0  0  0  0  0  0  0  0
   -6.0360    6.2640  -15.3600 H   0  0  0  0  0  0  0  0  0  0  0  0
   -9.7410    4.7130  -18.6300 H   0  0  0  0  0  0  0  0  0  0  0  0
  -10.1630    4.9170  -15.7890 H   0  0  0  0  0  0  0  0  0  0  0  0
   -6.3560    6.0600  -23.4970 H   0  0  0  0  0  0  0  0  0  0  0  0
   -6.5700    7.9830  -25.0640 H   0  0  0  0  0  0  0  0  0  0  0  0
   -6.9820   11.0960  -24.5450 H   0  0  0  0  0  0  0  0  0  0  0  0
   -5.2780   11.4270  -24.2980 H   0  0  0  0  0  0  0  0  0  0  0  0
   -8.7430    6.0970  -27.9310 H   0  0  0  0  0  0  0  0  0  0  0  0
  -11.1270    6.0800  -28.6490 H   0  0  0  0  0  0  0  0  0  0  0  0
  -12.4210    8.1950  -28.7180 H   0  0  0  0  0  0  0  0  0  0  0  0
  -11.3440   10.3360  -28.0930 H   0  0  0  0  0  0  0  0  0  0  0  0
   -5.1100   10.6480  -21.9440 H   0  0  0  0  0  0  0  0  0  0  0  0
   -4.9120    8.7210  -20.4020 H   0  0  0  0  0  0  0  0  0  0  0  0
  1  2  1  0
  2  3  1  0
  3  4  1  0
  4  5  1  0
  5  6  1  0
  6  7  2  0
  7  8  1  0
  8  9  2  0
  9 10  1  0
  7 11  1  0
 11 12  2  0
  1 13  2  0
  1 14  1  0
 14 15  2  0
 15 16  1  0
 16 17  2  0
 17 18  1  0
 18 19  1  0
 19 20  1  0
 20 21  1  0
 21 22  1  0
 22 23  2  0
 23 24  1  0
 24 25  2  0
 25 26  1  0
 26 27  2  0
 23 28  1  0
 17 29  1  0
 29 30  2  0
 11  2  1  0
 10  6  1  0
 30 14  1  0
 20 28  2  0
 27 22  1  0
  3 31  1  0
  3 32  1  0
  4 33  1  0
  4 34  1  0
  5 35  1  0
  5 36  1  0
  8 37  1  0
  9 38  1  0
 15 39  1  0
 16 40  1  0
 18 41  1  0
 18 42  1  0
 24 43  1  0
 25 44  1  0
 26 45  1  0
 27 46  1  0
 29 47  1  0
 30 48  1  0
A    1
 C1 
A    2
 N1 
A    3
 C2 
A    4
 C3 
A    5
 C4 
A    6
 C5 
A    7
 C6 
A    8
 C7 
A    9
 C8 
A   10
 O1 
A   11
 C9 
A   12
 O2 
A   13
 O3 
A   14
 C10
A   15
 C11
A   16
 C12
A   17
 C13
A   18
 C14
A   19
 S1 
A   20
 C15
A   21
 S2 
A   22
 C16
A   23
 C17
A   24
 C18
A   25
 C19
A   26
 C20
A   27
 C21
A   28
 N2 
A   29
 C22
A   30
 C23
A   31
 H1 
A   32
 H2 
A   33
 H3 
A   34
 H4 
A   35
 H5 
A   36
 H6 
A   37
 H7 
A   38
 H8 
A   39
 H9 
A   40
 H10
A   41
 H11
A   42
 H12
A   43
 H13
A   44
 H14
A   45
 H15
A   46
 H16
A   47
 H17
A   48
 H18
M  END
>  <ref_pdb>  (184) 
x0051_0B

>  <ref_mols>  (184) 
x0846_1B,x0969_0B

>  <original SMILES>  (184) 
[H]c1oc2c(c1[H])C(=O)N(C(=O)c1c([H])c([H])c(C([H])([H])Sc3nc4c([H])c([H])c([H])c([H])c4s3)c([H])c1[H])C([H])([H])C([H])([H])C2([H])[H]

>  <index>  (184) 
429

>  <∆∆G>  (184) 
-8.816536

>  <∆G_bound>  (184) 
-8.29851

>  <∆G_unbound>  (184) 
0.518025

>  <comRMSD>  (184) 
0.784323

>  <N_constrained_atoms>  (184) 
28.0

>  <N_unconstrained_atoms>  (184) 
4.0

>  <runtime>  (184) 
28.939655

>  <LE>  (184) 
0.275517

>  <percent_hybrid>  (184) 
36.0

>  <dist>  (184) 
11.0

>  <ecfp4>  (184) 
0.161905

>  <daylight>  (184) 
0.212598

>  <topodist>  (184) 
5.0

>  <mces>  (184) 
31.0

>  <tdn>  (184) 
2.0

>  <tup>  (184) 
2.0

>  <rdn>  (184) 
0.0

>  <rup>  (184) 
0.0

>  <ldn>  (184) 
0.0

>  <lup>  (184) 
1.0

>  <mut>  (184) 
5.0

>  <maj>  (184) 
5.0

>  <min>  (184) 
0.0

>  <hyb>  (184) 
1.0

>  <sub>  (184) 
2.0

>  <query_index>  (184) 
45.0

>  <max_hit_Tanimoto>  (184) 
0.198772

>  <largest_ring>  (184) 
0

>  <N_interactions_kept>  (184) 
0.5

>  <N_interactions_lost>  (184) 
2.0

>  <interaction_uniqueness_metric>  (184) 
0.18165

>  <ad_hoc_penalty>  (184) 
-24.643005

>  <N_rotatable_bonds>  (184) 
4

>  <N_HA>  (184) 
30

>  <cluster>  (184) 
5829

>  <N_interactions>  (184) 
5

>  <Enamine>  (184) 
0

>  <Mcule>  (184) 
1

>  <N_PAINS>  (184) 
0

>  <UFF_Gibbs>  (184) 
67.151539

>  <strain_per_HA>  (184) 
2.238385

>  <saltbridge:HIS:51>  (184) 
0

>  <pistack:HIS:51>  (184) 
0

>  <hydroph_interaction:HIS:51>  (184) 
0

>  <hbond:ALA:132>  (184) 
0

>  <hbond:SER:135>  (184) 
0

>  <hydroph_interaction:TYR:150>  (184) 
0

>  <pistack:TYR:161>  (184) 
1

>  <hydroph_interaction:TYR:161>  (184) 
0

>  <hydroph_interaction:ASP:83>  (184) 
0

>  <hbond:TYR:130>  (184) 
1

>  <hydroph_interaction:ALA:132>  (184) 
0

>  <hbond:HIS:51>  (184) 
0

>  <hbond:ASP:129>  (184) 
1

>  <hbond:TYR:150>  (184) 
0

>  <hbond:GLY:151>  (184) 
0

>  <hbond:TYR:161>  (184) 
0

>  <hydroph_interaction:TYR:130>  (184) 
1

>  <hydroph_interaction:PRO:131>  (184) 
1

>  <hydroph_interaction:ASP:129>  (184) 
0

>  <saltbridge:ASP:75>  (184) 
0

>  <saltbridge:ASP:83>  (184) 
0

>  <hydroph_interaction:ASN:152>  (184) 
0

>  <halogenbond:TYR:150>  (184) 
0

>  <hbond:ASP:83>  (184) 
0

>  <hydroph_interaction:VAL:155>  (184) 
0

>  <pication:TYR:161>  (184) 
0

>  <hbond:PRO:131>  (184) 
0

>  <hbond:LEU:128>  (184) 
0

>  <saltbridge:ASP:129>  (184) 
0

>  <hbond:THR:134>  (184) 
0

>  <pication:HIS:51>  (184) 
0

>  <hbond:SER:81>  (184) 
0

>  <hbond:GLY:159>  (184) 
0

>  <hydroph_interaction:PRO:101>  (184) 
0

>  <hydroph_interaction:THR:134>  (184) 
0

>  <hbond:GLY:82>  (184) 
0

>  <hydroph_interaction:GLU:104>  (184) 
0

>  <hydroph_interaction:VAL:36>  (184) 
0

>  <hydroph_interaction:MET:49>  (184) 
0

>  <halogenbond:GLU:104>  (184) 
0

>  <hydroph_interaction:LYS:107>  (184) 
0

$$$$
ODCUCTGOMJYTBO-UHFFFAOYSA-N
     RDKit          3D

 39 41  0  0  0  0  0  0  0  0999 V2000
   -8.8390    5.8560  -12.8940 C   0  0  0  0  0  0  0  0  0  0  0  0
   -8.2700    4.9610  -13.8580 N   0  0  0  0  0  0  0  0  0  0  0  0
   -8.2730    5.0430  -15.3290 C   0  0  0  0  0  0  0  0  0  0  0  0
   -6.9560    5.2110  -16.1420 C   0  0  0  0  0  0  0  0  0  0  0  0
   -5.6750    5.2900  -15.3350 C   0  0  0  0  0  0  0  0  0  0  0  0
   -6.8780    5.2880  -17.5270 C   0  0  0  0  0  0  0  0  0  0  0  0
   -8.1760    5.2000  -18.2980 C   0  0  0  0  0  0  0  0  0  0  0  0
   -9.4700    5.0400  -17.5420 C   0  0  0  0  0  0  0  0  0  0  0  0
  -10.7170    4.9790  -18.4140 C   0  0  0  0  0  0  0  0  0  0  0  0
   -9.4630    4.9710  -16.1150 C   0  0  0  0  0  0  0  0  0  0  0  0
   -9.4550    7.0850  -13.2840 O   0  0  0  0  0  0  0  0  0  0  0  0
   -8.8390    5.6150  -11.3780 C   0  0  0  0  0  0  0  0  0  0  0  0
   -8.8620    4.5070  -10.4730 C   0  0  0  0  0  0  0  0  0  0  0  0
   -8.8580    5.0360   -9.2030 N   0  0  0  0  0  0  0  0  0  0  0  0
   -8.8790    4.2950   -7.9600 C   0  0  0  0  0  0  0  0  0  0  0  0
   -9.4940    2.9020   -8.0750 C   0  0  0  0  0  0  0  0  0  0  0  0
   -9.3840    2.2790   -9.3280 C   0  0  0  0  0  0  0  0  0  0  0  0
   -8.8880    3.0290  -10.5840 C   0  0  0  0  0  0  0  0  0  0  0  0
   -8.8320    6.3640   -9.1600 N   0  0  0  0  0  0  0  0  0  0  0  0
   -8.8220    6.7090  -10.4530 C   0  0  0  0  0  0  0  0  0  0  0  0
   -7.9980    4.0360  -13.5360 H   0  0  0  0  0  0  0  0  0  0  0  0
   -5.5070    6.3150  -14.9940 H   0  0  0  0  0  0  0  0  0  0  0  0
   -5.7340    4.6270  -14.4670 H   0  0  0  0  0  0  0  0  0  0  0  0
   -4.8130    4.9830  -15.9350 H   0  0  0  0  0  0  0  0  0  0  0  0
   -5.9350    5.4050  -18.0450 H   0  0  0  0  0  0  0  0  0  0  0  0
   -8.1920    5.2550  -19.3860 H   0  0  0  0  0  0  0  0  0  0  0  0
  -11.3170    4.1140  -18.2300 H   0  0  0  0  0  0  0  0  0  0  0  0
  -10.4150    4.9950  -19.4630 H   0  0  0  0  0  0  0  0  0  0  0  0
  -11.3450    5.8450  -18.2760 H   0  0  0  0  0  0  0  0  0  0  0  0
  -10.4200    4.8560  -15.6210 H   0  0  0  0  0  0  0  0  0  0  0  0
   -9.4500    4.9040   -7.2520 H   0  0  0  0  0  0  0  0  0  0  0  0
   -7.8490    4.2220   -7.6010 H   0  0  0  0  0  0  0  0  0  0  0  0
   -9.0310    2.2590   -7.3220 H   0  0  0  0  0  0  0  0  0  0  0  0
  -10.5560    2.9500   -7.8100 H   0  0  0  0  0  0  0  0  0  0  0  0
   -8.7800    1.3750   -9.2070 H   0  0  0  0  0  0  0  0  0  0  0  0
  -10.3860    1.9510   -9.5640 H   0  0  0  0  0  0  0  0  0  0  0  0
   -9.5520    2.7730  -11.4190 H   0  0  0  0  0  0  0  0  0  0  0  0
   -7.9040    2.6360  -10.8410 H   0  0  0  0  0  0  0  0  0  0  0  0
   -8.8040    7.7620  -10.7010 H   0  0  0  0  0  0  0  0  0  0  0  0
  1  2  1  0
  2  3  1  0
  3  4  2  0
  4  5  1  0
  4  6  1  0
  6  7  2  0
  7  8  1  0
  8  9  1  0
  8 10  2  0
  1 11  2  0
  1 12  1  0
 12 13  2  0
 13 14  1  0
 14 15  1  0
 15 16  1  0
 16 17  1  0
 17 18  1  0
 14 19  1  0
 19 20  2  0
  3 10  1  0
 20 12  1  0
 18 13  1  0
  2 21  1  0
  5 22  1  0
  5 23  1  0
  5 24  1  0
  6 25  1  0
  7 26  1  0
  9 27  1  0
  9 28  1  0
  9 29  1  0
 10 30  1  0
 15 31  1  0
 15 32  1  0
 16 33  1  0
 16 34  1  0
 17 35  1  0
 17 36  1  0
 18 37  1  0
 18 38  1  0
 20 39  1  0
A    1
 C1 
A    2
 N1 
A    3
 C2 
A    4
 C3 
A    5
 C4 
A    6
 C5 
A    7
 C6 
A    8
 C7 
A    9
 C8 
A   10
 C9 
A   11
 O1 
A   12
 C10
A   13
 C11
A   14
 N2 
A   15
 C12
A   16
 C13
A   17
 C14
A   18
 C15
A   19
 N3 
A   20
 C16
A   21
 H1 
A   22
 H2 
A   23
 H3 
A   24
 H4 
A   25
 H5 
A   26
 H6 
A   27
 H7 
A   28
 H8 
A   29
 H9 
A   30
 H10
A   31
 H11
A   32
 H12
A   33
 H13
A   34
 H14
A   35
 H15
A   36
 H16
A   37
 H17
A   38
 H18
A   39
 H19
M  END
>  <ref_pdb>  (185) 
x0051_0B

>  <ref_mols>  (185) 
x0553_0B,x0969_1B

>  <original SMILES>  (185) 
[H]c1nn2c(c1C(=O)N([H])c1c([H])c(C([H])([H])[H])c([H])c([H])c1C([H])([H])[H])C([H])([H])C([H])([H])C([H])([H])C2([H])[H]

>  <index>  (185) 
249

>  <∆∆G>  (185) 
-6.975497

>  <∆G_bound>  (185) 
-6.886459

>  <∆G_unbound>  (185) 
0.089038

>  <comRMSD>  (185) 
0.804472

>  <N_constrained_atoms>  (185) 
19.0

>  <N_unconstrained_atoms>  (185) 
2.0

>  <runtime>  (185) 
46.530649

>  <LE>  (185) 
0.332167

>  <percent_hybrid>  (185) 
48.0

>  <dist>  (185) 
7.0

>  <ecfp4>  (185) 
0.298701

>  <daylight>  (185) 
0.261745

>  <topodist>  (185) 
3.0

>  <mces>  (185) 
21.0

>  <tdn>  (185) 
1.0

>  <tup>  (185) 
1.0

>  <rdn>  (185) 
0.0

>  <rup>  (185) 
0.0

>  <ldn>  (185) 
1.0

>  <lup>  (185) 
0.0

>  <mut>  (185) 
2.0

>  <maj>  (185) 
2.0

>  <min>  (185) 
0.0

>  <hyb>  (185) 
2.0

>  <sub>  (185) 
0.0

>  <query_index>  (185) 
375.0

>  <max_hit_Tanimoto>  (185) 
0.327853

>  <largest_ring>  (185) 
0

>  <N_interactions_kept>  (185) 
1.0

>  <N_interactions_lost>  (185) 
1.5

>  <interaction_uniqueness_metric>  (185) 
0.14598

>  <ad_hoc_penalty>  (185) 
-24.640345

>  <N_rotatable_bonds>  (185) 
4

>  <N_HA>  (185) 
20

>  <cluster>  (185) 
5991

>  <N_interactions>  (185) 
6

>  <Enamine>  (185) 
0

>  <Mcule>  (185) 
1

>  <N_PAINS>  (185) 
0

>  <UFF_Gibbs>  (185) 
106.671844

>  <strain_per_HA>  (185) 
5.333592

>  <saltbridge:HIS:51>  (185) 
0

>  <pistack:HIS:51>  (185) 
1

>  <hydroph_interaction:HIS:51>  (185) 
1

>  <hbond:ALA:132>  (185) 
0

>  <hbond:SER:135>  (185) 
0

>  <hydroph_interaction:TYR:150>  (185) 
1

>  <pistack:TYR:161>  (185) 
1

>  <hydroph_interaction:TYR:161>  (185) 
1

>  <hydroph_interaction:ASP:83>  (185) 
0

>  <hbond:TYR:130>  (185) 
0

>  <hydroph_interaction:ALA:132>  (185) 
0

>  <hbond:HIS:51>  (185) 
0

>  <hbond:ASP:129>  (185) 
0

>  <hbond:TYR:150>  (185) 
0

>  <hbond:GLY:151>  (185) 
0

>  <hbond:TYR:161>  (185) 
1

>  <hydroph_interaction:TYR:130>  (185) 
0

>  <hydroph_interaction:PRO:131>  (185) 
0

>  <hydroph_interaction:ASP:129>  (185) 
0

>  <saltbridge:ASP:75>  (185) 
0

>  <saltbridge:ASP:83>  (185) 
0

>  <hydroph_interaction:ASN:152>  (185) 
0

>  <halogenbond:TYR:150>  (185) 
0

>  <hbond:ASP:83>  (185) 
0

>  <hydroph_interaction:VAL:155>  (185) 
0

>  <pication:TYR:161>  (185) 
0

>  <hbond:PRO:131>  (185) 
0

>  <hbond:LEU:128>  (185) 
0

>  <saltbridge:ASP:129>  (185) 
0

>  <hbond:THR:134>  (185) 
0

>  <pication:HIS:51>  (185) 
0

>  <hbond:SER:81>  (185) 
0

>  <hbond:GLY:159>  (185) 
0

>  <hydroph_interaction:PRO:101>  (185) 
0

>  <hydroph_interaction:THR:134>  (185) 
0

>  <hbond:GLY:82>  (185) 
0

>  <hydroph_interaction:GLU:104>  (185) 
0

>  <hydroph_interaction:VAL:36>  (185) 
0

>  <hydroph_interaction:MET:49>  (185) 
0

>  <halogenbond:GLU:104>  (185) 
0

>  <hydroph_interaction:LYS:107>  (185) 
0

$$$$
CSSB00000600872
     RDKit          3D

 29 30  0  0  0  0  0  0  0  0999 V2000
   -8.9560    5.3990  -13.7310 O   0  0  0  0  0  0  0  0  0  0  0  0
   -7.9390    5.5990  -14.5830 C   0  0  0  0  0  0  0  0  0  0  0  0
   -6.8330    5.9080  -14.1850 O   0  0  0  0  0  0  0  0  0  0  0  0
   -8.2940    5.4100  -16.0480 C   0  0  0  0  0  0  0  0  0  0  0  0
   -9.7030    4.9420  -16.3550 C   0  0  0  0  0  0  0  0  0  0  0  0
  -10.0840    4.7370  -17.8290 C   0  0  0  0  0  0  0  0  0  0  0  0
   -9.0850    5.0010  -18.8390 C   0  0  0  0  0  0  0  0  0  0  0  0
   -7.6980    5.4820  -18.4030 C   0  0  0  0  0  0  0  0  0  0  0  0
   -6.6680    5.7830  -19.2730 N   0  0  0  0  0  0  0  0  0  0  0  0
   -6.3650    5.1090  -20.4060 C   0  0  0  0  0  0  0  0  0  0  0  0
   -7.0800    4.3470  -21.0460 O   0  0  0  0  0  0  0  0  0  0  0  0
   -5.0820    5.3270  -20.8560 C   0  0  0  0  0  0  0  0  0  0  0  0
   -4.9350    5.5030  -22.3480 C   0  0  0  0  0  0  0  0  0  0  0  0
   -3.6450    5.7080  -22.8400 C   0  0  0  0  0  0  0  0  0  0  0  0
   -2.5460    5.7460  -21.9700 C   0  0  0  0  0  0  0  0  0  0  0  0
   -2.6980    5.5920  -20.5840 C   0  0  0  0  0  0  0  0  0  0  0  0
   -3.9490    5.3900  -20.0300 C   0  0  0  0  0  0  0  0  0  0  0  0
   -3.9640    5.2040  -17.9470 I   0  0  0  0  0  0  0  0  0  0  0  0
   -7.3780    5.6560  -17.0550 C   0  0  0  0  0  0  0  0  0  0  0  0
   -8.5280    4.9880  -12.9520 H   0  0  0  0  0  0  0  0  0  0  0  0
  -10.4200    4.7540  -15.5590 H   0  0  0  0  0  0  0  0  0  0  0  0
  -11.0780    4.4040  -18.1140 H   0  0  0  0  0  0  0  0  0  0  0  0
   -9.3500    4.8550  -19.8830 H   0  0  0  0  0  0  0  0  0  0  0  0
   -5.9620    6.4150  -18.9210 H   0  0  0  0  0  0  0  0  0  0  0  0
   -5.8010    5.4670  -23.0000 H   0  0  0  0  0  0  0  0  0  0  0  0
   -3.4940    5.8350  -23.9100 H   0  0  0  0  0  0  0  0  0  0  0  0
   -1.5490    5.9000  -22.3800 H   0  0  0  0  0  0  0  0  0  0  0  0
   -1.8120    5.6360  -19.9580 H   0  0  0  0  0  0  0  0  0  0  0  0
   -6.3820    5.9960  -16.7860 H   0  0  0  0  0  0  0  0  0  0  0  0
  1  2  1  0
  2  3  2  0
  2  4  1  0
  4  5  2  0
  5  6  1  0
  6  7  2  0
  7  8  1  0
  8  9  1  0
  9 10  1  0
 10 11  2  0
 10 12  1  0
 12 13  2  0
 13 14  1  0
 14 15  2  0
 15 16  1  0
 16 17  2  0
 17 18  1  0
  8 19  2  0
 19  4  1  0
 17 12  1  0
  1 20  1  0
  5 21  1  0
  6 22  1  0
  7 23  1  0
  9 24  1  0
 13 25  1  0
 14 26  1  0
 15 27  1  0
 16 28  1  0
 19 29  1  0
A    1
 O1 
A    2
 C1 
A    3
 O2 
A    4
 C2 
A    5
 C3 
A    6
 C4 
A    7
 C5 
A    8
 C6 
A    9
 N1 
A   10
 C7 
A   11
 O3 
A   12
 C8 
A   13
 C9 
A   14
 C10
A   15
 C11
A   16
 C12
A   17
 C13
A   18
 I1 
A   19
 C14
A   20
 H1 
A   21
 H2 
A   22
 H3 
A   23
 H4 
A   24
 H5 
A   25
 H6 
A   26
 H7 
A   27
 H8 
A   28
 H9 
A   29
 H10
M  END
>  <ref_pdb>  (186) 
x0051_0B

>  <ref_mols>  (186) 
x0852_0B,x0951_0B

>  <original SMILES>  (186) 
[H]OC(=O)c1c([H])c([H])c([H])c(N([H])C(=O)c2c([H])c([H])c([H])c([H])c2I)c1[H]

>  <index>  (186) 
344

>  <∆∆G>  (186) 
-5.87515

>  <∆G_bound>  (186) 
-5.3103

>  <∆G_unbound>  (186) 
0.56485

>  <comRMSD>  (186) 
0.572815

>  <N_constrained_atoms>  (186) 
22.0

>  <N_unconstrained_atoms>  (186) 
0.0

>  <runtime>  (186) 
34.088281

>  <LE>  (186) 
0.267052

>  <percent_hybrid>  (186) 
27.0

>  <dist>  (186) 
9.0

>  <ecfp4>  (186) 
0.216216

>  <daylight>  (186) 
0.298077

>  <topodist>  (186) 
5.0

>  <mces>  (186) 
20.0

>  <tdn>  (186) 
4.0

>  <tup>  (186) 
0.0

>  <rdn>  (186) 
1.0

>  <rup>  (186) 
0.0

>  <ldn>  (186) 
0.0

>  <lup>  (186) 
0.0

>  <mut>  (186) 
4.0

>  <maj>  (186) 
3.0

>  <min>  (186) 
1.0

>  <hyb>  (186) 
0.0

>  <sub>  (186) 
2.0

>  <query_index>  (186) 
95.0

>  <max_hit_Tanimoto>  (186) 
0.34402

>  <largest_ring>  (186) 
0

>  <N_interactions_kept>  (186) 
2.0

>  <N_interactions_lost>  (186) 
4.0

>  <interaction_uniqueness_metric>  (186) 
0.279746

>  <ad_hoc_penalty>  (186) 
-24.577148

>  <N_rotatable_bonds>  (186) 
3

>  <N_HA>  (186) 
19

>  <cluster>  (186) 
5904

>  <N_interactions>  (186) 
10

>  <Enamine>  (186) 
1

>  <Mcule>  (186) 
0

>  <N_PAINS>  (186) 
0

>  <UFF_Gibbs>  (186) 
83.357434

>  <strain_per_HA>  (186) 
4.387233

>  <saltbridge:HIS:51>  (186) 
1

>  <pistack:HIS:51>  (186) 
0

>  <hydroph_interaction:HIS:51>  (186) 
0

>  <hbond:ALA:132>  (186) 
0

>  <hbond:SER:135>  (186) 
0

>  <hydroph_interaction:TYR:150>  (186) 
1

>  <pistack:TYR:161>  (186) 
0

>  <hydroph_interaction:TYR:161>  (186) 
3

>  <hydroph_interaction:ASP:83>  (186) 
0

>  <hbond:TYR:130>  (186) 
1

>  <hydroph_interaction:ALA:132>  (186) 
1

>  <hbond:HIS:51>  (186) 
0

>  <hbond:ASP:129>  (186) 
1

>  <hbond:TYR:150>  (186) 
0

>  <hbond:GLY:151>  (186) 
1

>  <hbond:TYR:161>  (186) 
0

>  <hydroph_interaction:TYR:130>  (186) 
0

>  <hydroph_interaction:PRO:131>  (186) 
0

>  <hydroph_interaction:ASP:129>  (186) 
1

>  <saltbridge:ASP:75>  (186) 
0

>  <saltbridge:ASP:83>  (186) 
0

>  <hydroph_interaction:ASN:152>  (186) 
0

>  <halogenbond:TYR:150>  (186) 
0

>  <hbond:ASP:83>  (186) 
0

>  <hydroph_interaction:VAL:155>  (186) 
0

>  <pication:TYR:161>  (186) 
0

>  <hbond:PRO:131>  (186) 
0

>  <hbond:LEU:128>  (186) 
0

>  <saltbridge:ASP:129>  (186) 
0

>  <hbond:THR:134>  (186) 
0

>  <pication:HIS:51>  (186) 
0

>  <hbond:SER:81>  (186) 
0

>  <hbond:GLY:159>  (186) 
0

>  <hydroph_interaction:PRO:101>  (186) 
0

>  <hydroph_interaction:THR:134>  (186) 
0

>  <hbond:GLY:82>  (186) 
0

>  <hydroph_interaction:GLU:104>  (186) 
0

>  <hydroph_interaction:VAL:36>  (186) 
0

>  <hydroph_interaction:MET:49>  (186) 
0

>  <halogenbond:GLU:104>  (186) 
0

>  <hydroph_interaction:LYS:107>  (186) 
0

$$$$
CSSB00005794343
     RDKit          3D

 28 30  0  0  0  0  0  0  0  0999 V2000
   -3.7670    5.0880  -17.3590 O   0  0  0  0  0  0  0  0  0  0  0  0
   -4.7830    5.6390  -17.7770 C   0  0  0  0  0  0  0  0  0  0  0  0
   -5.8950    5.5870  -17.0210 N   0  0  0  0  0  0  0  0  0  0  0  0
   -7.1930    5.3170  -17.4420 C   0  0  0  0  0  0  0  0  0  0  0  0
   -8.1410    5.2710  -16.3050 C   0  0  0  0  0  0  0  0  0  0  0  0
   -9.5950    4.9780  -16.6160 C   0  0  0  0  0  0  0  0  0  0  0  0
   -9.9510    4.7650  -18.0240 C   0  0  0  0  0  0  0  0  0  0  0  0
   -8.9750    4.8300  -19.0220 C   0  0  0  0  0  0  0  0  0  0  0  0
   -7.6150    5.0970  -18.7680 C   0  0  0  0  0  0  0  0  0  0  0  0
   -6.7800    5.1100  -19.9020 C   0  0  0  0  0  0  0  0  0  0  0  0
   -7.2350    4.4830  -20.8490 O   0  0  0  0  0  0  0  0  0  0  0  0
   -5.5460    5.6960  -20.1360 N   0  0  0  0  0  0  0  0  0  0  0  0
   -5.3690    6.6410  -21.2080 C   0  0  0  0  0  0  0  0  0  0  0  0
   -5.4870    7.9370  -20.4490 C   0  0  0  0  0  0  0  0  0  0  0  0
   -5.4310    7.6450  -19.0780 C   0  0  0  0  0  0  0  0  0  0  0  0
   -4.8100    6.3790  -19.1000 C   0  0  1  0  0  0  0  0  0  0  0  0
   -5.7290    5.5650  -16.0180 H   0  0  0  0  0  0  0  0  0  0  0  0
   -7.8310    5.4360  -15.2750 H   0  0  0  0  0  0  0  0  0  0  0  0
  -10.3360    4.9280  -15.8230 H   0  0  0  0  0  0  0  0  0  0  0  0
  -10.9820    4.5550  -18.2970 H   0  0  0  0  0  0  0  0  0  0  0  0
   -9.2950    4.6620  -20.0530 H   0  0  0  0  0  0  0  0  0  0  0  0
   -6.1900    6.5040  -21.9220 H   0  0  0  0  0  0  0  0  0  0  0  0
   -4.4120    6.5310  -21.7200 H   0  0  0  0  0  0  0  0  0  0  0  0
   -6.4020    8.4730  -20.7190 H   0  0  0  0  0  0  0  0  0  0  0  0
   -4.6410    8.5820  -20.7070 H   0  0  0  0  0  0  0  0  0  0  0  0
   -6.4440    7.5910  -18.6740 H   0  0  0  0  0  0  0  0  0  0  0  0
   -4.8660    8.4070  -18.5320 H   0  0  0  0  0  0  0  0  0  0  0  0
   -3.7750    6.4950  -19.4450 H   0  0  0  0  0  0  0  0  0  0  0  0
  1  2  2  0
  2  3  1  0
  3  4  1  0
  4  5  2  0
  5  6  1  0
  6  7  2  0
  7  8  1  0
  8  9  2  0
  9 10  1  0
 10 11  2  0
 10 12  1  0
 12 13  1  0
 13 14  1  0
 14 15  1  0
 15 16  1  0
 16  2  1  0
  9  4  1  0
 16 12  1  0
  3 17  1  0
  5 18  1  0
  6 19  1  0
  7 20  1  0
  8 21  1  0
 13 22  1  0
 13 23  1  0
 14 24  1  0
 14 25  1  0
 15 26  1  0
 15 27  1  0
 16 28  1  6
A    1
 O1 
A    2
 C1 
A    3
 N1 
A    4
 C2 
A    5
 C3 
A    6
 C4 
A    7
 C5 
A    8
 C6 
A    9
 C7 
A   10
 C8 
A   11
 O2 
A   12
 N2 
A   13
 C9 
A   14
 C10
A   15
 C11
A   16
 C12
A   17
 H1 
A   18
 H2 
A   19
 H3 
A   20
 H4 
A   21
 H5 
A   22
 H6 
A   23
 H7 
A   24
 H8 
A   25
 H9 
A   26
 H10
A   27
 H11
A   28
 H12
M  END
>  <ref_pdb>  (187) 
x0051_0B

>  <ref_mols>  (187) 
x0229_0B,x0693_0B

>  <original SMILES>  (187) 
[H]c1c([H])c([H])c2c(c1[H])C(=O)N1C([H])([H])C([H])([H])C([H])([H])[C@@]1([H])C(=O)N2[H]

>  <index>  (187) 
212

>  <∆∆G>  (187) 
-6.565714

>  <∆G_bound>  (187) 
-6.251999

>  <∆G_unbound>  (187) 
0.313714

>  <comRMSD>  (187) 
0.730212

>  <N_constrained_atoms>  (187) 
18.0

>  <N_unconstrained_atoms>  (187) 
0.0

>  <runtime>  (187) 
28.22053

>  <LE>  (187) 
0.364762

>  <percent_hybrid>  (187) 
28.0

>  <dist>  (187) 
6.0

>  <ecfp4>  (187) 
0.15942

>  <daylight>  (187) 
0.399083

>  <topodist>  (187) 
4.0

>  <mces>  (187) 
17.0

>  <tdn>  (187) 
2.0

>  <tup>  (187) 
0.0

>  <rdn>  (187) 
1.0

>  <rup>  (187) 
1.0

>  <ldn>  (187) 
0.0

>  <lup>  (187) 
0.0

>  <mut>  (187) 
0.0

>  <maj>  (187) 
0.0

>  <min>  (187) 
0.0

>  <hyb>  (187) 
2.0

>  <sub>  (187) 
3.0

>  <query_index>  (187) 
241.0

>  <max_hit_Tanimoto>  (187) 
0.475728

>  <largest_ring>  (187) 
0

>  <N_interactions_kept>  (187) 
3.0

>  <N_interactions_lost>  (187) 
1.5

>  <interaction_uniqueness_metric>  (187) 
0.053165

>  <ad_hoc_penalty>  (187) 
-24.572962

>  <N_rotatable_bonds>  (187) 
0

>  <N_HA>  (187) 
16

>  <cluster>  (187) 
6025

>  <N_interactions>  (187) 
4

>  <Enamine>  (187) 
1

>  <Mcule>  (187) 
0

>  <N_PAINS>  (187) 
0

>  <UFF_Gibbs>  (187) 
84.211372

>  <strain_per_HA>  (187) 
5.263211

>  <saltbridge:HIS:51>  (187) 
0

>  <pistack:HIS:51>  (187) 
0

>  <hydroph_interaction:HIS:51>  (187) 
0

>  <hbond:ALA:132>  (187) 
0

>  <hbond:SER:135>  (187) 
0

>  <hydroph_interaction:TYR:150>  (187) 
1

>  <pistack:TYR:161>  (187) 
0

>  <hydroph_interaction:TYR:161>  (187) 
2

>  <hydroph_interaction:ASP:83>  (187) 
0

>  <hbond:TYR:130>  (187) 
1

>  <hydroph_interaction:ALA:132>  (187) 
0

>  <hbond:HIS:51>  (187) 
0

>  <hbond:ASP:129>  (187) 
0

>  <hbond:TYR:150>  (187) 
0

>  <hbond:GLY:151>  (187) 
0

>  <hbond:TYR:161>  (187) 
0

>  <hydroph_interaction:TYR:130>  (187) 
0

>  <hydroph_interaction:PRO:131>  (187) 
0

>  <hydroph_interaction:ASP:129>  (187) 
0

>  <saltbridge:ASP:75>  (187) 
0

>  <saltbridge:ASP:83>  (187) 
0

>  <hydroph_interaction:ASN:152>  (187) 
0

>  <halogenbond:TYR:150>  (187) 
0

>  <hbond:ASP:83>  (187) 
0

>  <hydroph_interaction:VAL:155>  (187) 
0

>  <pication:TYR:161>  (187) 
0

>  <hbond:PRO:131>  (187) 
0

>  <hbond:LEU:128>  (187) 
0

>  <saltbridge:ASP:129>  (187) 
0

>  <hbond:THR:134>  (187) 
0

>  <pication:HIS:51>  (187) 
0

>  <hbond:SER:81>  (187) 
0

>  <hbond:GLY:159>  (187) 
0

>  <hydroph_interaction:PRO:101>  (187) 
0

>  <hydroph_interaction:THR:134>  (187) 
0

>  <hbond:GLY:82>  (187) 
0

>  <hydroph_interaction:GLU:104>  (187) 
0

>  <hydroph_interaction:VAL:36>  (187) 
0

>  <hydroph_interaction:MET:49>  (187) 
0

>  <halogenbond:GLU:104>  (187) 
0

>  <hydroph_interaction:LYS:107>  (187) 
0

$$$$
KDXUSFXWLFKAQB-UHFFFAOYSA-N
     RDKit          3D

 45 49  0  0  0  0  0  0  0  0999 V2000
   -6.1800   10.1180  -24.5310 C   0  0  0  0  0  0  0  0  0  0  0  0
   -5.8420    9.6980  -25.8180 N   0  0  0  0  0  0  0  0  0  0  0  0
   -7.0660    9.3490  -26.5520 C   0  0  0  0  0  0  0  0  0  0  0  0
   -8.2090   10.5450  -26.9920 S   0  0  0  0  0  0  0  0  0  0  0  0
   -9.3000    9.3930  -27.6570 C   0  0  0  0  0  0  0  0  0  0  0  0
   -8.6510    8.0380  -27.5420 C   0  0  0  0  0  0  0  0  0  0  0  0
   -9.3880    6.8240  -28.0690 C   0  0  0  0  0  0  0  0  0  0  0  0
  -10.7730    7.0370  -28.6770 C   0  0  0  0  0  0  0  0  0  0  0  0
  -11.2920    8.4780  -28.7030 C   0  0  0  0  0  0  0  0  0  0  0  0
  -10.5710    9.5660  -28.2170 C   0  0  0  0  0  0  0  0  0  0  0  0
   -7.4110    7.9840  -26.9440 N   0  0  0  0  0  0  0  0  0  0  0  0
   -6.7760   11.1680  -24.3190 O   0  0  0  0  0  0  0  0  0  0  0  0
   -5.8020    9.2530  -23.3520 C   0  0  0  0  0  0  0  0  0  0  0  0
   -6.0280    7.7590  -23.4160 C   0  0  0  0  0  0  0  0  0  0  0  0
   -5.6410    6.8860  -22.2030 C   0  0  0  0  0  0  0  0  0  0  0  0
   -5.0410    7.6300  -20.9920 C   0  0  0  0  0  0  0  0  0  0  0  0
   -4.6030    6.8190  -19.7150 C   0  0  0  0  0  0  0  0  0  0  0  0
   -5.6030    5.9930  -19.0080 N   0  0  0  0  0  0  0  0  0  0  0  0
   -6.5600    5.2750  -19.6480 C   0  0  0  0  0  0  0  0  0  0  0  0
   -6.5880    4.7290  -20.9520 O   0  0  0  0  0  0  0  0  0  0  0  0
   -7.5700    5.1510  -18.7160 C   0  0  0  0  0  0  0  0  0  0  0  0
   -7.0910    5.4340  -17.4530 C   0  0  0  0  0  0  0  0  0  0  0  0
   -7.9660    5.3700  -16.2440 C   0  0  0  0  0  0  0  0  0  0  0  0
   -9.4350    4.9790  -16.4870 C   0  0  0  0  0  0  0  0  0  0  0  0
   -9.8770    4.7070  -17.8060 C   0  0  0  0  0  0  0  0  0  0  0  0
   -8.8760    4.8000  -18.9670 C   0  0  0  0  0  0  0  0  0  0  0  0
   -5.7310    5.7580  -17.6280 C   0  0  0  0  0  0  0  0  0  0  0  0
   -4.9190    5.7970  -16.7130 O   0  0  0  0  0  0  0  0  0  0  0  0
   -4.8850    9.0330  -21.0630 C   0  0  0  0  0  0  0  0  0  0  0  0
   -5.2450    9.8070  -22.1810 C   0  0  0  0  0  0  0  0  0  0  0  0
   -5.0120    9.1360  -25.9650 H   0  0  0  0  0  0  0  0  0  0  0  0
   -8.8580    5.8770  -27.9610 H   0  0  0  0  0  0  0  0  0  0  0  0
  -11.3590    6.2090  -29.0680 H   0  0  0  0  0  0  0  0  0  0  0  0
  -12.2780    8.6680  -29.1270 H   0  0  0  0  0  0  0  0  0  0  0  0
  -10.9970   10.5630  -28.2680 H   0  0  0  0  0  0  0  0  0  0  0  0
   -6.4570    7.2790  -24.2920 H   0  0  0  0  0  0  0  0  0  0  0  0
   -5.7890    5.8090  -22.2160 H   0  0  0  0  0  0  0  0  0  0  0  0
   -4.1830    7.5260  -18.9890 H   0  0  0  0  0  0  0  0  0  0  0  0
   -3.7790    6.1600  -20.0090 H   0  0  0  0  0  0  0  0  0  0  0  0
   -7.5840    5.5900  -15.2510 H   0  0  0  0  0  0  0  0  0  0  0  0
  -10.1330    4.9130  -15.6550 H   0  0  0  0  0  0  0  0  0  0  0  0
  -10.9120    4.4350  -17.9950 H   0  0  0  0  0  0  0  0  0  0  0  0
   -9.1940    4.5930  -19.9840 H   0  0  0  0  0  0  0  0  0  0  0  0
   -4.4620    9.5560  -20.2080 H   0  0  0  0  0  0  0  0  0  0  0  0
   -5.0860   10.8840  -22.1350 H   0  0  0  0  0  0  0  0  0  0  0  0
  1  2  1  0
  2  3  1  0
  3  4  1  0
  4  5  1  0
  5  6  2  0
  6  7  1  0
  7  8  2  0
  8  9  1  0
  9 10  2  0
  6 11  1  0
  1 12  2  0
  1 13  1  0
 13 14  2  0
 14 15  1  0
 15 16  2  0
 16 17  1  0
 17 18  1  0
 18 19  1  0
 19 20  2  0
 19 21  1  0
 21 22  2  0
 22 23  1  0
 23 24  2  0
 24 25  1  0
 25 26  2  0
 22 27  1  0
 27 28  2  0
 16 29  1  0
 29 30  2  0
  3 11  2  0
 10  5  1  0
 30 13  1  0
 27 18  1  0
 26 21  1  0
  2 31  1  0
  7 32  1  0
  8 33  1  0
  9 34  1  0
 10 35  1  0
 14 36  1  0
 15 37  1  0
 17 38  1  0
 17 39  1  0
 23 40  1  0
 24 41  1  0
 25 42  1  0
 26 43  1  0
 29 44  1  0
 30 45  1  0
A    1
 C1 
A    2
 N1 
A    3
 C2 
A    4
 S1 
A    5
 C3 
A    6
 C4 
A    7
 C5 
A    8
 C6 
A    9
 C7 
A   10
 C8 
A   11
 N2 
A   12
 O1 
A   13
 C9 
A   14
 C10
A   15
 C11
A   16
 C12
A   17
 C13
A   18
 N3 
A   19
 C14
A   20
 O2 
A   21
 C15
A   22
 C16
A   23
 C17
A   24
 C18
A   25
 C19
A   26
 C20
A   27
 C21
A   28
 O3 
A   29
 C22
A   30
 C23
A   31
 H1 
A   32
 H2 
A   33
 H3 
A   34
 H4 
A   35
 H5 
A   36
 H6 
A   37
 H7 
A   38
 H8 
A   39
 H9 
A   40
 H10
A   41
 H11
A   42
 H12
A   43
 H13
A   44
 H14
A   45
 H15
M  END
>  <ref_pdb>  (188) 
x0051_0B

>  <ref_mols>  (188) 
x0727_0B,x0846_1B

>  <original SMILES>  (188) 
[H]c1c([H])c([H])c2c(c1[H])C(=O)N(C([H])([H])c1c([H])c([H])c(C(=O)N([H])c3nc4c([H])c([H])c([H])c([H])c4s3)c([H])c1[H])C2=O

>  <index>  (188) 
188

>  <∆∆G>  (188) 
-10.156923

>  <∆G_bound>  (188) 
-9.522553

>  <∆G_unbound>  (188) 
0.63437

>  <comRMSD>  (188) 
0.634654

>  <N_constrained_atoms>  (188) 
29.0

>  <N_unconstrained_atoms>  (188) 
2.0

>  <runtime>  (188) 
59.375527

>  <LE>  (188) 
0.327643

>  <percent_hybrid>  (188) 
38.0

>  <dist>  (188) 
10.0

>  <ecfp4>  (188) 
0.153846

>  <daylight>  (188) 
0.25

>  <topodist>  (188) 
6.0

>  <mces>  (188) 
32.0

>  <tdn>  (188) 
2.0

>  <tup>  (188) 
2.0

>  <rdn>  (188) 
0.0

>  <rup>  (188) 
0.0

>  <ldn>  (188) 
2.0

>  <lup>  (188) 
0.0

>  <mut>  (188) 
3.0

>  <maj>  (188) 
3.0

>  <min>  (188) 
0.0

>  <hyb>  (188) 
1.0

>  <sub>  (188) 
2.0

>  <query_index>  (188) 
15.0

>  <max_hit_Tanimoto>  (188) 
0.265222

>  <largest_ring>  (188) 
0

>  <N_interactions_kept>  (188) 
1.0

>  <N_interactions_lost>  (188) 
2.0

>  <interaction_uniqueness_metric>  (188) 
0.143335

>  <ad_hoc_penalty>  (188) 
-24.528742

>  <N_rotatable_bonds>  (188) 
4

>  <N_HA>  (188) 
30

>  <cluster>  (188) 
6048

>  <N_interactions>  (188) 
5

>  <Enamine>  (188) 
0

>  <Mcule>  (188) 
1

>  <N_PAINS>  (188) 
0

>  <UFF_Gibbs>  (188) 
206.218646

>  <strain_per_HA>  (188) 
6.873955

>  <saltbridge:HIS:51>  (188) 
0

>  <pistack:HIS:51>  (188) 
0

>  <hydroph_interaction:HIS:51>  (188) 
0

>  <hbond:ALA:132>  (188) 
0

>  <hbond:SER:135>  (188) 
0

>  <hydroph_interaction:TYR:150>  (188) 
1

>  <pistack:TYR:161>  (188) 
1

>  <hydroph_interaction:TYR:161>  (188) 
0

>  <hydroph_interaction:ASP:83>  (188) 
0

>  <hbond:TYR:130>  (188) 
1

>  <hydroph_interaction:ALA:132>  (188) 
0

>  <hbond:HIS:51>  (188) 
0

>  <hbond:ASP:129>  (188) 
1

>  <hbond:TYR:150>  (188) 
0

>  <hbond:GLY:151>  (188) 
0

>  <hbond:TYR:161>  (188) 
0

>  <hydroph_interaction:TYR:130>  (188) 
1

>  <hydroph_interaction:PRO:131>  (188) 
0

>  <hydroph_interaction:ASP:129>  (188) 
0

>  <saltbridge:ASP:75>  (188) 
0

>  <saltbridge:ASP:83>  (188) 
0

>  <hydroph_interaction:ASN:152>  (188) 
0

>  <halogenbond:TYR:150>  (188) 
0

>  <hbond:ASP:83>  (188) 
0

>  <hydroph_interaction:VAL:155>  (188) 
0

>  <pication:TYR:161>  (188) 
0

>  <hbond:PRO:131>  (188) 
0

>  <hbond:LEU:128>  (188) 
0

>  <saltbridge:ASP:129>  (188) 
0

>  <hbond:THR:134>  (188) 
0

>  <pication:HIS:51>  (188) 
0

>  <hbond:SER:81>  (188) 
0

>  <hbond:GLY:159>  (188) 
0

>  <hydroph_interaction:PRO:101>  (188) 
0

>  <hydroph_interaction:THR:134>  (188) 
0

>  <hbond:GLY:82>  (188) 
0

>  <hydroph_interaction:GLU:104>  (188) 
0

>  <hydroph_interaction:VAL:36>  (188) 
0

>  <hydroph_interaction:MET:49>  (188) 
0

>  <halogenbond:GLU:104>  (188) 
0

>  <hydroph_interaction:LYS:107>  (188) 
0

$$$$
PV-002557391519
     RDKit          3D

 30 31  0  0  0  0  0  0  0  0999 V2000
   -5.9510    5.1620  -20.5760 C   0  0  0  0  0  0  0  0  0  0  0  0
   -5.6130    6.4540  -19.8630 C   0  0  0  0  0  0  0  0  0  0  0  0
   -6.1310    6.5560  -18.4170 C   0  0  0  0  0  0  0  0  0  0  0  0
   -7.4410    5.7830  -18.1750 C   0  0  0  0  0  0  0  0  0  0  0  0
   -7.8590    5.6810  -16.7800 C   0  0  0  0  0  0  0  0  0  0  0  0
   -7.0840    6.2480  -15.6540 C   0  0  0  0  0  0  0  0  0  0  0  0
   -5.5660    6.2470  -15.9440 C   0  0  0  0  0  0  0  0  0  0  0  0
   -5.1190    6.2570  -17.3710 N   0  0  0  0  0  0  0  0  0  0  0  0
   -4.3750    5.0380  -17.6960 C   0  0  0  0  0  0  0  0  0  0  0  0
   -2.9540    5.0270  -17.1270 C   0  0  0  0  0  0  0  0  0  0  0  0
   -9.3320    4.8550  -16.5770 S   0  0  0  0  0  0  0  0  0  0  0  0
   -9.4570    4.5870  -18.2760 C   0  0  0  0  0  0  0  0  0  0  0  0
   -8.4000    5.1220  -19.0140 C   0  0  0  0  0  0  0  0  0  0  0  0
   -6.6050    5.3380  -21.4330 H   0  0  0  0  0  0  0  0  0  0  0  0
   -6.4180    4.4330  -19.9200 H   0  0  0  0  0  0  0  0  0  0  0  0
   -5.0340    4.7100  -20.9660 H   0  0  0  0  0  0  0  0  0  0  0  0
   -6.0650    7.2380  -20.4820 H   0  0  0  0  0  0  0  0  0  0  0  0
   -4.5310    6.6290  -19.8940 H   0  0  0  0  0  0  0  0  0  0  0  0
   -6.3860    7.6040  -18.2980 H   0  0  0  0  0  0  0  0  0  0  0  0
   -7.4080    7.2710  -15.4250 H   0  0  0  0  0  0  0  0  0  0  0  0
   -7.2770    5.6290  -14.7660 H   0  0  0  0  0  0  0  0  0  0  0  0
   -5.1640    7.1320  -15.4350 H   0  0  0  0  0  0  0  0  0  0  0  0
   -5.1150    5.3890  -15.4280 H   0  0  0  0  0  0  0  0  0  0  0  0
   -4.3810    4.8000  -18.7630 H   0  0  0  0  0  0  0  0  0  0  0  0
   -4.8820    4.2410  -17.1700 H   0  0  0  0  0  0  0  0  0  0  0  0
   -2.8600    4.2960  -16.3140 H   0  0  0  0  0  0  0  0  0  0  0  0
   -2.6460    6.0030  -16.7510 H   0  0  0  0  0  0  0  0  0  0  0  0
   -2.2340    4.7320  -17.8970 H   0  0  0  0  0  0  0  0  0  0  0  0
  -10.3170    4.0410  -18.6640 H   0  0  0  0  0  0  0  0  0  0  0  0
   -8.3340    5.0410  -20.0910 H   0  0  0  0  0  0  0  0  0  0  0  0
  1  2  1  0
  2  3  1  0
  3  4  1  0
  4  5  2  0
  5  6  1  0
  6  7  1  0
  7  8  1  0
  8  9  1  0
  9 10  1  0
  5 11  1  0
 11 12  1  0
 12 13  2  0
  8  3  1  0
 13  4  1  0
  1 14  1  0
  1 15  1  0
  1 16  1  0
  2 17  1  0
  2 18  1  0
  3 19  1  0
  6 20  1  0
  6 21  1  0
  7 22  1  0
  7 23  1  0
  9 24  1  0
  9 25  1  0
 10 26  1  0
 10 27  1  0
 10 28  1  0
 12 29  1  0
 13 30  1  0
A    1
 C1 
A    2
 C2 
A    3
 C3 
A    4
 C4 
A    5
 C5 
A    6
 C6 
A    7
 C7 
A    8
 N1 
A    9
 C8 
A   10
 C9 
A   11
 S1 
A   12
 C10
A   13
 C11
A   14
 H1 
A   15
 H2 
A   16
 H3 
A   17
 H4 
A   18
 H5 
A   19
 H6 
A   20
 H7 
A   21
 H8 
A   22
 H9 
A   23
 H10
A   24
 H11
A   25
 H12
A   26
 H13
A   27
 H14
A   28
 H15
A   29
 H16
A   30
 H17
M  END
>  <ref_pdb>  (189) 
x0051_0B

>  <ref_mols>  (189) 
x0472_0B,x0227_0B

>  <original SMILES>  (189) 
[H]c1sc2c(c1[H])C([H])(C([H])([H])C([H])([H])[H])N(C([H])([H])C([H])([H])[H])C([H])([H])C2([H])[H]

>  <index>  (189) 
271

>  <∆∆G>  (189) 
-6.750431

>  <∆G_bound>  (189) 
-7.316189

>  <∆G_unbound>  (189) 
-0.565757

>  <comRMSD>  (189) 
0.936621

>  <N_constrained_atoms>  (189) 
17.0

>  <N_unconstrained_atoms>  (189) 
0.0

>  <runtime>  (189) 
21.324628

>  <LE>  (189) 
0.397084

>  <percent_hybrid>  (189) 
45.0

>  <dist>  (189) 
3.0

>  <ecfp4>  (189) 
0.456522

>  <daylight>  (189) 
0.806202

>  <topodist>  (189) 
2.0

>  <mces>  (189) 
14.0

>  <tdn>  (189) 
2.0

>  <tup>  (189) 
0.0

>  <rdn>  (189) 
0.0

>  <rup>  (189) 
0.0

>  <ldn>  (189) 
0.0

>  <lup>  (189) 
0.0

>  <mut>  (189) 
1.0

>  <maj>  (189) 
1.0

>  <min>  (189) 
0.0

>  <hyb>  (189) 
0.0

>  <sub>  (189) 
1.0

>  <query_index>  (189) 
78.0

>  <max_hit_Tanimoto>  (189) 
0.606993

>  <largest_ring>  (189) 
0

>  <N_interactions_kept>  (189) 
4.5

>  <N_interactions_lost>  (189) 
0.5

>  <interaction_uniqueness_metric>  (189) 
0.049434

>  <ad_hoc_penalty>  (189) 
-24.394147

>  <N_rotatable_bonds>  (189) 
4

>  <N_HA>  (189) 
13

>  <cluster>  (189) 
5969

>  <N_interactions>  (189) 
4

>  <Enamine>  (189) 
1

>  <Mcule>  (189) 
0

>  <N_PAINS>  (189) 
0

>  <UFF_Gibbs>  (189) 
50.086562

>  <strain_per_HA>  (189) 
3.852812

>  <saltbridge:HIS:51>  (189) 
0

>  <pistack:HIS:51>  (189) 
0

>  <hydroph_interaction:HIS:51>  (189) 
0

>  <hbond:ALA:132>  (189) 
0

>  <hbond:SER:135>  (189) 
0

>  <hydroph_interaction:TYR:150>  (189) 
0

>  <pistack:TYR:161>  (189) 
0

>  <hydroph_interaction:TYR:161>  (189) 
3

>  <hydroph_interaction:ASP:83>  (189) 
0

>  <hbond:TYR:130>  (189) 
0

>  <hydroph_interaction:ALA:132>  (189) 
0

>  <hbond:HIS:51>  (189) 
0

>  <hbond:ASP:129>  (189) 
0

>  <hbond:TYR:150>  (189) 
0

>  <hbond:GLY:151>  (189) 
0

>  <hbond:TYR:161>  (189) 
0

>  <hydroph_interaction:TYR:130>  (189) 
0

>  <hydroph_interaction:PRO:131>  (189) 
0

>  <hydroph_interaction:ASP:129>  (189) 
0

>  <saltbridge:ASP:75>  (189) 
0

>  <saltbridge:ASP:83>  (189) 
0

>  <hydroph_interaction:ASN:152>  (189) 
0

>  <halogenbond:TYR:150>  (189) 
0

>  <hbond:ASP:83>  (189) 
0

>  <hydroph_interaction:VAL:155>  (189) 
1

>  <pication:TYR:161>  (189) 
0

>  <hbond:PRO:131>  (189) 
0

>  <hbond:LEU:128>  (189) 
0

>  <saltbridge:ASP:129>  (189) 
0

>  <hbond:THR:134>  (189) 
0

>  <pication:HIS:51>  (189) 
0

>  <hbond:SER:81>  (189) 
0

>  <hbond:GLY:159>  (189) 
0

>  <hydroph_interaction:PRO:101>  (189) 
0

>  <hydroph_interaction:THR:134>  (189) 
0

>  <hbond:GLY:82>  (189) 
0

>  <hydroph_interaction:GLU:104>  (189) 
0

>  <hydroph_interaction:VAL:36>  (189) 
0

>  <hydroph_interaction:MET:49>  (189) 
0

>  <halogenbond:GLU:104>  (189) 
0

>  <hydroph_interaction:LYS:107>  (189) 
0

$$$$
CSSB00005462421
     RDKit          3D

 31 32  0  0  0  0  0  0  0  0999 V2000
   -4.8060    4.9500  -22.2890 O   0  0  0  0  0  0  0  0  0  0  0  0
   -3.7500    5.4070  -21.5690 C   0  0  0  0  0  0  0  0  0  0  0  0
   -2.6050    5.1360  -21.9030 O   0  0  0  0  0  0  0  0  0  0  0  0
   -4.0950    6.3080  -20.3720 C   0  0  0  0  0  0  0  0  0  0  0  0
   -4.4630    7.5460  -20.9000 C   0  0  0  0  0  0  0  0  0  0  0  0
   -5.7010    7.9290  -20.4090 C   0  0  0  0  0  0  0  0  0  0  0  0
   -6.2180    7.0310  -19.4810 C   0  0  0  0  0  0  0  0  0  0  0  0
   -5.1930    5.9810  -19.4000 N   0  0  0  0  0  0  0  0  0  0  0  0
   -4.9250    5.4930  -18.1130 C   0  0  0  0  0  0  0  0  0  0  0  0
   -3.8280    5.0080  -17.8400 O   0  0  0  0  0  0  0  0  0  0  0  0
   -5.9510    5.6130  -17.1980 N   0  0  0  0  0  0  0  0  0  0  0  0
   -7.3250    5.3460  -17.3510 C   0  0  0  0  0  0  0  0  0  0  0  0
   -7.8170    5.0830  -18.6370 C   0  0  0  0  0  0  0  0  0  0  0  0
   -9.1700    4.8120  -18.8440 C   0  0  0  0  0  0  0  0  0  0  0  0
  -10.0440    4.8030  -17.7640 C   0  0  0  0  0  0  0  0  0  0  0  0
   -9.5600    5.0630  -16.4820 C   0  0  0  0  0  0  0  0  0  0  0  0
   -8.2100    5.3320  -16.2800 C   0  0  0  0  0  0  0  0  0  0  0  0
   -4.5530    4.0440  -22.6330 H   0  0  0  0  0  0  0  0  0  0  0  0
   -3.1790    6.4080  -19.7770 H   0  0  0  0  0  0  0  0  0  0  0  0
   -3.7270    8.2790  -20.5570 H   0  0  0  0  0  0  0  0  0  0  0  0
   -4.3990    7.6230  -21.9790 H   0  0  0  0  0  0  0  0  0  0  0  0
   -5.6580    8.9380  -19.9870 H   0  0  0  0  0  0  0  0  0  0  0  0
   -6.3980    7.9790  -21.2560 H   0  0  0  0  0  0  0  0  0  0  0  0
   -7.1420    6.5790  -19.8580 H   0  0  0  0  0  0  0  0  0  0  0  0
   -6.4100    7.4990  -18.5180 H   0  0  0  0  0  0  0  0  0  0  0  0
   -5.6220    5.7020  -16.2420 H   0  0  0  0  0  0  0  0  0  0  0  0
   -7.1550    5.0820  -19.4980 H   0  0  0  0  0  0  0  0  0  0  0  0
   -9.5360    4.6110  -19.8470 H   0  0  0  0  0  0  0  0  0  0  0  0
  -11.0980    4.5940  -17.9230 H   0  0  0  0  0  0  0  0  0  0  0  0
  -10.2360    5.0570  -15.6300 H   0  0  0  0  0  0  0  0  0  0  0  0
   -7.8700    5.5280  -15.2680 H   0  0  0  0  0  0  0  0  0  0  0  0
  1  2  1  0
  2  3  2  0
  2  4  1  0
  4  5  1  0
  5  6  1  0
  6  7  1  0
  7  8  1  0
  8  9  1  0
  9 10  2  0
  9 11  1  0
 11 12  1  0
 12 13  2  0
 13 14  1  0
 14 15  2  0
 15 16  1  0
 16 17  2  0
  8  4  1  0
 17 12  1  0
  1 18  1  0
  4 19  1  0
  5 20  1  0
  5 21  1  0
  6 22  1  0
  6 23  1  0
  7 24  1  0
  7 25  1  0
 11 26  1  0
 13 27  1  0
 14 28  1  0
 15 29  1  0
 16 30  1  0
 17 31  1  0
A    1
 O1 
A    2
 C1 
A    3
 O2 
A    4
 C2 
A    5
 C3 
A    6
 C4 
A    7
 C5 
A    8
 N1 
A    9
 C6 
A   10
 O3 
A   11
 N2 
A   12
 C7 
A   13
 C8 
A   14
 C9 
A   15
 C10
A   16
 C11
A   17
 C12
A   18
 H1 
A   19
 H2 
A   20
 H3 
A   21
 H4 
A   22
 H5 
A   23
 H6 
A   24
 H7 
A   25
 H8 
A   26
 H9 
A   27
 H10
A   28
 H11
A   29
 H12
A   30
 H13
A   31
 H14
M  END
>  <ref_pdb>  (190) 
x0051_0B

>  <ref_mols>  (190) 
x0229_0B,x0904_0B

>  <original SMILES>  (190) 
[H]OC(=O)C1([H])N(C(=O)N([H])c2c([H])c([H])c([H])c([H])c2[H])C([H])([H])C([H])([H])C1([H])[H]

>  <index>  (190) 
95

>  <∆∆G>  (190) 
-7.704705

>  <∆G_bound>  (190) 
-5.922349

>  <∆G_unbound>  (190) 
1.782356

>  <comRMSD>  (190) 
0.749103

>  <N_constrained_atoms>  (190) 
20.0

>  <N_unconstrained_atoms>  (190) 
0.0

>  <runtime>  (190) 
32.097149

>  <LE>  (190) 
0.385235

>  <percent_hybrid>  (190) 
46.0

>  <dist>  (190) 
7.0

>  <ecfp4>  (190) 
0.215385

>  <daylight>  (190) 
0.28

>  <topodist>  (190) 
3.0

>  <mces>  (190) 
18.0

>  <tdn>  (190) 
2.0

>  <tup>  (190) 
0.0

>  <rdn>  (190) 
1.0

>  <rup>  (190) 
0.0

>  <ldn>  (190) 
0.0

>  <lup>  (190) 
0.0

>  <mut>  (190) 
4.0

>  <maj>  (190) 
4.0

>  <min>  (190) 
0.0

>  <hyb>  (190) 
0.0

>  <sub>  (190) 
2.0

>  <query_index>  (190) 
66.0

>  <max_hit_Tanimoto>  (190) 
0.279159

>  <largest_ring>  (190) 
0

>  <N_interactions_kept>  (190) 
2.0

>  <N_interactions_lost>  (190) 
1.5

>  <interaction_uniqueness_metric>  (190) 
0.216948

>  <ad_hoc_penalty>  (190) 
-24.379703

>  <N_rotatable_bonds>  (190) 
2

>  <N_HA>  (190) 
17

>  <cluster>  (190) 
6129

>  <N_interactions>  (190) 
5

>  <Enamine>  (190) 
1

>  <Mcule>  (190) 
0

>  <N_PAINS>  (190) 
0

>  <UFF_Gibbs>  (190) 
192.993128

>  <strain_per_HA>  (190) 
11.352537

>  <saltbridge:HIS:51>  (190) 
0

>  <pistack:HIS:51>  (190) 
0

>  <hydroph_interaction:HIS:51>  (190) 
0

>  <hbond:ALA:132>  (190) 
0

>  <hbond:SER:135>  (190) 
0

>  <hydroph_interaction:TYR:150>  (190) 
1

>  <pistack:TYR:161>  (190) 
0

>  <hydroph_interaction:TYR:161>  (190) 
2

>  <hydroph_interaction:ASP:83>  (190) 
0

>  <hbond:TYR:130>  (190) 
0

>  <hydroph_interaction:ALA:132>  (190) 
0

>  <hbond:HIS:51>  (190) 
0

>  <hbond:ASP:129>  (190) 
1

>  <hbond:TYR:150>  (190) 
0

>  <hbond:GLY:151>  (190) 
0

>  <hbond:TYR:161>  (190) 
0

>  <hydroph_interaction:TYR:130>  (190) 
0

>  <hydroph_interaction:PRO:131>  (190) 
0

>  <hydroph_interaction:ASP:129>  (190) 
0

>  <saltbridge:ASP:75>  (190) 
0

>  <saltbridge:ASP:83>  (190) 
0

>  <hydroph_interaction:ASN:152>  (190) 
0

>  <halogenbond:TYR:150>  (190) 
0

>  <hbond:ASP:83>  (190) 
0

>  <hydroph_interaction:VAL:155>  (190) 
0

>  <pication:TYR:161>  (190) 
0

>  <hbond:PRO:131>  (190) 
0

>  <hbond:LEU:128>  (190) 
0

>  <saltbridge:ASP:129>  (190) 
0

>  <hbond:THR:134>  (190) 
0

>  <pication:HIS:51>  (190) 
0

>  <hbond:SER:81>  (190) 
0

>  <hbond:GLY:159>  (190) 
1

>  <hydroph_interaction:PRO:101>  (190) 
0

>  <hydroph_interaction:THR:134>  (190) 
0

>  <hbond:GLY:82>  (190) 
0

>  <hydroph_interaction:GLU:104>  (190) 
0

>  <hydroph_interaction:VAL:36>  (190) 
0

>  <hydroph_interaction:MET:49>  (190) 
0

>  <halogenbond:GLU:104>  (190) 
0

>  <hydroph_interaction:LYS:107>  (190) 
0

$$$$
Z27666324
     RDKit          3D

 46 50  0  0  0  0  0  0  0  0999 V2000
   -6.7280   11.4890  -24.1070 O   0  0  0  0  0  0  0  0  0  0  0  0
   -6.3280   10.4280  -24.5760 C   0  0  0  0  0  0  0  0  0  0  0  0
   -6.2700   10.1180  -25.9390 N   0  0  0  0  0  0  0  0  0  0  0  0
   -7.3280    9.5280  -26.6070 C   0  0  0  0  0  0  0  0  0  0  0  0
   -7.4210    8.1290  -27.0220 N   0  0  0  0  0  0  0  0  0  0  0  0
   -8.6690    8.0570  -27.5900 C   0  0  0  0  0  0  0  0  0  0  0  0
   -9.3210    6.9650  -28.1440 C   0  0  0  0  0  0  0  0  0  0  0  0
  -10.5990    7.1140  -28.6490 C   0  0  0  0  0  0  0  0  0  0  0  0
  -11.2490    8.4450  -28.5950 C   0  0  0  0  0  0  0  0  0  0  0  0
  -10.5830    9.4870  -28.0580 C   0  0  0  0  0  0  0  0  0  0  0  0
   -9.3360    9.2990  -27.5700 C   0  0  0  0  0  0  0  0  0  0  0  0
   -8.4720   10.1880  -26.9690 N   0  0  0  0  0  0  0  0  0  0  0  0
   -5.8650    9.3560  -23.6440 C   0  0  0  0  0  0  0  0  0  0  0  0
   -6.1840    8.0210  -23.8580 C   0  0  0  0  0  0  0  0  0  0  0  0
   -5.7200    7.0370  -22.9790 C   0  0  0  0  0  0  0  0  0  0  0  0
   -4.9260    7.3550  -21.8640 C   0  0  0  0  0  0  0  0  0  0  0  0
   -4.4420    6.2090  -20.9800 C   0  0  0  0  0  0  0  0  0  0  0  0
   -3.7030    5.1940  -21.5090 O   0  0  0  0  0  0  0  0  0  0  0  0
   -4.7540    6.2510  -19.6420 N   0  0  0  0  0  0  0  0  0  0  0  0
   -5.9660    5.8620  -19.1290 C   0  0  0  0  0  0  0  0  0  0  0  0
   -6.1920    5.7540  -17.8470 N   0  0  0  0  0  0  0  0  0  0  0  0
   -7.5000    5.3800  -17.7670 C   0  0  0  0  0  0  0  0  0  0  0  0
   -8.2800    5.1370  -16.6540 C   0  0  0  0  0  0  0  0  0  0  0  0
   -9.5680    4.7860  -16.8190 C   0  0  0  0  0  0  0  0  0  0  0  0
  -10.1390    4.6530  -18.1560 C   0  0  0  0  0  0  0  0  0  0  0  0
   -9.3920    4.8780  -19.2430 C   0  0  0  0  0  0  0  0  0  0  0  0
   -8.0510    5.2510  -19.0340 C   0  0  0  0  0  0  0  0  0  0  0  0
   -7.0810    5.5490  -19.8760 N   0  0  0  0  0  0  0  0  0  0  0  0
   -4.6150    8.7100  -21.6400 C   0  0  0  0  0  0  0  0  0  0  0  0
   -5.0800    9.7030  -22.5220 C   0  0  0  0  0  0  0  0  0  0  0  0
   -5.6640   10.6690  -26.5400 H   0  0  0  0  0  0  0  0  0  0  0  0
   -8.8120    6.0080  -28.1650 H   0  0  0  0  0  0  0  0  0  0  0  0
  -11.1430    6.2800  -29.0840 H   0  0  0  0  0  0  0  0  0  0  0  0
  -12.2540    8.5590  -28.9910 H   0  0  0  0  0  0  0  0  0  0  0  0
  -11.0480   10.4620  -28.0150 H   0  0  0  0  0  0  0  0  0  0  0  0
   -8.6610   11.1620  -26.8090 H   0  0  0  0  0  0  0  0  0  0  0  0
   -6.7950    7.7430  -24.7160 H   0  0  0  0  0  0  0  0  0  0  0  0
   -5.9930    6.0110  -23.1900 H   0  0  0  0  0  0  0  0  0  0  0  0
   -4.0910    6.5520  -18.9430 H   0  0  0  0  0  0  0  0  0  0  0  0
   -7.8500    5.2360  -15.6630 H   0  0  0  0  0  0  0  0  0  0  0  0
  -10.1860    4.6000  -15.9450 H   0  0  0  0  0  0  0  0  0  0  0  0
  -11.1810    4.3700  -18.2740 H   0  0  0  0  0  0  0  0  0  0  0  0
   -9.7990    4.7850  -20.2410 H   0  0  0  0  0  0  0  0  0  0  0  0
   -7.1190    5.5660  -20.8910 H   0  0  0  0  0  0  0  0  0  0  0  0
   -4.0080    9.0170  -20.7930 H   0  0  0  0  0  0  0  0  0  0  0  0
   -4.8250   10.7470  -22.3410 H   0  0  0  0  0  0  0  0  0  0  0  0
  1  2  2  0
  2  3  1  0
  3  4  1  0
  4  5  2  0
  5  6  1  0
  6  7  2  0
  7  8  1  0
  8  9  2  0
  9 10  1  0
 10 11  2  0
 11 12  1  0
  2 13  1  0
 13 14  2  0
 14 15  1  0
 15 16  2  0
 16 17  1  0
 17 18  2  0
 17 19  1  0
 19 20  1  0
 20 21  2  0
 21 22  1  0
 22 23  2  0
 23 24  1  0
 24 25  2  0
 25 26  1  0
 26 27  2  0
 27 28  1  0
 16 29  1  0
 29 30  2  0
 12  4  1  0
 11  6  1  0
 30 13  1  0
 28 20  1  0
 27 22  1  0
  3 31  1  0
  7 32  1  0
  8 33  1  0
  9 34  1  0
 10 35  1  0
 12 36  1  0
 14 37  1  0
 15 38  1  0
 19 39  1  0
 23 40  1  0
 24 41  1  0
 25 42  1  0
 26 43  1  0
 28 44  1  0
 29 45  1  0
 30 46  1  0
A    1
 O1 
A    2
 C1 
A    3
 N1 
A    4
 C2 
A    5
 N2 
A    6
 C3 
A    7
 C4 
A    8
 C5 
A    9
 C6 
A   10
 C7 
A   11
 C8 
A   12
 N3 
A   13
 C9 
A   14
 C10
A   15
 C11
A   16
 C12
A   17
 C13
A   18
 O2 
A   19
 N4 
A   20
 C14
A   21
 N5 
A   22
 C15
A   23
 C16
A   24
 C17
A   25
 C18
A   26
 C19
A   27
 C20
A   28
 N6 
A   29
 C21
A   30
 C22
A   31
 H1 
A   32
 H2 
A   33
 H3 
A   34
 H4 
A   35
 H5 
A   36
 H6 
A   37
 H7 
A   38
 H8 
A   39
 H9 
A   40
 H10
A   41
 H11
A   42
 H12
A   43
 H13
A   44
 H14
A   45
 H15
A   46
 H16
M  END
>  <ref_pdb>  (191) 
x0051_0B

>  <ref_mols>  (191) 
x0846_1B,x0490_0B

>  <original SMILES>  (191) 
[H]c1c([H])c(C(=O)N([H])c2nc3c([H])c([H])c([H])c([H])c3n2[H])c([H])c([H])c1C(=O)N([H])c1nc2c([H])c([H])c([H])c([H])c2n1[H]

>  <index>  (191) 
426

>  <∆∆G>  (191) 
-8.768263

>  <∆G_bound>  (191) 
-7.721695

>  <∆G_unbound>  (191) 
1.046569

>  <comRMSD>  (191) 
0.379557

>  <N_constrained_atoms>  (191) 
27.0

>  <N_unconstrained_atoms>  (191) 
4.0

>  <runtime>  (191) 
78.929773

>  <LE>  (191) 
0.282847

>  <percent_hybrid>  (191) 
34.0

>  <dist>  (191) 
8.0

>  <ecfp4>  (191) 
0.279412

>  <daylight>  (191) 
0.428571

>  <topodist>  (191) 
5.0

>  <mces>  (191) 
32.0

>  <tdn>  (191) 
3.0

>  <tup>  (191) 
2.0

>  <rdn>  (191) 
0.0

>  <rup>  (191) 
0.0

>  <ldn>  (191) 
0.0

>  <lup>  (191) 
0.0

>  <mut>  (191) 
2.0

>  <maj>  (191) 
2.0

>  <min>  (191) 
0.0

>  <hyb>  (191) 
1.0

>  <sub>  (191) 
2.0

>  <query_index>  (191) 
51.0

>  <max_hit_Tanimoto>  (191) 
0.648221

>  <largest_ring>  (191) 
0

>  <N_interactions_kept>  (191) 
0.5

>  <N_interactions_lost>  (191) 
2.5

>  <interaction_uniqueness_metric>  (191) 
0.17823

>  <ad_hoc_penalty>  (191) 
-24.342967

>  <N_rotatable_bonds>  (191) 
4

>  <N_HA>  (191) 
30

>  <cluster>  (191) 
5832

>  <N_interactions>  (191) 
6

>  <Enamine>  (191) 
1

>  <Mcule>  (191) 
0

>  <N_PAINS>  (191) 
0

>  <UFF_Gibbs>  (191) 
77.239153

>  <strain_per_HA>  (191) 
2.574638

>  <saltbridge:HIS:51>  (191) 
0

>  <pistack:HIS:51>  (191) 
0

>  <hydroph_interaction:HIS:51>  (191) 
0

>  <hbond:ALA:132>  (191) 
0

>  <hbond:SER:135>  (191) 
0

>  <hydroph_interaction:TYR:150>  (191) 
1

>  <pistack:TYR:161>  (191) 
2

>  <hydroph_interaction:TYR:161>  (191) 
0

>  <hydroph_interaction:ASP:83>  (191) 
0

>  <hbond:TYR:130>  (191) 
0

>  <hydroph_interaction:ALA:132>  (191) 
0

>  <hbond:HIS:51>  (191) 
0

>  <hbond:ASP:129>  (191) 
1

>  <hbond:TYR:150>  (191) 
0

>  <hbond:GLY:151>  (191) 
0

>  <hbond:TYR:161>  (191) 
0

>  <hydroph_interaction:TYR:130>  (191) 
1

>  <hydroph_interaction:PRO:131>  (191) 
1

>  <hydroph_interaction:ASP:129>  (191) 
0

>  <saltbridge:ASP:75>  (191) 
0

>  <saltbridge:ASP:83>  (191) 
0

>  <hydroph_interaction:ASN:152>  (191) 
0

>  <halogenbond:TYR:150>  (191) 
0

>  <hbond:ASP:83>  (191) 
0

>  <hydroph_interaction:VAL:155>  (191) 
0

>  <pication:TYR:161>  (191) 
0

>  <hbond:PRO:131>  (191) 
0

>  <hbond:LEU:128>  (191) 
0

>  <saltbridge:ASP:129>  (191) 
0

>  <hbond:THR:134>  (191) 
0

>  <pication:HIS:51>  (191) 
0

>  <hbond:SER:81>  (191) 
0

>  <hbond:GLY:159>  (191) 
0

>  <hydroph_interaction:PRO:101>  (191) 
0

>  <hydroph_interaction:THR:134>  (191) 
0

>  <hbond:GLY:82>  (191) 
0

>  <hydroph_interaction:GLU:104>  (191) 
0

>  <hydroph_interaction:VAL:36>  (191) 
0

>  <hydroph_interaction:MET:49>  (191) 
0

>  <halogenbond:GLU:104>  (191) 
0

>  <hydroph_interaction:LYS:107>  (191) 
0

$$$$
MCULE-9695114587
     RDKit          3D

 31 32  0  0  0  0  0  0  0  0999 V2000
   -5.9090    5.6830  -19.2600 C   0  0  0  0  0  0  0  0  0  0  0  0
   -4.4380    5.9490  -20.1100 S   0  0  0  0  0  0  0  0  0  0  0  0
   -7.0170    5.3830  -19.9040 N   0  0  0  0  0  0  0  0  0  0  0  0
   -7.9880    5.2290  -18.9640 C   0  0  0  0  0  0  0  0  0  0  0  0
   -7.3520    5.4740  -17.6030 C   0  0  0  0  0  0  0  0  0  0  0  0
   -8.2380    5.3540  -16.3690 C   0  0  0  0  0  0  0  0  0  0  0  0
   -9.6720    4.9960  -16.6830 C   0  0  0  0  0  0  0  0  0  0  0  0
  -10.1860    4.7800  -18.0870 C   0  0  0  0  0  0  0  0  0  0  0  0
   -9.3310    4.9030  -19.1690 C   0  0  0  0  0  0  0  0  0  0  0  0
   -6.0410    5.7600  -17.8730 N   0  0  0  0  0  0  0  0  0  0  0  0
   -5.0480    6.0740  -16.8560 C   0  0  0  0  0  0  0  0  0  0  0  0
   -3.8190    5.2170  -16.6830 C   0  0  0  0  0  0  0  0  0  0  0  0
   -3.4910    4.5520  -18.0090 C   0  0  0  0  0  0  0  0  0  0  0  0
   -2.5890    6.0410  -16.2880 C   0  0  0  0  0  0  0  0  0  0  0  0
   -4.0190    4.1360  -15.6160 C   0  0  0  0  0  0  0  0  0  0  0  0
   -4.6810    5.0460  -21.0780 H   0  0  0  0  0  0  0  0  0  0  0  0
   -7.8910    5.5070  -15.3510 H   0  0  0  0  0  0  0  0  0  0  0  0
  -10.3610    4.8910  -15.8500 H   0  0  0  0  0  0  0  0  0  0  0  0
  -11.2280    4.5270  -18.2560 H   0  0  0  0  0  0  0  0  0  0  0  0
   -9.6850    4.7500  -20.1840 H   0  0  0  0  0  0  0  0  0  0  0  0
   -4.7420    7.1130  -17.0240 H   0  0  0  0  0  0  0  0  0  0  0  0
   -5.5940    6.1010  -15.9040 H   0  0  0  0  0  0  0  0  0  0  0  0
   -4.3920    4.4700  -18.6140 H   0  0  0  0  0  0  0  0  0  0  0  0
   -2.7500    5.1210  -18.5810 H   0  0  0  0  0  0  0  0  0  0  0  0
   -3.0950    3.5510  -17.8550 H   0  0  0  0  0  0  0  0  0  0  0  0
   -1.7510    5.3890  -16.0150 H   0  0  0  0  0  0  0  0  0  0  0  0
   -2.7930    6.6810  -15.4240 H   0  0  0  0  0  0  0  0  0  0  0  0
   -2.2550    6.6680  -17.1110 H   0  0  0  0  0  0  0  0  0  0  0  0
   -3.6400    4.4570  -14.6500 H   0  0  0  0  0  0  0  0  0  0  0  0
   -5.0770    3.8810  -15.5020 H   0  0  0  0  0  0  0  0  0  0  0  0
   -3.4800    3.2180  -15.8770 H   0  0  0  0  0  0  0  0  0  0  0  0
  1  2  1  0
  1  3  2  0
  3  4  1  0
  4  5  2  0
  5  6  1  0
  6  7  2  0
  7  8  1  0
  8  9  2  0
  5 10  1  0
 10 11  1  0
 11 12  1  0
 12 13  1  0
 12 14  1  0
 12 15  1  0
 10  1  1  0
  9  4  1  0
  2 16  1  0
  6 17  1  0
  7 18  1  0
  8 19  1  0
  9 20  1  0
 11 21  1  0
 11 22  1  0
 13 23  1  0
 13 24  1  0
 13 25  1  0
 14 26  1  0
 14 27  1  0
 14 28  1  0
 15 29  1  0
 15 30  1  0
 15 31  1  0
A    1
 C1 
A    2
 S1 
A    3
 N1 
A    4
 C2 
A    5
 C3 
A    6
 C4 
A    7
 C5 
A    8
 C6 
A    9
 C7 
A   10
 N2 
A   11
 C8 
A   12
 C9 
A   13
 C10
A   14
 C11
A   15
 C12
A   16
 H1 
A   17
 H2 
A   18
 H3 
A   19
 H4 
A   20
 H5 
A   21
 H6 
A   22
 H7 
A   23
 H8 
A   24
 H9 
A   25
 H10
A   26
 H11
A   27
 H12
A   28
 H13
A   29
 H14
A   30
 H15
A   31
 H16
M  END
>  <ref_pdb>  (192) 
x0051_0B

>  <ref_mols>  (192) 
x0490_0B,x0089_0B

>  <original SMILES>  (192) 
[H]Sc1nc2c([H])c([H])c([H])c([H])c2n1C([H])([H])C(C([H])([H])[H])(C([H])([H])[H])C([H])([H])[H]

>  <index>  (192) 
116

>  <∆∆G>  (192) 
-7.029572

>  <∆G_bound>  (192) 
-8.243684

>  <∆G_unbound>  (192) 
-1.214112

>  <comRMSD>  (192) 
0.949174

>  <N_constrained_atoms>  (192) 
15.0

>  <N_unconstrained_atoms>  (192) 
3.0

>  <runtime>  (192) 
21.390141

>  <LE>  (192) 
0.390532

>  <percent_hybrid>  (192) 
34.0

>  <dist>  (192) 
3.0

>  <ecfp4>  (192) 
0.488372

>  <daylight>  (192) 
0.57265

>  <topodist>  (192) 
2.0

>  <mces>  (192) 
15.0

>  <tdn>  (192) 
0.0

>  <tup>  (192) 
1.0

>  <rdn>  (192) 
1.0

>  <rup>  (192) 
0.0

>  <ldn>  (192) 
0.0

>  <lup>  (192) 
0.0

>  <mut>  (192) 
1.0

>  <maj>  (192) 
1.0

>  <min>  (192) 
0.0

>  <hyb>  (192) 
0.0

>  <sub>  (192) 
0.0

>  <query_index>  (192) 
184.0

>  <max_hit_Tanimoto>  (192) 
0.626

>  <largest_ring>  (192) 
0

>  <N_interactions_kept>  (192) 
2.0

>  <N_interactions_lost>  (192) 
2.0

>  <interaction_uniqueness_metric>  (192) 
0.091834

>  <ad_hoc_penalty>  (192) 
-24.24899

>  <N_rotatable_bonds>  (192) 
2

>  <N_HA>  (192) 
15

>  <cluster>  (192) 
6110

>  <N_interactions>  (192) 
7

>  <Enamine>  (192) 
0

>  <Mcule>  (192) 
1

>  <N_PAINS>  (192) 
0

>  <UFF_Gibbs>  (192) 
147.036155

>  <strain_per_HA>  (192) 
9.80241

>  <saltbridge:HIS:51>  (192) 
0

>  <pistack:HIS:51>  (192) 
0

>  <hydroph_interaction:HIS:51>  (192) 
0

>  <hbond:ALA:132>  (192) 
0

>  <hbond:SER:135>  (192) 
0

>  <hydroph_interaction:TYR:150>  (192) 
1

>  <pistack:TYR:161>  (192) 
0

>  <hydroph_interaction:TYR:161>  (192) 
4

>  <hydroph_interaction:ASP:83>  (192) 
0

>  <hbond:TYR:130>  (192) 
1

>  <hydroph_interaction:ALA:132>  (192) 
0

>  <hbond:HIS:51>  (192) 
0

>  <hbond:ASP:129>  (192) 
0

>  <hbond:TYR:150>  (192) 
0

>  <hbond:GLY:151>  (192) 
0

>  <hbond:TYR:161>  (192) 
0

>  <hydroph_interaction:TYR:130>  (192) 
0

>  <hydroph_interaction:PRO:131>  (192) 
0

>  <hydroph_interaction:ASP:129>  (192) 
0

>  <saltbridge:ASP:75>  (192) 
0

>  <saltbridge:ASP:83>  (192) 
0

>  <hydroph_interaction:ASN:152>  (192) 
0

>  <halogenbond:TYR:150>  (192) 
0

>  <hbond:ASP:83>  (192) 
0

>  <hydroph_interaction:VAL:155>  (192) 
1

>  <pication:TYR:161>  (192) 
0

>  <hbond:PRO:131>  (192) 
0

>  <hbond:LEU:128>  (192) 
0

>  <saltbridge:ASP:129>  (192) 
0

>  <hbond:THR:134>  (192) 
0

>  <pication:HIS:51>  (192) 
0

>  <hbond:SER:81>  (192) 
0

>  <hbond:GLY:159>  (192) 
0

>  <hydroph_interaction:PRO:101>  (192) 
0

>  <hydroph_interaction:THR:134>  (192) 
0

>  <hbond:GLY:82>  (192) 
0

>  <hydroph_interaction:GLU:104>  (192) 
0

>  <hydroph_interaction:VAL:36>  (192) 
0

>  <hydroph_interaction:MET:49>  (192) 
0

>  <halogenbond:GLU:104>  (192) 
0

>  <hydroph_interaction:LYS:107>  (192) 
0

$$$$
AZDXECMPUOCIKL-UHFFFAOYSA-N
     RDKit          3D

 36 39  0  0  0  0  0  0  0  0999 V2000
   -8.7660    5.7990  -12.8130 C   0  0  0  0  0  0  0  0  0  0  0  0
   -7.8750    5.2090  -13.7460 N   0  0  0  0  0  0  0  0  0  0  0  0
   -8.2270    5.1420  -15.2370 C   0  0  0  0  0  0  0  0  0  0  0  0
   -7.1330    5.2520  -16.3990 C   0  0  0  0  0  0  0  0  0  0  0  0
   -7.5150    5.1690  -17.8910 C   0  0  0  0  0  0  0  0  0  0  0  0
   -6.3050    5.3080  -18.5350 C   0  0  0  0  0  0  0  0  0  0  0  0
   -5.2440    5.4590  -17.7190 N   0  0  0  0  0  0  0  0  0  0  0  0
   -5.7630    5.4210  -16.4430 N   0  0  0  0  0  0  0  0  0  0  0  0
   -8.8190    4.9890  -18.2950 C   0  0  0  0  0  0  0  0  0  0  0  0
   -9.8550    4.8930  -17.1890 C   0  0  0  0  0  0  0  0  0  0  0  0
   -9.5180    4.9740  -15.8250 C   0  0  0  0  0  0  0  0  0  0  0  0
   -9.7430    6.6530  -13.2420 O   0  0  0  0  0  0  0  0  0  0  0  0
   -8.7640    5.6560  -11.3340 C   0  0  0  0  0  0  0  0  0  0  0  0
   -8.8690    4.4230  -10.4320 C   0  0  0  0  0  0  0  0  0  0  0  0
   -8.8450    4.9170   -9.1290 N   0  0  0  0  0  0  0  0  0  0  0  0
   -8.9350    4.1370   -7.8890 C   0  0  0  0  0  0  0  0  0  0  0  0
   -9.2980    2.7370   -8.1720 C   0  0  0  0  0  0  0  0  0  0  0  0
   -8.5450    2.2260   -9.3760 C   0  0  0  0  0  0  0  0  0  0  0  0
   -8.9880    2.9530  -10.6470 C   0  0  0  0  0  0  0  0  0  0  0  0
   -8.7300    6.2470   -9.0570 N   0  0  0  0  0  0  0  0  0  0  0  0
   -8.6860    6.6770  -10.3320 C   0  0  0  0  0  0  0  0  0  0  0  0
   -6.8870    5.2690  -13.5290 H   0  0  0  0  0  0  0  0  0  0  0  0
   -6.1310    5.3030  -19.6030 H   0  0  0  0  0  0  0  0  0  0  0  0
   -5.1190    5.5180  -15.6700 H   0  0  0  0  0  0  0  0  0  0  0  0
   -9.0930    4.9230  -19.3450 H   0  0  0  0  0  0  0  0  0  0  0  0
  -10.8900    4.7560  -17.4770 H   0  0  0  0  0  0  0  0  0  0  0  0
  -10.4140    4.8810  -15.2040 H   0  0  0  0  0  0  0  0  0  0  0  0
   -7.9680    4.1850   -7.3820 H   0  0  0  0  0  0  0  0  0  0  0  0
   -9.6920    4.6190   -7.2620 H   0  0  0  0  0  0  0  0  0  0  0  0
  -10.3560    2.7520   -8.4580 H   0  0  0  0  0  0  0  0  0  0  0  0
   -9.2850    2.0730   -7.3090 H   0  0  0  0  0  0  0  0  0  0  0  0
   -8.6700    1.1610   -9.4850 H   0  0  0  0  0  0  0  0  0  0  0  0
   -7.4770    2.4020   -9.2180 H   0  0  0  0  0  0  0  0  0  0  0  0
   -8.3690    2.6200  -11.4870 H   0  0  0  0  0  0  0  0  0  0  0  0
  -10.0250    2.6960  -10.8740 H   0  0  0  0  0  0  0  0  0  0  0  0
   -8.6000    7.7450  -10.4780 H   0  0  0  0  0  0  0  0  0  0  0  0
  1  2  1  0
  2  3  1  0
  3  4  1  0
  4  5  2  0
  5  6  1  0
  6  7  2  0
  7  8  1  0
  5  9  1  0
  9 10  2  0
 10 11  1  0
  1 12  2  0
  1 13  1  0
 13 14  2  0
 14 15  1  0
 15 16  1  0
 16 17  1  0
 17 18  1  0
 18 19  1  0
 15 20  1  0
 20 21  2  0
  3 11  2  0
  8  4  1  0
 21 13  1  0
 19 14  1  0
  2 22  1  0
  6 23  1  0
  8 24  1  0
  9 25  1  0
 10 26  1  0
 11 27  1  0
 16 28  1  0
 16 29  1  0
 17 30  1  0
 17 31  1  0
 18 32  1  0
 18 33  1  0
 19 34  1  0
 19 35  1  0
 21 36  1  0
A    1
 C1 
A    2
 N1 
A    3
 C2 
A    4
 C3 
A    5
 C4 
A    6
 C5 
A    7
 N2 
A    8
 N3 
A    9
 C6 
A   10
 C7 
A   11
 C8 
A   12
 O1 
A   13
 C9 
A   14
 C10
A   15
 N4 
A   16
 C11
A   17
 C12
A   18
 C13
A   19
 C14
A   20
 N5 
A   21
 C15
A   22
 H1 
A   23
 H2 
A   24
 H3 
A   25
 H4 
A   26
 H5 
A   27
 H6 
A   28
 H7 
A   29
 H8 
A   30
 H9 
A   31
 H10
A   32
 H11
A   33
 H12
A   34
 H13
A   35
 H14
A   36
 H15
M  END
>  <ref_pdb>  (193) 
x0051_0B

>  <ref_mols>  (193) 
x0435_0B,x0969_1B

>  <original SMILES>  (193) 
[H]c1nn2c(c1C(=O)N([H])c1c([H])c([H])c([H])c3c([H])nn([H])c13)C([H])([H])C([H])([H])C([H])([H])C2([H])[H]

>  <index>  (193) 
235

>  <∆∆G>  (193) 
-6.640153

>  <∆G_bound>  (193) 
-6.124794

>  <∆G_unbound>  (193) 
0.515359

>  <comRMSD>  (193) 
0.718397

>  <N_constrained_atoms>  (193) 
20.0

>  <N_unconstrained_atoms>  (193) 
2.0

>  <runtime>  (193) 
45.930848

>  <LE>  (193) 
0.301825

>  <percent_hybrid>  (193) 
50.0

>  <dist>  (193) 
8.0

>  <ecfp4>  (193) 
0.162791

>  <daylight>  (193) 
0.264535

>  <topodist>  (193) 
3.0

>  <mces>  (193) 
23.0

>  <tdn>  (193) 
1.0

>  <tup>  (193) 
1.0

>  <rdn>  (193) 
0.0

>  <rup>  (193) 
0.0

>  <ldn>  (193) 
1.0

>  <lup>  (193) 
0.0

>  <mut>  (193) 
3.0

>  <maj>  (193) 
3.0

>  <min>  (193) 
0.0

>  <hyb>  (193) 
2.0

>  <sub>  (193) 
1.0

>  <query_index>  (193) 
311.0

>  <max_hit_Tanimoto>  (193) 
0.312445

>  <largest_ring>  (193) 
0

>  <N_interactions_kept>  (193) 
2.5

>  <N_interactions_lost>  (193) 
1.0

>  <interaction_uniqueness_metric>  (193) 
0.135106

>  <ad_hoc_penalty>  (193) 
-24.208649

>  <N_rotatable_bonds>  (193) 
2

>  <N_HA>  (193) 
21

>  <cluster>  (193) 
6005

>  <N_interactions>  (193) 
4

>  <Enamine>  (193) 
0

>  <Mcule>  (193) 
1

>  <N_PAINS>  (193) 
0

>  <UFF_Gibbs>  (193) 
120.253908

>  <strain_per_HA>  (193) 
5.726377

>  <saltbridge:HIS:51>  (193) 
0

>  <pistack:HIS:51>  (193) 
1

>  <hydroph_interaction:HIS:51>  (193) 
0

>  <hbond:ALA:132>  (193) 
0

>  <hbond:SER:135>  (193) 
0

>  <hydroph_interaction:TYR:150>  (193) 
0

>  <pistack:TYR:161>  (193) 
1

>  <hydroph_interaction:TYR:161>  (193) 
1

>  <hydroph_interaction:ASP:83>  (193) 
1

>  <hbond:TYR:130>  (193) 
0

>  <hydroph_interaction:ALA:132>  (193) 
0

>  <hbond:HIS:51>  (193) 
0

>  <hbond:ASP:129>  (193) 
0

>  <hbond:TYR:150>  (193) 
0

>  <hbond:GLY:151>  (193) 
0

>  <hbond:TYR:161>  (193) 
0

>  <hydroph_interaction:TYR:130>  (193) 
0

>  <hydroph_interaction:PRO:131>  (193) 
0

>  <hydroph_interaction:ASP:129>  (193) 
0

>  <saltbridge:ASP:75>  (193) 
0

>  <saltbridge:ASP:83>  (193) 
0

>  <hydroph_interaction:ASN:152>  (193) 
0

>  <halogenbond:TYR:150>  (193) 
0

>  <hbond:ASP:83>  (193) 
0

>  <hydroph_interaction:VAL:155>  (193) 
0

>  <pication:TYR:161>  (193) 
0

>  <hbond:PRO:131>  (193) 
0

>  <hbond:LEU:128>  (193) 
0

>  <saltbridge:ASP:129>  (193) 
0

>  <hbond:THR:134>  (193) 
0

>  <pication:HIS:51>  (193) 
0

>  <hbond:SER:81>  (193) 
0

>  <hbond:GLY:159>  (193) 
0

>  <hydroph_interaction:PRO:101>  (193) 
0

>  <hydroph_interaction:THR:134>  (193) 
0

>  <hbond:GLY:82>  (193) 
0

>  <hydroph_interaction:GLU:104>  (193) 
0

>  <hydroph_interaction:VAL:36>  (193) 
0

>  <hydroph_interaction:MET:49>  (193) 
0

>  <halogenbond:GLU:104>  (193) 
0

>  <hydroph_interaction:LYS:107>  (193) 
0

$$$$
nan
     RDKit          3D

 53 55  0  0  0  0  0  0  0  0999 V2000
   -5.2970    7.2860  -20.6920 C   0  0  0  0  0  0  0  0  0  0  0  0
   -5.0640    5.7730  -20.6650 C   0  0  0  0  0  0  0  0  0  0  0  0
   -3.5630    5.4790  -20.5080 C   0  0  0  0  0  0  0  0  0  0  0  0
   -5.5380    5.1170  -21.9640 C   0  0  0  0  0  0  0  0  0  0  0  0
   -5.6680    5.1430  -19.5020 O   0  0  0  0  0  0  0  0  0  0  0  0
   -5.7370    5.7340  -18.2790 C   0  0  0  0  0  0  0  0  0  0  0  0
   -4.8820    6.4010  -17.7370 O   0  0  0  0  0  0  0  0  0  0  0  0
   -7.0690    5.4120  -17.7060 C   0  0  0  0  0  0  0  0  0  0  0  0
   -8.0140    4.9640  -18.6500 C   0  0  0  0  0  0  0  0  0  0  0  0
   -9.2950    4.6210  -18.2620 C   0  0  0  0  0  0  0  0  0  0  0  0
   -9.6520    4.7200  -16.9340 C   0  0  0  0  0  0  0  0  0  0  0  0
   -8.7460    5.1620  -15.9800 C   0  0  0  0  0  0  0  0  0  0  0  0
   -7.4410    5.5190  -16.3260 C   0  0  0  0  0  0  0  0  0  0  0  0
   -6.5690    5.9850  -15.1540 C   0  0  0  0  0  0  0  0  0  0  0  0
   -7.3170    6.6610  -13.9920 C   0  0  0  0  0  0  0  0  0  0  0  0
   -7.8430    7.7620  -14.1210 O   0  0  0  0  0  0  0  0  0  0  0  0
   -7.3460    5.9480  -12.8110 O   0  0  0  0  0  0  0  0  0  0  0  0
   -8.6700    5.6660  -12.2890 C   0  0  0  0  0  0  0  0  0  0  0  0
   -8.7410    5.6380  -10.7800 C   0  0  0  0  0  0  0  0  0  0  0  0
   -8.8770    4.5470   -9.9330 C   0  0  0  0  0  0  0  0  0  0  0  0
   -8.9890    3.1010  -10.2110 C   0  0  0  0  0  0  0  0  0  0  0  0
   -9.4460    2.2460   -9.0290 C   0  0  0  0  0  0  0  0  0  0  0  0
   -9.6050    2.8650   -7.6380 C   0  0  0  0  0  0  0  0  0  0  0  0
   -9.0250    4.2620   -7.4480 C   0  0  0  0  0  0  0  0  0  0  0  0
   -8.8980    5.0380   -8.6610 N   0  0  0  0  0  0  0  0  0  0  0  0
   -8.7840    6.3710   -8.6000 N   0  0  0  0  0  0  0  0  0  0  0  0
   -8.6900    6.7370   -9.8830 C   0  0  0  0  0  0  0  0  0  0  0  0
   -6.2650    7.5580  -20.2560 H   0  0  0  0  0  0  0  0  0  0  0  0
   -5.3100    7.6600  -21.7240 H   0  0  0  0  0  0  0  0  0  0  0  0
   -4.5200    7.8230  -20.1350 H   0  0  0  0  0  0  0  0  0  0  0  0
   -2.9680    6.3850  -20.6800 H   0  0  0  0  0  0  0  0  0  0  0  0
   -3.3220    5.0910  -19.5140 H   0  0  0  0  0  0  0  0  0  0  0  0
   -3.2290    4.7480  -21.2540 H   0  0  0  0  0  0  0  0  0  0  0  0
   -4.6930    4.7270  -22.5370 H   0  0  0  0  0  0  0  0  0  0  0  0
   -6.0740    5.8180  -22.6080 H   0  0  0  0  0  0  0  0  0  0  0  0
   -6.2260    4.2910  -21.7580 H   0  0  0  0  0  0  0  0  0  0  0  0
   -7.7460    4.8790  -19.7020 H   0  0  0  0  0  0  0  0  0  0  0  0
  -10.0120    4.2750  -19.0030 H   0  0  0  0  0  0  0  0  0  0  0  0
  -10.6460    4.4510  -16.6270 H   0  0  0  0  0  0  0  0  0  0  0  0
   -9.0770    5.2240  -14.9450 H   0  0  0  0  0  0  0  0  0  0  0  0
   -5.7930    6.6660  -15.5230 H   0  0  0  0  0  0  0  0  0  0  0  0
   -6.0470    5.1140  -14.7340 H   0  0  0  0  0  0  0  0  0  0  0  0
   -8.9920    4.6900  -12.6760 H   0  0  0  0  0  0  0  0  0  0  0  0
   -9.3770    6.4220  -12.6550 H   0  0  0  0  0  0  0  0  0  0  0  0
   -8.0370    2.7140  -10.5850 H   0  0  0  0  0  0  0  0  0  0  0  0
   -9.7110    2.9780  -11.0290 H   0  0  0  0  0  0  0  0  0  0  0  0
   -8.7950    1.3750   -8.9600 H   0  0  0  0  0  0  0  0  0  0  0  0
  -10.4240    1.8760   -9.2880 H   0  0  0  0  0  0  0  0  0  0  0  0
  -10.6650    2.8710   -7.3610 H   0  0  0  0  0  0  0  0  0  0  0  0
   -9.1130    2.1940   -6.9250 H   0  0  0  0  0  0  0  0  0  0  0  0
   -9.6750    4.8450   -6.7880 H   0  0  0  0  0  0  0  0  0  0  0  0
   -8.0350    4.2060   -6.9830 H   0  0  0  0  0  0  0  0  0  0  0  0
   -8.5890    7.7860  -10.1240 H   0  0  0  0  0  0  0  0  0  0  0  0
  1  2  1  0
  2  3  1  0
  2  4  1  0
  2  5  1  0
  5  6  1  0
  6  7  2  0
  6  8  1  0
  8  9  2  0
  9 10  1  0
 10 11  2  0
 11 12  1  0
 12 13  2  0
 13 14  1  0
 14 15  1  0
 15 16  2  0
 15 17  1  0
 17 18  1  0
 18 19  1  0
 19 20  2  0
 20 21  1  0
 21 22  1  0
 22 23  1  0
 23 24  1  0
 24 25  1  0
 25 26  1  0
 26 27  2  0
 13  8  1  0
 27 19  1  0
 25 20  1  0
  1 28  1  0
  1 29  1  0
  1 30  1  0
  3 31  1  0
  3 32  1  0
  3 33  1  0
  4 34  1  0
  4 35  1  0
  4 36  1  0
  9 37  1  0
 10 38  1  0
 11 39  1  0
 12 40  1  0
 14 41  1  0
 14 42  1  0
 18 43  1  0
 18 44  1  0
 21 45  1  0
 21 46  1  0
 22 47  1  0
 22 48  1  0
 23 49  1  0
 23 50  1  0
 24 51  1  0
 24 52  1  0
 27 53  1  0
A    1
 C1 
A    2
 C2 
A    3
 C3 
A    4
 C4 
A    5
 O1 
A    6
 C5 
A    7
 O2 
A    8
 C6 
A    9
 C7 
A   10
 C8 
A   11
 C9 
A   12
 C10
A   13
 C11
A   14
 C12
A   15
 C13
A   16
 O3 
A   17
 O4 
A   18
 C14
A   19
 C15
A   20
 C16
A   21
 C17
A   22
 C18
A   23
 C19
A   24
 C20
A   25
 N1 
A   26
 N2 
A   27
 C21
A   28
 H1 
A   29
 H2 
A   30
 H3 
A   31
 H4 
A   32
 H5 
A   33
 H6 
A   34
 H7 
A   35
 H8 
A   36
 H9 
A   37
 H10
A   38
 H11
A   39
 H12
A   40
 H13
A   41
 H14
A   42
 H15
A   43
 H16
A   44
 H17
A   45
 H18
A   46
 H19
A   47
 H20
A   48
 H21
A   49
 H22
A   50
 H23
A   51
 H24
A   52
 H25
A   53
 H26
M  END
>  <ref_pdb>  (194) 
x0051_0B

>  <ref_mols>  (194) 
x0101_0B,x0969_1B,x0693_0B

>  <original SMILES>  (194) 
[H]c1nn2c(c1C([H])([H])OC(=O)C([H])([H])c1c([H])c([H])c([H])c([H])c1C(=O)OC(C([H])([H])[H])(C([H])([H])[H])C([H])([H])[H])C([H])([H])C([H])([H])C([H])([H])C2([H])[H]

>  <index>  (194) 
22937

>  <∆∆G>  (194) 
-10.373478

>  <∆G_bound>  (194) 
-8.631033

>  <∆G_unbound>  (194) 
1.742445

>  <comRMSD>  (194) 
0.60829

>  <N_constrained_atoms>  (194) 
26.0

>  <N_unconstrained_atoms>  (194) 
3.0

>  <runtime>  (194) 
69.847265

>  <LE>  (194) 
0.357706

>  <percent_hybrid>  (194) 
50.0

>  <dist>  (194) 
nan

>  <ecfp4>  (194) 
nan

>  <daylight>  (194) 
nan

>  <topodist>  (194) 
nan

>  <mces>  (194) 
nan

>  <tdn>  (194) 
nan

>  <tup>  (194) 
nan

>  <rdn>  (194) 
nan

>  <rup>  (194) 
nan

>  <ldn>  (194) 
nan

>  <lup>  (194) 
nan

>  <mut>  (194) 
nan

>  <maj>  (194) 
nan

>  <min>  (194) 
nan

>  <hyb>  (194) 
nan

>  <sub>  (194) 
nan

>  <query_index>  (194) 
nan

>  <max_hit_Tanimoto>  (194) 
0.306026

>  <largest_ring>  (194) 
6

>  <N_interactions_kept>  (194) 
5.5

>  <N_interactions_lost>  (194) 
1.5

>  <interaction_uniqueness_metric>  (194) 
0.115582

>  <ad_hoc_penalty>  (194) 
-24.200408

>  <N_rotatable_bonds>  (194) 
5

>  <N_HA>  (194) 
27

>  <cluster>  (194) 
1401

>  <N_interactions>  (194) 
4

>  <Enamine>  (194) 
0

>  <Mcule>  (194) 
0

>  <N_PAINS>  (194) 
0

>  <UFF_Gibbs>  (194) 
87.417469

>  <strain_per_HA>  (194) 
3.237684

>  <saltbridge:HIS:51>  (194) 
0

>  <pistack:HIS:51>  (194) 
1

>  <hydroph_interaction:HIS:51>  (194) 
1

>  <hbond:ALA:132>  (194) 
0

>  <hbond:SER:135>  (194) 
0

>  <hydroph_interaction:TYR:150>  (194) 
0

>  <pistack:TYR:161>  (194) 
1

>  <hydroph_interaction:TYR:161>  (194) 
0

>  <hydroph_interaction:ASP:83>  (194) 
0

>  <hbond:TYR:130>  (194) 
0

>  <hydroph_interaction:ALA:132>  (194) 
0

>  <hbond:HIS:51>  (194) 
0

>  <hbond:ASP:129>  (194) 
0

>  <hbond:TYR:150>  (194) 
0

>  <hbond:GLY:151>  (194) 
0

>  <hbond:TYR:161>  (194) 
0

>  <hydroph_interaction:TYR:130>  (194) 
0

>  <hydroph_interaction:PRO:131>  (194) 
0

>  <hydroph_interaction:ASP:129>  (194) 
1

>  <saltbridge:ASP:75>  (194) 
0

>  <saltbridge:ASP:83>  (194) 
0

>  <hydroph_interaction:ASN:152>  (194) 
0

>  <halogenbond:TYR:150>  (194) 
0

>  <hbond:ASP:83>  (194) 
0

>  <hydroph_interaction:VAL:155>  (194) 
0

>  <pication:TYR:161>  (194) 
0

>  <hbond:PRO:131>  (194) 
0

>  <hbond:LEU:128>  (194) 
0

>  <saltbridge:ASP:129>  (194) 
0

>  <hbond:THR:134>  (194) 
0

>  <pication:HIS:51>  (194) 
0

>  <hbond:SER:81>  (194) 
0

>  <hbond:GLY:159>  (194) 
0

>  <hydroph_interaction:PRO:101>  (194) 
0

>  <hydroph_interaction:THR:134>  (194) 
0

>  <hbond:GLY:82>  (194) 
0

>  <hydroph_interaction:GLU:104>  (194) 
0

>  <hydroph_interaction:VAL:36>  (194) 
0

>  <hydroph_interaction:MET:49>  (194) 
0

>  <halogenbond:GLU:104>  (194) 
0

>  <hydroph_interaction:LYS:107>  (194) 
0

$$$$
CSSB00009866458
     RDKit          3D

 18 19  0  0  0  0  0  0  0  0999 V2000
  -10.2070    4.6960  -18.1490 O   0  0  0  0  0  0  0  0  0  0  0  0
   -9.6990    4.9050  -16.9090 C   0  0  0  0  0  0  0  0  0  0  0  0
   -8.3030    5.1550  -16.8450 N   0  0  0  0  0  0  0  0  0  0  0  0
   -7.9370    5.0730  -18.2380 C   0  0  0  0  0  0  0  0  0  0  0  0
   -9.0960    4.8040  -18.9810 C   0  0  0  0  0  0  0  0  0  0  0  0
   -6.5760    5.2320  -18.7010 C   0  0  0  0  0  0  0  0  0  0  0  0
   -5.5140    5.3420  -17.7940 C   0  0  0  0  0  0  0  0  0  0  0  0
   -4.2060    5.4700  -18.2510 C   0  0  0  0  0  0  0  0  0  0  0  0
   -3.9500    5.4910  -19.6200 C   0  0  0  0  0  0  0  0  0  0  0  0
   -4.9990    5.3850  -20.5380 C   0  0  0  0  0  0  0  0  0  0  0  0
   -6.3080    5.2560  -20.0690 C   0  0  0  0  0  0  0  0  0  0  0  0
  -10.2690    4.8950  -15.9740 H   0  0  0  0  0  0  0  0  0  0  0  0
   -9.2990    4.6620  -20.0300 H   0  0  0  0  0  0  0  0  0  0  0  0
   -5.6810    5.3250  -16.7210 H   0  0  0  0  0  0  0  0  0  0  0  0
   -3.3850    5.5510  -17.5410 H   0  0  0  0  0  0  0  0  0  0  0  0
   -2.9260    5.5900  -19.9760 H   0  0  0  0  0  0  0  0  0  0  0  0
   -4.8000    5.4000  -21.6060 H   0  0  0  0  0  0  0  0  0  0  0  0
   -7.1210    5.1700  -20.7850 H   0  0  0  0  0  0  0  0  0  0  0  0
  1  2  1  0
  2  3  2  0
  3  4  1  0
  4  5  2  0
  4  6  1  0
  6  7  2  0
  7  8  1  0
  8  9  2  0
  9 10  1  0
 10 11  2  0
  5  1  1  0
 11  6  1  0
  2 12  1  0
  5 13  1  0
  7 14  1  0
  8 15  1  0
  9 16  1  0
 10 17  1  0
 11 18  1  0
A    1
 O1 
A    2
 C1 
A    3
 N1 
A    4
 C2 
A    5
 C3 
A    6
 C4 
A    7
 C5 
A    8
 C6 
A    9
 C7 
A   10
 C8 
A   11
 C9 
A   12
 H1 
A   13
 H2 
A   14
 H3 
A   15
 H4 
A   16
 H5 
A   17
 H6 
A   18
 H7 
M  END
>  <ref_pdb>  (195) 
x0051_0B

>  <ref_mols>  (195) 
x0680_0B,x0386_0B

>  <original SMILES>  (195) 
[H]c1nc(-c2c([H])c([H])c([H])c([H])c2[H])c([H])o1

>  <index>  (195) 
366

>  <∆∆G>  (195) 
-5.337826

>  <∆G_bound>  (195) 
-5.29624

>  <∆G_unbound>  (195) 
0.041585

>  <comRMSD>  (195) 
0.596518

>  <N_constrained_atoms>  (195) 
13.0

>  <N_unconstrained_atoms>  (195) 
0.0

>  <runtime>  (195) 
20.527118

>  <LE>  (195) 
0.410602

>  <percent_hybrid>  (195) 
25.0

>  <dist>  (195) 
2.0

>  <ecfp4>  (195) 
0.410256

>  <daylight>  (195) 
0.518519

>  <topodist>  (195) 
1.0

>  <mces>  (195) 
12.0

>  <tdn>  (195) 
1.0

>  <tup>  (195) 
0.0

>  <rdn>  (195) 
0.0

>  <rup>  (195) 
0.0

>  <ldn>  (195) 
0.0

>  <lup>  (195) 
0.0

>  <mut>  (195) 
1.0

>  <maj>  (195) 
1.0

>  <min>  (195) 
0.0

>  <hyb>  (195) 
0.0

>  <sub>  (195) 
1.0

>  <query_index>  (195) 
296.0

>  <max_hit_Tanimoto>  (195) 
0.147059

>  <largest_ring>  (195) 
0

>  <N_interactions_kept>  (195) 
3.5

>  <N_interactions_lost>  (195) 
0.5

>  <interaction_uniqueness_metric>  (195) 
0.016266

>  <ad_hoc_penalty>  (195) 
-24.116366

>  <N_rotatable_bonds>  (195) 
1

>  <N_HA>  (195) 
11

>  <cluster>  (195) 
5883

>  <N_interactions>  (195) 
3

>  <Enamine>  (195) 
1

>  <Mcule>  (195) 
0

>  <N_PAINS>  (195) 
0

>  <UFF_Gibbs>  (195) 
21.664323

>  <strain_per_HA>  (195) 
1.969484

>  <saltbridge:HIS:51>  (195) 
0

>  <pistack:HIS:51>  (195) 
0

>  <hydroph_interaction:HIS:51>  (195) 
0

>  <hbond:ALA:132>  (195) 
0

>  <hbond:SER:135>  (195) 
0

>  <hydroph_interaction:TYR:150>  (195) 
0

>  <pistack:TYR:161>  (195) 
0

>  <hydroph_interaction:TYR:161>  (195) 
3

>  <hydroph_interaction:ASP:83>  (195) 
0

>  <hbond:TYR:130>  (195) 
0

>  <hydroph_interaction:ALA:132>  (195) 
0

>  <hbond:HIS:51>  (195) 
0

>  <hbond:ASP:129>  (195) 
0

>  <hbond:TYR:150>  (195) 
0

>  <hbond:GLY:151>  (195) 
0

>  <hbond:TYR:161>  (195) 
0

>  <hydroph_interaction:TYR:130>  (195) 
0

>  <hydroph_interaction:PRO:131>  (195) 
0

>  <hydroph_interaction:ASP:129>  (195) 
0

>  <saltbridge:ASP:75>  (195) 
0

>  <saltbridge:ASP:83>  (195) 
0

>  <hydroph_interaction:ASN:152>  (195) 
0

>  <halogenbond:TYR:150>  (195) 
0

>  <hbond:ASP:83>  (195) 
0

>  <hydroph_interaction:VAL:155>  (195) 
0

>  <pication:TYR:161>  (195) 
0

>  <hbond:PRO:131>  (195) 
0

>  <hbond:LEU:128>  (195) 
0

>  <saltbridge:ASP:129>  (195) 
0

>  <hbond:THR:134>  (195) 
0

>  <pication:HIS:51>  (195) 
0

>  <hbond:SER:81>  (195) 
0

>  <hbond:GLY:159>  (195) 
0

>  <hydroph_interaction:PRO:101>  (195) 
0

>  <hydroph_interaction:THR:134>  (195) 
0

>  <hbond:GLY:82>  (195) 
0

>  <hydroph_interaction:GLU:104>  (195) 
0

>  <hydroph_interaction:VAL:36>  (195) 
0

>  <hydroph_interaction:MET:49>  (195) 
0

>  <halogenbond:GLU:104>  (195) 
0

>  <hydroph_interaction:LYS:107>  (195) 
0

$$$$
MCULE-9736029837
     RDKit          3D

 41 43  0  0  0  0  0  0  0  0999 V2000
   -8.9780    6.3160   -8.4470 O   0  0  0  0  0  0  0  0  0  0  0  0
   -9.0860    4.9570   -8.4760 C   0  0  0  0  0  0  0  0  0  0  0  0
   -9.3990    4.0280   -7.3320 C   0  0  0  0  0  0  0  0  0  0  0  0
   -9.4520    2.5590   -7.7170 C   0  0  0  0  0  0  0  0  0  0  0  0
   -9.2030    2.2400   -9.0650 C   0  0  0  0  0  0  0  0  0  0  0  0
   -8.9200    3.1700  -10.0790 C   0  0  0  0  0  0  0  0  0  0  0  0
   -8.8680    4.5110   -9.7550 C   0  0  0  0  0  0  0  0  0  0  0  0
   -8.6040    5.6030  -10.5680 C   0  0  0  0  0  0  0  0  0  0  0  0
   -8.3170    5.5240  -11.9390 C   0  0  0  0  0  0  0  0  0  0  0  0
   -9.4260    5.0490  -12.8770 C   0  0  0  0  0  0  0  0  0  0  0  0
   -8.9790    4.7410  -14.2280 N   0  0  0  0  0  0  0  0  0  0  0  0
   -9.2400    5.6570  -15.2200 C   0  0  0  0  0  0  0  0  0  0  0  0
   -9.8350    6.7040  -14.9960 O   0  0  0  0  0  0  0  0  0  0  0  0
   -8.7780    5.3450  -16.6100 C   0  0  0  0  0  0  0  0  0  0  0  0
   -9.6910    4.8320  -17.5390 C   0  0  0  0  0  0  0  0  0  0  0  0
   -9.2880    4.5470  -18.8410 C   0  0  0  0  0  0  0  0  0  0  0  0
   -7.9750    4.7660  -19.2370 C   0  0  0  0  0  0  0  0  0  0  0  0
   -7.0660    5.2720  -18.3160 C   0  0  0  0  0  0  0  0  0  0  0  0
   -7.4520    5.5640  -17.0060 C   0  0  0  0  0  0  0  0  0  0  0  0
   -5.7450    5.4750  -18.7600 O   0  0  0  0  0  0  0  0  0  0  0  0
   -5.5230    6.1860  -19.9390 C   0  0  0  0  0  0  0  0  0  0  0  0
   -5.0100    5.2510  -20.9900 C   0  0  0  0  0  0  0  0  0  0  0  0
   -5.6940    7.3860  -20.1130 O   0  0  0  0  0  0  0  0  0  0  0  0
   -8.6860    6.7000   -9.7280 C   0  0  0  0  0  0  0  0  0  0  0  0
   -9.5720    4.3810   -6.3230 H   0  0  0  0  0  0  0  0  0  0  0  0
   -9.6690    1.7900   -6.9860 H   0  0  0  0  0  0  0  0  0  0  0  0
   -9.2160    1.2320   -9.3740 H   0  0  0  0  0  0  0  0  0  0  0  0
   -8.7430    2.8260  -11.0940 H   0  0  0  0  0  0  0  0  0  0  0  0
   -7.4770    4.8270  -12.0370 H   0  0  0  0  0  0  0  0  0  0  0  0
   -7.9330    6.4480  -12.3620 H   0  0  0  0  0  0  0  0  0  0  0  0
  -10.2070    5.8110  -12.9540 H   0  0  0  0  0  0  0  0  0  0  0  0
   -9.8810    4.1360  -12.4870 H   0  0  0  0  0  0  0  0  0  0  0  0
   -9.1160    3.7770  -14.5000 H   0  0  0  0  0  0  0  0  0  0  0  0
  -10.7190    4.6550  -17.2500 H   0  0  0  0  0  0  0  0  0  0  0  0
   -9.9930    4.1570  -19.5450 H   0  0  0  0  0  0  0  0  0  0  0  0
   -7.6700    4.5410  -20.2570 H   0  0  0  0  0  0  0  0  0  0  0  0
   -6.7250    5.9600  -16.3060 H   0  0  0  0  0  0  0  0  0  0  0  0
   -4.0130    4.9040  -20.7130 H   0  0  0  0  0  0  0  0  0  0  0  0
   -4.9390    5.7750  -21.9470 H   0  0  0  0  0  0  0  0  0  0  0  0
   -5.6790    4.3930  -21.0800 H   0  0  0  0  0  0  0  0  0  0  0  0
   -8.5650    7.7640   -9.8730 H   0  0  0  0  0  0  0  0  0  0  0  0
  1  2  1  0
  2  3  2  0
  3  4  1  0
  4  5  2  0
  5  6  1  0
  6  7  2  0
  7  8  1  0
  8  9  1  0
  9 10  1  0
 10 11  1  0
 11 12  1  0
 12 13  2  0
 12 14  1  0
 14 15  2  0
 15 16  1  0
 16 17  2  0
 17 18  1  0
 18 19  2  0
 18 20  1  0
 20 21  1  0
 21 22  1  0
 21 23  2  0
  8 24  2  0
 24  1  1  0
  7  2  1  0
 19 14  1  0
  3 25  1  0
  4 26  1  0
  5 27  1  0
  6 28  1  0
  9 29  1  0
  9 30  1  0
 10 31  1  0
 10 32  1  0
 11 33  1  0
 15 34  1  0
 16 35  1  0
 17 36  1  0
 19 37  1  0
 22 38  1  0
 22 39  1  0
 22 40  1  0
 24 41  1  0
A    1
 O1 
A    2
 C1 
A    3
 C2 
A    4
 C3 
A    5
 C4 
A    6
 C5 
A    7
 C6 
A    8
 C7 
A    9
 C8 
A   10
 C9 
A   11
 N1 
A   12
 C10
A   13
 O2 
A   14
 C11
A   15
 C12
A   16
 C13
A   17
 C14
A   18
 C15
A   19
 C16
A   20
 O3 
A   21
 C17
A   22
 C18
A   23
 O4 
A   24
 C19
A   25
 H1 
A   26
 H2 
A   27
 H3 
A   28
 H4 
A   29
 H5 
A   30
 H6 
A   31
 H7 
A   32
 H8 
A   33
 H9 
A   34
 H10
A   35
 H11
A   36
 H12
A   37
 H13
A   38
 H14
A   39
 H15
A   40
 H16
A   41
 H17
M  END
>  <ref_pdb>  (196) 
x0051_0B

>  <ref_mols>  (196) 
x0904_0B,x0969_1B

>  <original SMILES>  (196) 
[H]c1oc2c([H])c([H])c([H])c([H])c2c1C([H])([H])C([H])([H])N([H])C(=O)c1c([H])c([H])c([H])c(OC(=O)C([H])([H])[H])c1[H]

>  <index>  (196) 
394

>  <∆∆G>  (196) 
-8.12409

>  <∆G_bound>  (196) 
-7.155925

>  <∆G_unbound>  (196) 
0.968165

>  <comRMSD>  (196) 
0.842594

>  <N_constrained_atoms>  (196) 
23.0

>  <N_unconstrained_atoms>  (196) 
4.0

>  <runtime>  (196) 
68.31266

>  <LE>  (196) 
0.300892

>  <percent_hybrid>  (196) 
44.0

>  <dist>  (196) 
12.0

>  <ecfp4>  (196) 
0.197674

>  <daylight>  (196) 
0.222628

>  <topodist>  (196) 
4.0

>  <mces>  (196) 
25.0

>  <tdn>  (196) 
1.0

>  <tup>  (196) 
1.0

>  <rdn>  (196) 
0.0

>  <rup>  (196) 
0.0

>  <ldn>  (196) 
2.0

>  <lup>  (196) 
0.0

>  <mut>  (196) 
5.0

>  <maj>  (196) 
5.0

>  <min>  (196) 
0.0

>  <hyb>  (196) 
3.0

>  <sub>  (196) 
0.0

>  <query_index>  (196) 
266.0

>  <max_hit_Tanimoto>  (196) 
0.175711

>  <largest_ring>  (196) 
0

>  <N_interactions_kept>  (196) 
1.5

>  <N_interactions_lost>  (196) 
2.0

>  <interaction_uniqueness_metric>  (196) 
0.14238

>  <ad_hoc_penalty>  (196) 
-24.107659

>  <N_rotatable_bonds>  (196) 
6

>  <N_HA>  (196) 
24

>  <cluster>  (196) 
5857

>  <N_interactions>  (196) 
7

>  <Enamine>  (196) 
0

>  <Mcule>  (196) 
1

>  <N_PAINS>  (196) 
0

>  <UFF_Gibbs>  (196) 
69.310299

>  <strain_per_HA>  (196) 
2.887929

>  <saltbridge:HIS:51>  (196) 
0

>  <pistack:HIS:51>  (196) 
2

>  <hydroph_interaction:HIS:51>  (196) 
0

>  <hbond:ALA:132>  (196) 
0

>  <hbond:SER:135>  (196) 
0

>  <hydroph_interaction:TYR:150>  (196) 
1

>  <pistack:TYR:161>  (196) 
1

>  <hydroph_interaction:TYR:161>  (196) 
1

>  <hydroph_interaction:ASP:83>  (196) 
0

>  <hbond:TYR:130>  (196) 
0

>  <hydroph_interaction:ALA:132>  (196) 
1

>  <hbond:HIS:51>  (196) 
0

>  <hbond:ASP:129>  (196) 
0

>  <hbond:TYR:150>  (196) 
0

>  <hbond:GLY:151>  (196) 
0

>  <hbond:TYR:161>  (196) 
1

>  <hydroph_interaction:TYR:130>  (196) 
0

>  <hydroph_interaction:PRO:131>  (196) 
0

>  <hydroph_interaction:ASP:129>  (196) 
0

>  <saltbridge:ASP:75>  (196) 
0

>  <saltbridge:ASP:83>  (196) 
0

>  <hydroph_interaction:ASN:152>  (196) 
0

>  <halogenbond:TYR:150>  (196) 
0

>  <hbond:ASP:83>  (196) 
0

>  <hydroph_interaction:VAL:155>  (196) 
0

>  <pication:TYR:161>  (196) 
0

>  <hbond:PRO:131>  (196) 
0

>  <hbond:LEU:128>  (196) 
0

>  <saltbridge:ASP:129>  (196) 
0

>  <hbond:THR:134>  (196) 
0

>  <pication:HIS:51>  (196) 
0

>  <hbond:SER:81>  (196) 
0

>  <hbond:GLY:159>  (196) 
0

>  <hydroph_interaction:PRO:101>  (196) 
0

>  <hydroph_interaction:THR:134>  (196) 
0

>  <hbond:GLY:82>  (196) 
0

>  <hydroph_interaction:GLU:104>  (196) 
0

>  <hydroph_interaction:VAL:36>  (196) 
0

>  <hydroph_interaction:MET:49>  (196) 
0

>  <halogenbond:GLU:104>  (196) 
0

>  <hydroph_interaction:LYS:107>  (196) 
0

$$$$
RHKKOPOGUNRFRX-UHFFFAOYSA-N
     RDKit          3D

 44 48  0  0  0  0  0  0  0  0999 V2000
   -8.1140    6.5080  -14.2720 C   0  0  0  0  0  0  0  0  0  0  0  0
   -7.3510    5.5940  -15.1780 N   0  0  0  0  0  0  0  0  0  0  0  0
   -8.0890    5.3120  -16.4010 C   0  0  0  0  0  0  0  0  0  0  0  0
   -9.5570    5.0320  -16.5640 C   0  0  0  0  0  0  0  0  0  0  0  0
  -10.0850    4.8020  -17.8450 C   0  0  0  0  0  0  0  0  0  0  0  0
   -9.2320    4.8420  -18.9390 C   0  0  0  0  0  0  0  0  0  0  0  0
   -7.7520    5.1220  -18.7600 C   0  0  0  0  0  0  0  0  0  0  0  0
   -7.3120    5.3280  -17.4710 C   0  0  0  0  0  0  0  0  0  0  0  0
   -5.9260    5.5910  -17.1290 C   0  0  0  0  0  0  0  0  0  0  0  0
   -4.9100    5.6650  -18.1210 C   0  0  0  0  0  0  0  0  0  0  0  0
   -5.3610    5.4680  -19.4200 C   0  0  0  0  0  0  0  0  0  0  0  0
   -6.7440    5.2000  -19.7480 C   0  0  0  0  0  0  0  0  0  0  0  0
   -5.9520    5.7180  -15.6260 C   0  0  0  0  0  0  0  0  0  0  0  0
   -4.9100    5.8740  -15.0080 O   0  0  0  0  0  0  0  0  0  0  0  0
   -8.5460    7.6000  -14.5680 O   0  0  0  0  0  0  0  0  0  0  0  0
   -8.3680    6.0230  -12.9020 C   0  0  0  0  0  0  0  0  0  0  0  0
   -8.3430    6.9630  -11.6500 C   0  0  0  0  0  0  0  0  0  0  0  0
   -8.5910    6.3440  -10.2980 C   0  0  0  0  0  0  0  0  0  0  0  0
   -8.8280    4.9480  -10.2640 C   0  0  0  0  0  0  0  0  0  0  0  0
   -9.0470    4.2920   -9.0880 N   0  0  0  0  0  0  0  0  0  0  0  0
   -9.1730    2.8490   -9.0350 C   0  0  0  0  0  0  0  0  0  0  0  0
   -9.6400    2.6280   -7.6290 C   0  0  0  0  0  0  0  0  0  0  0  0
   -8.9510    3.5940   -6.8450 C   0  0  0  0  0  0  0  0  0  0  0  0
   -8.5810    4.7450   -7.7900 C   0  0  0  0  0  0  0  0  0  0  0  0
   -8.8440    4.1870  -11.4480 C   0  0  0  0  0  0  0  0  0  0  0  0
   -8.6260    4.6890  -12.7190 C   0  0  0  0  0  0  0  0  0  0  0  0
  -10.1990    5.0130  -15.6850 H   0  0  0  0  0  0  0  0  0  0  0  0
  -11.1430    4.6030  -17.9450 H   0  0  0  0  0  0  0  0  0  0  0  0
   -9.7100    4.6600  -19.9030 H   0  0  0  0  0  0  0  0  0  0  0  0
   -3.8710    5.8600  -17.8770 H   0  0  0  0  0  0  0  0  0  0  0  0
   -4.6380    5.5130  -20.2320 H   0  0  0  0  0  0  0  0  0  0  0  0
   -7.0120    5.0530  -20.7940 H   0  0  0  0  0  0  0  0  0  0  0  0
   -8.1480    8.0310  -11.7440 H   0  0  0  0  0  0  0  0  0  0  0  0
   -8.5770    6.9640   -9.4060 H   0  0  0  0  0  0  0  0  0  0  0  0
   -8.2020    2.3670   -9.2050 H   0  0  0  0  0  0  0  0  0  0  0  0
   -9.9110    2.4580   -9.7430 H   0  0  0  0  0  0  0  0  0  0  0  0
   -9.4530    1.6110   -7.2930 H   0  0  0  0  0  0  0  0  0  0  0  0
  -10.7220    2.7990   -7.5620 H   0  0  0  0  0  0  0  0  0  0  0  0
   -8.0370    3.1400   -6.4410 H   0  0  0  0  0  0  0  0  0  0  0  0
   -9.5500    3.9370   -5.9970 H   0  0  0  0  0  0  0  0  0  0  0  0
   -9.1070    5.6610   -7.5000 H   0  0  0  0  0  0  0  0  0  0  0  0
   -7.5000    4.9200   -7.7680 H   0  0  0  0  0  0  0  0  0  0  0  0
   -9.0380    3.1190  -11.3850 H   0  0  0  0  0  0  0  0  0  0  0  0
   -8.6570    4.0050  -13.5640 H   0  0  0  0  0  0  0  0  0  0  0  0
  1  2  1  0
  2  3  1  0
  3  4  2  0
  4  5  1  0
  5  6  2  0
  6  7  1  0
  7  8  2  0
  8  9  1  0
  9 10  2  0
 10 11  1  0
 11 12  2  0
  9 13  1  0
 13 14  2  0
  1 15  2  0
  1 16  1  0
 16 17  2  0
 17 18  1  0
 18 19  2  0
 19 20  1  0
 20 21  1  0
 21 22  1  0
 22 23  1  0
 23 24  1  0
 19 25  1  0
 25 26  2  0
 13  2  1  0
  8  3  1  0
  7 12  1  0
 26 16  1  0
 24 20  1  0
  4 27  1  0
  5 28  1  0
  6 29  1  0
 10 30  1  0
 11 31  1  0
 12 32  1  0
 17 33  1  0
 18 34  1  0
 21 35  1  0
 21 36  1  0
 22 37  1  0
 22 38  1  0
 23 39  1  0
 23 40  1  0
 24 41  1  0
 24 42  1  0
 25 43  1  0
 26 44  1  0
A    1
 C1 
A    2
 N1 
A    3
 C2 
A    4
 C3 
A    5
 C4 
A    6
 C5 
A    7
 C6 
A    8
 C7 
A    9
 C8 
A   10
 C9 
A   11
 C10
A   12
 C11
A   13
 C12
A   14
 O1 
A   15
 O2 
A   16
 C13
A   17
 C14
A   18
 C15
A   19
 C16
A   20
 N2 
A   21
 C17
A   22
 C18
A   23
 C19
A   24
 C20
A   25
 C21
A   26
 C22
A   27
 H1 
A   28
 H2 
A   29
 H3 
A   30
 H4 
A   31
 H5 
A   32
 H6 
A   33
 H7 
A   34
 H8 
A   35
 H9 
A   36
 H10
A   37
 H11
A   38
 H12
A   39
 H13
A   40
 H14
A   41
 H15
A   42
 H16
A   43
 H17
A   44
 H18
M  END
>  <ref_pdb>  (197) 
x0051_0B

>  <ref_mols>  (197) 
x0727_0B,x0404_0B

>  <original SMILES>  (197) 
[H]c1c([H])c(N2C([H])([H])C([H])([H])C([H])([H])C2([H])[H])c([H])c([H])c1C(=O)N1C(=O)c2c([H])c([H])c([H])c3c([H])c([H])c([H])c1c23

>  <index>  (197) 
319

>  <∆∆G>  (197) 
-9.086943

>  <∆G_bound>  (197) 
-9.461161

>  <∆G_unbound>  (197) 
-0.374218

>  <comRMSD>  (197) 
0.630074

>  <N_constrained_atoms>  (197) 
26.0

>  <N_unconstrained_atoms>  (197) 
1.0

>  <runtime>  (197) 
98.940729

>  <LE>  (197) 
0.336553

>  <percent_hybrid>  (197) 
47.0

>  <dist>  (197) 
9.0

>  <ecfp4>  (197) 
0.22973

>  <daylight>  (197) 
0.190698

>  <topodist>  (197) 
4.0

>  <mces>  (197) 
29.0

>  <tdn>  (197) 
1.0

>  <tup>  (197) 
0.0

>  <rdn>  (197) 
0.0

>  <rup>  (197) 
1.0

>  <ldn>  (197) 
2.0

>  <lup>  (197) 
0.0

>  <mut>  (197) 
4.0

>  <maj>  (197) 
4.0

>  <min>  (197) 
0.0

>  <hyb>  (197) 
1.0

>  <sub>  (197) 
0.0

>  <query_index>  (197) 
0.0

>  <max_hit_Tanimoto>  (197) 
0.201944

>  <largest_ring>  (197) 
0

>  <N_interactions_kept>  (197) 
1.5

>  <N_interactions_lost>  (197) 
3.0

>  <interaction_uniqueness_metric>  (197) 
0.075721

>  <ad_hoc_penalty>  (197) 
-24.107571

>  <N_rotatable_bonds>  (197) 
2

>  <N_HA>  (197) 
26

>  <cluster>  (197) 
5929

>  <N_interactions>  (197) 
6

>  <Enamine>  (197) 
0

>  <Mcule>  (197) 
1

>  <N_PAINS>  (197) 
0

>  <UFF_Gibbs>  (197) 
92.810288

>  <strain_per_HA>  (197) 
3.569626

>  <saltbridge:HIS:51>  (197) 
0

>  <pistack:HIS:51>  (197) 
1

>  <hydroph_interaction:HIS:51>  (197) 
0

>  <hbond:ALA:132>  (197) 
0

>  <hbond:SER:135>  (197) 
0

>  <hydroph_interaction:TYR:150>  (197) 
1

>  <pistack:TYR:161>  (197) 
2

>  <hydroph_interaction:TYR:161>  (197) 
2

>  <hydroph_interaction:ASP:83>  (197) 
0

>  <hbond:TYR:130>  (197) 
0

>  <hydroph_interaction:ALA:132>  (197) 
0

>  <hbond:HIS:51>  (197) 
0

>  <hbond:ASP:129>  (197) 
0

>  <hbond:TYR:150>  (197) 
0

>  <hbond:GLY:151>  (197) 
0

>  <hbond:TYR:161>  (197) 
0

>  <hydroph_interaction:TYR:130>  (197) 
0

>  <hydroph_interaction:PRO:131>  (197) 
0

>  <hydroph_interaction:ASP:129>  (197) 
0

>  <saltbridge:ASP:75>  (197) 
0

>  <saltbridge:ASP:83>  (197) 
0

>  <hydroph_interaction:ASN:152>  (197) 
0

>  <halogenbond:TYR:150>  (197) 
0

>  <hbond:ASP:83>  (197) 
0

>  <hydroph_interaction:VAL:155>  (197) 
0

>  <pication:TYR:161>  (197) 
0

>  <hbond:PRO:131>  (197) 
0

>  <hbond:LEU:128>  (197) 
0

>  <saltbridge:ASP:129>  (197) 
0

>  <hbond:THR:134>  (197) 
0

>  <pication:HIS:51>  (197) 
0

>  <hbond:SER:81>  (197) 
0

>  <hbond:GLY:159>  (197) 
0

>  <hydroph_interaction:PRO:101>  (197) 
0

>  <hydroph_interaction:THR:134>  (197) 
0

>  <hbond:GLY:82>  (197) 
0

>  <hydroph_interaction:GLU:104>  (197) 
0

>  <hydroph_interaction:VAL:36>  (197) 
0

>  <hydroph_interaction:MET:49>  (197) 
0

>  <halogenbond:GLU:104>  (197) 
0

>  <hydroph_interaction:LYS:107>  (197) 
0

$$$$
MCULE-1825753944
     RDKit          3D

 39 40  0  0  0  0  0  0  0  0999 V2000
   -6.0990    6.2850  -17.4790 C   0  0  0  0  0  0  0  0  0  0  0  0
   -5.8800    7.4300  -16.5330 C   0  0  0  0  0  0  0  0  0  0  0  0
   -4.8860    7.2970  -15.5560 C   0  0  0  0  0  0  0  0  0  0  0  0
   -4.4150    5.8840  -15.2430 C   0  0  0  0  0  0  0  0  0  0  0  0
   -4.8890    4.8480  -16.2260 C   0  0  0  0  0  0  0  0  0  0  0  0
   -5.1030    5.3730  -17.5000 C   0  0  0  0  0  0  0  0  0  0  0  0
   -3.7330    5.6710  -18.0730 C   0  0  0  0  0  0  0  0  0  0  0  0
   -2.6210    4.6620  -17.8670 C   0  0  0  0  0  0  0  0  0  0  0  0
   -3.6820    6.0820  -19.5520 C   0  0  0  0  0  0  0  0  0  0  0  0
   -4.1970    7.4190  -19.8230 N   0  0  0  0  0  0  0  0  0  0  0  0
   -7.3650    5.7080  -17.6090 C   0  0  0  0  0  0  0  0  0  0  0  0
   -8.1510    5.4910  -16.2960 C   0  0  0  0  0  0  0  0  0  0  0  0
   -9.3670    4.9270  -16.8380 C   0  0  0  0  0  0  0  0  0  0  0  0
   -9.7630    4.6390  -18.1490 C   0  0  0  0  0  0  0  0  0  0  0  0
   -8.9620    4.8750  -19.2040 C   0  0  0  0  0  0  0  0  0  0  0  0
   -7.7540    5.4160  -18.9240 C   0  0  0  0  0  0  0  0  0  0  0  0
   -5.9730    6.7930  -18.4460 H   0  0  0  0  0  0  0  0  0  0  0  0
   -6.8230    7.6030  -15.9990 H   0  0  0  0  0  0  0  0  0  0  0  0
   -5.6590    8.3360  -17.1080 H   0  0  0  0  0  0  0  0  0  0  0  0
   -5.2300    7.7760  -14.6340 H   0  0  0  0  0  0  0  0  0  0  0  0
   -4.0090    7.8730  -15.8700 H   0  0  0  0  0  0  0  0  0  0  0  0
   -4.7320    5.5980  -14.2320 H   0  0  0  0  0  0  0  0  0  0  0  0
   -3.3200    5.8690  -15.2300 H   0  0  0  0  0  0  0  0  0  0  0  0
   -4.1300    4.0640  -16.2720 H   0  0  0  0  0  0  0  0  0  0  0  0
   -5.8170    4.3810  -15.8800 H   0  0  0  0  0  0  0  0  0  0  0  0
   -5.4850    4.5260  -18.0780 H   0  0  0  0  0  0  0  0  0  0  0  0
   -3.3790    6.5520  -17.5160 H   0  0  0  0  0  0  0  0  0  0  0  0
   -2.7470    4.1200  -16.9220 H   0  0  0  0  0  0  0  0  0  0  0  0
   -2.5630    3.9410  -18.6900 H   0  0  0  0  0  0  0  0  0  0  0  0
   -1.6510    5.1760  -17.8230 H   0  0  0  0  0  0  0  0  0  0  0  0
   -2.6660    5.9950  -19.9550 H   0  0  0  0  0  0  0  0  0  0  0  0
   -4.2950    5.3790  -20.1310 H   0  0  0  0  0  0  0  0  0  0  0  0
   -5.2000    7.3590  -20.0100 H   0  0  0  0  0  0  0  0  0  0  0  0
   -3.7820    7.7850  -20.6760 H   0  0  0  0  0  0  0  0  0  0  0  0
   -7.8920    5.6980  -15.2630 H   0  0  0  0  0  0  0  0  0  0  0  0
  -10.1120    4.6830  -16.0850 H   0  0  0  0  0  0  0  0  0  0  0  0
  -10.7450    4.2130  -18.3270 H   0  0  0  0  0  0  0  0  0  0  0  0
   -9.2650    4.6510  -20.2240 H   0  0  0  0  0  0  0  0  0  0  0  0
   -7.0840    5.6270  -19.7530 H   0  0  0  0  0  0  0  0  0  0  0  0
  1  2  1  0
  2  3  1  0
  3  4  1  0
  4  5  1  0
  5  6  1  0
  6  7  1  0
  7  8  1  0
  7  9  1  0
  9 10  1  0
  1 11  1  0
 11 12  2  0
 12 13  1  0
 13 14  2  0
 14 15  1  0
 15 16  2  0
  6  1  1  0
 16 11  1  0
  1 17  1  0
  2 18  1  0
  2 19  1  0
  3 20  1  0
  3 21  1  0
  4 22  1  0
  4 23  1  0
  5 24  1  0
  5 25  1  0
  6 26  1  0
  7 27  1  0
  8 28  1  0
  8 29  1  0
  8 30  1  0
  9 31  1  0
  9 32  1  0
 10 33  1  0
 10 34  1  0
 12 35  1  0
 13 36  1  0
 14 37  1  0
 15 38  1  0
 16 39  1  0
A    1
 C1 
A    2
 C2 
A    3
 C3 
A    4
 C4 
A    5
 C5 
A    6
 C6 
A    7
 C7 
A    8
 C8 
A    9
 C9 
A   10
 N1 
A   11
 C10
A   12
 C11
A   13
 C12
A   14
 C13
A   15
 C14
A   16
 C15
A   17
 H1 
A   18
 H2 
A   19
 H3 
A   20
 H4 
A   21
 H5 
A   22
 H6 
A   23
 H7 
A   24
 H8 
A   25
 H9 
A   26
 H10
A   27
 H11
A   28
 H12
A   29
 H13
A   30
 H14
A   31
 H15
A   32
 H16
A   33
 H17
A   34
 H18
A   35
 H19
A   36
 H20
A   37
 H21
A   38
 H22
A   39
 H23
M  END
>  <ref_pdb>  (198) 
x0051_0B

>  <ref_mols>  (198) 
x0227_0B,x0472_0B

>  <original SMILES>  (198) 
[H]c1c([H])c([H])c(C2([H])C([H])([H])C([H])([H])C([H])([H])C([H])([H])C2([H])C([H])(C([H])([H])[H])C([H])([H])N([H])[H])c([H])c1[H]

>  <index>  (198) 
43

>  <∆∆G>  (198) 
-6.399809

>  <∆G_bound>  (198) 
-6.900384

>  <∆G_unbound>  (198) 
-0.500575

>  <comRMSD>  (198) 
0.974146

>  <N_constrained_atoms>  (198) 
18.0

>  <N_unconstrained_atoms>  (198) 
3.0

>  <runtime>  (198) 
23.73745

>  <LE>  (198) 
0.304753

>  <percent_hybrid>  (198) 
50.0

>  <dist>  (198) 
4.0

>  <ecfp4>  (198) 
0.346154

>  <daylight>  (198) 
0.458824

>  <topodist>  (198) 
3.0

>  <mces>  (198) 
16.0

>  <tdn>  (198) 
1.0

>  <tup>  (198) 
0.0

>  <rdn>  (198) 
1.0

>  <rup>  (198) 
1.0

>  <ldn>  (198) 
0.0

>  <lup>  (198) 
0.0

>  <mut>  (198) 
1.0

>  <maj>  (198) 
1.0

>  <min>  (198) 
0.0

>  <hyb>  (198) 
0.0

>  <sub>  (198) 
1.0

>  <query_index>  (198) 
191.0

>  <max_hit_Tanimoto>  (198) 
0.266436

>  <largest_ring>  (198) 
0

>  <N_interactions_kept>  (198) 
4.0

>  <N_interactions_lost>  (198) 
1.0

>  <interaction_uniqueness_metric>  (198) 
0.091664

>  <ad_hoc_penalty>  (198) 
-24.05048

>  <N_rotatable_bonds>  (198) 
5

>  <N_HA>  (198) 
16

>  <cluster>  (198) 
6176

>  <N_interactions>  (198) 
8

>  <Enamine>  (198) 
0

>  <Mcule>  (198) 
1

>  <N_PAINS>  (198) 
0

>  <UFF_Gibbs>  (198) 
229.578558

>  <strain_per_HA>  (198) 
14.34866

>  <saltbridge:HIS:51>  (198) 
0

>  <pistack:HIS:51>  (198) 
0

>  <hydroph_interaction:HIS:51>  (198) 
0

>  <hbond:ALA:132>  (198) 
0

>  <hbond:SER:135>  (198) 
0

>  <hydroph_interaction:TYR:150>  (198) 
1

>  <pistack:TYR:161>  (198) 
0

>  <hydroph_interaction:TYR:161>  (198) 
5

>  <hydroph_interaction:ASP:83>  (198) 
0

>  <hbond:TYR:130>  (198) 
0

>  <hydroph_interaction:ALA:132>  (198) 
1

>  <hbond:HIS:51>  (198) 
0

>  <hbond:ASP:129>  (198) 
0

>  <hbond:TYR:150>  (198) 
0

>  <hbond:GLY:151>  (198) 
0

>  <hbond:TYR:161>  (198) 
0

>  <hydroph_interaction:TYR:130>  (198) 
0

>  <hydroph_interaction:PRO:131>  (198) 
0

>  <hydroph_interaction:ASP:129>  (198) 
0

>  <saltbridge:ASP:75>  (198) 
0

>  <saltbridge:ASP:83>  (198) 
0

>  <hydroph_interaction:ASN:152>  (198) 
0

>  <halogenbond:TYR:150>  (198) 
0

>  <hbond:ASP:83>  (198) 
0

>  <hydroph_interaction:VAL:155>  (198) 
1

>  <pication:TYR:161>  (198) 
0

>  <hbond:PRO:131>  (198) 
0

>  <hbond:LEU:128>  (198) 
0

>  <saltbridge:ASP:129>  (198) 
0

>  <hbond:THR:134>  (198) 
0

>  <pication:HIS:51>  (198) 
0

>  <hbond:SER:81>  (198) 
0

>  <hbond:GLY:159>  (198) 
0

>  <hydroph_interaction:PRO:101>  (198) 
0

>  <hydroph_interaction:THR:134>  (198) 
0

>  <hbond:GLY:82>  (198) 
0

>  <hydroph_interaction:GLU:104>  (198) 
0

>  <hydroph_interaction:VAL:36>  (198) 
0

>  <hydroph_interaction:MET:49>  (198) 
0

>  <halogenbond:GLU:104>  (198) 
0

>  <hydroph_interaction:LYS:107>  (198) 
0

$$$$
MCULE-7754967700
     RDKit          3D

 26 27  0  0  0  0  0  0  0  0999 V2000
   -7.1530    4.3870  -21.2640 O   0  0  0  0  0  0  0  0  0  0  0  0
   -6.9640    5.1970  -20.1580 C   0  0  0  0  0  0  0  0  0  0  0  0
   -7.8340    5.1020  -19.0640 C   0  0  0  0  0  0  0  0  0  0  0  0
   -7.3590    5.2820  -17.7850 C   0  0  0  0  0  0  0  0  0  0  0  0
   -6.0140    5.5660  -17.5330 C   0  0  0  0  0  0  0  0  0  0  0  0
   -5.7490    5.8840  -16.0600 C   0  0  0  0  0  0  0  0  0  0  0  0
   -6.5890    5.2930  -14.9970 C   0  0  0  0  0  0  0  0  0  0  0  0
   -7.9380    5.3240  -15.2510 C   0  0  0  0  0  0  0  0  0  0  0  0
   -8.2550    5.1710  -16.7190 C   0  0  0  0  0  0  0  0  0  0  0  0
   -9.7290    4.8720  -16.8180 C   0  0  0  0  0  0  0  0  0  0  0  0
  -10.2180    4.6960  -18.1270 C   0  0  0  0  0  0  0  0  0  0  0  0
   -9.1920    4.8230  -19.2640 C   0  0  0  0  0  0  0  0  0  0  0  0
   -6.8530    4.9030  -22.0310 H   0  0  0  0  0  0  0  0  0  0  0  0
   -5.9590    4.9620  -19.7950 H   0  0  0  0  0  0  0  0  0  0  0  0
   -6.9080    6.2350  -20.4920 H   0  0  0  0  0  0  0  0  0  0  0  0
   -5.3120    4.8860  -18.0030 H   0  0  0  0  0  0  0  0  0  0  0  0
   -5.8180    6.5170  -18.0370 H   0  0  0  0  0  0  0  0  0  0  0  0
   -5.8110    6.9740  -15.9400 H   0  0  0  0  0  0  0  0  0  0  0  0
   -4.7020    5.6400  -15.8450 H   0  0  0  0  0  0  0  0  0  0  0  0
   -6.3870    5.7930  -14.0440 H   0  0  0  0  0  0  0  0  0  0  0  0
   -6.2750    4.2530  -14.8550 H   0  0  0  0  0  0  0  0  0  0  0  0
   -8.3530    6.2610  -14.8610 H   0  0  0  0  0  0  0  0  0  0  0  0
   -8.4340    4.5090  -14.7110 H   0  0  0  0  0  0  0  0  0  0  0  0
  -10.3670    4.7990  -15.9430 H   0  0  0  0  0  0  0  0  0  0  0  0
  -11.2730    4.4800  -18.3240 H   0  0  0  0  0  0  0  0  0  0  0  0
   -9.5530    4.6880  -20.2880 H   0  0  0  0  0  0  0  0  0  0  0  0
  1  2  1  0
  2  3  1  0
  3  4  2  0
  4  5  1  0
  5  6  1  0
  6  7  1  0
  7  8  1  0
  8  9  1  0
  9 10  2  0
 10 11  1  0
 11 12  2  0
  3 12  1  0
  4  9  1  0
  1 13  1  0
  2 14  1  0
  2 15  1  0
  5 16  1  0
  5 17  1  0
  6 18  1  0
  6 19  1  0
  7 20  1  0
  7 21  1  0
  8 22  1  0
  8 23  1  0
 10 24  1  0
 11 25  1  0
 12 26  1  0
A    1
 O1 
A    2
 C1 
A    3
 C2 
A    4
 C3 
A    5
 C4 
A    6
 C5 
A    7
 C6 
A    8
 C7 
A    9
 C8 
A   10
 C9 
A   11
 C10
A   12
 C11
A   13
 H1 
A   14
 H2 
A   15
 H3 
A   16
 H4 
A   17
 H5 
A   18
 H6 
A   19
 H7 
A   20
 H8 
A   21
 H9 
A   22
 H10
A   23
 H11
A   24
 H12
A   25
 H13
A   26
 H14
M  END
>  <ref_pdb>  (199) 
x0051_0B

>  <ref_mols>  (199) 
x0455_0B,x0382_0B

>  <original SMILES>  (199) 
[H]OC([H])([H])c1c([H])c([H])c([H])c2c1C([H])([H])C([H])([H])C([H])([H])C2([H])[H]

>  <index>  (199) 
218

>  <∆∆G>  (199) 
-5.674627

>  <∆G_bound>  (199) 
-5.371998

>  <∆G_unbound>  (199) 
0.302629

>  <comRMSD>  (199) 
0.694391

>  <N_constrained_atoms>  (199) 
12.0

>  <N_unconstrained_atoms>  (199) 
1.0

>  <runtime>  (199) 
17.700958

>  <LE>  (199) 
0.43651

>  <percent_hybrid>  (199) 
29.0

>  <dist>  (199) 
2.0

>  <ecfp4>  (199) 
0.3

>  <daylight>  (199) 
0.215686

>  <topodist>  (199) 
0.0

>  <mces>  (199) 
13.0

>  <tdn>  (199) 
0.0

>  <tup>  (199) 
0.0

>  <rdn>  (199) 
0.0

>  <rup>  (199) 
0.0

>  <ldn>  (199) 
0.0

>  <lup>  (199) 
0.0

>  <mut>  (199) 
2.0

>  <maj>  (199) 
2.0

>  <min>  (199) 
0.0

>  <hyb>  (199) 
0.0

>  <sub>  (199) 
0.0

>  <query_index>  (199) 
293.0

>  <max_hit_Tanimoto>  (199) 
0.136986

>  <largest_ring>  (199) 
0

>  <N_interactions_kept>  (199) 
0.0

>  <N_interactions_lost>  (199) 
1.5

>  <interaction_uniqueness_metric>  (199) 
0.108423

>  <ad_hoc_penalty>  (199) 
-24.02281

>  <N_rotatable_bonds>  (199) 
2

>  <N_HA>  (199) 
12

>  <cluster>  (199) 
6020

>  <N_interactions>  (199) 
6

>  <Enamine>  (199) 
0

>  <Mcule>  (199) 
1

>  <N_PAINS>  (199) 
0

>  <UFF_Gibbs>  (199) 
74.478216

>  <strain_per_HA>  (199) 
6.206518

>  <saltbridge:HIS:51>  (199) 
0

>  <pistack:HIS:51>  (199) 
0

>  <hydroph_interaction:HIS:51>  (199) 
0

>  <hbond:ALA:132>  (199) 
0

>  <hbond:SER:135>  (199) 
0

>  <hydroph_interaction:TYR:150>  (199) 
1

>  <pistack:TYR:161>  (199) 
0

>  <hydroph_interaction:TYR:161>  (199) 
2

>  <hydroph_interaction:ASP:83>  (199) 
0

>  <hbond:TYR:130>  (199) 
1

>  <hydroph_interaction:ALA:132>  (199) 
0

>  <hbond:HIS:51>  (199) 
0

>  <hbond:ASP:129>  (199) 
2

>  <hbond:TYR:150>  (199) 
0

>  <hbond:GLY:151>  (199) 
0

>  <hbond:TYR:161>  (199) 
0

>  <hydroph_interaction:TYR:130>  (199) 
0

>  <hydroph_interaction:PRO:131>  (199) 
0

>  <hydroph_interaction:ASP:129>  (199) 
0

>  <saltbridge:ASP:75>  (199) 
0

>  <saltbridge:ASP:83>  (199) 
0

>  <hydroph_interaction:ASN:152>  (199) 
0

>  <halogenbond:TYR:150>  (199) 
0

>  <hbond:ASP:83>  (199) 
0

>  <hydroph_interaction:VAL:155>  (199) 
0

>  <pication:TYR:161>  (199) 
0

>  <hbond:PRO:131>  (199) 
0

>  <hbond:LEU:128>  (199) 
0

>  <saltbridge:ASP:129>  (199) 
0

>  <hbond:THR:134>  (199) 
0

>  <pication:HIS:51>  (199) 
0

>  <hbond:SER:81>  (199) 
0

>  <hbond:GLY:159>  (199) 
0

>  <hydroph_interaction:PRO:101>  (199) 
0

>  <hydroph_interaction:THR:134>  (199) 
0

>  <hbond:GLY:82>  (199) 
0

>  <hydroph_interaction:GLU:104>  (199) 
0

>  <hydroph_interaction:VAL:36>  (199) 
0

>  <hydroph_interaction:MET:49>  (199) 
0

>  <halogenbond:GLU:104>  (199) 
0

>  <hydroph_interaction:LYS:107>  (199) 
0

$$$$
MCULE-9832526847
     RDKit          3D

 38 40  0  0  0  0  0  0  0  0999 V2000
   -7.8020    6.7390  -14.5860 O   0  0  0  0  0  0  0  0  0  0  0  0
   -8.2510    5.6620  -14.9340 C   0  0  0  0  0  0  0  0  0  0  0  0
   -8.5850    4.6260  -14.1220 O   0  0  0  0  0  0  0  0  0  0  0  0
   -8.8070    4.9790  -12.7450 C   0  0  0  0  0  0  0  0  0  0  0  0
   -8.8770    3.7360  -11.8760 C   0  0  0  0  0  0  0  0  0  0  0  0
   -8.5070    5.3290  -16.3530 C   0  0  0  0  0  0  0  0  0  0  0  0
   -7.5600    5.4730  -17.3590 C   0  0  0  0  0  0  0  0  0  0  0  0
   -6.2020    5.9720  -17.1310 C   0  0  0  0  0  0  0  0  0  0  0  0
   -5.8710    6.6710  -16.1880 O   0  0  0  0  0  0  0  0  0  0  0  0
   -5.3140    5.6350  -18.0950 N   0  0  0  0  0  0  0  0  0  0  0  0
   -5.6750    5.9590  -19.4270 C   0  0  0  0  0  0  0  0  0  0  0  0
   -4.5830    5.6530  -20.4680 C   0  0  0  0  0  0  0  0  0  0  0  0
   -4.2880    6.9620  -21.1960 C   0  0  0  0  0  0  0  0  0  0  0  0
   -5.4730    7.8700  -20.9180 C   0  0  0  0  0  0  0  0  0  0  0  0
   -5.9360    7.4650  -19.5350 C   0  0  0  0  0  0  0  0  0  0  0  0
   -6.9230    5.2790  -19.7180 N   0  0  0  0  0  0  0  0  0  0  0  0
   -7.8680    5.1480  -18.6930 C   0  0  0  0  0  0  0  0  0  0  0  0
   -9.1420    4.6870  -19.0050 C   0  0  0  0  0  0  0  0  0  0  0  0
  -10.0900    4.5520  -18.0100 C   0  0  0  0  0  0  0  0  0  0  0  0
   -9.7690    4.8650  -16.6860 C   0  0  0  0  0  0  0  0  0  0  0  0
   -8.0460    5.6760  -12.3810 H   0  0  0  0  0  0  0  0  0  0  0  0
   -9.7600    5.5090  -12.7050 H   0  0  0  0  0  0  0  0  0  0  0  0
   -9.1240    4.0000  -10.8430 H   0  0  0  0  0  0  0  0  0  0  0  0
   -9.6370    3.0440  -12.2510 H   0  0  0  0  0  0  0  0  0  0  0  0
   -7.9160    3.2130  -11.8550 H   0  0  0  0  0  0  0  0  0  0  0  0
   -4.3520    5.7270  -17.8080 H   0  0  0  0  0  0  0  0  0  0  0  0
   -3.6730    5.2270  -20.0380 H   0  0  0  0  0  0  0  0  0  0  0  0
   -4.9610    4.9220  -21.1970 H   0  0  0  0  0  0  0  0  0  0  0  0
   -3.3670    7.4170  -20.8110 H   0  0  0  0  0  0  0  0  0  0  0  0
   -4.1490    6.7940  -22.2690 H   0  0  0  0  0  0  0  0  0  0  0  0
   -6.2730    7.7480  -21.6600 H   0  0  0  0  0  0  0  0  0  0  0  0
   -5.1610    8.9210  -20.9320 H   0  0  0  0  0  0  0  0  0  0  0  0
   -5.4480    8.0520  -18.7480 H   0  0  0  0  0  0  0  0  0  0  0  0
   -7.0110    7.6580  -19.4680 H   0  0  0  0  0  0  0  0  0  0  0  0
   -6.8910    4.5200  -20.3910 H   0  0  0  0  0  0  0  0  0  0  0  0
   -9.4040    4.4360  -20.0300 H   0  0  0  0  0  0  0  0  0  0  0  0
  -11.0850    4.2020  -18.2660 H   0  0  0  0  0  0  0  0  0  0  0  0
  -10.4970    4.7470  -15.8960 H   0  0  0  0  0  0  0  0  0  0  0  0
  1  2  2  0
  2  3  1  0
  3  4  1  0
  4  5  1  0
  2  6  1  0
  6  7  2  0
  7  8  1  0
  8  9  2  0
  8 10  1  0
 10 11  1  0
 11 12  1  0
 12 13  1  0
 13 14  1  0
 14 15  1  0
 11 16  1  0
 16 17  1  0
 17 18  2  0
 18 19  1  0
 19 20  2  0
  6 20  1  0
  7 17  1  0
 15 11  1  0
  4 21  1  0
  4 22  1  0
  5 23  1  0
  5 24  1  0
  5 25  1  0
 10 26  1  0
 12 27  1  0
 12 28  1  0
 13 29  1  0
 13 30  1  0
 14 31  1  0
 14 32  1  0
 15 33  1  0
 15 34  1  0
 16 35  1  0
 18 36  1  0
 19 37  1  0
 20 38  1  0
A    1
 O1 
A    2
 C1 
A    3
 O2 
A    4
 C2 
A    5
 C3 
A    6
 C4 
A    7
 C5 
A    8
 C6 
A    9
 O3 
A   10
 N1 
A   11
 C7 
A   12
 C8 
A   13
 C9 
A   14
 C10
A   15
 C11
A   16
 N2 
A   17
 C12
A   18
 C13
A   19
 C14
A   20
 C15
A   21
 H1 
A   22
 H2 
A   23
 H3 
A   24
 H4 
A   25
 H5 
A   26
 H6 
A   27
 H7 
A   28
 H8 
A   29
 H9 
A   30
 H10
A   31
 H11
A   32
 H12
A   33
 H13
A   34
 H14
A   35
 H15
A   36
 H16
A   37
 H17
A   38
 H18
M  END
>  <ref_pdb>  (200) 
x0051_0B

>  <ref_mols>  (200) 
x1098_0B,x0229_0B

>  <original SMILES>  (200) 
[H]c1c([H])c(C(=O)OC([H])([H])C([H])([H])[H])c2c(c1[H])N([H])C1(N([H])C2=O)C([H])([H])C([H])([H])C([H])([H])C1([H])[H]

>  <index>  (200) 
457

>  <∆∆G>  (200) 
-7.150362

>  <∆G_bound>  (200) 
-5.67163

>  <∆G_unbound>  (200) 
1.478732

>  <comRMSD>  (200) 
0.790781

>  <N_constrained_atoms>  (200) 
25.0

>  <N_unconstrained_atoms>  (200) 
0.0

>  <runtime>  (200) 
43.330963

>  <LE>  (200) 
0.286014

>  <percent_hybrid>  (200) 
45.0

>  <dist>  (200) 
12.0

>  <ecfp4>  (200) 
0.214286

>  <daylight>  (200) 
0.317726

>  <topodist>  (200) 
5.0

>  <mces>  (200) 
22.0

>  <tdn>  (200) 
2.0

>  <tup>  (200) 
0.0

>  <rdn>  (200) 
1.0

>  <rup>  (200) 
0.0

>  <ldn>  (200) 
2.0

>  <lup>  (200) 
0.0

>  <mut>  (200) 
6.0

>  <maj>  (200) 
6.0

>  <min>  (200) 
0.0

>  <hyb>  (200) 
1.0

>  <sub>  (200) 
0.0

>  <query_index>  (200) 
28.0

>  <max_hit_Tanimoto>  (200) 
0.356044

>  <largest_ring>  (200) 
0

>  <N_interactions_kept>  (200) 
3.0

>  <N_interactions_lost>  (200) 
2.5

>  <interaction_uniqueness_metric>  (200) 
0.172717

>  <ad_hoc_penalty>  (200) 
-24.013092

>  <N_rotatable_bonds>  (200) 
3

>  <N_HA>  (200) 
20

>  <cluster>  (200) 
5803

>  <N_interactions>  (200) 
6

>  <Enamine>  (200) 
0

>  <Mcule>  (200) 
1

>  <N_PAINS>  (200) 
0

>  <UFF_Gibbs>  (200) 
44.967381

>  <strain_per_HA>  (200) 
2.248369

>  <saltbridge:HIS:51>  (200) 
1

>  <pistack:HIS:51>  (200) 
0

>  <hydroph_interaction:HIS:51>  (200) 
0

>  <hbond:ALA:132>  (200) 
0

>  <hbond:SER:135>  (200) 
0

>  <hydroph_interaction:TYR:150>  (200) 
1

>  <pistack:TYR:161>  (200) 
1

>  <hydroph_interaction:TYR:161>  (200) 
1

>  <hydroph_interaction:ASP:83>  (200) 
0

>  <hbond:TYR:130>  (200) 
1

>  <hydroph_interaction:ALA:132>  (200) 
1

>  <hbond:HIS:51>  (200) 
0

>  <hbond:ASP:129>  (200) 
0

>  <hbond:TYR:150>  (200) 
0

>  <hbond:GLY:151>  (200) 
0

>  <hbond:TYR:161>  (200) 
0

>  <hydroph_interaction:TYR:130>  (200) 
0

>  <hydroph_interaction:PRO:131>  (200) 
0

>  <hydroph_interaction:ASP:129>  (200) 
0

>  <saltbridge:ASP:75>  (200) 
0

>  <saltbridge:ASP:83>  (200) 
0

>  <hydroph_interaction:ASN:152>  (200) 
0

>  <halogenbond:TYR:150>  (200) 
0

>  <hbond:ASP:83>  (200) 
0

>  <hydroph_interaction:VAL:155>  (200) 
0

>  <pication:TYR:161>  (200) 
0

>  <hbond:PRO:131>  (200) 
0

>  <hbond:LEU:128>  (200) 
0

>  <saltbridge:ASP:129>  (200) 
0

>  <hbond:THR:134>  (200) 
0

>  <pication:HIS:51>  (200) 
0

>  <hbond:SER:81>  (200) 
0

>  <hbond:GLY:159>  (200) 
0

>  <hydroph_interaction:PRO:101>  (200) 
0

>  <hydroph_interaction:THR:134>  (200) 
0

>  <hbond:GLY:82>  (200) 
0

>  <hydroph_interaction:GLU:104>  (200) 
0

>  <hydroph_interaction:VAL:36>  (200) 
0

>  <hydroph_interaction:MET:49>  (200) 
0

>  <halogenbond:GLU:104>  (200) 
0

>  <hydroph_interaction:LYS:107>  (200) 
0

$$$$
AWYBBLXIHOBMNS-UHFFFAOYSA-N
     RDKit          3D

 42 45  0  0  0  0  0  0  0  0999 V2000
   -8.4520    7.2110  -13.9170 C   0  0  0  0  0  0  0  0  0  0  0  0
   -7.7100    6.4090  -14.7810 N   0  0  0  0  0  0  0  0  0  0  0  0
   -8.2190    5.8120  -16.0040 C   0  0  0  0  0  0  0  0  0  0  0  0
   -7.2500    5.6590  -17.1450 C   0  0  0  0  0  0  0  0  0  0  0  0
   -7.6180    5.1410  -18.3600 C   0  0  0  0  0  0  0  0  0  0  0  0
   -6.5240    5.1100  -19.2780 C   0  0  0  0  0  0  0  0  0  0  0  0
   -5.4180    5.6000  -18.6690 N   0  0  0  0  0  0  0  0  0  0  0  0
   -5.8910    5.9200  -17.3950 N   0  0  0  0  0  0  0  0  0  0  0  0
   -8.9060    4.6870  -18.6920 C   0  0  0  0  0  0  0  0  0  0  0  0
   -9.8250    4.7900  -17.6750 C   0  0  0  0  0  0  0  0  0  0  0  0
   -9.5020    5.3550  -16.2960 C   0  0  0  0  0  0  0  0  0  0  0  0
   -8.8850    8.3400  -14.1210 O   0  0  0  0  0  0  0  0  0  0  0  0
   -8.6440    6.5680  -12.6040 C   0  0  0  0  0  0  0  0  0  0  0  0
   -8.8070    5.1860  -12.6270 N   0  0  0  0  0  0  0  0  0  0  0  0
   -8.9800    4.4900  -11.4540 N   0  0  0  0  0  0  0  0  0  0  0  0
   -8.9970    5.1110  -10.2490 C   0  0  0  0  0  0  0  0  0  0  0  0
   -9.1770    4.3980   -9.0670 N   0  0  0  0  0  0  0  0  0  0  0  0
   -9.1720    2.9330   -9.2350 C   0  0  0  0  0  0  0  0  0  0  0  0
   -9.4570    2.4120   -7.9900 C   0  0  0  0  0  0  0  0  0  0  0  0
   -8.5200    2.8790   -7.0880 C   0  0  0  0  0  0  0  0  0  0  0  0
   -8.8020    4.1880   -6.7840 C   0  0  0  0  0  0  0  0  0  0  0  0
   -8.5270    4.9860   -7.8760 C   0  0  0  0  0  0  0  0  0  0  0  0
   -8.8380    6.4820  -10.1890 C   0  0  0  0  0  0  0  0  0  0  0  0
   -8.6470    7.2950  -11.4420 C   0  0  0  0  0  0  0  0  0  0  0  0
   -6.7700    6.1510  -14.5180 H   0  0  0  0  0  0  0  0  0  0  0  0
   -6.4860    4.7650  -20.3060 H   0  0  0  0  0  0  0  0  0  0  0  0
   -5.2220    6.3160  -16.7460 H   0  0  0  0  0  0  0  0  0  0  0  0
   -9.1700    4.2790  -19.6740 H   0  0  0  0  0  0  0  0  0  0  0  0
  -10.8470    4.4510  -17.8680 H   0  0  0  0  0  0  0  0  0  0  0  0
  -10.3400    5.3720  -15.5980 H   0  0  0  0  0  0  0  0  0  0  0  0
   -9.9860    2.6150   -9.8970 H   0  0  0  0  0  0  0  0  0  0  0  0
   -8.2430    2.6270   -9.7240 H   0  0  0  0  0  0  0  0  0  0  0  0
  -10.4140    2.7360   -7.5810 H   0  0  0  0  0  0  0  0  0  0  0  0
   -9.5840    1.3380   -7.9860 H   0  0  0  0  0  0  0  0  0  0  0  0
   -7.5220    2.8350   -7.4850 H   0  0  0  0  0  0  0  0  0  0  0  0
   -8.3910    2.2490   -6.2290 H   0  0  0  0  0  0  0  0  0  0  0  0
   -9.7630    4.3650   -6.3070 H   0  0  0  0  0  0  0  0  0  0  0  0
   -8.0780    4.4700   -6.0100 H   0  0  0  0  0  0  0  0  0  0  0  0
   -8.8920    6.0050   -7.6900 H   0  0  0  0  0  0  0  0  0  0  0  0
   -7.4380    5.0280   -8.0060 H   0  0  0  0  0  0  0  0  0  0  0  0
   -8.8390    7.0830   -9.2730 H   0  0  0  0  0  0  0  0  0  0  0  0
   -8.5180    8.3780  -11.4250 H   0  0  0  0  0  0  0  0  0  0  0  0
  1  2  1  0
  2  3  1  0
  3  4  1  0
  4  5  2  0
  5  6  1  0
  6  7  2  0
  7  8  1  0
  5  9  1  0
  9 10  2  0
 10 11  1  0
  1 12  2  0
  1 13  1  0
 13 14  2  0
 14 15  1  0
 15 16  2  0
 16 17  1  0
 17 18  1  0
 18 19  1  0
 19 20  1  0
 20 21  1  0
 21 22  1  0
 16 23  1  0
 23 24  2  0
  3 11  2  0
  8  4  1  0
 24 13  1  0
 22 17  1  0
  2 25  1  0
  6 26  1  0
  8 27  1  0
  9 28  1  0
 10 29  1  0
 11 30  1  0
 18 31  1  0
 18 32  1  0
 19 33  1  0
 19 34  1  0
 20 35  1  0
 20 36  1  0
 21 37  1  0
 21 38  1  0
 22 39  1  0
 22 40  1  0
 23 41  1  0
 24 42  1  0
A    1
 C1 
A    2
 N1 
A    3
 C2 
A    4
 C3 
A    5
 C4 
A    6
 C5 
A    7
 N2 
A    8
 N3 
A    9
 C6 
A   10
 C7 
A   11
 C8 
A   12
 O1 
A   13
 C9 
A   14
 N4 
A   15
 N5 
A   16
 C10
A   17
 N6 
A   18
 C11
A   19
 C12
A   20
 C13
A   21
 C14
A   22
 C15
A   23
 C16
A   24
 C17
A   25
 H1 
A   26
 H2 
A   27
 H3 
A   28
 H4 
A   29
 H5 
A   30
 H6 
A   31
 H7 
A   32
 H8 
A   33
 H9 
A   34
 H10
A   35
 H11
A   36
 H12
A   37
 H13
A   38
 H14
A   39
 H15
A   40
 H16
A   41
 H17
A   42
 H18
M  END
>  <ref_pdb>  (201) 
x0051_0B

>  <ref_mols>  (201) 
x0435_0B,x0404_0B

>  <original SMILES>  (201) 
[H]c1c(C(=O)N([H])c2c([H])c([H])c([H])c3c([H])nn([H])c23)nnc(N2C([H])([H])C([H])([H])C([H])([H])C([H])([H])C2([H])[H])c1[H]

>  <index>  (201) 
242

>  <∆∆G>  (201) 
-6.881426

>  <∆G_bound>  (201) 
-6.182662

>  <∆G_unbound>  (201) 
0.698764

>  <comRMSD>  (201) 
0.539173

>  <N_constrained_atoms>  (201) 
25.0

>  <N_unconstrained_atoms>  (201) 
0.0

>  <runtime>  (201) 
71.858432

>  <LE>  (201) 
0.275257

>  <percent_hybrid>  (201) 
40.0

>  <dist>  (201) 
10.0

>  <ecfp4>  (201) 
0.130435

>  <daylight>  (201) 
0.229452

>  <topodist>  (201) 
3.0

>  <mces>  (201) 
27.0

>  <tdn>  (201) 
2.0

>  <tup>  (201) 
0.0

>  <rdn>  (201) 
0.0

>  <rup>  (201) 
0.0

>  <ldn>  (201) 
1.0

>  <lup>  (201) 
0.0

>  <mut>  (201) 
5.0

>  <maj>  (201) 
5.0

>  <min>  (201) 
0.0

>  <hyb>  (201) 
2.0

>  <sub>  (201) 
1.0

>  <query_index>  (201) 
26.0

>  <max_hit_Tanimoto>  (201) 
0.189135

>  <largest_ring>  (201) 
0

>  <N_interactions_kept>  (201) 
3.0

>  <N_interactions_lost>  (201) 
1.5

>  <interaction_uniqueness_metric>  (201) 
0.163263

>  <ad_hoc_penalty>  (201) 
-23.97654

>  <N_rotatable_bonds>  (201) 
3

>  <N_HA>  (201) 
24

>  <cluster>  (201) 
5998

>  <N_interactions>  (201) 
5

>  <Enamine>  (201) 
0

>  <Mcule>  (201) 
1

>  <N_PAINS>  (201) 
0

>  <UFF_Gibbs>  (201) 
146.931095

>  <strain_per_HA>  (201) 
6.122129

>  <saltbridge:HIS:51>  (201) 
0

>  <pistack:HIS:51>  (201) 
1

>  <hydroph_interaction:HIS:51>  (201) 
1

>  <hbond:ALA:132>  (201) 
0

>  <hbond:SER:135>  (201) 
0

>  <hydroph_interaction:TYR:150>  (201) 
0

>  <pistack:TYR:161>  (201) 
0

>  <hydroph_interaction:TYR:161>  (201) 
2

>  <hydroph_interaction:ASP:83>  (201) 
1

>  <hbond:TYR:130>  (201) 
0

>  <hydroph_interaction:ALA:132>  (201) 
0

>  <hbond:HIS:51>  (201) 
0

>  <hbond:ASP:129>  (201) 
0

>  <hbond:TYR:150>  (201) 
0

>  <hbond:GLY:151>  (201) 
0

>  <hbond:TYR:161>  (201) 
0

>  <hydroph_interaction:TYR:130>  (201) 
0

>  <hydroph_interaction:PRO:131>  (201) 
0

>  <hydroph_interaction:ASP:129>  (201) 
0

>  <saltbridge:ASP:75>  (201) 
0

>  <saltbridge:ASP:83>  (201) 
0

>  <hydroph_interaction:ASN:152>  (201) 
0

>  <halogenbond:TYR:150>  (201) 
0

>  <hbond:ASP:83>  (201) 
0

>  <hydroph_interaction:VAL:155>  (201) 
0

>  <pication:TYR:161>  (201) 
0

>  <hbond:PRO:131>  (201) 
0

>  <hbond:LEU:128>  (201) 
0

>  <saltbridge:ASP:129>  (201) 
0

>  <hbond:THR:134>  (201) 
0

>  <pication:HIS:51>  (201) 
0

>  <hbond:SER:81>  (201) 
0

>  <hbond:GLY:159>  (201) 
0

>  <hydroph_interaction:PRO:101>  (201) 
0

>  <hydroph_interaction:THR:134>  (201) 
0

>  <hbond:GLY:82>  (201) 
0

>  <hydroph_interaction:GLU:104>  (201) 
0

>  <hydroph_interaction:VAL:36>  (201) 
0

>  <hydroph_interaction:MET:49>  (201) 
0

>  <halogenbond:GLU:104>  (201) 
0

>  <hydroph_interaction:LYS:107>  (201) 
0

$$$$
PV-002401566930
     RDKit          3D

 28 30  0  0  0  0  0  0  0  0999 V2000
  -10.1660    4.7570  -18.0140 C   0  0  0  0  0  0  0  0  0  0  0  0
   -9.6410    5.0090  -16.7770 C   0  0  0  0  0  0  0  0  0  0  0  0
   -8.2370    5.4010  -16.4820 C   0  0  0  0  0  0  0  0  0  0  0  0
   -7.4530    5.4730  -17.7940 C   0  0  0  0  0  0  0  0  0  0  0  0
   -8.0560    5.1940  -19.0280 C   0  0  0  0  0  0  0  0  0  0  0  0
   -9.3880    4.8430  -19.1550 C   0  0  0  0  0  0  0  0  0  0  0  0
   -7.1370    5.3230  -20.0380 N   0  0  0  0  0  0  0  0  0  0  0  0
   -6.0240    5.6680  -19.4610 C   0  0  0  0  0  0  0  0  0  0  0  0
   -6.1710    5.7720  -18.1150 N   0  0  0  0  0  0  0  0  0  0  0  0
   -5.1140    6.1330  -17.2190 C   0  0  0  0  0  0  0  0  0  0  0  0
   -4.0250    5.0970  -17.3240 C   0  0  0  0  0  0  0  0  0  0  0  0
   -2.6790    5.5720  -17.9910 C   0  0  0  0  0  0  0  0  0  0  0  0
   -2.2040    4.9730  -16.7340 C   0  0  0  0  0  0  0  0  0  0  0  0
   -3.2810    4.6960  -15.9850 C   0  0  0  0  0  0  0  0  0  0  0  0
  -11.2230    4.4900  -18.0240 H   0  0  0  0  0  0  0  0  0  0  0  0
  -10.3080    4.9170  -15.9250 H   0  0  0  0  0  0  0  0  0  0  0  0
   -7.8450    5.5980  -15.4920 H   0  0  0  0  0  0  0  0  0  0  0  0
   -9.7890    4.6480  -20.1360 H   0  0  0  0  0  0  0  0  0  0  0  0
   -5.0880    5.8550  -19.9680 H   0  0  0  0  0  0  0  0  0  0  0  0
   -5.5330    6.1630  -16.2050 H   0  0  0  0  0  0  0  0  0  0  0  0
   -4.7650    7.1410  -17.4690 H   0  0  0  0  0  0  0  0  0  0  0  0
   -4.4020    4.2170  -17.8480 H   0  0  0  0  0  0  0  0  0  0  0  0
   -2.3830    5.0760  -18.9180 H   0  0  0  0  0  0  0  0  0  0  0  0
   -2.5430    6.6560  -18.0650 H   0  0  0  0  0  0  0  0  0  0  0  0
   -1.5460    5.6710  -16.2050 H   0  0  0  0  0  0  0  0  0  0  0  0
   -1.6000    4.0800  -16.9140 H   0  0  0  0  0  0  0  0  0  0  0  0
   -3.4270    5.3830  -15.1420 H   0  0  0  0  0  0  0  0  0  0  0  0
   -3.3900    3.6630  -15.6520 H   0  0  0  0  0  0  0  0  0  0  0  0
  1  2  2  0
  2  3  1  0
  3  4  2  0
  4  5  1  0
  5  6  2  0
  5  7  1  0
  7  8  2  0
  8  9  1  0
  9 10  1  0
 10 11  1  0
 11 12  1  0
 12 13  1  0
 13 14  1  0
  6  1  1  0
  9  4  1  0
 14 11  1  0
  1 15  1  0
  2 16  1  0
  3 17  1  0
  6 18  1  0
  8 19  1  0
 10 20  1  0
 10 21  1  0
 11 22  1  0
 12 23  1  0
 12 24  1  0
 13 25  1  0
 13 26  1  0
 14 27  1  0
 14 28  1  0
A    1
 C1 
A    2
 C2 
A    3
 C3 
A    4
 C4 
A    5
 C5 
A    6
 C6 
A    7
 N1 
A    8
 C7 
A    9
 N2 
A   10
 C8 
A   11
 C9 
A   12
 C10
A   13
 C11
A   14
 C12
A   15
 H1 
A   16
 H2 
A   17
 H3 
A   18
 H4 
A   19
 H5 
A   20
 H6 
A   21
 H7 
A   22
 H8 
A   23
 H9 
A   24
 H10
A   25
 H11
A   26
 H12
A   27
 H13
A   28
 H14
M  END
>  <ref_pdb>  (202) 
x0051_0B

>  <ref_mols>  (202) 
x0490_0B,x0472_0B

>  <original SMILES>  (202) 
[H]c1c([H])c([H])c2c(nc([H])n2C([H])([H])C2([H])C([H])([H])C([H])([H])C2([H])[H])c1[H]

>  <index>  (202) 
237

>  <∆∆G>  (202) 
-5.044708

>  <∆G_bound>  (202) 
-4.842594

>  <∆G_unbound>  (202) 
0.202114

>  <comRMSD>  (202) 
0.825161

>  <N_constrained_atoms>  (202) 
16.0

>  <N_unconstrained_atoms>  (202) 
0.0

>  <runtime>  (202) 
23.5976

>  <LE>  (202) 
0.315294

>  <percent_hybrid>  (202) 
38.0

>  <dist>  (202) 
2.0

>  <ecfp4>  (202) 
0.560976

>  <daylight>  (202) 
0.776471

>  <topodist>  (202) 
1.0

>  <mces>  (202) 
15.0

>  <tdn>  (202) 
0.0

>  <tup>  (202) 
0.0

>  <rdn>  (202) 
0.0

>  <rup>  (202) 
1.0

>  <ldn>  (202) 
0.0

>  <lup>  (202) 
0.0

>  <mut>  (202) 
1.0

>  <maj>  (202) 
1.0

>  <min>  (202) 
0.0

>  <hyb>  (202) 
0.0

>  <sub>  (202) 
1.0

>  <query_index>  (202) 
228.0

>  <max_hit_Tanimoto>  (202) 
0.759709

>  <largest_ring>  (202) 
0

>  <N_interactions_kept>  (202) 
3.0

>  <N_interactions_lost>  (202) 
1.0

>  <interaction_uniqueness_metric>  (202) 
0.053763

>  <ad_hoc_penalty>  (202) 
-23.96672

>  <N_rotatable_bonds>  (202) 
2

>  <N_HA>  (202) 
14

>  <cluster>  (202) 
6003

>  <N_interactions>  (202) 
5

>  <Enamine>  (202) 
1

>  <Mcule>  (202) 
0

>  <N_PAINS>  (202) 
0

>  <UFF_Gibbs>  (202) 
72.833143

>  <strain_per_HA>  (202) 
5.202367

>  <saltbridge:HIS:51>  (202) 
0

>  <pistack:HIS:51>  (202) 
0

>  <hydroph_interaction:HIS:51>  (202) 
0

>  <hbond:ALA:132>  (202) 
0

>  <hbond:SER:135>  (202) 
0

>  <hydroph_interaction:TYR:150>  (202) 
1

>  <pistack:TYR:161>  (202) 
0

>  <hydroph_interaction:TYR:161>  (202) 
3

>  <hydroph_interaction:ASP:83>  (202) 
0

>  <hbond:TYR:130>  (202) 
0

>  <hydroph_interaction:ALA:132>  (202) 
1

>  <hbond:HIS:51>  (202) 
0

>  <hbond:ASP:129>  (202) 
0

>  <hbond:TYR:150>  (202) 
0

>  <hbond:GLY:151>  (202) 
0

>  <hbond:TYR:161>  (202) 
0

>  <hydroph_interaction:TYR:130>  (202) 
0

>  <hydroph_interaction:PRO:131>  (202) 
0

>  <hydroph_interaction:ASP:129>  (202) 
0

>  <saltbridge:ASP:75>  (202) 
0

>  <saltbridge:ASP:83>  (202) 
0

>  <hydroph_interaction:ASN:152>  (202) 
0

>  <halogenbond:TYR:150>  (202) 
0

>  <hbond:ASP:83>  (202) 
0

>  <hydroph_interaction:VAL:155>  (202) 
0

>  <pication:TYR:161>  (202) 
0

>  <hbond:PRO:131>  (202) 
0

>  <hbond:LEU:128>  (202) 
0

>  <saltbridge:ASP:129>  (202) 
0

>  <hbond:THR:134>  (202) 
0

>  <pication:HIS:51>  (202) 
0

>  <hbond:SER:81>  (202) 
0

>  <hbond:GLY:159>  (202) 
0

>  <hydroph_interaction:PRO:101>  (202) 
0

>  <hydroph_interaction:THR:134>  (202) 
0

>  <hbond:GLY:82>  (202) 
0

>  <hydroph_interaction:GLU:104>  (202) 
0

>  <hydroph_interaction:VAL:36>  (202) 
0

>  <hydroph_interaction:MET:49>  (202) 
0

>  <halogenbond:GLU:104>  (202) 
0

>  <hydroph_interaction:LYS:107>  (202) 
0

$$$$
Z2853439340
     RDKit          3D

 46 48  0  0  0  0  0  0  0  0999 V2000
  -10.8490    5.0740  -18.3150 C   0  0  0  0  0  0  0  0  0  0  0  0
   -9.6730    4.3590  -18.7770 C   0  0  0  0  0  0  0  0  0  0  0  0
   -8.4830    4.7720  -18.3140 C   0  0  0  0  0  0  0  0  0  0  0  0
   -7.4190    5.1600  -19.2280 C   0  0  0  0  0  0  0  0  0  0  0  0
   -6.1790    5.5720  -18.8190 C   0  0  0  0  0  0  0  0  0  0  0  0
   -5.9500    5.6080  -17.2600 C   0  0  0  0  0  0  0  0  0  0  0  0
   -6.9850    5.2370  -16.4210 C   0  0  0  0  0  0  0  0  0  0  0  0
   -6.6810    5.3040  -14.9550 C   0  0  0  0  0  0  0  0  0  0  0  0
   -7.6950    4.6230  -14.1500 N   0  0  0  0  0  0  0  0  0  0  0  0
   -7.5850    4.9040  -12.7060 C   0  0  0  0  0  0  0  0  0  0  0  0
   -8.6190    5.6740  -12.1790 C   0  0  0  0  0  0  0  0  0  0  0  0
   -8.7300    5.5950  -10.7060 C   0  0  0  0  0  0  0  0  0  0  0  0
   -8.9260    4.4000   -9.8540 C   0  0  0  0  0  0  0  0  0  0  0  0
   -9.0710    2.9250  -10.1560 C   0  0  0  0  0  0  0  0  0  0  0  0
   -8.7070    2.1730   -8.9050 C   0  0  0  0  0  0  0  0  0  0  0  0
   -9.5390    2.6360   -7.7230 C   0  0  0  0  0  0  0  0  0  0  0  0
   -9.1490    4.0640   -7.3700 C   0  0  0  0  0  0  0  0  0  0  0  0
   -8.9650    4.8750   -8.5670 N   0  0  0  0  0  0  0  0  0  0  0  0
   -8.8160    6.2090   -8.4790 N   0  0  0  0  0  0  0  0  0  0  0  0
   -8.6790    6.6390   -9.7470 C   0  0  0  0  0  0  0  0  0  0  0  0
   -8.2340    4.8250  -16.9260 C   0  0  0  0  0  0  0  0  0  0  0  0
  -11.6470    4.3780  -18.0890 H   0  0  0  0  0  0  0  0  0  0  0  0
  -11.2070    5.7640  -19.0850 H   0  0  0  0  0  0  0  0  0  0  0  0
  -10.6140    5.6410  -17.4150 H   0  0  0  0  0  0  0  0  0  0  0  0
   -9.6250    4.4850  -19.8640 H   0  0  0  0  0  0  0  0  0  0  0  0
   -9.7700    3.2980  -18.5730 H   0  0  0  0  0  0  0  0  0  0  0  0
   -7.6850    5.0950  -20.2840 H   0  0  0  0  0  0  0  0  0  0  0  0
   -5.4140    5.8510  -19.5420 H   0  0  0  0  0  0  0  0  0  0  0  0
   -4.9930    5.9210  -16.8520 H   0  0  0  0  0  0  0  0  0  0  0  0
   -5.6970    4.8560  -14.7840 H   0  0  0  0  0  0  0  0  0  0  0  0
   -6.6030    6.3400  -14.6520 H   0  0  0  0  0  0  0  0  0  0  0  0
   -7.6330    3.6140  -14.3360 H   0  0  0  0  0  0  0  0  0  0  0  0
   -6.6450    5.4460  -12.5630 H   0  0  0  0  0  0  0  0  0  0  0  0
   -7.5100    3.9590  -12.1550 H   0  0  0  0  0  0  0  0  0  0  0  0
   -8.5070    6.7210  -12.4880 H   0  0  0  0  0  0  0  0  0  0  0  0
   -9.5410    5.3030  -12.6390 H   0  0  0  0  0  0  0  0  0  0  0  0
   -8.3930    2.6470  -10.9730 H   0  0  0  0  0  0  0  0  0  0  0  0
  -10.0890    2.6700  -10.4620 H   0  0  0  0  0  0  0  0  0  0  0  0
   -7.6510    2.3470   -8.6790 H   0  0  0  0  0  0  0  0  0  0  0  0
   -8.8260    1.1130   -9.0560 H   0  0  0  0  0  0  0  0  0  0  0  0
  -10.6080    2.5750   -7.9500 H   0  0  0  0  0  0  0  0  0  0  0  0
   -9.3450    1.9730   -6.8790 H   0  0  0  0  0  0  0  0  0  0  0  0
   -9.9190    4.5330   -6.7470 H   0  0  0  0  0  0  0  0  0  0  0  0
   -8.1960    4.0790   -6.8300 H   0  0  0  0  0  0  0  0  0  0  0  0
   -8.5480    7.6980   -9.9220 H   0  0  0  0  0  0  0  0  0  0  0  0
   -9.0250    4.5370  -16.2370 H   0  0  0  0  0  0  0  0  0  0  0  0
  1  2  1  0
  2  3  1  0
  3  4  2  0
  4  5  1  0
  5  6  2  0
  6  7  1  0
  7  8  1  0
  8  9  1  0
  9 10  1  0
 10 11  1  0
 11 12  1  0
 12 13  2  0
 13 14  1  0
 14 15  1  0
 15 16  1  0
 16 17  1  0
 17 18  1  0
 18 19  1  0
 19 20  2  0
  7 21  2  0
 21  3  1  0
 20 12  1  0
 18 13  1  0
  1 22  1  0
  1 23  1  0
  1 24  1  0
  2 25  1  0
  2 26  1  0
  4 27  1  0
  5 28  1  0
  6 29  1  0
  8 30  1  0
  8 31  1  0
  9 32  1  0
 10 33  1  0
 10 34  1  0
 11 35  1  0
 11 36  1  0
 14 37  1  0
 14 38  1  0
 15 39  1  0
 15 40  1  0
 16 41  1  0
 16 42  1  0
 17 43  1  0
 17 44  1  0
 20 45  1  0
 21 46  1  0
A    1
 C1 
A    2
 C2 
A    3
 C3 
A    4
 C4 
A    5
 C5 
A    6
 C6 
A    7
 C7 
A    8
 C8 
A    9
 N1 
A   10
 C9 
A   11
 C10
A   12
 C11
A   13
 C12
A   14
 C13
A   15
 C14
A   16
 C15
A   17
 C16
A   18
 N2 
A   19
 N3 
A   20
 C17
A   21
 C18
A   22
 H1 
A   23
 H2 
A   24
 H3 
A   25
 H4 
A   26
 H5 
A   27
 H6 
A   28
 H7 
A   29
 H8 
A   30
 H9 
A   31
 H10
A   32
 H11
A   33
 H12
A   34
 H13
A   35
 H14
A   36
 H15
A   37
 H16
A   38
 H17
A   39
 H18
A   40
 H19
A   41
 H20
A   42
 H21
A   43
 H22
A   44
 H23
A   45
 H24
A   46
 H25
M  END
>  <ref_pdb>  (203) 
x0051_0B

>  <ref_mols>  (203) 
x0605_0B,x0969_1B

>  <original SMILES>  (203) 
[H]c1nn2c(c1C([H])([H])C([H])([H])N([H])C([H])([H])c1c([H])c([H])c([H])c(C([H])([H])C([H])([H])[H])c1[H])C([H])([H])C([H])([H])C([H])([H])C2([H])[H]

>  <index>  (203) 
371

>  <∆∆G>  (203) 
-8.897142

>  <∆G_bound>  (203) 
-8.658478

>  <∆G_unbound>  (203) 
0.238665

>  <comRMSD>  (203) 
0.628253

>  <N_constrained_atoms>  (203) 
19.0

>  <N_unconstrained_atoms>  (203) 
2.0

>  <runtime>  (203) 
64.534415

>  <LE>  (203) 
0.423673

>  <percent_hybrid>  (203) 
48.0

>  <dist>  (203) 
4.0

>  <ecfp4>  (203) 
0.38806

>  <daylight>  (203) 
0.334615

>  <topodist>  (203) 
0.0

>  <mces>  (203) 
23.0

>  <tdn>  (203) 
0.0

>  <tup>  (203) 
0.0

>  <rdn>  (203) 
0.0

>  <rup>  (203) 
0.0

>  <ldn>  (203) 
0.0

>  <lup>  (203) 
0.0

>  <mut>  (203) 
2.0

>  <maj>  (203) 
2.0

>  <min>  (203) 
0.0

>  <hyb>  (203) 
2.0

>  <sub>  (203) 
0.0

>  <query_index>  (203) 
307.0

>  <max_hit_Tanimoto>  (203) 
0.365541

>  <largest_ring>  (203) 
0

>  <N_interactions_kept>  (203) 
1.5

>  <N_interactions_lost>  (203) 
1.5

>  <interaction_uniqueness_metric>  (203) 
0.192849

>  <ad_hoc_penalty>  (203) 
-23.954335

>  <N_rotatable_bonds>  (203) 
7

>  <N_HA>  (203) 
21

>  <cluster>  (203) 
5878

>  <N_interactions>  (203) 
6

>  <Enamine>  (203) 
1

>  <Mcule>  (203) 
0

>  <N_PAINS>  (203) 
0

>  <UFF_Gibbs>  (203) 
78.951944

>  <strain_per_HA>  (203) 
3.759616

>  <saltbridge:HIS:51>  (203) 
0

>  <pistack:HIS:51>  (203) 
1

>  <hydroph_interaction:HIS:51>  (203) 
0

>  <hbond:ALA:132>  (203) 
0

>  <hbond:SER:135>  (203) 
0

>  <hydroph_interaction:TYR:150>  (203) 
1

>  <pistack:TYR:161>  (203) 
1

>  <hydroph_interaction:TYR:161>  (203) 
1

>  <hydroph_interaction:ASP:83>  (203) 
1

>  <hbond:TYR:130>  (203) 
0

>  <hydroph_interaction:ALA:132>  (203) 
0

>  <hbond:HIS:51>  (203) 
0

>  <hbond:ASP:129>  (203) 
0

>  <hbond:TYR:150>  (203) 
0

>  <hbond:GLY:151>  (203) 
0

>  <hbond:TYR:161>  (203) 
1

>  <hydroph_interaction:TYR:130>  (203) 
0

>  <hydroph_interaction:PRO:131>  (203) 
0

>  <hydroph_interaction:ASP:129>  (203) 
0

>  <saltbridge:ASP:75>  (203) 
0

>  <saltbridge:ASP:83>  (203) 
0

>  <hydroph_interaction:ASN:152>  (203) 
0

>  <halogenbond:TYR:150>  (203) 
0

>  <hbond:ASP:83>  (203) 
0

>  <hydroph_interaction:VAL:155>  (203) 
0

>  <pication:TYR:161>  (203) 
0

>  <hbond:PRO:131>  (203) 
0

>  <hbond:LEU:128>  (203) 
0

>  <saltbridge:ASP:129>  (203) 
0

>  <hbond:THR:134>  (203) 
0

>  <pication:HIS:51>  (203) 
0

>  <hbond:SER:81>  (203) 
0

>  <hbond:GLY:159>  (203) 
0

>  <hydroph_interaction:PRO:101>  (203) 
0

>  <hydroph_interaction:THR:134>  (203) 
0

>  <hbond:GLY:82>  (203) 
0

>  <hydroph_interaction:GLU:104>  (203) 
0

>  <hydroph_interaction:VAL:36>  (203) 
0

>  <hydroph_interaction:MET:49>  (203) 
0

>  <halogenbond:GLU:104>  (203) 
0

>  <hydroph_interaction:LYS:107>  (203) 
0

$$$$
CSSS00015190321
     RDKit          3D

 22 23  0  0  0  0  0  0  0  0999 V2000
   -8.3820    4.5360  -14.1720 N   0  0  0  0  0  0  0  0  0  0  0  0
   -7.8750    5.4900  -15.1480 C   0  0  0  0  0  0  0  0  0  0  0  0
   -6.3630    5.4170  -15.1330 C   0  0  0  0  0  0  0  0  0  0  0  0
   -5.7800    6.1760  -16.2710 C   0  0  0  0  0  0  0  0  0  0  0  0
   -6.1750    5.6650  -17.5380 O   0  0  0  0  0  0  0  0  0  0  0  0
   -7.4980    5.3540  -17.6440 C   0  0  0  0  0  0  0  0  0  0  0  0
   -7.9570    5.1410  -18.9430 C   0  0  0  0  0  0  0  0  0  0  0  0
   -9.2890    4.8170  -19.1690 C   0  0  0  0  0  0  0  0  0  0  0  0
  -10.1700    4.7040  -18.0880 C   0  0  0  0  0  0  0  0  0  0  0  0
   -9.6860    4.9230  -16.7800 C   0  0  0  0  0  0  0  0  0  0  0  0
   -8.3690    5.2470  -16.5520 C   0  0  0  0  0  0  0  0  0  0  0  0
   -8.0320    3.5790  -14.2800 H   0  0  0  0  0  0  0  0  0  0  0  0
   -9.3970    4.4530  -14.3230 H   0  0  0  0  0  0  0  0  0  0  0  0
   -8.2160    6.4940  -14.8670 H   0  0  0  0  0  0  0  0  0  0  0  0
   -6.0630    4.3690  -15.1940 H   0  0  0  0  0  0  0  0  0  0  0  0
   -6.0050    5.8480  -14.1870 H   0  0  0  0  0  0  0  0  0  0  0  0
   -6.1100    7.2230  -16.2170 H   0  0  0  0  0  0  0  0  0  0  0  0
   -4.6860    6.1660  -16.1970 H   0  0  0  0  0  0  0  0  0  0  0  0
   -7.2730    5.2270  -19.7820 H   0  0  0  0  0  0  0  0  0  0  0  0
   -9.6390    4.6520  -20.1800 H   0  0  0  0  0  0  0  0  0  0  0  0
  -11.2110    4.4500  -18.2610 H   0  0  0  0  0  0  0  0  0  0  0  0
  -10.3480    4.8400  -15.9320 H   0  0  0  0  0  0  0  0  0  0  0  0
  1  2  1  0
  2  3  1  0
  3  4  1  0
  4  5  1  0
  5  6  1  0
  6  7  2  0
  7  8  1  0
  8  9  2  0
  9 10  1  0
 10 11  2  0
 11  2  1  0
 11  6  1  0
  1 12  1  0
  1 13  1  0
  2 14  1  0
  3 15  1  0
  3 16  1  0
  4 17  1  0
  4 18  1  0
  7 19  1  0
  8 20  1  0
  9 21  1  0
 10 22  1  0
A    1
 N1 
A    2
 C1 
A    3
 C2 
A    4
 C3 
A    5
 O1 
A    6
 C4 
A    7
 C5 
A    8
 C6 
A    9
 C7 
A   10
 C8 
A   11
 C9 
A   12
 H1 
A   13
 H2 
A   14
 H3 
A   15
 H4 
A   16
 H5 
A   17
 H6 
A   18
 H7 
A   19
 H8 
A   20
 H9 
A   21
 H10
A   22
 H11
M  END
>  <ref_pdb>  (204) 
x0051_0B

>  <ref_mols>  (204) 
x0455_0B,x0951_0B

>  <original SMILES>  (204) 
[H]c1c([H])c([H])c2c(c1[H])OC([H])([H])C([H])([H])C2([H])N([H])[H]

>  <index>  (204) 
450

>  <∆∆G>  (204) 
-6.477053

>  <∆G_bound>  (204) 
-6.421447

>  <∆G_unbound>  (204) 
0.055605

>  <comRMSD>  (204) 
0.616996

>  <N_constrained_atoms>  (204) 
12.0

>  <N_unconstrained_atoms>  (204) 
0.0

>  <runtime>  (204) 
19.001329

>  <LE>  (204) 
0.539754

>  <percent_hybrid>  (204) 
50.0

>  <dist>  (204) 
4.0

>  <ecfp4>  (204) 
0.137255

>  <daylight>  (204) 
0.16

>  <topodist>  (204) 
2.0

>  <mces>  (204) 
12.0

>  <tdn>  (204) 
1.0

>  <tup>  (204) 
0.0

>  <rdn>  (204) 
0.0

>  <rup>  (204) 
0.0

>  <ldn>  (204) 
1.0

>  <lup>  (204) 
0.0

>  <mut>  (204) 
2.0

>  <maj>  (204) 
2.0

>  <min>  (204) 
0.0

>  <hyb>  (204) 
0.0

>  <sub>  (204) 
1.0

>  <query_index>  (204) 
288.0

>  <max_hit_Tanimoto>  (204) 
0.164157

>  <largest_ring>  (204) 
0

>  <N_interactions_kept>  (204) 
1.0

>  <N_interactions_lost>  (204) 
1.5

>  <interaction_uniqueness_metric>  (204) 
0.071024

>  <ad_hoc_penalty>  (204) 
-23.921478

>  <N_rotatable_bonds>  (204) 
1

>  <N_HA>  (204) 
11

>  <cluster>  (204) 
5810

>  <N_interactions>  (204) 
4

>  <Enamine>  (204) 
1

>  <Mcule>  (204) 
0

>  <N_PAINS>  (204) 
0

>  <UFF_Gibbs>  (204) 
16.437475

>  <strain_per_HA>  (204) 
1.494316

>  <saltbridge:HIS:51>  (204) 
0

>  <pistack:HIS:51>  (204) 
0

>  <hydroph_interaction:HIS:51>  (204) 
0

>  <hbond:ALA:132>  (204) 
0

>  <hbond:SER:135>  (204) 
0

>  <hydroph_interaction:TYR:150>  (204) 
1

>  <pistack:TYR:161>  (204) 
0

>  <hydroph_interaction:TYR:161>  (204) 
2

>  <hydroph_interaction:ASP:83>  (204) 
0

>  <hbond:TYR:130>  (204) 
0

>  <hydroph_interaction:ALA:132>  (204) 
0

>  <hbond:HIS:51>  (204) 
0

>  <hbond:ASP:129>  (204) 
0

>  <hbond:TYR:150>  (204) 
0

>  <hbond:GLY:151>  (204) 
0

>  <hbond:TYR:161>  (204) 
1

>  <hydroph_interaction:TYR:130>  (204) 
0

>  <hydroph_interaction:PRO:131>  (204) 
0

>  <hydroph_interaction:ASP:129>  (204) 
0

>  <saltbridge:ASP:75>  (204) 
0

>  <saltbridge:ASP:83>  (204) 
0

>  <hydroph_interaction:ASN:152>  (204) 
0

>  <halogenbond:TYR:150>  (204) 
0

>  <hbond:ASP:83>  (204) 
0

>  <hydroph_interaction:VAL:155>  (204) 
0

>  <pication:TYR:161>  (204) 
0

>  <hbond:PRO:131>  (204) 
0

>  <hbond:LEU:128>  (204) 
0

>  <saltbridge:ASP:129>  (204) 
0

>  <hbond:THR:134>  (204) 
0

>  <pication:HIS:51>  (204) 
0

>  <hbond:SER:81>  (204) 
0

>  <hbond:GLY:159>  (204) 
0

>  <hydroph_interaction:PRO:101>  (204) 
0

>  <hydroph_interaction:THR:134>  (204) 
0

>  <hbond:GLY:82>  (204) 
0

>  <hydroph_interaction:GLU:104>  (204) 
0

>  <hydroph_interaction:VAL:36>  (204) 
0

>  <hydroph_interaction:MET:49>  (204) 
0

>  <halogenbond:GLU:104>  (204) 
0

>  <hydroph_interaction:LYS:107>  (204) 
0

$$$$
Z3870404224
     RDKit          3D

 50 53  0  0  0  0  0  0  0  0999 V2000
  -10.9100    5.0080  -18.7270 C   0  0  0  0  0  0  0  0  0  0  0  0
  -10.5430    4.5020  -17.4510 O   0  0  0  0  0  0  0  0  0  0  0  0
   -9.3640    4.9740  -16.9120 C   0  0  0  0  0  0  0  0  0  0  0  0
   -9.3070    5.1030  -15.3800 C   0  0  0  0  0  0  0  0  0  0  0  0
   -7.9830    5.6250  -14.8430 C   0  0  0  0  0  0  0  0  0  0  0  0
   -7.8160    5.7900  -13.4000 N   0  0  0  0  0  0  0  0  0  0  0  0
   -8.7380    5.0440  -12.4800 C   0  0  0  0  0  0  0  0  0  0  0  0
   -8.7530    5.3440  -11.0730 C   0  0  0  0  0  0  0  0  0  0  0  0
   -8.8710    4.3760  -10.0690 C   0  0  0  0  0  0  0  0  0  0  0  0
   -8.9860    3.0010  -10.1870 C   0  0  0  0  0  0  0  0  0  0  0  0
   -8.6570    2.3080   -9.0210 C   0  0  0  0  0  0  0  0  0  0  0  0
   -9.2810    2.8180   -7.8860 C   0  0  0  0  0  0  0  0  0  0  0  0
   -8.9780    4.2890   -7.5990 C   0  0  0  0  0  0  0  0  0  0  0  0
   -8.8620    4.9960   -8.8610 N   0  0  0  0  0  0  0  0  0  0  0  0
   -8.7390    6.3300   -8.9580 N   0  0  0  0  0  0  0  0  0  0  0  0
   -8.6740    6.5490  -10.3010 C   0  0  0  0  0  0  0  0  0  0  0  0
   -7.0060    5.9290  -15.7560 N   0  0  0  0  0  0  0  0  0  0  0  0
   -7.2260    5.7600  -17.1110 C   0  0  0  0  0  0  0  0  0  0  0  0
   -6.2090    6.1250  -18.0140 C   0  0  0  0  0  0  0  0  0  0  0  0
   -6.4040    5.9340  -19.3820 C   0  0  0  0  0  0  0  0  0  0  0  0
   -5.5250    6.6180  -20.2340 C   0  0  0  0  0  0  0  0  0  0  0  0
   -4.4570    7.2490  -19.5090 O   0  0  0  0  0  0  0  0  0  0  0  0
   -3.8130    6.4320  -18.5140 C   0  0  0  0  0  0  0  0  0  0  0  0
   -4.8020    5.6400  -17.6630 C   0  0  0  0  0  0  0  0  0  0  0  0
   -8.3440    5.2950  -17.7020 N   0  0  0  0  0  0  0  0  0  0  0  0
  -11.2360    6.0210  -18.6120 H   0  0  0  0  0  0  0  0  0  0  0  0
  -10.0980    4.9220  -19.4510 H   0  0  0  0  0  0  0  0  0  0  0  0
  -11.7800    4.4820  -19.1100 H   0  0  0  0  0  0  0  0  0  0  0  0
  -10.0990    4.8620  -14.6610 H   0  0  0  0  0  0  0  0  0  0  0  0
   -7.8020    6.7830  -13.1830 H   0  0  0  0  0  0  0  0  0  0  0  0
   -9.7540    5.2530  -12.8360 H   0  0  0  0  0  0  0  0  0  0  0  0
   -8.6170    3.9600  -12.6290 H   0  0  0  0  0  0  0  0  0  0  0  0
   -8.3520    2.6370  -11.0050 H   0  0  0  0  0  0  0  0  0  0  0  0
  -10.0190    2.7570  -10.4610 H   0  0  0  0  0  0  0  0  0  0  0  0
   -9.0590    1.3110   -9.1270 H   0  0  0  0  0  0  0  0  0  0  0  0
   -7.6000    2.1290   -8.9670 H   0  0  0  0  0  0  0  0  0  0  0  0
  -10.3660    2.6870   -7.9760 H   0  0  0  0  0  0  0  0  0  0  0  0
   -8.9720    2.2170   -7.0210 H   0  0  0  0  0  0  0  0  0  0  0  0
   -9.7750    4.7490   -7.0030 H   0  0  0  0  0  0  0  0  0  0  0  0
   -8.0200    4.4010   -7.0780 H   0  0  0  0  0  0  0  0  0  0  0  0
   -8.5730    7.5640  -10.6640 H   0  0  0  0  0  0  0  0  0  0  0  0
   -6.1390    7.2130  -17.8920 H   0  0  0  0  0  0  0  0  0  0  0  0
   -7.4360    6.2140  -19.6340 H   0  0  0  0  0  0  0  0  0  0  0  0
   -6.3230    4.8660  -19.6220 H   0  0  0  0  0  0  0  0  0  0  0  0
   -6.0600    7.3960  -20.7910 H   0  0  0  0  0  0  0  0  0  0  0  0
   -5.0860    5.9340  -20.9720 H   0  0  0  0  0  0  0  0  0  0  0  0
   -3.2210    7.1010  -17.8790 H   0  0  0  0  0  0  0  0  0  0  0  0
   -3.1030    5.7670  -19.0230 H   0  0  0  0  0  0  0  0  0  0  0  0
   -4.6070    5.8530  -16.6050 H   0  0  0  0  0  0  0  0  0  0  0  0
   -4.6780    4.5640  -17.8120 H   0  0  0  0  0  0  0  0  0  0  0  0
  1  2  1  0
  2  3  1  0
  3  4  2  0
  4  5  1  0
  5  6  1  0
  6  7  1  0
  7  8  1  0
  8  9  2  0
  9 10  1  0
 10 11  1  0
 11 12  1  0
 12 13  1  0
 13 14  1  0
 14 15  1  0
 15 16  2  0
  5 17  2  0
 17 18  1  0
 18 19  1  0
 19 20  1  0
 20 21  1  0
 21 22  1  0
 22 23  1  0
 23 24  1  0
 18 25  2  0
 25  3  1  0
 16  8  1  0
 14  9  1  0
 24 19  1  0
  1 26  1  0
  1 27  1  0
  1 28  1  0
  4 29  1  0
  6 30  1  0
  7 31  1  0
  7 32  1  0
 10 33  1  0
 10 34  1  0
 11 35  1  0
 11 36  1  0
 12 37  1  0
 12 38  1  0
 13 39  1  0
 13 40  1  0
 16 41  1  0
 19 42  1  0
 20 43  1  0
 20 44  1  0
 21 45  1  0
 21 46  1  0
 23 47  1  0
 23 48  1  0
 24 49  1  0
 24 50  1  0
A    1
 C1 
A    2
 O1 
A    3
 C2 
A    4
 C3 
A    5
 C4 
A    6
 N1 
A    7
 C5 
A    8
 C6 
A    9
 C7 
A   10
 C8 
A   11
 C9 
A   12
 C10
A   13
 C11
A   14
 N2 
A   15
 N3 
A   16
 C12
A   17
 N4 
A   18
 C13
A   19
 C14
A   20
 C15
A   21
 C16
A   22
 O2 
A   23
 C17
A   24
 C18
A   25
 N5 
A   26
 H1 
A   27
 H2 
A   28
 H3 
A   29
 H4 
A   30
 H5 
A   31
 H6 
A   32
 H7 
A   33
 H8 
A   34
 H9 
A   35
 H10
A   36
 H11
A   37
 H12
A   38
 H13
A   39
 H14
A   40
 H15
A   41
 H16
A   42
 H17
A   43
 H18
A   44
 H19
A   45
 H20
A   46
 H21
A   47
 H22
A   48
 H23
A   49
 H24
A   50
 H25
M  END
>  <ref_pdb>  (205) 
x0051_0B

>  <ref_mols>  (205) 
x0969_1B,x0945_0B

>  <original SMILES>  (205) 
[H]c1nn2c(c1C([H])([H])N([H])c1nc(C3([H])C([H])([H])C([H])([H])OC([H])([H])C3([H])[H])nc(OC([H])([H])[H])c1[H])C([H])([H])C([H])([H])C([H])([H])C2([H])[H]

>  <index>  (205) 
260

>  <∆∆G>  (205) 
-8.336887

>  <∆G_bound>  (205) 
-6.917419

>  <∆G_unbound>  (205) 
1.419468

>  <comRMSD>  (205) 
0.500357

>  <N_constrained_atoms>  (205) 
24.0

>  <N_unconstrained_atoms>  (205) 
1.0

>  <runtime>  (205) 
49.43531

>  <LE>  (205) 
0.333475

>  <percent_hybrid>  (205) 
42.0

>  <dist>  (205) 
5.0

>  <ecfp4>  (205) 
0.379747

>  <daylight>  (205) 
0.330556

>  <topodist>  (205) 
1.0

>  <mces>  (205) 
28.0

>  <tdn>  (205) 
0.0

>  <tup>  (205) 
0.0

>  <rdn>  (205) 
0.0

>  <rup>  (205) 
0.0

>  <ldn>  (205) 
1.0

>  <lup>  (205) 
0.0

>  <mut>  (205) 
4.0

>  <maj>  (205) 
4.0

>  <min>  (205) 
0.0

>  <hyb>  (205) 
0.0

>  <sub>  (205) 
0.0

>  <query_index>  (205) 
258.0

>  <max_hit_Tanimoto>  (205) 
0.320789

>  <largest_ring>  (205) 
0

>  <N_interactions_kept>  (205) 
1.5

>  <N_interactions_lost>  (205) 
0.5

>  <interaction_uniqueness_metric>  (205) 
0.135106

>  <ad_hoc_penalty>  (205) 
-23.888995

>  <N_rotatable_bonds>  (205) 
6

>  <N_HA>  (205) 
25

>  <cluster>  (205) 
5980

>  <N_interactions>  (205) 
4

>  <Enamine>  (205) 
1

>  <Mcule>  (205) 
0

>  <N_PAINS>  (205) 
0

>  <UFF_Gibbs>  (205) 
136.114436

>  <strain_per_HA>  (205) 
5.444577

>  <saltbridge:HIS:51>  (205) 
0

>  <pistack:HIS:51>  (205) 
1

>  <hydroph_interaction:HIS:51>  (205) 
0

>  <hbond:ALA:132>  (205) 
0

>  <hbond:SER:135>  (205) 
0

>  <hydroph_interaction:TYR:150>  (205) 
0

>  <pistack:TYR:161>  (205) 
1

>  <hydroph_interaction:TYR:161>  (205) 
1

>  <hydroph_interaction:ASP:83>  (205) 
1

>  <hbond:TYR:130>  (205) 
0

>  <hydroph_interaction:ALA:132>  (205) 
0

>  <hbond:HIS:51>  (205) 
0

>  <hbond:ASP:129>  (205) 
0

>  <hbond:TYR:150>  (205) 
0

>  <hbond:GLY:151>  (205) 
0

>  <hbond:TYR:161>  (205) 
0

>  <hydroph_interaction:TYR:130>  (205) 
0

>  <hydroph_interaction:PRO:131>  (205) 
0

>  <hydroph_interaction:ASP:129>  (205) 
0

>  <saltbridge:ASP:75>  (205) 
0

>  <saltbridge:ASP:83>  (205) 
0

>  <hydroph_interaction:ASN:152>  (205) 
0

>  <halogenbond:TYR:150>  (205) 
0

>  <hbond:ASP:83>  (205) 
0

>  <hydroph_interaction:VAL:155>  (205) 
0

>  <pication:TYR:161>  (205) 
0

>  <hbond:PRO:131>  (205) 
0

>  <hbond:LEU:128>  (205) 
0

>  <saltbridge:ASP:129>  (205) 
0

>  <hbond:THR:134>  (205) 
0

>  <pication:HIS:51>  (205) 
0

>  <hbond:SER:81>  (205) 
0

>  <hbond:GLY:159>  (205) 
0

>  <hydroph_interaction:PRO:101>  (205) 
0

>  <hydroph_interaction:THR:134>  (205) 
0

>  <hbond:GLY:82>  (205) 
0

>  <hydroph_interaction:GLU:104>  (205) 
0

>  <hydroph_interaction:VAL:36>  (205) 
0

>  <hydroph_interaction:MET:49>  (205) 
0

>  <halogenbond:GLU:104>  (205) 
0

>  <hydroph_interaction:LYS:107>  (205) 
0

$$$$
MCULE-3220421022
     RDKit          3D

 43 45  0  0  0  0  0  0  0  0999 V2000
   -8.9070    5.1510  -17.1350 C   0  0  0  0  0  0  0  0  0  0  0  0
  -10.1010    4.6850  -17.8310 C   0  0  0  0  0  0  0  0  0  0  0  0
   -9.8940    4.2860  -19.1680 N   0  0  0  0  0  0  0  0  0  0  0  0
   -8.5640    4.5120  -19.2660 N   0  0  0  0  0  0  0  0  0  0  0  0
   -7.8830    4.2220  -20.4920 C   0  0  0  0  0  0  0  0  0  0  0  0
   -7.9660    5.0150  -18.1430 C   0  0  0  0  0  0  0  0  0  0  0  0
   -6.6290    5.3150  -18.0880 C   0  0  0  0  0  0  0  0  0  0  0  0
   -6.1390    5.5890  -16.7610 C   0  0  0  0  0  0  0  0  0  0  0  0
   -6.4120    4.7110  -15.7000 C   0  0  0  0  0  0  0  0  0  0  0  0
   -7.6730    4.9970  -14.9880 N   0  0  0  0  0  0  0  0  0  0  0  0
   -7.6670    4.9630  -13.5520 C   0  0  0  0  0  0  0  0  0  0  0  0
   -6.7860    4.2320  -12.8090 O   0  0  0  0  0  0  0  0  0  0  0  0
   -8.6780    5.7890  -12.7180 C   0  0  0  0  0  0  0  0  0  0  0  0
   -8.7770    5.2750  -11.2550 C   0  0  0  0  0  0  0  0  0  0  0  0
   -8.5900    6.4030  -10.2280 C   0  0  0  0  0  0  0  0  0  0  0  0
   -8.6880    5.9520   -8.7840 C   0  0  0  0  0  0  0  0  0  0  0  0
   -8.9340    4.6070   -8.4810 C   0  0  0  0  0  0  0  0  0  0  0  0
   -9.0990    3.6290   -9.4790 C   0  0  0  0  0  0  0  0  0  0  0  0
   -9.3460    2.3190   -9.1990 O   0  0  0  0  0  0  0  0  0  0  0  0
   -9.8140    2.1100   -7.8730 C   0  0  0  0  0  0  0  0  0  0  0  0
   -9.0200    3.9570  -10.8350 C   0  0  0  0  0  0  0  0  0  0  0  0
   -8.7620    5.6380  -15.7430 C   0  0  0  0  0  0  0  0  0  0  0  0
  -11.0810    4.6350  -17.3810 H   0  0  0  0  0  0  0  0  0  0  0  0
   -7.1260    4.9930  -20.6840 H   0  0  0  0  0  0  0  0  0  0  0  0
   -8.5960    4.2750  -21.3060 H   0  0  0  0  0  0  0  0  0  0  0  0
   -7.4480    3.2270  -20.4370 H   0  0  0  0  0  0  0  0  0  0  0  0
   -6.4220    6.1990  -18.6960 H   0  0  0  0  0  0  0  0  0  0  0  0
   -6.0600    4.5060  -18.5380 H   0  0  0  0  0  0  0  0  0  0  0  0
   -5.0600    5.7700  -16.8160 H   0  0  0  0  0  0  0  0  0  0  0  0
   -6.5730    6.5580  -16.4770 H   0  0  0  0  0  0  0  0  0  0  0  0
   -5.5860    4.7770  -14.9810 H   0  0  0  0  0  0  0  0  0  0  0  0
   -6.4320    3.6680  -16.0440 H   0  0  0  0  0  0  0  0  0  0  0  0
   -9.6650    5.6340  -13.1730 H   0  0  0  0  0  0  0  0  0  0  0  0
   -8.4900    6.8560  -12.8310 H   0  0  0  0  0  0  0  0  0  0  0  0
   -8.4040    7.4390  -10.5030 H   0  0  0  0  0  0  0  0  0  0  0  0
   -8.5690    6.6740   -7.9790 H   0  0  0  0  0  0  0  0  0  0  0  0
   -8.9960    4.3410   -7.4330 H   0  0  0  0  0  0  0  0  0  0  0  0
  -10.3620    1.1710   -7.8570 H   0  0  0  0  0  0  0  0  0  0  0  0
   -8.9820    2.0270   -7.1660 H   0  0  0  0  0  0  0  0  0  0  0  0
  -10.5130    2.8940   -7.5690 H   0  0  0  0  0  0  0  0  0  0  0  0
   -9.1550    3.1670  -11.5720 H   0  0  0  0  0  0  0  0  0  0  0  0
   -9.6950    5.4530  -15.1960 H   0  0  0  0  0  0  0  0  0  0  0  0
   -8.6210    6.7140  -15.7360 H   0  0  0  0  0  0  0  0  0  0  0  0
  1  2  1  0
  2  3  2  0
  3  4  1  0
  4  5  1  0
  4  6  1  0
  6  7  1  0
  7  8  1  0
  8  9  1  0
  9 10  1  0
 10 11  1  0
 11 12  2  0
 11 13  1  0
 13 14  1  0
 14 15  2  0
 15 16  1  0
 16 17  2  0
 17 18  1  0
 18 19  1  0
 19 20  1  0
 18 21  2  0
 10 22  1  0
  1  6  2  0
 22  1  1  0
 14 21  1  0
  2 23  1  0
  5 24  1  0
  5 25  1  0
  5 26  1  0
  7 27  1  0
  7 28  1  0
  8 29  1  0
  8 30  1  0
  9 31  1  0
  9 32  1  0
 13 33  1  0
 13 34  1  0
 15 35  1  0
 16 36  1  0
 17 37  1  0
 20 38  1  0
 20 39  1  0
 20 40  1  0
 21 41  1  0
 22 42  1  0
 22 43  1  0
A    1
 C1 
A    2
 C2 
A    3
 N1 
A    4
 N2 
A    5
 C3 
A    6
 C4 
A    7
 C5 
A    8
 C6 
A    9
 C7 
A   10
 N3 
A   11
 C8 
A   12
 O1 
A   13
 C9 
A   14
 C10
A   15
 C11
A   16
 C12
A   17
 C13
A   18
 C14
A   19
 O2 
A   20
 C15
A   21
 C16
A   22
 C17
A   23
 H1 
A   24
 H2 
A   25
 H3 
A   26
 H4 
A   27
 H5 
A   28
 H6 
A   29
 H7 
A   30
 H8 
A   31
 H9 
A   32
 H10
A   33
 H11
A   34
 H12
A   35
 H13
A   36
 H14
A   37
 H15
A   38
 H16
A   39
 H17
A   40
 H18
A   41
 H19
A   42
 H20
A   43
 H21
M  END
>  <ref_pdb>  (206) 
x0051_0B

>  <ref_mols>  (206) 
x0605_0B,x0969_1B

>  <original SMILES>  (206) 
[H]c1nn(C([H])([H])[H])c2c1C([H])([H])N(C(=O)C([H])([H])c1c([H])c([H])c([H])c(OC([H])([H])[H])c1[H])C([H])([H])C([H])([H])C2([H])[H]

>  <index>  (206) 
332

>  <∆∆G>  (206) 
-6.206551

>  <∆G_bound>  (206) 
-5.806075

>  <∆G_unbound>  (206) 
0.400476

>  <comRMSD>  (206) 
0.968858

>  <N_constrained_atoms>  (206) 
19.0

>  <N_unconstrained_atoms>  (206) 
5.0

>  <runtime>  (206) 
56.887162

>  <LE>  (206) 
0.258606

>  <percent_hybrid>  (206) 
48.0

>  <dist>  (206) 
8.0

>  <ecfp4>  (206) 
0.246914

>  <daylight>  (206) 
0.273381

>  <topodist>  (206) 
3.0

>  <mces>  (206) 
22.0

>  <tdn>  (206) 
0.0

>  <tup>  (206) 
1.0

>  <rdn>  (206) 
1.0

>  <rup>  (206) 
1.0

>  <ldn>  (206) 
0.0

>  <lup>  (206) 
0.0

>  <mut>  (206) 
4.0

>  <maj>  (206) 
4.0

>  <min>  (206) 
0.0

>  <hyb>  (206) 
1.0

>  <sub>  (206) 
1.0

>  <query_index>  (206) 
307.0

>  <max_hit_Tanimoto>  (206) 
0.29596

>  <largest_ring>  (206) 
0

>  <N_interactions_kept>  (206) 
2.5

>  <N_interactions_lost>  (206) 
0.5

>  <interaction_uniqueness_metric>  (206) 
0.152769

>  <ad_hoc_penalty>  (206) 
-23.876506

>  <N_rotatable_bonds>  (206) 
5

>  <N_HA>  (206) 
22

>  <cluster>  (206) 
5916

>  <N_interactions>  (206) 
5

>  <Enamine>  (206) 
0

>  <Mcule>  (206) 
1

>  <N_PAINS>  (206) 
0

>  <UFF_Gibbs>  (206) 
96.678529

>  <strain_per_HA>  (206) 
4.394479

>  <saltbridge:HIS:51>  (206) 
0

>  <pistack:HIS:51>  (206) 
1

>  <hydroph_interaction:HIS:51>  (206) 
1

>  <hbond:ALA:132>  (206) 
0

>  <hbond:SER:135>  (206) 
0

>  <hydroph_interaction:TYR:150>  (206) 
0

>  <pistack:TYR:161>  (206) 
0

>  <hydroph_interaction:TYR:161>  (206) 
2

>  <hydroph_interaction:ASP:83>  (206) 
0

>  <hbond:TYR:130>  (206) 
0

>  <hydroph_interaction:ALA:132>  (206) 
0

>  <hbond:HIS:51>  (206) 
1

>  <hbond:ASP:129>  (206) 
0

>  <hbond:TYR:150>  (206) 
0

>  <hbond:GLY:151>  (206) 
0

>  <hbond:TYR:161>  (206) 
0

>  <hydroph_interaction:TYR:130>  (206) 
0

>  <hydroph_interaction:PRO:131>  (206) 
0

>  <hydroph_interaction:ASP:129>  (206) 
0

>  <saltbridge:ASP:75>  (206) 
0

>  <saltbridge:ASP:83>  (206) 
0

>  <hydroph_interaction:ASN:152>  (206) 
0

>  <halogenbond:TYR:150>  (206) 
0

>  <hbond:ASP:83>  (206) 
0

>  <hydroph_interaction:VAL:155>  (206) 
0

>  <pication:TYR:161>  (206) 
0

>  <hbond:PRO:131>  (206) 
0

>  <hbond:LEU:128>  (206) 
0

>  <saltbridge:ASP:129>  (206) 
0

>  <hbond:THR:134>  (206) 
0

>  <pication:HIS:51>  (206) 
0

>  <hbond:SER:81>  (206) 
0

>  <hbond:GLY:159>  (206) 
0

>  <hydroph_interaction:PRO:101>  (206) 
0

>  <hydroph_interaction:THR:134>  (206) 
0

>  <hbond:GLY:82>  (206) 
0

>  <hydroph_interaction:GLU:104>  (206) 
0

>  <hydroph_interaction:VAL:36>  (206) 
0

>  <hydroph_interaction:MET:49>  (206) 
0

>  <halogenbond:GLU:104>  (206) 
0

>  <hydroph_interaction:LYS:107>  (206) 
0

$$$$
Z3132343346
     RDKit          3D

 41 43  0  0  0  0  0  0  0  0999 V2000
  -10.5270    4.6760  -18.3690 C   0  0  0  0  0  0  0  0  0  0  0  0
   -9.2450    4.9430  -17.6780 C   0  0  0  0  0  0  0  0  0  0  0  0
   -8.1700    5.1660  -18.5380 C   0  0  0  0  0  0  0  0  0  0  0  0
   -6.9210    5.4240  -18.0290 C   0  0  0  0  0  0  0  0  0  0  0  0
   -5.8700    5.6430  -18.9100 C   0  0  0  0  0  0  0  0  0  0  0  0
   -6.7280    5.4570  -16.6550 C   0  0  0  0  0  0  0  0  0  0  0  0
   -7.7820    5.2360  -15.7460 C   0  0  0  0  0  0  0  0  0  0  0  0
   -7.4240    5.2980  -14.2630 C   0  0  0  0  0  0  0  0  0  0  0  0
   -8.4310    4.9030  -13.2750 N   0  0  0  0  0  0  0  0  0  0  0  0
   -8.8890    5.8570  -12.3740 C   0  0  0  0  0  0  0  0  0  0  0  0
   -9.3420    6.9080  -12.8160 O   0  0  0  0  0  0  0  0  0  0  0  0
   -8.8390    5.6780  -10.8040 C   0  0  0  0  0  0  0  0  0  0  0  0
   -8.9590    4.3730  -10.0390 C   0  0  0  0  0  0  0  0  0  0  0  0
   -9.1190    3.0820  -10.4910 C   0  0  0  0  0  0  0  0  0  0  0  0
   -8.8280    2.1580   -9.3690 N   0  0  0  0  0  0  0  0  0  0  0  0
   -9.5100    2.5440   -8.1150 C   0  0  0  0  0  0  0  0  0  0  0  0
   -8.9710    3.7310   -7.5680 C   0  0  0  0  0  0  0  0  0  0  0  0
   -8.8810    4.7080   -8.6310 N   0  0  0  0  0  0  0  0  0  0  0  0
   -8.7240    6.0220   -8.4520 N   0  0  0  0  0  0  0  0  0  0  0  0
   -8.6990    6.5880   -9.7030 C   0  0  0  0  0  0  0  0  0  0  0  0
   -9.0700    4.9760  -16.2790 C   0  0  0  0  0  0  0  0  0  0  0  0
  -11.3500    4.5280  -17.6970 H   0  0  0  0  0  0  0  0  0  0  0  0
  -10.7590    5.4570  -19.1030 H   0  0  0  0  0  0  0  0  0  0  0  0
  -10.3980    3.7430  -18.8900 H   0  0  0  0  0  0  0  0  0  0  0  0
   -8.3250    5.1370  -19.6150 H   0  0  0  0  0  0  0  0  0  0  0  0
   -5.7920    6.7180  -19.1200 H   0  0  0  0  0  0  0  0  0  0  0  0
   -4.8720    5.3310  -18.5990 H   0  0  0  0  0  0  0  0  0  0  0  0
   -6.1220    5.1550  -19.8540 H   0  0  0  0  0  0  0  0  0  0  0  0
   -5.7290    5.6590  -16.2690 H   0  0  0  0  0  0  0  0  0  0  0  0
   -6.5490    4.6620  -14.0820 H   0  0  0  0  0  0  0  0  0  0  0  0
   -7.0970    6.3190  -14.0260 H   0  0  0  0  0  0  0  0  0  0  0  0
   -9.0270    4.1210  -13.5180 H   0  0  0  0  0  0  0  0  0  0  0  0
  -10.1360    2.9400  -10.8740 H   0  0  0  0  0  0  0  0  0  0  0  0
   -8.4330    2.8630  -11.3210 H   0  0  0  0  0  0  0  0  0  0  0  0
   -7.8180    2.1190   -9.2310 H   0  0  0  0  0  0  0  0  0  0  0  0
   -9.4130    1.7480   -7.3890 H   0  0  0  0  0  0  0  0  0  0  0  0
  -10.5690    2.6640   -8.3050 H   0  0  0  0  0  0  0  0  0  0  0  0
   -9.6090    4.1250   -6.7860 H   0  0  0  0  0  0  0  0  0  0  0  0
   -7.9560    3.5740   -7.1800 H   0  0  0  0  0  0  0  0  0  0  0  0
   -8.5820    7.6640   -9.7500 H   0  0  0  0  0  0  0  0  0  0  0  0
   -9.9110    4.8020  -15.6120 H   0  0  0  0  0  0  0  0  0  0  0  0
  1  2  1  0
  2  3  2  0
  3  4  1  0
  4  5  1  0
  4  6  2  0
  6  7  1  0
  7  8  1  0
  8  9  1  0
  9 10  1  0
 10 11  2  0
 10 12  1  0
 12 13  2  0
 13 14  1  0
 14 15  1  0
 15 16  1  0
 16 17  1  0
 17 18  1  0
 18 19  1  0
 19 20  2  0
  7 21  2  0
 21  2  1  0
 20 12  1  0
 18 13  1  0
  1 22  1  0
  1 23  1  0
  1 24  1  0
  3 25  1  0
  5 26  1  0
  5 27  1  0
  5 28  1  0
  6 29  1  0
  8 30  1  0
  8 31  1  0
  9 32  1  0
 14 33  1  0
 14 34  1  0
 15 35  1  0
 16 36  1  0
 16 37  1  0
 17 38  1  0
 17 39  1  0
 20 40  1  0
 21 41  1  0
A    1
 C1 
A    2
 C2 
A    3
 C3 
A    4
 C4 
A    5
 C5 
A    6
 C6 
A    7
 C7 
A    8
 C8 
A    9
 N1 
A   10
 C9 
A   11
 O1 
A   12
 C10
A   13
 C11
A   14
 C12
A   15
 N2 
A   16
 C13
A   17
 C14
A   18
 N3 
A   19
 N4 
A   20
 C15
A   21
 C16
A   22
 H1 
A   23
 H2 
A   24
 H3 
A   25
 H4 
A   26
 H5 
A   27
 H6 
A   28
 H7 
A   29
 H8 
A   30
 H9 
A   31
 H10
A   32
 H11
A   33
 H12
A   34
 H13
A   35
 H14
A   36
 H15
A   37
 H16
A   38
 H17
A   39
 H18
A   40
 H19
A   41
 H20
M  END
>  <ref_pdb>  (207) 
x0051_0B

>  <ref_mols>  (207) 
x0969_1B,x0589_0B

>  <original SMILES>  (207) 
[H]c1nn2c(c1C(=O)N([H])C([H])([H])c1c([H])c(C([H])([H])[H])c([H])c(C([H])([H])[H])c1[H])C([H])([H])N([H])C([H])([H])C2([H])[H]

>  <index>  (207) 
443

>  <∆∆G>  (207) 
-8.294386

>  <∆G_bound>  (207) 
-7.855681

>  <∆G_unbound>  (207) 
0.438705

>  <comRMSD>  (207) 
0.436553

>  <N_constrained_atoms>  (207) 
18.0

>  <N_unconstrained_atoms>  (207) 
3.0

>  <runtime>  (207) 
56.684184

>  <LE>  (207) 
0.394971

>  <percent_hybrid>  (207) 
45.0

>  <dist>  (207) 
4.0

>  <ecfp4>  (207) 
0.46875

>  <daylight>  (207) 
0.533333

>  <topodist>  (207) 
1.0

>  <mces>  (207) 
22.0

>  <tdn>  (207) 
0.0

>  <tup>  (207) 
1.0

>  <rdn>  (207) 
0.0

>  <rup>  (207) 
0.0

>  <ldn>  (207) 
0.0

>  <lup>  (207) 
0.0

>  <mut>  (207) 
2.0

>  <maj>  (207) 
2.0

>  <min>  (207) 
0.0

>  <hyb>  (207) 
1.0

>  <sub>  (207) 
0.0

>  <query_index>  (207) 
380.0

>  <max_hit_Tanimoto>  (207) 
0.603073

>  <largest_ring>  (207) 
0

>  <N_interactions_kept>  (207) 
0.5

>  <N_interactions_lost>  (207) 
2.0

>  <interaction_uniqueness_metric>  (207) 
0.243625

>  <ad_hoc_penalty>  (207) 
-23.847677

>  <N_rotatable_bonds>  (207) 
5

>  <N_HA>  (207) 
21

>  <cluster>  (207) 
5816

>  <N_interactions>  (207) 
6

>  <Enamine>  (207) 
1

>  <Mcule>  (207) 
0

>  <N_PAINS>  (207) 
0

>  <UFF_Gibbs>  (207) 
75.832225

>  <strain_per_HA>  (207) 
3.611058

>  <saltbridge:HIS:51>  (207) 
0

>  <pistack:HIS:51>  (207) 
0

>  <hydroph_interaction:HIS:51>  (207) 
0

>  <hbond:ALA:132>  (207) 
0

>  <hbond:SER:135>  (207) 
0

>  <hydroph_interaction:TYR:150>  (207) 
1

>  <pistack:TYR:161>  (207) 
1

>  <hydroph_interaction:TYR:161>  (207) 
1

>  <hydroph_interaction:ASP:83>  (207) 
0

>  <hbond:TYR:130>  (207) 
0

>  <hydroph_interaction:ALA:132>  (207) 
0

>  <hbond:HIS:51>  (207) 
0

>  <hbond:ASP:129>  (207) 
0

>  <hbond:TYR:150>  (207) 
0

>  <hbond:GLY:151>  (207) 
1

>  <hbond:TYR:161>  (207) 
1

>  <hydroph_interaction:TYR:130>  (207) 
0

>  <hydroph_interaction:PRO:131>  (207) 
0

>  <hydroph_interaction:ASP:129>  (207) 
0

>  <saltbridge:ASP:75>  (207) 
0

>  <saltbridge:ASP:83>  (207) 
0

>  <hydroph_interaction:ASN:152>  (207) 
0

>  <halogenbond:TYR:150>  (207) 
0

>  <hbond:ASP:83>  (207) 
1

>  <hydroph_interaction:VAL:155>  (207) 
0

>  <pication:TYR:161>  (207) 
0

>  <hbond:PRO:131>  (207) 
0

>  <hbond:LEU:128>  (207) 
0

>  <saltbridge:ASP:129>  (207) 
0

>  <hbond:THR:134>  (207) 
0

>  <pication:HIS:51>  (207) 
0

>  <hbond:SER:81>  (207) 
0

>  <hbond:GLY:159>  (207) 
0

>  <hydroph_interaction:PRO:101>  (207) 
0

>  <hydroph_interaction:THR:134>  (207) 
0

>  <hbond:GLY:82>  (207) 
0

>  <hydroph_interaction:GLU:104>  (207) 
0

>  <hydroph_interaction:VAL:36>  (207) 
0

>  <hydroph_interaction:MET:49>  (207) 
0

>  <halogenbond:GLU:104>  (207) 
0

>  <hydroph_interaction:LYS:107>  (207) 
0

$$$$
Z3168640148
     RDKit          3D

 41 44  0  0  0  0  0  0  0  0999 V2000
   -6.4430    5.0370  -20.4440 C   0  0  0  0  0  0  0  0  0  0  0  0
   -6.5310    5.1840  -19.1130 C   0  0  0  0  0  0  0  0  0  0  0  0
   -5.4940    5.4830  -18.3340 N   0  0  0  0  0  0  0  0  0  0  0  0
   -5.7320    5.6010  -17.0300 N   0  0  0  0  0  0  0  0  0  0  0  0
   -7.0750    5.3610  -16.8990 C   0  0  0  0  0  0  0  0  0  0  0  0
   -7.8760    5.3640  -15.7360 C   0  0  0  0  0  0  0  0  0  0  0  0
   -7.3300    5.6770  -14.3510 C   0  0  0  0  0  0  0  0  0  0  0  0
   -6.5280    6.5880  -14.2060 O   0  0  0  0  0  0  0  0  0  0  0  0
   -7.7900    4.8950  -13.3060 O   0  0  0  0  0  0  0  0  0  0  0  0
   -8.9850    5.3200  -12.5820 C   0  0  0  0  0  0  0  0  0  0  0  0
   -8.8920    5.5810  -11.0330 C   0  0  0  0  0  0  0  0  0  0  0  0
   -8.9710    4.4820  -10.0060 C   0  0  0  0  0  0  0  0  0  0  0  0
   -9.1270    3.0210  -10.2310 C   0  0  0  0  0  0  0  0  0  0  0  0
   -9.4110    2.1240   -9.0920 C   0  0  0  0  0  0  0  0  0  0  0  0
   -9.5330    2.8150   -7.7110 C   0  0  0  0  0  0  0  0  0  0  0  0
   -8.9450    4.2500   -7.5650 C   0  0  0  0  0  0  0  0  0  0  0  0
   -8.8870    5.0270   -8.7950 N   0  0  0  0  0  0  0  0  0  0  0  0
   -8.7480    6.3770   -8.8440 N   0  0  0  0  0  0  0  0  0  0  0  0
   -8.7520    6.7100  -10.1750 C   0  0  0  0  0  0  0  0  0  0  0  0
   -9.2420    5.0720  -15.9290 C   0  0  0  0  0  0  0  0  0  0  0  0
   -9.7530    4.8020  -17.2040 C   0  0  0  0  0  0  0  0  0  0  0  0
   -8.9770    4.8010  -18.3540 C   0  0  0  0  0  0  0  0  0  0  0  0
   -7.6170    5.0850  -18.2140 C   0  0  0  0  0  0  0  0  0  0  0  0
   -5.5570    4.5500  -20.8570 H   0  0  0  0  0  0  0  0  0  0  0  0
   -6.5340    6.0170  -20.9150 H   0  0  0  0  0  0  0  0  0  0  0  0
   -7.3310    4.4990  -20.7960 H   0  0  0  0  0  0  0  0  0  0  0  0
   -5.0140    5.8270  -16.3480 H   0  0  0  0  0  0  0  0  0  0  0  0
   -9.2980    6.2650  -13.0480 H   0  0  0  0  0  0  0  0  0  0  0  0
   -9.8140    4.6240  -12.7590 H   0  0  0  0  0  0  0  0  0  0  0  0
   -8.2180    2.6480  -10.7190 H   0  0  0  0  0  0  0  0  0  0  0  0
   -9.9300    2.8880  -10.9670 H   0  0  0  0  0  0  0  0  0  0  0  0
  -10.3690    1.6710   -9.2940 H   0  0  0  0  0  0  0  0  0  0  0  0
   -8.6780    1.3190   -9.0420 H   0  0  0  0  0  0  0  0  0  0  0  0
  -10.5950    2.8510   -7.4350 H   0  0  0  0  0  0  0  0  0  0  0  0
   -9.0570    2.1660   -6.9680 H   0  0  0  0  0  0  0  0  0  0  0  0
   -9.5450    4.8070   -6.8360 H   0  0  0  0  0  0  0  0  0  0  0  0
   -7.9230    4.2100   -7.1720 H   0  0  0  0  0  0  0  0  0  0  0  0
   -8.6590    7.7670  -10.4520 H   0  0  0  0  0  0  0  0  0  0  0  0
   -9.9220    5.0540  -15.0750 H   0  0  0  0  0  0  0  0  0  0  0  0
  -10.8020    4.5690  -17.4090 H   0  0  0  0  0  0  0  0  0  0  0  0
   -9.4200    4.5860  -19.3250 H   0  0  0  0  0  0  0  0  0  0  0  0
  1  2  1  0
  2  3  2  0
  3  4  1  0
  4  5  1  0
  5  6  2  0
  6  7  1  0
  7  8  2  0
  7  9  1  0
  9 10  1  0
 10 11  1  0
 11 12  2  0
 12 13  1  0
 13 14  1  0
 14 15  1  0
 15 16  1  0
 16 17  1  0
 17 18  1  0
 18 19  2  0
  6 20  1  0
 20 21  2  0
 21 22  1  0
 22 23  2  0
 23  2  1  0
 23  5  1  0
 19 11  1  0
 17 12  1  0
  1 24  1  0
  1 25  1  0
  1 26  1  0
  4 27  1  0
 10 28  1  0
 10 29  1  0
 13 30  1  0
 13 31  1  0
 14 32  1  0
 14 33  1  0
 15 34  1  0
 15 35  1  0
 16 36  1  0
 16 37  1  0
 19 38  1  0
 20 39  1  0
 21 40  1  0
 22 41  1  0
A    1
 C1 
A    2
 C2 
A    3
 N1 
A    4
 N2 
A    5
 C3 
A    6
 C4 
A    7
 C5 
A    8
 O1 
A    9
 O2 
A   10
 C6 
A   11
 C7 
A   12
 C8 
A   13
 C9 
A   14
 C10
A   15
 C11
A   16
 C12
A   17
 N3 
A   18
 N4 
A   19
 C13
A   20
 C14
A   21
 C15
A   22
 C16
A   23
 C17
A   24
 H1 
A   25
 H2 
A   26
 H3 
A   27
 H4 
A   28
 H5 
A   29
 H6 
A   30
 H7 
A   31
 H8 
A   32
 H9 
A   33
 H10
A   34
 H11
A   35
 H12
A   36
 H13
A   37
 H14
A   38
 H15
A   39
 H16
A   40
 H17
A   41
 H18
M  END
>  <ref_pdb>  (208) 
x0051_0B

>  <ref_mols>  (208) 
x0435_0B,x0969_1B

>  <original SMILES>  (208) 
[H]c1nn2c(c1C([H])([H])OC(=O)c1c([H])c([H])c([H])c3c(C([H])([H])[H])nn([H])c13)C([H])([H])C([H])([H])C([H])([H])C2([H])[H]

>  <index>  (208) 
321

>  <∆∆G>  (208) 
-8.505779

>  <∆G_bound>  (208) 
-7.155748

>  <∆G_unbound>  (208) 
1.350031

>  <comRMSD>  (208) 
0.459061

>  <N_constrained_atoms>  (208) 
20.0

>  <N_unconstrained_atoms>  (208) 
3.0

>  <runtime>  (208) 
52.776127

>  <LE>  (208) 
0.369816

>  <percent_hybrid>  (208) 
50.0

>  <dist>  (208) 
7.0

>  <ecfp4>  (208) 
0.211765

>  <daylight>  (208) 
0.255952

>  <topodist>  (208) 
1.0

>  <mces>  (208) 
25.0

>  <tdn>  (208) 
0.0

>  <tup>  (208) 
1.0

>  <rdn>  (208) 
0.0

>  <rup>  (208) 
0.0

>  <ldn>  (208) 
0.0

>  <lup>  (208) 
0.0

>  <mut>  (208) 
5.0

>  <maj>  (208) 
5.0

>  <min>  (208) 
0.0

>  <hyb>  (208) 
1.0

>  <sub>  (208) 
0.0

>  <query_index>  (208) 
311.0

>  <max_hit_Tanimoto>  (208) 
0.299475

>  <largest_ring>  (208) 
0

>  <N_interactions_kept>  (208) 
2.5

>  <N_interactions_lost>  (208) 
1.0

>  <interaction_uniqueness_metric>  (208) 
0.056308

>  <ad_hoc_penalty>  (208) 
-23.834378

>  <N_rotatable_bonds>  (208) 
4

>  <N_HA>  (208) 
23

>  <cluster>  (208) 
5927

>  <N_interactions>  (208) 
4

>  <Enamine>  (208) 
1

>  <Mcule>  (208) 
0

>  <N_PAINS>  (208) 
0

>  <UFF_Gibbs>  (208) 
82.997821

>  <strain_per_HA>  (208) 
3.608601

>  <saltbridge:HIS:51>  (208) 
0

>  <pistack:HIS:51>  (208) 
1

>  <hydroph_interaction:HIS:51>  (208) 
0

>  <hbond:ALA:132>  (208) 
0

>  <hbond:SER:135>  (208) 
0

>  <hydroph_interaction:TYR:150>  (208) 
0

>  <pistack:TYR:161>  (208) 
2

>  <hydroph_interaction:TYR:161>  (208) 
1

>  <hydroph_interaction:ASP:83>  (208) 
0

>  <hbond:TYR:130>  (208) 
0

>  <hydroph_interaction:ALA:132>  (208) 
0

>  <hbond:HIS:51>  (208) 
0

>  <hbond:ASP:129>  (208) 
0

>  <hbond:TYR:150>  (208) 
0

>  <hbond:GLY:151>  (208) 
0

>  <hbond:TYR:161>  (208) 
0

>  <hydroph_interaction:TYR:130>  (208) 
0

>  <hydroph_interaction:PRO:131>  (208) 
0

>  <hydroph_interaction:ASP:129>  (208) 
0

>  <saltbridge:ASP:75>  (208) 
0

>  <saltbridge:ASP:83>  (208) 
0

>  <hydroph_interaction:ASN:152>  (208) 
0

>  <halogenbond:TYR:150>  (208) 
0

>  <hbond:ASP:83>  (208) 
0

>  <hydroph_interaction:VAL:155>  (208) 
0

>  <pication:TYR:161>  (208) 
0

>  <hbond:PRO:131>  (208) 
0

>  <hbond:LEU:128>  (208) 
0

>  <saltbridge:ASP:129>  (208) 
0

>  <hbond:THR:134>  (208) 
0

>  <pication:HIS:51>  (208) 
0

>  <hbond:SER:81>  (208) 
0

>  <hbond:GLY:159>  (208) 
0

>  <hydroph_interaction:PRO:101>  (208) 
0

>  <hydroph_interaction:THR:134>  (208) 
0

>  <hbond:GLY:82>  (208) 
0

>  <hydroph_interaction:GLU:104>  (208) 
0

>  <hydroph_interaction:VAL:36>  (208) 
0

>  <hydroph_interaction:MET:49>  (208) 
0

>  <halogenbond:GLU:104>  (208) 
0

>  <hydroph_interaction:LYS:107>  (208) 
0

$$$$
MCULE-5087736613
     RDKit          3D

 29 31  0  0  0  0  0  0  0  0999 V2000
   -6.2040    6.0960  -18.1090 N   0  0  0  0  0  0  0  0  0  0  0  0
   -7.4910    5.6330  -17.8930 C   0  0  0  0  0  0  0  0  0  0  0  0
   -8.4000    5.5040  -16.7090 C   0  0  0  0  0  0  0  0  0  0  0  0
   -9.6800    4.9830  -16.9180 C   0  0  0  0  0  0  0  0  0  0  0  0
  -10.0710    4.6070  -18.2090 C   0  0  0  0  0  0  0  0  0  0  0  0
   -9.2130    4.7180  -19.3060 C   0  0  0  0  0  0  0  0  0  0  0  0
   -7.9280    5.2230  -19.1480 C   0  0  0  0  0  0  0  0  0  0  0  0
   -6.9640    5.3920  -20.0910 N   0  0  0  0  0  0  0  0  0  0  0  0
   -5.9560    5.9150  -19.4510 C   0  0  0  0  0  0  0  0  0  0  0  0
   -5.2750    6.6420  -17.2270 C   0  0  1  0  0  0  0  0  0  0  0  0
   -5.5990    6.4450  -15.8040 C   0  0  0  0  0  0  0  0  0  0  0  0
   -4.9980    5.0730  -15.7900 C   0  0  0  0  0  0  0  0  0  0  0  0
   -4.0730    5.6840  -16.9270 C   0  0  1  0  0  0  0  0  0  0  0  0
   -3.6040    4.8200  -18.0740 C   0  0  0  0  0  0  0  0  0  0  0  0
   -2.8880    6.3230  -16.4030 O   0  0  0  0  0  0  0  0  0  0  0  0
   -8.1210    5.7960  -15.7050 H   0  0  0  0  0  0  0  0  0  0  0  0
  -10.3580    4.8770  -16.0780 H   0  0  0  0  0  0  0  0  0  0  0  0
  -11.0700    4.2150  -18.3660 H   0  0  0  0  0  0  0  0  0  0  0  0
   -9.5270    4.4180  -20.2980 H   0  0  0  0  0  0  0  0  0  0  0  0
   -5.0090    6.1920  -19.8960 H   0  0  0  0  0  0  0  0  0  0  0  0
   -5.0040    7.6820  -17.4680 H   0  0  0  0  0  0  0  0  0  0  0  0
   -6.6810    6.4310  -15.6250 H   0  0  0  0  0  0  0  0  0  0  0  0
   -5.1870    7.1600  -15.0870 H   0  0  0  0  0  0  0  0  0  0  0  0
   -4.5230    4.8290  -14.8330 H   0  0  0  0  0  0  0  0  0  0  0  0
   -5.6630    4.2700  -16.0950 H   0  0  0  0  0  0  0  0  0  0  0  0
   -4.4480    4.5650  -18.7160 H   0  0  0  0  0  0  0  0  0  0  0  0
   -2.8440    5.3100  -18.6890 H   0  0  0  0  0  0  0  0  0  0  0  0
   -3.1560    3.8950  -17.7010 H   0  0  0  0  0  0  0  0  0  0  0  0
   -3.1790    7.1910  -16.0760 H   0  0  0  0  0  0  0  0  0  0  0  0
  1  2  1  0
  2  3  2  0
  3  4  1  0
  4  5  2  0
  5  6  1  0
  6  7  2  0
  7  8  1  0
  8  9  2  0
  1 10  1  0
 10 11  1  0
 11 12  1  0
 12 13  1  0
 13 14  1  0
 13 15  1  1
  9  1  1  0
  2  7  1  0
 13 10  1  0
  3 16  1  0
  4 17  1  0
  5 18  1  0
  6 19  1  0
  9 20  1  0
 10 21  1  1
 11 22  1  0
 11 23  1  0
 12 24  1  0
 12 25  1  0
 14 26  1  0
 14 27  1  0
 14 28  1  0
 15 29  1  0
A    1
 N1 
A    2
 C1 
A    3
 C2 
A    4
 C3 
A    5
 C4 
A    6
 C5 
A    7
 C6 
A    8
 N2 
A    9
 C7 
A   10
 C8 
A   11
 C9 
A   12
 C10
A   13
 C11
A   14
 C12
A   15
 O1 
A   16
 H1 
A   17
 H2 
A   18
 H3 
A   19
 H4 
A   20
 H5 
A   21
 H6 
A   22
 H7 
A   23
 H8 
A   24
 H9 
A   25
 H10
A   26
 H11
A   27
 H12
A   28
 H13
A   29
 H14
M  END
>  <ref_pdb>  (209) 
x0051_0B

>  <ref_mols>  (209) 
x0490_0B,x0472_0B

>  <original SMILES>  (209) 
[H]O[C@@]1(C([H])([H])[H])C([H])([H])C([H])([H])[C@]1([H])n1c([H])nc2c([H])c([H])c([H])c([H])c21

>  <index>  (209) 
138

>  <∆∆G>  (209) 
-5.672175

>  <∆G_bound>  (209) 
-5.834065

>  <∆G_unbound>  (209) 
-0.16189

>  <comRMSD>  (209) 
0.925138

>  <N_constrained_atoms>  (209) 
15.0

>  <N_unconstrained_atoms>  (209) 
0.0

>  <runtime>  (209) 
24.20159

>  <LE>  (209) 
0.378145

>  <percent_hybrid>  (209) 
43.0

>  <dist>  (209) 
3.0

>  <ecfp4>  (209) 
0.365385

>  <daylight>  (209) 
0.66

>  <topodist>  (209) 
2.0

>  <mces>  (209) 
15.0

>  <tdn>  (209) 
0.0

>  <tup>  (209) 
1.0

>  <rdn>  (209) 
0.0

>  <rup>  (209) 
1.0

>  <ldn>  (209) 
0.0

>  <lup>  (209) 
0.0

>  <mut>  (209) 
1.0

>  <maj>  (209) 
1.0

>  <min>  (209) 
0.0

>  <hyb>  (209) 
0.0

>  <sub>  (209) 
2.0

>  <query_index>  (209) 
228.0

>  <max_hit_Tanimoto>  (209) 
0.511438

>  <largest_ring>  (209) 
0

>  <N_interactions_kept>  (209) 
3.0

>  <N_interactions_lost>  (209) 
1.0

>  <interaction_uniqueness_metric>  (209) 
0.056279

>  <ad_hoc_penalty>  (209) 
-23.829799

>  <N_rotatable_bonds>  (209) 
3

>  <N_HA>  (209) 
15

>  <cluster>  (209) 
6092

>  <N_interactions>  (209) 
6

>  <Enamine>  (209) 
0

>  <Mcule>  (209) 
1

>  <N_PAINS>  (209) 
0

>  <UFF_Gibbs>  (209) 
132.356194

>  <strain_per_HA>  (209) 
8.823746

>  <saltbridge:HIS:51>  (209) 
0

>  <pistack:HIS:51>  (209) 
0

>  <hydroph_interaction:HIS:51>  (209) 
0

>  <hbond:ALA:132>  (209) 
0

>  <hbond:SER:135>  (209) 
0

>  <hydroph_interaction:TYR:150>  (209) 
1

>  <pistack:TYR:161>  (209) 
0

>  <hydroph_interaction:TYR:161>  (209) 
4

>  <hydroph_interaction:ASP:83>  (209) 
0

>  <hbond:TYR:130>  (209) 
0

>  <hydroph_interaction:ALA:132>  (209) 
1

>  <hbond:HIS:51>  (209) 
0

>  <hbond:ASP:129>  (209) 
0

>  <hbond:TYR:150>  (209) 
0

>  <hbond:GLY:151>  (209) 
0

>  <hbond:TYR:161>  (209) 
0

>  <hydroph_interaction:TYR:130>  (209) 
0

>  <hydroph_interaction:PRO:131>  (209) 
0

>  <hydroph_interaction:ASP:129>  (209) 
0

>  <saltbridge:ASP:75>  (209) 
0

>  <saltbridge:ASP:83>  (209) 
0

>  <hydroph_interaction:ASN:152>  (209) 
0

>  <halogenbond:TYR:150>  (209) 
0

>  <hbond:ASP:83>  (209) 
0

>  <hydroph_interaction:VAL:155>  (209) 
0

>  <pication:TYR:161>  (209) 
0

>  <hbond:PRO:131>  (209) 
0

>  <hbond:LEU:128>  (209) 
0

>  <saltbridge:ASP:129>  (209) 
0

>  <hbond:THR:134>  (209) 
0

>  <pication:HIS:51>  (209) 
0

>  <hbond:SER:81>  (209) 
0

>  <hbond:GLY:159>  (209) 
0

>  <hydroph_interaction:PRO:101>  (209) 
0

>  <hydroph_interaction:THR:134>  (209) 
0

>  <hbond:GLY:82>  (209) 
0

>  <hydroph_interaction:GLU:104>  (209) 
0

>  <hydroph_interaction:VAL:36>  (209) 
0

>  <hydroph_interaction:MET:49>  (209) 
0

>  <halogenbond:GLU:104>  (209) 
0

>  <hydroph_interaction:LYS:107>  (209) 
0

$$$$
CSSS00000031452
     RDKit          3D

 27 27  0  0  0  0  0  0  0  0999 V2000
   -3.4960    4.5130  -15.5130 C   0  0  0  0  0  0  0  0  0  0  0  0
   -3.0820    5.3580  -16.5440 C   0  0  0  0  0  0  0  0  0  0  0  0
   -3.8340    5.3970  -17.7190 C   0  0  0  0  0  0  0  0  0  0  0  0
   -5.2120    5.6200  -17.6440 C   0  0  0  0  0  0  0  0  0  0  0  0
   -5.7620    6.1900  -16.5020 C   0  0  0  0  0  0  0  0  0  0  0  0
   -6.9710    5.6990  -16.0510 C   0  0  0  0  0  0  0  0  0  0  0  0
   -8.0240    5.3240  -17.0570 C   0  0  0  0  0  0  0  0  0  0  0  0
   -7.8340    5.1810  -18.4220 C   0  0  0  0  0  0  0  0  0  0  0  0
   -8.9860    4.8290  -19.0940 C   0  0  0  0  0  0  0  0  0  0  0  0
  -10.1100    4.6880  -18.2830 C   0  0  0  0  0  0  0  0  0  0  0  0
   -9.6610    5.0110  -16.6520 S   0  0  0  0  0  0  0  0  0  0  0  0
   -3.2530    4.9570  -14.5420 H   0  0  0  0  0  0  0  0  0  0  0  0
   -3.0020    3.5420  -15.5640 H   0  0  0  0  0  0  0  0  0  0  0  0
   -4.5750    4.3440  -15.5720 H   0  0  0  0  0  0  0  0  0  0  0  0
   -3.0270    6.3750  -16.1430 H   0  0  0  0  0  0  0  0  0  0  0  0
   -2.0730    5.0540  -16.8430 H   0  0  0  0  0  0  0  0  0  0  0  0
   -3.6760    4.4480  -18.2410 H   0  0  0  0  0  0  0  0  0  0  0  0
   -3.4080    6.1650  -18.3730 H   0  0  0  0  0  0  0  0  0  0  0  0
   -5.6940    4.6570  -17.8290 H   0  0  0  0  0  0  0  0  0  0  0  0
   -5.4880    6.2310  -18.5110 H   0  0  0  0  0  0  0  0  0  0  0  0
   -5.0570    6.1220  -15.6630 H   0  0  0  0  0  0  0  0  0  0  0  0
   -5.8700    7.2610  -16.6980 H   0  0  0  0  0  0  0  0  0  0  0  0
   -6.7730    4.8030  -15.4460 H   0  0  0  0  0  0  0  0  0  0  0  0
   -7.4110    6.4290  -15.3600 H   0  0  0  0  0  0  0  0  0  0  0  0
   -6.8810    5.3290  -18.9190 H   0  0  0  0  0  0  0  0  0  0  0  0
   -9.0010    4.6790  -20.1730 H   0  0  0  0  0  0  0  0  0  0  0  0
  -11.1220    4.4270  -18.5470 H   0  0  0  0  0  0  0  0  0  0  0  0
  1  2  1  0
  2  3  1  0
  3  4  1  0
  4  5  1  0
  5  6  1  0
  6  7  1  0
  7  8  2  0
  8  9  1  0
  9 10  2  0
 10 11  1  0
 11  7  1  0
  1 12  1  0
  1 13  1  0
  1 14  1  0
  2 15  1  0
  2 16  1  0
  3 17  1  0
  3 18  1  0
  4 19  1  0
  4 20  1  0
  5 21  1  0
  5 22  1  0
  6 23  1  0
  6 24  1  0
  8 25  1  0
  9 26  1  0
 10 27  1  0
A    1
 C1 
A    2
 C2 
A    3
 C3 
A    4
 C4 
A    5
 C5 
A    6
 C6 
A    7
 C7 
A    8
 C8 
A    9
 C9 
A   10
 C10
A   11
 S1 
A   12
 H1 
A   13
 H2 
A   14
 H3 
A   15
 H4 
A   16
 H5 
A   17
 H6 
A   18
 H7 
A   19
 H8 
A   20
 H9 
A   21
 H10
A   22
 H11
A   23
 H12
A   24
 H13
A   25
 H14
A   26
 H15
A   27
 H16
M  END
>  <ref_pdb>  (210) 
x0051_0B

>  <ref_mols>  (210) 
x0472_0B,x0386_0B

>  <original SMILES>  (210) 
[H]c1sc(C([H])([H])C([H])([H])C([H])([H])C([H])([H])C([H])([H])C([H])([H])[H])c([H])c1[H]

>  <index>  (210) 
50

>  <∆∆G>  (210) 
-7.111736

>  <∆G_bound>  (210) 
-7.119555

>  <∆G_unbound>  (210) 
-0.007819

>  <comRMSD>  (210) 
0.531156

>  <N_constrained_atoms>  (210) 
14.0

>  <N_unconstrained_atoms>  (210) 
0.0

>  <runtime>  (210) 
20.189839

>  <LE>  (210) 
0.507981

>  <percent_hybrid>  (210) 
13.0

>  <dist>  (210) 
6.0

>  <ecfp4>  (210) 
0.150943

>  <daylight>  (210) 
0.237037

>  <topodist>  (210) 
4.0

>  <mces>  (210) 
11.0

>  <tdn>  (210) 
3.0

>  <tup>  (210) 
0.0

>  <rdn>  (210) 
1.0

>  <rup>  (210) 
0.0

>  <ldn>  (210) 
0.0

>  <lup>  (210) 
0.0

>  <mut>  (210) 
2.0

>  <maj>  (210) 
2.0

>  <min>  (210) 
0.0

>  <hyb>  (210) 
0.0

>  <sub>  (210) 
2.0

>  <query_index>  (210) 
75.0

>  <max_hit_Tanimoto>  (210) 
0.190563

>  <largest_ring>  (210) 
0

>  <N_interactions_kept>  (210) 
3.0

>  <N_interactions_lost>  (210) 
0.0

>  <interaction_uniqueness_metric>  (210) 
0.067473

>  <ad_hoc_penalty>  (210) 
-23.81969

>  <N_rotatable_bonds>  (210) 
6

>  <N_HA>  (210) 
11

>  <cluster>  (210) 
6171

>  <N_interactions>  (210) 
6

>  <Enamine>  (210) 
1

>  <Mcule>  (210) 
0

>  <N_PAINS>  (210) 
0

>  <UFF_Gibbs>  (210) 
152.410924

>  <strain_per_HA>  (210) 
13.855539

>  <saltbridge:HIS:51>  (210) 
0

>  <pistack:HIS:51>  (210) 
0

>  <hydroph_interaction:HIS:51>  (210) 
0

>  <hbond:ALA:132>  (210) 
0

>  <hbond:SER:135>  (210) 
0

>  <hydroph_interaction:TYR:150>  (210) 
1

>  <pistack:TYR:161>  (210) 
0

>  <hydroph_interaction:TYR:161>  (210) 
4

>  <hydroph_interaction:ASP:83>  (210) 
0

>  <hbond:TYR:130>  (210) 
0

>  <hydroph_interaction:ALA:132>  (210) 
0

>  <hbond:HIS:51>  (210) 
0

>  <hbond:ASP:129>  (210) 
0

>  <hbond:TYR:150>  (210) 
0

>  <hbond:GLY:151>  (210) 
0

>  <hbond:TYR:161>  (210) 
0

>  <hydroph_interaction:TYR:130>  (210) 
0

>  <hydroph_interaction:PRO:131>  (210) 
0

>  <hydroph_interaction:ASP:129>  (210) 
0

>  <saltbridge:ASP:75>  (210) 
0

>  <saltbridge:ASP:83>  (210) 
0

>  <hydroph_interaction:ASN:152>  (210) 
0

>  <halogenbond:TYR:150>  (210) 
0

>  <hbond:ASP:83>  (210) 
0

>  <hydroph_interaction:VAL:155>  (210) 
1

>  <pication:TYR:161>  (210) 
0

>  <hbond:PRO:131>  (210) 
0

>  <hbond:LEU:128>  (210) 
0

>  <saltbridge:ASP:129>  (210) 
0

>  <hbond:THR:134>  (210) 
0

>  <pication:HIS:51>  (210) 
0

>  <hbond:SER:81>  (210) 
0

>  <hbond:GLY:159>  (210) 
0

>  <hydroph_interaction:PRO:101>  (210) 
0

>  <hydroph_interaction:THR:134>  (210) 
0

>  <hbond:GLY:82>  (210) 
0

>  <hydroph_interaction:GLU:104>  (210) 
0

>  <hydroph_interaction:VAL:36>  (210) 
0

>  <hydroph_interaction:MET:49>  (210) 
0

>  <halogenbond:GLU:104>  (210) 
0

>  <hydroph_interaction:LYS:107>  (210) 
0

$$$$
CSSS00000155548
     RDKit          3D

 27 27  0  0  0  0  0  0  0  0999 V2000
  -10.3170    7.5600  -13.8650 C   0  0  0  0  0  0  0  0  0  0  0  0
   -9.3810    6.5440  -13.2870 C   0  0  0  0  0  0  0  0  0  0  0  0
   -8.8000    5.5270  -14.2550 C   0  0  0  0  0  0  0  0  0  0  0  0
   -7.7150    5.0080  -14.0720 O   0  0  0  0  0  0  0  0  0  0  0  0
   -9.6120    5.2950  -15.3480 N   0  0  0  0  0  0  0  0  0  0  0  0
   -9.1090    5.1550  -16.6460 C   0  0  0  0  0  0  0  0  0  0  0  0
   -9.9570    4.8670  -17.7090 C   0  0  0  0  0  0  0  0  0  0  0  0
   -9.4150    4.7540  -18.9780 C   0  0  0  0  0  0  0  0  0  0  0  0
   -8.0690    4.9100  -19.2340 C   0  0  0  0  0  0  0  0  0  0  0  0
   -7.2220    5.1930  -18.1660 C   0  0  0  0  0  0  0  0  0  0  0  0
   -7.7510    5.3100  -16.8960 C   0  0  0  0  0  0  0  0  0  0  0  0
   -5.7580    5.3690  -18.3870 C   0  0  0  0  0  0  0  0  0  0  0  0
   -4.8570    5.4180  -17.1870 C   0  0  0  0  0  0  0  0  0  0  0  0
   -5.3250    5.4690  -19.5250 O   0  0  0  0  0  0  0  0  0  0  0  0
  -11.0770    7.8160  -13.1240 H   0  0  0  0  0  0  0  0  0  0  0  0
  -10.8170    7.1500  -14.7480 H   0  0  0  0  0  0  0  0  0  0  0  0
   -9.7720    8.4720  -14.1180 H   0  0  0  0  0  0  0  0  0  0  0  0
   -8.5440    7.0690  -12.8160 H   0  0  0  0  0  0  0  0  0  0  0  0
   -9.9030    5.9880  -12.5020 H   0  0  0  0  0  0  0  0  0  0  0  0
  -10.5370    4.9260  -15.1650 H   0  0  0  0  0  0  0  0  0  0  0  0
  -11.0220    4.7320  -17.5860 H   0  0  0  0  0  0  0  0  0  0  0  0
  -10.1330    4.5390  -19.7440 H   0  0  0  0  0  0  0  0  0  0  0  0
   -7.6900    4.8130  -20.2470 H   0  0  0  0  0  0  0  0  0  0  0  0
   -7.0630    5.5330  -16.0830 H   0  0  0  0  0  0  0  0  0  0  0  0
   -5.3780    4.8740  -16.3950 H   0  0  0  0  0  0  0  0  0  0  0  0
   -3.9100    4.9040  -17.2960 H   0  0  0  0  0  0  0  0  0  0  0  0
   -4.6910    6.4150  -16.7920 H   0  0  0  0  0  0  0  0  0  0  0  0
  1  2  1  0
  2  3  1  0
  3  4  2  0
  3  5  1  0
  5  6  1  0
  6  7  2  0
  7  8  1  0
  8  9  2  0
  9 10  1  0
 10 11  2  0
 10 12  1  0
 12 13  1  0
 12 14  2  0
 11  6  1  0
  1 15  1  0
  1 16  1  0
  1 17  1  0
  2 18  1  0
  2 19  1  0
  5 20  1  0
  7 21  1  0
  8 22  1  0
  9 23  1  0
 11 24  1  0
 13 25  1  0
 13 26  1  0
 13 27  1  0
A    1
 C1 
A    2
 C2 
A    3
 C3 
A    4
 O1 
A    5
 N1 
A    6
 C4 
A    7
 C5 
A    8
 C6 
A    9
 C7 
A   10
 C8 
A   11
 C9 
A   12
 C10
A   13
 C11
A   14
 O2 
A   15
 H1 
A   16
 H2 
A   17
 H3 
A   18
 H4 
A   19
 H5 
A   20
 H6 
A   21
 H7 
A   22
 H8 
A   23
 H9 
A   24
 H10
A   25
 H11
A   26
 H12
A   27
 H13
M  END
>  <ref_pdb>  (211) 
x0051_0B

>  <ref_mols>  (211) 
x0490_0B,x0951_0B

>  <original SMILES>  (211) 
[H]c1c([H])c(C(=O)C([H])([H])[H])c([H])c(N([H])C(=O)C([H])([H])C([H])([H])[H])c1[H]

>  <index>  (211) 
378

>  <∆∆G>  (211) 
-7.278072

>  <∆G_bound>  (211) 
-6.998173

>  <∆G_unbound>  (211) 
0.279898

>  <comRMSD>  (211) 
0.91986

>  <N_constrained_atoms>  (211) 
17.0

>  <N_unconstrained_atoms>  (211) 
1.0

>  <runtime>  (211) 
45.282682

>  <LE>  (211) 
0.404337

>  <percent_hybrid>  (211) 
46.0

>  <dist>  (211) 
8.0

>  <ecfp4>  (211) 
0.183333

>  <daylight>  (211) 
0.362069

>  <topodist>  (211) 
5.0

>  <mces>  (211) 
13.0

>  <tdn>  (211) 
3.0

>  <tup>  (211) 
1.0

>  <rdn>  (211) 
0.0

>  <rup>  (211) 
0.0

>  <ldn>  (211) 
1.0

>  <lup>  (211) 
0.0

>  <mut>  (211) 
1.0

>  <maj>  (211) 
1.0

>  <min>  (211) 
0.0

>  <hyb>  (211) 
2.0

>  <sub>  (211) 
1.0

>  <query_index>  (211) 
300.0

>  <max_hit_Tanimoto>  (211) 
0.101449

>  <largest_ring>  (211) 
0

>  <N_interactions_kept>  (211) 
2.0

>  <N_interactions_lost>  (211) 
1.5

>  <interaction_uniqueness_metric>  (211) 
0.099517

>  <ad_hoc_penalty>  (211) 
-23.765302

>  <N_rotatable_bonds>  (211) 
5

>  <N_HA>  (211) 
14

>  <cluster>  (211) 
5871

>  <N_interactions>  (211) 
6

>  <Enamine>  (211) 
1

>  <Mcule>  (211) 
0

>  <N_PAINS>  (211) 
0

>  <UFF_Gibbs>  (211) 
42.849909

>  <strain_per_HA>  (211) 
3.060708

>  <saltbridge:HIS:51>  (211) 
0

>  <pistack:HIS:51>  (211) 
0

>  <hydroph_interaction:HIS:51>  (211) 
0

>  <hbond:ALA:132>  (211) 
0

>  <hbond:SER:135>  (211) 
2

>  <hydroph_interaction:TYR:150>  (211) 
1

>  <pistack:TYR:161>  (211) 
0

>  <hydroph_interaction:TYR:161>  (211) 
3

>  <hydroph_interaction:ASP:83>  (211) 
0

>  <hbond:TYR:130>  (211) 
0

>  <hydroph_interaction:ALA:132>  (211) 
0

>  <hbond:HIS:51>  (211) 
0

>  <hbond:ASP:129>  (211) 
0

>  <hbond:TYR:150>  (211) 
0

>  <hbond:GLY:151>  (211) 
0

>  <hbond:TYR:161>  (211) 
0

>  <hydroph_interaction:TYR:130>  (211) 
0

>  <hydroph_interaction:PRO:131>  (211) 
0

>  <hydroph_interaction:ASP:129>  (211) 
0

>  <saltbridge:ASP:75>  (211) 
0

>  <saltbridge:ASP:83>  (211) 
0

>  <hydroph_interaction:ASN:152>  (211) 
0

>  <halogenbond:TYR:150>  (211) 
0

>  <hbond:ASP:83>  (211) 
0

>  <hydroph_interaction:VAL:155>  (211) 
0

>  <pication:TYR:161>  (211) 
0

>  <hbond:PRO:131>  (211) 
0

>  <hbond:LEU:128>  (211) 
0

>  <saltbridge:ASP:129>  (211) 
0

>  <hbond:THR:134>  (211) 
0

>  <pication:HIS:51>  (211) 
0

>  <hbond:SER:81>  (211) 
0

>  <hbond:GLY:159>  (211) 
0

>  <hydroph_interaction:PRO:101>  (211) 
0

>  <hydroph_interaction:THR:134>  (211) 
0

>  <hbond:GLY:82>  (211) 
0

>  <hydroph_interaction:GLU:104>  (211) 
0

>  <hydroph_interaction:VAL:36>  (211) 
0

>  <hydroph_interaction:MET:49>  (211) 
0

>  <halogenbond:GLU:104>  (211) 
0

>  <hydroph_interaction:LYS:107>  (211) 
0

$$$$
Z4076801657
     RDKit          3D

 42 45  0  0  0  0  0  0  0  0999 V2000
   -9.4470    4.7250  -18.5560 C   0  0  0  0  0  0  0  0  0  0  0  0
   -8.7130    5.1240  -17.3640 N   0  0  0  0  0  0  0  0  0  0  0  0
   -9.1950    5.0770  -16.0720 C   0  0  0  0  0  0  0  0  0  0  0  0
   -8.1190    5.5740  -15.1210 C   0  0  0  0  0  0  0  0  0  0  0  0
   -7.9910    5.7680  -13.6170 C   0  0  0  0  0  0  0  0  0  0  0  0
   -7.0220    6.3920  -13.2200 O   0  0  0  0  0  0  0  0  0  0  0  0
   -8.9250    5.2310  -12.6810 N   0  0  0  0  0  0  0  0  0  0  0  0
   -8.8900    5.4580  -11.2560 C   0  0  0  0  0  0  0  0  0  0  0  0
   -8.9730    4.4590  -10.1140 C   0  0  0  0  0  0  0  0  0  0  0  0
   -9.1110    2.9850  -10.3450 C   0  0  0  0  0  0  0  0  0  0  0  0
   -9.3700    2.2100   -9.1830 C   0  0  0  0  0  0  0  0  0  0  0  0
   -9.5790    2.9800   -7.8510 C   0  0  0  0  0  0  0  0  0  0  0  0
   -8.9710    4.3810   -7.6800 C   0  0  0  0  0  0  0  0  0  0  0  0
   -8.9100    5.0810   -8.9420 N   0  0  0  0  0  0  0  0  0  0  0  0
   -8.7910    6.4100   -9.0820 N   0  0  0  0  0  0  0  0  0  0  0  0
   -8.7800    6.6390  -10.4390 C   0  0  0  0  0  0  0  0  0  0  0  0
   -7.0730    5.8830  -15.9970 N   0  0  0  0  0  0  0  0  0  0  0  0
   -7.4040    5.6240  -17.2900 C   0  0  0  0  0  0  0  0  0  0  0  0
   -6.5040    5.8500  -18.3660 C   0  0  0  0  0  0  0  0  0  0  0  0
   -6.8580    6.6030  -19.5320 C   0  0  0  0  0  0  0  0  0  0  0  0
   -5.9150    6.7900  -20.5420 C   0  0  0  0  0  0  0  0  0  0  0  0
   -4.6490    6.2380  -20.3980 C   0  0  0  0  0  0  0  0  0  0  0  0
   -4.3770    5.5200  -19.2480 C   0  0  0  0  0  0  0  0  0  0  0  0
   -5.2630    5.3180  -18.2450 N   0  0  0  0  0  0  0  0  0  0  0  0
  -10.4900    5.0410  -18.4780 H   0  0  0  0  0  0  0  0  0  0  0  0
   -9.0170    5.1890  -19.4540 H   0  0  0  0  0  0  0  0  0  0  0  0
   -9.4060    3.6400  -18.6830 H   0  0  0  0  0  0  0  0  0  0  0  0
  -10.1580    4.7610  -15.6470 H   0  0  0  0  0  0  0  0  0  0  0  0
   -9.7710    4.8170  -13.0430 H   0  0  0  0  0  0  0  0  0  0  0  0
   -9.9030    2.7910  -11.0780 H   0  0  0  0  0  0  0  0  0  0  0  0
   -8.1780    2.6260  -10.7980 H   0  0  0  0  0  0  0  0  0  0  0  0
  -10.3610    1.8190   -9.3650 H   0  0  0  0  0  0  0  0  0  0  0  0
   -8.7570    1.3230   -9.0900 H   0  0  0  0  0  0  0  0  0  0  0  0
  -10.6030    2.9130   -7.4880 H   0  0  0  0  0  0  0  0  0  0  0  0
   -9.0430    2.3650   -7.1180 H   0  0  0  0  0  0  0  0  0  0  0  0
   -7.9550    4.3190   -7.2720 H   0  0  0  0  0  0  0  0  0  0  0  0
   -9.5860    4.9930   -7.0080 H   0  0  0  0  0  0  0  0  0  0  0  0
   -8.6930    7.6650  -10.7760 H   0  0  0  0  0  0  0  0  0  0  0  0
   -7.8440    7.0230  -19.6370 H   0  0  0  0  0  0  0  0  0  0  0  0
   -6.1740    7.3610  -21.4320 H   0  0  0  0  0  0  0  0  0  0  0  0
   -3.8960    6.3660  -21.1680 H   0  0  0  0  0  0  0  0  0  0  0  0
   -3.3980    5.0680  -19.0950 H   0  0  0  0  0  0  0  0  0  0  0  0
  1  2  1  0
  2  3  1  0
  3  4  2  0
  4  5  1  0
  5  6  2  0
  5  7  1  0
  7  8  1  0
  8  9  2  0
  9 10  1  0
 10 11  1  0
 11 12  1  0
 12 13  1  0
 13 14  1  0
 14 15  1  0
 15 16  2  0
  4 17  1  0
 17 18  2  0
 18 19  1  0
 19 20  2  0
 20 21  1  0
 21 22  2  0
 22 23  1  0
 23 24  2  0
 18  2  1  0
 16  8  1  0
 14  9  1  0
 24 19  1  0
  1 25  1  0
  1 26  1  0
  1 27  1  0
  3 28  1  0
  7 29  1  0
 10 30  1  0
 10 31  1  0
 11 32  1  0
 11 33  1  0
 12 34  1  0
 12 35  1  0
 13 36  1  0
 13 37  1  0
 16 38  1  0
 20 39  1  0
 21 40  1  0
 22 41  1  0
 23 42  1  0
A    1
 C1 
A    2
 N1 
A    3
 C2 
A    4
 C3 
A    5
 C4 
A    6
 O1 
A    7
 N2 
A    8
 C5 
A    9
 C6 
A   10
 C7 
A   11
 C8 
A   12
 C9 
A   13
 C10
A   14
 N3 
A   15
 N4 
A   16
 C11
A   17
 N5 
A   18
 C12
A   19
 C13
A   20
 C14
A   21
 C15
A   22
 C16
A   23
 C17
A   24
 N6 
A   25
 H1 
A   26
 H2 
A   27
 H3 
A   28
 H4 
A   29
 H5 
A   30
 H6 
A   31
 H7 
A   32
 H8 
A   33
 H9 
A   34
 H10
A   35
 H11
A   36
 H12
A   37
 H13
A   38
 H14
A   39
 H15
A   40
 H16
A   41
 H17
A   42
 H18
M  END
>  <ref_pdb>  (212) 
x0051_0B

>  <ref_mols>  (212) 
x0969_1B,x0917_0B

>  <original SMILES>  (212) 
[H]c1nc(-c2nc(C(=O)N([H])c3c([H])nn4c3C([H])([H])C([H])([H])C([H])([H])C4([H])[H])c([H])n2C([H])([H])[H])c([H])c([H])c1[H]

>  <index>  (212) 
377

>  <∆∆G>  (212) 
-7.142973

>  <∆G_bound>  (212) 
-6.717586

>  <∆G_unbound>  (212) 
0.425387

>  <comRMSD>  (212) 
0.600329

>  <N_constrained_atoms>  (212) 
24.0

>  <N_unconstrained_atoms>  (212) 
0.0

>  <runtime>  (212) 
98.191425

>  <LE>  (212) 
0.297624

>  <percent_hybrid>  (212) 
40.0

>  <dist>  (212) 
11.0

>  <ecfp4>  (212) 
0.228261

>  <daylight>  (212) 
0.285

>  <topodist>  (212) 
1.0

>  <mces>  (212) 
27.0

>  <tdn>  (212) 
1.0

>  <tup>  (212) 
0.0

>  <rdn>  (212) 
0.0

>  <rup>  (212) 
0.0

>  <ldn>  (212) 
0.0

>  <lup>  (212) 
0.0

>  <mut>  (212) 
5.0

>  <maj>  (212) 
5.0

>  <min>  (212) 
0.0

>  <hyb>  (212) 
5.0

>  <sub>  (212) 
0.0

>  <query_index>  (212) 
70.0

>  <max_hit_Tanimoto>  (212) 
0.284884

>  <largest_ring>  (212) 
0

>  <N_interactions_kept>  (212) 
2.5

>  <N_interactions_lost>  (212) 
1.5

>  <interaction_uniqueness_metric>  (212) 
0.138244

>  <ad_hoc_penalty>  (212) 
-23.744775

>  <N_rotatable_bonds>  (212) 
4

>  <N_HA>  (212) 
24

>  <cluster>  (212) 
5872

>  <N_interactions>  (212) 
5

>  <Enamine>  (212) 
1

>  <Mcule>  (212) 
0

>  <N_PAINS>  (212) 
0

>  <UFF_Gibbs>  (212) 
84.813633

>  <strain_per_HA>  (212) 
3.533901

>  <saltbridge:HIS:51>  (212) 
0

>  <pistack:HIS:51>  (212) 
1

>  <hydroph_interaction:HIS:51>  (212) 
1

>  <hbond:ALA:132>  (212) 
0

>  <hbond:SER:135>  (212) 
0

>  <hydroph_interaction:TYR:150>  (212) 
0

>  <pistack:TYR:161>  (212) 
1

>  <hydroph_interaction:TYR:161>  (212) 
0

>  <hydroph_interaction:ASP:83>  (212) 
0

>  <hbond:TYR:130>  (212) 
0

>  <hydroph_interaction:ALA:132>  (212) 
1

>  <hbond:HIS:51>  (212) 
0

>  <hbond:ASP:129>  (212) 
0

>  <hbond:TYR:150>  (212) 
0

>  <hbond:GLY:151>  (212) 
1

>  <hbond:TYR:161>  (212) 
0

>  <hydroph_interaction:TYR:130>  (212) 
0

>  <hydroph_interaction:PRO:131>  (212) 
0

>  <hydroph_interaction:ASP:129>  (212) 
0

>  <saltbridge:ASP:75>  (212) 
0

>  <saltbridge:ASP:83>  (212) 
0

>  <hydroph_interaction:ASN:152>  (212) 
0

>  <halogenbond:TYR:150>  (212) 
0

>  <hbond:ASP:83>  (212) 
0

>  <hydroph_interaction:VAL:155>  (212) 
0

>  <pication:TYR:161>  (212) 
0

>  <hbond:PRO:131>  (212) 
0

>  <hbond:LEU:128>  (212) 
0

>  <saltbridge:ASP:129>  (212) 
0

>  <hbond:THR:134>  (212) 
0

>  <pication:HIS:51>  (212) 
0

>  <hbond:SER:81>  (212) 
0

>  <hbond:GLY:159>  (212) 
0

>  <hydroph_interaction:PRO:101>  (212) 
0

>  <hydroph_interaction:THR:134>  (212) 
0

>  <hbond:GLY:82>  (212) 
0

>  <hydroph_interaction:GLU:104>  (212) 
0

>  <hydroph_interaction:VAL:36>  (212) 
0

>  <hydroph_interaction:MET:49>  (212) 
0

>  <halogenbond:GLU:104>  (212) 
0

>  <hydroph_interaction:LYS:107>  (212) 
0

$$$$
CSSB00020665191
     RDKit          3D

 43 45  0  0  0  0  0  0  0  0999 V2000
   -5.0120    4.9550  -13.4590 C   0  0  0  0  0  0  0  0  0  0  0  0
   -3.8390    5.8010  -13.6590 N   0  0  0  0  0  0  0  0  0  0  0  0
   -4.1760    7.1060  -14.2360 C   0  0  0  0  0  0  0  0  0  0  0  0
   -4.7600    7.0520  -15.5950 C   0  0  0  0  0  0  0  0  0  0  0  0
   -4.0990    6.1130  -16.5420 N   0  0  0  0  0  0  0  0  0  0  0  0
   -3.4800    4.9140  -15.9420 C   0  0  0  0  0  0  0  0  0  0  0  0
   -2.9010    5.1650  -14.5930 C   0  0  0  0  0  0  0  0  0  0  0  0
   -5.1410    5.8150  -17.5020 C   0  0  0  0  0  0  0  0  0  0  0  0
   -6.2870    5.6390  -16.9670 N   0  0  0  0  0  0  0  0  0  0  0  0
   -7.4930    5.3240  -17.5310 C   0  0  0  0  0  0  0  0  0  0  0  0
   -8.5260    5.1210  -16.5010 C   0  0  0  0  0  0  0  0  0  0  0  0
   -9.7970    4.8010  -16.8140 C   0  0  0  0  0  0  0  0  0  0  0  0
  -10.1500    4.6620  -18.1540 C   0  0  0  0  0  0  0  0  0  0  0  0
   -9.1960    4.8430  -19.1610 C   0  0  0  0  0  0  0  0  0  0  0  0
   -7.8610    5.1730  -18.8640 C   0  0  0  0  0  0  0  0  0  0  0  0
   -6.9890    5.3240  -19.9550 N   0  0  0  0  0  0  0  0  0  0  0  0
   -5.8020    5.9990  -20.0010 C   0  0  0  0  0  0  0  0  0  0  0  0
   -5.5740    7.0940  -21.2590 S   0  0  0  0  0  0  0  0  0  0  0  0
   -4.7960    5.7220  -18.9440 C   0  0  0  0  0  0  0  0  0  0  0  0
   -3.5010    5.3780  -19.1190 C   0  0  0  0  0  0  0  0  0  0  0  0
   -2.8120    5.2060  -20.4150 C   0  0  0  0  0  0  0  0  0  0  0  0
   -1.7410    4.1540  -20.4810 C   0  0  0  0  0  0  0  0  0  0  0  0
   -3.0970    5.9010  -21.3900 O   0  0  0  0  0  0  0  0  0  0  0  0
   -4.9800    4.0560  -14.0850 H   0  0  0  0  0  0  0  0  0  0  0  0
   -5.1240    4.6540  -12.4090 H   0  0  0  0  0  0  0  0  0  0  0  0
   -5.9110    5.5090  -13.7470 H   0  0  0  0  0  0  0  0  0  0  0  0
   -3.2940    7.7560  -14.2400 H   0  0  0  0  0  0  0  0  0  0  0  0
   -4.9000    7.5890  -13.5690 H   0  0  0  0  0  0  0  0  0  0  0  0
   -4.6890    8.0680  -16.0020 H   0  0  0  0  0  0  0  0  0  0  0  0
   -5.8270    6.8190  -15.5170 H   0  0  0  0  0  0  0  0  0  0  0  0
   -4.2640    4.1560  -15.8430 H   0  0  0  0  0  0  0  0  0  0  0  0
   -2.7210    4.5000  -16.6190 H   0  0  0  0  0  0  0  0  0  0  0  0
   -2.4900    4.2530  -14.1400 H   0  0  0  0  0  0  0  0  0  0  0  0
   -2.0450    5.8430  -14.7090 H   0  0  0  0  0  0  0  0  0  0  0  0
   -8.2550    5.2300  -15.4520 H   0  0  0  0  0  0  0  0  0  0  0  0
  -10.5150    4.6600  -16.0210 H   0  0  0  0  0  0  0  0  0  0  0  0
  -11.1710    4.4100  -18.4200 H   0  0  0  0  0  0  0  0  0  0  0  0
   -9.5080    4.7220  -20.1980 H   0  0  0  0  0  0  0  0  0  0  0  0
   -7.1780    4.7820  -20.7890 H   0  0  0  0  0  0  0  0  0  0  0  0
   -2.8690    5.2050  -18.2550 H   0  0  0  0  0  0  0  0  0  0  0  0
   -0.7600    4.6340  -20.4880 H   0  0  0  0  0  0  0  0  0  0  0  0
   -1.8010    3.4750  -19.6300 H   0  0  0  0  0  0  0  0  0  0  0  0
   -1.8840    3.5670  -21.3900 H   0  0  0  0  0  0  0  0  0  0  0  0
  1  2  1  0
  2  3  1  0
  3  4  1  0
  4  5  1  0
  5  6  1  0
  6  7  1  0
  5  8  1  0
  8  9  2  0
  9 10  1  0
 10 11  2  0
 11 12  1  0
 12 13  2  0
 13 14  1  0
 14 15  2  0
 15 16  1  0
 16 17  1  0
 17 18  2  0
 17 19  1  0
 19 20  2  0
 20 21  1  0
 21 22  1  0
 21 23  2  0
  7  2  1  0
 19  8  1  0
 15 10  1  0
  1 24  1  0
  1 25  1  0
  1 26  1  0
  3 27  1  0
  3 28  1  0
  4 29  1  0
  4 30  1  0
  6 31  1  0
  6 32  1  0
  7 33  1  0
  7 34  1  0
 11 35  1  0
 12 36  1  0
 13 37  1  0
 14 38  1  0
 16 39  1  0
 20 40  1  0
 22 41  1  0
 22 42  1  0
 22 43  1  0
A    1
 C1 
A    2
 N1 
A    3
 C2 
A    4
 C3 
A    5
 N2 
A    6
 C4 
A    7
 C5 
A    8
 C6 
A    9
 N3 
A   10
 C7 
A   11
 C8 
A   12
 C9 
A   13
 C10
A   14
 C11
A   15
 C12
A   16
 N4 
A   17
 C13
A   18
 S1 
A   19
 C14
A   20
 C15
A   21
 C16
A   22
 C17
A   23
 O1 
A   24
 H1 
A   25
 H2 
A   26
 H3 
A   27
 H4 
A   28
 H5 
A   29
 H6 
A   30
 H7 
A   31
 H8 
A   32
 H9 
A   33
 H10
A   34
 H11
A   35
 H12
A   36
 H13
A   37
 H14
A   38
 H15
A   39
 H16
A   40
 H17
A   41
 H18
A   42
 H19
A   43
 H20
M  END
>  <ref_pdb>  (213) 
x0051_0B

>  <ref_mols>  (213) 
x0429_0B,x0089_0B

>  <original SMILES>  (213) 
[H]/C(C(=O)C([H])([H])[H])=C1/C(=S)N([H])c2c([H])c([H])c([H])c([H])c2N=C1N1C([H])([H])C([H])([H])N(C([H])([H])[H])C([H])([H])C1([H])[H]

>  <index>  (213) 
246

>  <∆∆G>  (213) 
-8.458254

>  <∆G_bound>  (213) 
-6.900358

>  <∆G_unbound>  (213) 
1.557897

>  <comRMSD>  (213) 
0.741281

>  <N_constrained_atoms>  (213) 
19.0

>  <N_unconstrained_atoms>  (213) 
5.0

>  <runtime>  (213) 
31.084337

>  <LE>  (213) 
0.352427

>  <percent_hybrid>  (213) 
34.0

>  <dist>  (213) 
7.0

>  <ecfp4>  (213) 
0.142857

>  <daylight>  (213) 
0.193694

>  <topodist>  (213) 
3.0

>  <mces>  (213) 
22.0

>  <tdn>  (213) 
0.0

>  <tup>  (213) 
2.0

>  <rdn>  (213) 
0.0

>  <rup>  (213) 
0.0

>  <ldn>  (213) 
0.0

>  <lup>  (213) 
1.0

>  <mut>  (213) 
2.0

>  <maj>  (213) 
2.0

>  <min>  (213) 
0.0

>  <hyb>  (213) 
2.0

>  <sub>  (213) 
2.0

>  <query_index>  (213) 
103.0

>  <max_hit_Tanimoto>  (213) 
0.217504

>  <largest_ring>  (213) 
0

>  <N_interactions_kept>  (213) 
2.0

>  <N_interactions_lost>  (213) 
1.5

>  <interaction_uniqueness_metric>  (213) 
0.05615

>  <ad_hoc_penalty>  (213) 
-23.713059

>  <N_rotatable_bonds>  (213) 
3

>  <N_HA>  (213) 
23

>  <cluster>  (213) 
5994

>  <N_interactions>  (213) 
5

>  <Enamine>  (213) 
1

>  <Mcule>  (213) 
0

>  <N_PAINS>  (213) 
0

>  <UFF_Gibbs>  (213) 
121.950779

>  <strain_per_HA>  (213) 
5.302208

>  <saltbridge:HIS:51>  (213) 
0

>  <pistack:HIS:51>  (213) 
0

>  <hydroph_interaction:HIS:51>  (213) 
0

>  <hbond:ALA:132>  (213) 
0

>  <hbond:SER:135>  (213) 
0

>  <hydroph_interaction:TYR:150>  (213) 
1

>  <pistack:TYR:161>  (213) 
0

>  <hydroph_interaction:TYR:161>  (213) 
3

>  <hydroph_interaction:ASP:83>  (213) 
0

>  <hbond:TYR:130>  (213) 
1

>  <hydroph_interaction:ALA:132>  (213) 
0

>  <hbond:HIS:51>  (213) 
0

>  <hbond:ASP:129>  (213) 
0

>  <hbond:TYR:150>  (213) 
0

>  <hbond:GLY:151>  (213) 
0

>  <hbond:TYR:161>  (213) 
0

>  <hydroph_interaction:TYR:130>  (213) 
0

>  <hydroph_interaction:PRO:131>  (213) 
0

>  <hydroph_interaction:ASP:129>  (213) 
0

>  <saltbridge:ASP:75>  (213) 
0

>  <saltbridge:ASP:83>  (213) 
0

>  <hydroph_interaction:ASN:152>  (213) 
0

>  <halogenbond:TYR:150>  (213) 
0

>  <hbond:ASP:83>  (213) 
0

>  <hydroph_interaction:VAL:155>  (213) 
0

>  <pication:TYR:161>  (213) 
0

>  <hbond:PRO:131>  (213) 
0

>  <hbond:LEU:128>  (213) 
0

>  <saltbridge:ASP:129>  (213) 
0

>  <hbond:THR:134>  (213) 
0

>  <pication:HIS:51>  (213) 
0

>  <hbond:SER:81>  (213) 
0

>  <hbond:GLY:159>  (213) 
0

>  <hydroph_interaction:PRO:101>  (213) 
0

>  <hydroph_interaction:THR:134>  (213) 
0

>  <hbond:GLY:82>  (213) 
0

>  <hydroph_interaction:GLU:104>  (213) 
0

>  <hydroph_interaction:VAL:36>  (213) 
0

>  <hydroph_interaction:MET:49>  (213) 
0

>  <halogenbond:GLU:104>  (213) 
0

>  <hydroph_interaction:LYS:107>  (213) 
0

$$$$
CSSS00000005371
     RDKit          3D

 19 20  0  0  0  0  0  0  0  0999 V2000
   -9.9510    5.0760  -15.5490 O   0  0  0  0  0  0  0  0  0  0  0  0
   -9.4590    5.0300  -16.7650 C   0  0  0  0  0  0  0  0  0  0  0  0
   -8.1860    5.1860  -16.9200 N   0  0  0  0  0  0  0  0  0  0  0  0
   -7.8830    5.0940  -18.2660 C   0  0  0  0  0  0  0  0  0  0  0  0
   -8.9630    4.8720  -19.0980 C   0  0  0  0  0  0  0  0  0  0  0  0
  -10.3930    4.7750  -18.1650 S   0  0  0  0  0  0  0  0  0  0  0  0
   -6.5070    5.2190  -18.7020 C   0  0  0  0  0  0  0  0  0  0  0  0
   -5.5020    5.3000  -17.8090 C   0  0  0  0  0  0  0  0  0  0  0  0
   -4.1280    5.4070  -18.2550 C   0  0  0  0  0  0  0  0  0  0  0  0
   -3.8470    5.4290  -19.6180 C   0  0  0  0  0  0  0  0  0  0  0  0
   -4.9240    5.3440  -20.5520 C   0  0  0  0  0  0  0  0  0  0  0  0
   -6.2360    5.2400  -20.0770 C   0  0  0  0  0  0  0  0  0  0  0  0
   -9.9490    4.1190  -15.3280 H   0  0  0  0  0  0  0  0  0  0  0  0
   -8.9980    4.7590  -20.1720 H   0  0  0  0  0  0  0  0  0  0  0  0
   -5.6950    5.2830  -16.7400 H   0  0  0  0  0  0  0  0  0  0  0  0
   -3.3200    5.4700  -17.5300 H   0  0  0  0  0  0  0  0  0  0  0  0
   -2.8200    5.5080  -19.9680 H   0  0  0  0  0  0  0  0  0  0  0  0
   -4.7290    5.3580  -21.6210 H   0  0  0  0  0  0  0  0  0  0  0  0
   -7.0520    5.1720  -20.7950 H   0  0  0  0  0  0  0  0  0  0  0  0
  1  2  1  0
  2  3  2  0
  3  4  1  0
  4  5  2  0
  5  6  1  0
  4  7  1  0
  7  8  2  0
  8  9  1  0
  9 10  2  0
 10 11  1  0
 11 12  2  0
  6  2  1  0
 12  7  1  0
  1 13  1  0
  5 14  1  0
  8 15  1  0
  9 16  1  0
 10 17  1  0
 11 18  1  0
 12 19  1  0
A    1
 O1 
A    2
 C1 
A    3
 N1 
A    4
 C2 
A    5
 C3 
A    6
 S1 
A    7
 C4 
A    8
 C5 
A    9
 C6 
A   10
 C7 
A   11
 C8 
A   12
 C9 
A   13
 H1 
A   14
 H2 
A   15
 H3 
A   16
 H4 
A   17
 H5 
A   18
 H6 
A   19
 H7 
M  END
>  <ref_pdb>  (214) 
x0051_0B

>  <ref_mols>  (214) 
x0680_0B,x0386_0B

>  <original SMILES>  (214) 
[H]Oc1nc(-c2c([H])c([H])c([H])c([H])c2[H])c([H])s1

>  <index>  (214) 
338

>  <∆∆G>  (214) 
-6.751627

>  <∆G_bound>  (214) 
-6.67611

>  <∆G_unbound>  (214) 
0.075517

>  <comRMSD>  (214) 
0.58442

>  <N_constrained_atoms>  (214) 
12.0

>  <N_unconstrained_atoms>  (214) 
1.0

>  <runtime>  (214) 
19.651505

>  <LE>  (214) 
0.519356

>  <percent_hybrid>  (214) 
17.0

>  <dist>  (214) 
4.0

>  <ecfp4>  (214) 
0.137255

>  <daylight>  (214) 
0.183007

>  <topodist>  (214) 
2.0

>  <mces>  (214) 
12.0

>  <tdn>  (214) 
1.0

>  <tup>  (214) 
1.0

>  <rdn>  (214) 
0.0

>  <rup>  (214) 
0.0

>  <ldn>  (214) 
0.0

>  <lup>  (214) 
0.0

>  <mut>  (214) 
2.0

>  <maj>  (214) 
1.0

>  <min>  (214) 
1.0

>  <hyb>  (214) 
0.0

>  <sub>  (214) 
2.0

>  <query_index>  (214) 
296.0

>  <max_hit_Tanimoto>  (214) 
0.092857

>  <largest_ring>  (214) 
0

>  <N_interactions_kept>  (214) 
3.5

>  <N_interactions_lost>  (214) 
0.5

>  <interaction_uniqueness_metric>  (214) 
0.016266

>  <ad_hoc_penalty>  (214) 
-23.699216

>  <N_rotatable_bonds>  (214) 
2

>  <N_HA>  (214) 
12

>  <cluster>  (214) 
5910

>  <N_interactions>  (214) 
3

>  <Enamine>  (214) 
1

>  <Mcule>  (214) 
0

>  <N_PAINS>  (214) 
0

>  <UFF_Gibbs>  (214) 
34.486029

>  <strain_per_HA>  (214) 
2.873836

>  <saltbridge:HIS:51>  (214) 
0

>  <pistack:HIS:51>  (214) 
0

>  <hydroph_interaction:HIS:51>  (214) 
0

>  <hbond:ALA:132>  (214) 
0

>  <hbond:SER:135>  (214) 
0

>  <hydroph_interaction:TYR:150>  (214) 
0

>  <pistack:TYR:161>  (214) 
0

>  <hydroph_interaction:TYR:161>  (214) 
3

>  <hydroph_interaction:ASP:83>  (214) 
0

>  <hbond:TYR:130>  (214) 
0

>  <hydroph_interaction:ALA:132>  (214) 
0

>  <hbond:HIS:51>  (214) 
0

>  <hbond:ASP:129>  (214) 
0

>  <hbond:TYR:150>  (214) 
0

>  <hbond:GLY:151>  (214) 
0

>  <hbond:TYR:161>  (214) 
0

>  <hydroph_interaction:TYR:130>  (214) 
0

>  <hydroph_interaction:PRO:131>  (214) 
0

>  <hydroph_interaction:ASP:129>  (214) 
0

>  <saltbridge:ASP:75>  (214) 
0

>  <saltbridge:ASP:83>  (214) 
0

>  <hydroph_interaction:ASN:152>  (214) 
0

>  <halogenbond:TYR:150>  (214) 
0

>  <hbond:ASP:83>  (214) 
0

>  <hydroph_interaction:VAL:155>  (214) 
0

>  <pication:TYR:161>  (214) 
0

>  <hbond:PRO:131>  (214) 
0

>  <hbond:LEU:128>  (214) 
0

>  <saltbridge:ASP:129>  (214) 
0

>  <hbond:THR:134>  (214) 
0

>  <pication:HIS:51>  (214) 
0

>  <hbond:SER:81>  (214) 
0

>  <hbond:GLY:159>  (214) 
0

>  <hydroph_interaction:PRO:101>  (214) 
0

>  <hydroph_interaction:THR:134>  (214) 
0

>  <hbond:GLY:82>  (214) 
0

>  <hydroph_interaction:GLU:104>  (214) 
0

>  <hydroph_interaction:VAL:36>  (214) 
0

>  <hydroph_interaction:MET:49>  (214) 
0

>  <halogenbond:GLU:104>  (214) 
0

>  <hydroph_interaction:LYS:107>  (214) 
0

$$$$
DIHICBHCECJCMN-UHFFFAOYSA-N
     RDKit          3D

 45 47  0  0  0  0  0  0  0  0999 V2000
   -8.4620    5.9490  -14.0300 C   0  0  0  0  0  0  0  0  0  0  0  0
   -9.2760    5.3870  -13.0720 N   0  0  0  0  0  0  0  0  0  0  0  0
   -9.7620    6.0350  -11.9150 C   0  0  0  0  0  0  0  0  0  0  0  0
   -9.1530    5.8810  -10.6680 C   0  0  0  0  0  0  0  0  0  0  0  0
   -8.7700    4.5050  -10.2430 C   0  0  0  0  0  0  0  0  0  0  0  0
   -8.2380    4.6910   -9.0770 N   0  0  0  0  0  0  0  0  0  0  0  0
   -7.7990    3.6120   -8.4720 C   0  0  0  0  0  0  0  0  0  0  0  0
   -8.4200    2.3160   -8.9520 C   0  0  0  0  0  0  0  0  0  0  0  0
   -7.9720    2.2650  -10.2420 C   0  0  0  0  0  0  0  0  0  0  0  0
   -8.9460    3.1810  -10.9880 C   0  0  0  0  0  0  0  0  0  0  0  0
   -8.1790    5.9660   -8.5920 N   0  0  0  0  0  0  0  0  0  0  0  0
   -8.7500    6.7030   -9.5820 C   0  0  0  0  0  0  0  0  0  0  0  0
   -8.3810    7.2890  -14.3310 O   0  0  0  0  0  0  0  0  0  0  0  0
   -7.6520    5.0440  -14.7390 C   0  0  0  0  0  0  0  0  0  0  0  0
   -7.8830    5.0650  -16.2130 C   0  0  0  0  0  0  0  0  0  0  0  0
   -6.8010    5.1830  -17.0860 C   0  0  0  0  0  0  0  0  0  0  0  0
   -5.4030    5.2830  -16.5600 C   0  0  0  0  0  0  0  0  0  0  0  0
   -6.9890    5.2080  -18.4720 C   0  0  0  0  0  0  0  0  0  0  0  0
   -8.2720    5.1170  -19.0150 C   0  0  0  0  0  0  0  0  0  0  0  0
   -9.4480    4.9940  -18.0720 C   0  0  0  0  0  0  0  0  0  0  0  0
  -10.8190    4.9340  -18.6730 C   0  0  0  0  0  0  0  0  0  0  0  0
   -9.2050    4.9680  -16.7030 C   0  0  0  0  0  0  0  0  0  0  0  0
   -9.7680    4.5410  -13.3500 H   0  0  0  0  0  0  0  0  0  0  0  0
   -9.7260    7.1050  -12.1530 H   0  0  0  0  0  0  0  0  0  0  0  0
  -10.8270    5.7870  -11.8450 H   0  0  0  0  0  0  0  0  0  0  0  0
   -7.8300    3.8010   -7.4110 H   0  0  0  0  0  0  0  0  0  0  0  0
   -6.7450    3.4720   -8.6950 H   0  0  0  0  0  0  0  0  0  0  0  0
   -8.2240    1.5470   -8.2400 H   0  0  0  0  0  0  0  0  0  0  0  0
   -9.4890    2.3530   -9.0540 H   0  0  0  0  0  0  0  0  0  0  0  0
   -6.9560    2.6690  -10.3080 H   0  0  0  0  0  0  0  0  0  0  0  0
   -7.9530    1.2500  -10.6460 H   0  0  0  0  0  0  0  0  0  0  0  0
   -8.7130    3.2720  -12.0540 H   0  0  0  0  0  0  0  0  0  0  0  0
   -9.9800    2.8310  -10.8820 H   0  0  0  0  0  0  0  0  0  0  0  0
   -8.8450    7.7860   -9.4730 H   0  0  0  0  0  0  0  0  0  0  0  0
   -6.5940    5.2490  -14.5380 H   0  0  0  0  0  0  0  0  0  0  0  0
   -7.8320    4.0390  -14.3420 H   0  0  0  0  0  0  0  0  0  0  0  0
   -5.1590    6.3180  -16.3060 H   0  0  0  0  0  0  0  0  0  0  0  0
   -5.2660    4.6350  -15.6900 H   0  0  0  0  0  0  0  0  0  0  0  0
   -4.6970    4.9510  -17.3310 H   0  0  0  0  0  0  0  0  0  0  0  0
   -6.1420    5.2990  -19.1490 H   0  0  0  0  0  0  0  0  0  0  0  0
   -8.4170    5.1410  -20.0920 H   0  0  0  0  0  0  0  0  0  0  0  0
  -10.7730    5.2410  -19.7220 H   0  0  0  0  0  0  0  0  0  0  0  0
  -11.2490    3.9510  -18.5980 H   0  0  0  0  0  0  0  0  0  0  0  0
  -11.4740    5.6400  -18.1880 H   0  0  0  0  0  0  0  0  0  0  0  0
  -10.0360    4.8780  -16.0020 H   0  0  0  0  0  0  0  0  0  0  0  0
  1  2  1  0
  2  3  1  0
  3  4  1  0
  4  5  2  0
  5  6  1  0
  6  7  1  0
  7  8  1  0
  8  9  1  0
  9 10  1  0
  6 11  1  0
 11 12  2  0
  1 13  2  0
  1 14  1  0
 14 15  1  0
 15 16  2  0
 16 17  1  0
 16 18  1  0
 18 19  2  0
 19 20  1  0
 20 21  1  0
 20 22  2  0
 12  4  1  0
 10  5  1  0
 15 22  1  0
  2 23  1  0
  3 24  1  0
  3 25  1  0
  7 26  1  0
  7 27  1  0
  8 28  1  0
  8 29  1  0
  9 30  1  0
  9 31  1  0
 10 32  1  0
 10 33  1  0
 12 34  1  0
 14 35  1  0
 14 36  1  0
 17 37  1  0
 17 38  1  0
 17 39  1  0
 18 40  1  0
 19 41  1  0
 21 42  1  0
 21 43  1  0
 21 44  1  0
 22 45  1  0
A    1
 C1 
A    2
 N1 
A    3
 C2 
A    4
 C3 
A    5
 C4 
A    6
 N2 
A    7
 C5 
A    8
 C6 
A    9
 C7 
A   10
 C8 
A   11
 N3 
A   12
 C9 
A   13
 O1 
A   14
 C10
A   15
 C11
A   16
 C12
A   17
 C13
A   18
 C14
A   19
 C15
A   20
 C16
A   21
 C17
A   22
 C18
A   23
 H1 
A   24
 H2 
A   25
 H3 
A   26
 H4 
A   27
 H5 
A   28
 H6 
A   29
 H7 
A   30
 H8 
A   31
 H9 
A   32
 H10
A   33
 H11
A   34
 H12
A   35
 H13
A   36
 H14
A   37
 H15
A   38
 H16
A   39
 H17
A   40
 H18
A   41
 H19
A   42
 H20
A   43
 H21
A   44
 H22
A   45
 H23
M  END
>  <ref_pdb>  (215) 
x0051_0B

>  <ref_mols>  (215) 
x0969_1B,x0553_0B

>  <original SMILES>  (215) 
[H]c1nn2c(c1C([H])([H])N([H])C(=O)C([H])([H])c1c([H])c(C([H])([H])[H])c([H])c([H])c1C([H])([H])[H])C([H])([H])C([H])([H])C([H])([H])C2([H])[H]

>  <index>  (215) 
215

>  <∆∆G>  (215) 
-7.600924

>  <∆G_bound>  (215) 
-6.925263

>  <∆G_unbound>  (215) 
0.675662

>  <comRMSD>  (215) 
0.929228

>  <N_constrained_atoms>  (215) 
19.0

>  <N_unconstrained_atoms>  (215) 
4.0

>  <runtime>  (215) 
74.568394

>  <LE>  (215) 
0.330475

>  <percent_hybrid>  (215) 
48.0

>  <dist>  (215) 
6.0

>  <ecfp4>  (215) 
0.350649

>  <daylight>  (215) 
0.328358

>  <topodist>  (215) 
3.0

>  <mces>  (215) 
22.0

>  <tdn>  (215) 
1.0

>  <tup>  (215) 
1.0

>  <rdn>  (215) 
0.0

>  <rup>  (215) 
0.0

>  <ldn>  (215) 
0.0

>  <lup>  (215) 
1.0

>  <mut>  (215) 
2.0

>  <maj>  (215) 
2.0

>  <min>  (215) 
0.0

>  <hyb>  (215) 
1.0

>  <sub>  (215) 
0.0

>  <query_index>  (215) 
376.0

>  <max_hit_Tanimoto>  (215) 
0.351812

>  <largest_ring>  (215) 
0

>  <N_interactions_kept>  (215) 
1.0

>  <N_interactions_lost>  (215) 
1.5

>  <interaction_uniqueness_metric>  (215) 
0.225399

>  <ad_hoc_penalty>  (215) 
-23.687601

>  <N_rotatable_bonds>  (215) 
6

>  <N_HA>  (215) 
22

>  <cluster>  (215) 
6022

>  <N_interactions>  (215) 
7

>  <Enamine>  (215) 
0

>  <Mcule>  (215) 
1

>  <N_PAINS>  (215) 
0

>  <UFF_Gibbs>  (215) 
171.049162

>  <strain_per_HA>  (215) 
7.774962

>  <saltbridge:HIS:51>  (215) 
0

>  <pistack:HIS:51>  (215) 
1

>  <hydroph_interaction:HIS:51>  (215) 
1

>  <hbond:ALA:132>  (215) 
0

>  <hbond:SER:135>  (215) 
0

>  <hydroph_interaction:TYR:150>  (215) 
1

>  <pistack:TYR:161>  (215) 
1

>  <hydroph_interaction:TYR:161>  (215) 
1

>  <hydroph_interaction:ASP:83>  (215) 
1

>  <hbond:TYR:130>  (215) 
0

>  <hydroph_interaction:ALA:132>  (215) 
0

>  <hbond:HIS:51>  (215) 
0

>  <hbond:ASP:129>  (215) 
0

>  <hbond:TYR:150>  (215) 
0

>  <hbond:GLY:151>  (215) 
1

>  <hbond:TYR:161>  (215) 
0

>  <hydroph_interaction:TYR:130>  (215) 
0

>  <hydroph_interaction:PRO:131>  (215) 
0

>  <hydroph_interaction:ASP:129>  (215) 
0

>  <saltbridge:ASP:75>  (215) 
0

>  <saltbridge:ASP:83>  (215) 
0

>  <hydroph_interaction:ASN:152>  (215) 
0

>  <halogenbond:TYR:150>  (215) 
0

>  <hbond:ASP:83>  (215) 
0

>  <hydroph_interaction:VAL:155>  (215) 
0

>  <pication:TYR:161>  (215) 
0

>  <hbond:PRO:131>  (215) 
0

>  <hbond:LEU:128>  (215) 
0

>  <saltbridge:ASP:129>  (215) 
0

>  <hbond:THR:134>  (215) 
0

>  <pication:HIS:51>  (215) 
0

>  <hbond:SER:81>  (215) 
0

>  <hbond:GLY:159>  (215) 
0

>  <hydroph_interaction:PRO:101>  (215) 
0

>  <hydroph_interaction:THR:134>  (215) 
0

>  <hbond:GLY:82>  (215) 
0

>  <hydroph_interaction:GLU:104>  (215) 
0

>  <hydroph_interaction:VAL:36>  (215) 
0

>  <hydroph_interaction:MET:49>  (215) 
0

>  <halogenbond:GLU:104>  (215) 
0

>  <hydroph_interaction:LYS:107>  (215) 
0

$$$$
XSALUZVOKIZVBY-UHFFFAOYSA-N
     RDKit          3D

 44 48  0  0  0  0  0  0  0  0999 V2000
   -8.0570    6.5950  -14.2430 C   0  0  0  0  0  0  0  0  0  0  0  0
   -7.4700    5.7370  -15.2070 N   0  0  0  0  0  0  0  0  0  0  0  0
   -8.2000    5.3690  -16.3630 C   0  0  0  0  0  0  0  0  0  0  0  0
   -9.5350    5.0710  -16.5400 C   0  0  0  0  0  0  0  0  0  0  0  0
   -9.9950    4.7740  -17.8360 C   0  0  0  0  0  0  0  0  0  0  0  0
   -9.1260    4.7800  -18.9400 C   0  0  0  0  0  0  0  0  0  0  0  0
   -7.7690    5.0750  -18.7540 C   0  0  0  0  0  0  0  0  0  0  0  0
   -7.3740    5.3470  -17.4490 C   0  0  0  0  0  0  0  0  0  0  0  0
   -6.0960    5.6270  -17.0860 C   0  0  0  0  0  0  0  0  0  0  0  0
   -5.0860    5.6830  -18.0280 C   0  0  0  0  0  0  0  0  0  0  0  0
   -5.4330    5.4330  -19.3660 C   0  0  0  0  0  0  0  0  0  0  0  0
   -6.7610    5.1290  -19.7300 C   0  0  0  0  0  0  0  0  0  0  0  0
   -6.0940    5.8080  -15.6240 C   0  0  0  0  0  0  0  0  0  0  0  0
   -5.0450    5.9560  -15.0060 O   0  0  0  0  0  0  0  0  0  0  0  0
   -8.3710    7.7450  -14.4690 O   0  0  0  0  0  0  0  0  0  0  0  0
   -8.3340    6.0940  -12.8760 C   0  0  0  0  0  0  0  0  0  0  0  0
   -8.3290    6.9300  -11.7500 C   0  0  0  0  0  0  0  0  0  0  0  0
   -8.5830    6.3740  -10.4880 C   0  0  0  0  0  0  0  0  0  0  0  0
   -8.8350    5.0020  -10.3790 C   0  0  0  0  0  0  0  0  0  0  0  0
   -9.0830    4.4150   -9.1300 N   0  0  0  0  0  0  0  0  0  0  0  0
   -9.1770    2.9370   -9.2380 C   0  0  0  0  0  0  0  0  0  0  0  0
   -9.6660    2.3740   -7.9080 C   0  0  0  0  0  0  0  0  0  0  0  0
   -8.8230    2.7660   -6.8190 O   0  0  0  0  0  0  0  0  0  0  0  0
   -8.7140    4.1920   -6.6950 C   0  0  0  0  0  0  0  0  0  0  0  0
   -8.2520    4.8700   -7.9930 C   0  0  0  0  0  0  0  0  0  0  0  0
   -8.8480    4.2170  -11.4710 N   0  0  0  0  0  0  0  0  0  0  0  0
   -8.6040    4.7620  -12.6780 C   0  0  0  0  0  0  0  0  0  0  0  0
  -10.2390    5.0640  -15.7160 H   0  0  0  0  0  0  0  0  0  0  0  0
  -11.0480    4.5400  -17.9930 H   0  0  0  0  0  0  0  0  0  0  0  0
   -9.5060    4.5570  -19.9340 H   0  0  0  0  0  0  0  0  0  0  0  0
   -4.0640    5.9090  -17.7420 H   0  0  0  0  0  0  0  0  0  0  0  0
   -4.6640    5.4710  -20.1370 H   0  0  0  0  0  0  0  0  0  0  0  0
   -7.0000    4.9340  -20.7740 H   0  0  0  0  0  0  0  0  0  0  0  0
   -8.1280    7.9950  -11.8480 H   0  0  0  0  0  0  0  0  0  0  0  0
   -8.5800    7.0100   -9.6070 H   0  0  0  0  0  0  0  0  0  0  0  0
   -8.1970    2.4950   -9.4580 H   0  0  0  0  0  0  0  0  0  0  0  0
   -9.8800    2.6590  -10.0320 H   0  0  0  0  0  0  0  0  0  0  0  0
  -10.6860    2.7090   -7.6880 H   0  0  0  0  0  0  0  0  0  0  0  0
   -9.6910    1.2890   -7.9440 H   0  0  0  0  0  0  0  0  0  0  0  0
   -9.7020    4.5660   -6.4030 H   0  0  0  0  0  0  0  0  0  0  0  0
   -8.0240    4.4000   -5.8690 H   0  0  0  0  0  0  0  0  0  0  0  0
   -7.1780    4.7240   -8.1560 H   0  0  0  0  0  0  0  0  0  0  0  0
   -8.3990    5.9540   -7.9000 H   0  0  0  0  0  0  0  0  0  0  0  0
   -8.6310    4.0530  -13.5010 H   0  0  0  0  0  0  0  0  0  0  0  0
  1  2  1  0
  2  3  1  0
  3  4  2  0
  4  5  1  0
  5  6  2  0
  6  7  1  0
  7  8  2  0
  8  9  1  0
  9 10  2  0
 10 11  1  0
 11 12  2  0
  9 13  1  0
 13 14  2  0
  1 15  2  0
  1 16  1  0
 16 17  2  0
 17 18  1  0
 18 19  2  0
 19 20  1  0
 20 21  1  0
 21 22  1  0
 22 23  1  0
 23 24  1  0
 24 25  1  0
 19 26  1  0
 26 27  2  0
 13  2  1  0
  8  3  1  0
  7 12  1  0
 27 16  1  0
 25 20  1  0
  4 28  1  0
  5 29  1  0
  6 30  1  0
 10 31  1  0
 11 32  1  0
 12 33  1  0
 17 34  1  0
 18 35  1  0
 21 36  1  0
 21 37  1  0
 22 38  1  0
 22 39  1  0
 24 40  1  0
 24 41  1  0
 25 42  1  0
 25 43  1  0
 27 44  1  0
A    1
 C1 
A    2
 N1 
A    3
 C2 
A    4
 C3 
A    5
 C4 
A    6
 C5 
A    7
 C6 
A    8
 C7 
A    9
 C8 
A   10
 C9 
A   11
 C10
A   12
 C11
A   13
 C12
A   14
 O1 
A   15
 O2 
A   16
 C13
A   17
 C14
A   18
 C15
A   19
 C16
A   20
 N2 
A   21
 C17
A   22
 C18
A   23
 O3 
A   24
 C19
A   25
 C20
A   26
 N3 
A   27
 C21
A   28
 H1 
A   29
 H2 
A   30
 H3 
A   31
 H4 
A   32
 H5 
A   33
 H6 
A   34
 H7 
A   35
 H8 
A   36
 H9 
A   37
 H10
A   38
 H11
A   39
 H12
A   40
 H13
A   41
 H14
A   42
 H15
A   43
 H16
A   44
 H17
M  END
>  <ref_pdb>  (216) 
x0051_0B

>  <ref_mols>  (216) 
x0727_0B,x0404_0B

>  <original SMILES>  (216) 
[H]c1nc(N2C([H])([H])C([H])([H])OC([H])([H])C2([H])[H])c([H])c([H])c1C(=O)N1C(=O)c2c([H])c([H])c([H])c3c([H])c([H])c([H])c1c23

>  <index>  (216) 
487

>  <∆∆G>  (216) 
-8.176912

>  <∆G_bound>  (216) 
-7.765244

>  <∆G_unbound>  (216) 
0.411668

>  <comRMSD>  (216) 
0.603351

>  <N_constrained_atoms>  (216) 
26.0

>  <N_unconstrained_atoms>  (216) 
1.0

>  <runtime>  (216) 
101.869813

>  <LE>  (216) 
0.302849

>  <percent_hybrid>  (216) 
47.0

>  <dist>  (216) 
10.0

>  <ecfp4>  (216) 
0.207317

>  <daylight>  (216) 
0.25498

>  <topodist>  (216) 
3.0

>  <mces>  (216) 
30.0

>  <tdn>  (216) 
1.0

>  <tup>  (216) 
0.0

>  <rdn>  (216) 
0.0

>  <rup>  (216) 
1.0

>  <ldn>  (216) 
1.0

>  <lup>  (216) 
0.0

>  <mut>  (216) 
6.0

>  <maj>  (216) 
6.0

>  <min>  (216) 
0.0

>  <hyb>  (216) 
1.0

>  <sub>  (216) 
0.0

>  <query_index>  (216) 
0.0

>  <max_hit_Tanimoto>  (216) 
0.208294

>  <largest_ring>  (216) 
0

>  <N_interactions_kept>  (216) 
1.5

>  <N_interactions_lost>  (216) 
3.0

>  <interaction_uniqueness_metric>  (216) 
0.073289

>  <ad_hoc_penalty>  (216) 
-23.498865

>  <N_rotatable_bonds>  (216) 
2

>  <N_HA>  (216) 
27

>  <cluster>  (216) 
5774

>  <N_interactions>  (216) 
6

>  <Enamine>  (216) 
0

>  <Mcule>  (216) 
1

>  <N_PAINS>  (216) 
0

>  <UFF_Gibbs>  (216) 
37.960332

>  <strain_per_HA>  (216) 
1.405938

>  <saltbridge:HIS:51>  (216) 
0

>  <pistack:HIS:51>  (216) 
1

>  <hydroph_interaction:HIS:51>  (216) 
0

>  <hbond:ALA:132>  (216) 
0

>  <hbond:SER:135>  (216) 
0

>  <hydroph_interaction:TYR:150>  (216) 
1

>  <pistack:TYR:161>  (216) 
1

>  <hydroph_interaction:TYR:161>  (216) 
3

>  <hydroph_interaction:ASP:83>  (216) 
0

>  <hbond:TYR:130>  (216) 
0

>  <hydroph_interaction:ALA:132>  (216) 
0

>  <hbond:HIS:51>  (216) 
0

>  <hbond:ASP:129>  (216) 
0

>  <hbond:TYR:150>  (216) 
0

>  <hbond:GLY:151>  (216) 
0

>  <hbond:TYR:161>  (216) 
0

>  <hydroph_interaction:TYR:130>  (216) 
0

>  <hydroph_interaction:PRO:131>  (216) 
0

>  <hydroph_interaction:ASP:129>  (216) 
0

>  <saltbridge:ASP:75>  (216) 
0

>  <saltbridge:ASP:83>  (216) 
0

>  <hydroph_interaction:ASN:152>  (216) 
0

>  <halogenbond:TYR:150>  (216) 
0

>  <hbond:ASP:83>  (216) 
0

>  <hydroph_interaction:VAL:155>  (216) 
0

>  <pication:TYR:161>  (216) 
0

>  <hbond:PRO:131>  (216) 
0

>  <hbond:LEU:128>  (216) 
0

>  <saltbridge:ASP:129>  (216) 
0

>  <hbond:THR:134>  (216) 
0

>  <pication:HIS:51>  (216) 
0

>  <hbond:SER:81>  (216) 
0

>  <hbond:GLY:159>  (216) 
0

>  <hydroph_interaction:PRO:101>  (216) 
0

>  <hydroph_interaction:THR:134>  (216) 
0

>  <hbond:GLY:82>  (216) 
0

>  <hydroph_interaction:GLU:104>  (216) 
0

>  <hydroph_interaction:VAL:36>  (216) 
0

>  <hydroph_interaction:MET:49>  (216) 
0

>  <halogenbond:GLU:104>  (216) 
0

>  <hydroph_interaction:LYS:107>  (216) 
0

$$$$
Z1256109612
     RDKit          3D

 51 55  0  0  0  0  0  0  0  0999 V2000
   -7.3400    4.5280  -20.4650 C   0  0  0  0  0  0  0  0  0  0  0  0
   -7.2100    5.6580  -19.4950 C   0  0  0  0  0  0  0  0  0  0  0  0
   -7.7090    5.4570  -18.1810 C   0  0  0  0  0  0  0  0  0  0  0  0
   -8.9790    4.9650  -17.8570 C   0  0  0  0  0  0  0  0  0  0  0  0
   -9.1140    4.9270  -16.5000 C   0  0  0  0  0  0  0  0  0  0  0  0
   -7.8150    5.4290  -15.8950 C   0  0  0  0  0  0  0  0  0  0  0  0
   -7.0380    5.7210  -16.9990 N   0  0  0  0  0  0  0  0  0  0  0  0
   -5.6750    6.2410  -17.0180 C   0  0  0  0  0  0  0  0  0  0  0  0
   -4.9770    5.8450  -18.3090 C   0  0  0  0  0  0  0  0  0  0  0  0
   -5.7990    6.1280  -19.5130 N   0  0  0  0  0  0  0  0  0  0  0  0
   -5.2080    6.2250  -20.7970 C   0  0  0  0  0  0  0  0  0  0  0  0
   -4.4810    5.3560  -21.2640 O   0  0  0  0  0  0  0  0  0  0  0  0
   -5.4310    7.4630  -21.7090 C   0  0  0  0  0  0  0  0  0  0  0  0
   -6.0020    7.0370  -23.0580 C   0  0  0  0  0  0  0  0  0  0  0  0
   -6.2670    8.1620  -24.0290 C   0  0  0  0  0  0  0  0  0  0  0  0
   -5.9360    9.5670  -23.5600 C   0  0  0  0  0  0  0  0  0  0  0  0
   -6.2480   10.9100  -24.6770 S   0  0  0  0  0  0  0  0  0  0  0  0
   -5.9850   10.0890  -26.2910 C   0  0  0  0  0  0  0  0  0  0  0  0
   -7.2240    9.4730  -26.8470 C   0  0  0  0  0  0  0  0  0  0  0  0
   -7.3820    8.2150  -27.2090 N   0  0  0  0  0  0  0  0  0  0  0  0
   -8.6800    8.1080  -27.6390 C   0  0  0  0  0  0  0  0  0  0  0  0
   -9.3800    6.9900  -28.1190 C   0  0  0  0  0  0  0  0  0  0  0  0
  -10.7220    7.1480  -28.4860 C   0  0  0  0  0  0  0  0  0  0  0  0
  -11.3520    8.3840  -28.3790 C   0  0  0  0  0  0  0  0  0  0  0  0
  -10.6700    9.5150  -27.9080 C   0  0  0  0  0  0  0  0  0  0  0  0
   -9.3310    9.3290  -27.5470 C   0  0  0  0  0  0  0  0  0  0  0  0
   -8.3830   10.1840  -27.0480 N   0  0  0  0  0  0  0  0  0  0  0  0
   -5.4020    9.8210  -22.2800 C   0  0  0  0  0  0  0  0  0  0  0  0
   -5.1490    8.7910  -21.3620 C   0  0  0  0  0  0  0  0  0  0  0  0
   -7.2690    4.8400  -21.5050 H   0  0  0  0  0  0  0  0  0  0  0  0
   -8.2930    4.0060  -20.3320 H   0  0  0  0  0  0  0  0  0  0  0  0
   -6.5170    3.8610  -20.3210 H   0  0  0  0  0  0  0  0  0  0  0  0
   -7.7900    6.4830  -19.9090 H   0  0  0  0  0  0  0  0  0  0  0  0
   -9.7330    4.6690  -18.5760 H   0  0  0  0  0  0  0  0  0  0  0  0
   -9.9830    4.5990  -15.9460 H   0  0  0  0  0  0  0  0  0  0  0  0
   -7.4840    5.5620  -14.8730 H   0  0  0  0  0  0  0  0  0  0  0  0
   -5.7120    7.3290  -16.9030 H   0  0  0  0  0  0  0  0  0  0  0  0
   -5.1680    5.8020  -16.1510 H   0  0  0  0  0  0  0  0  0  0  0  0
   -4.7710    4.7680  -18.3130 H   0  0  0  0  0  0  0  0  0  0  0  0
   -4.0030    6.3330  -18.3590 H   0  0  0  0  0  0  0  0  0  0  0  0
   -6.2060    5.9880  -23.2910 H   0  0  0  0  0  0  0  0  0  0  0  0
   -6.6820    7.9600  -25.0210 H   0  0  0  0  0  0  0  0  0  0  0  0
   -5.1860    9.3470  -26.2030 H   0  0  0  0  0  0  0  0  0  0  0  0
   -5.6280   10.8580  -26.9860 H   0  0  0  0  0  0  0  0  0  0  0  0
   -8.8840    6.0310  -28.1960 H   0  0  0  0  0  0  0  0  0  0  0  0
  -11.2770    6.2860  -28.8580 H   0  0  0  0  0  0  0  0  0  0  0  0
  -12.3980    8.4810  -28.6680 H   0  0  0  0  0  0  0  0  0  0  0  0
  -11.1650   10.4760  -27.8270 H   0  0  0  0  0  0  0  0  0  0  0  0
   -8.5200   11.1640  -26.8540 H   0  0  0  0  0  0  0  0  0  0  0  0
   -5.1770   10.8430  -21.9850 H   0  0  0  0  0  0  0  0  0  0  0  0
   -4.7380    9.0240  -20.3840 H   0  0  0  0  0  0  0  0  0  0  0  0
  1  2  1  0
  2  3  1  0
  3  4  2  0
  4  5  1  0
  5  6  2  0
  6  7  1  0
  7  8  1  0
  8  9  1  0
  9 10  1  0
 10 11  1  0
 11 12  2  0
 11 13  1  0
 13 14  2  0
 14 15  1  0
 15 16  2  0
 16 17  1  0
 17 18  1  0
 18 19  1  0
 19 20  2  0
 20 21  1  0
 21 22  2  0
 22 23  1  0
 23 24  2  0
 24 25  1  0
 25 26  2  0
 26 27  1  0
 16 28  1  0
 28 29  2  0
 10  2  1  0
  7  3  1  0
 29 13  1  0
 27 19  1  0
 26 21  1  0
  1 30  1  0
  1 31  1  0
  1 32  1  0
  2 33  1  0
  4 34  1  0
  5 35  1  0
  6 36  1  0
  8 37  1  0
  8 38  1  0
  9 39  1  0
  9 40  1  0
 14 41  1  0
 15 42  1  0
 18 43  1  0
 18 44  1  0
 22 45  1  0
 23 46  1  0
 24 47  1  0
 25 48  1  0
 27 49  1  0
 28 50  1  0
 29 51  1  0
A    1
 C1 
A    2
 C2 
A    3
 C3 
A    4
 C4 
A    5
 C5 
A    6
 C6 
A    7
 N1 
A    8
 C7 
A    9
 C8 
A   10
 N2 
A   11
 C9 
A   12
 O1 
A   13
 C10
A   14
 C11
A   15
 C12
A   16
 C13
A   17
 S1 
A   18
 C14
A   19
 C15
A   20
 N3 
A   21
 C16
A   22
 C17
A   23
 C18
A   24
 C19
A   25
 C20
A   26
 C21
A   27
 N4 
A   28
 C22
A   29
 C23
A   30
 H1 
A   31
 H2 
A   32
 H3 
A   33
 H4 
A   34
 H5 
A   35
 H6 
A   36
 H7 
A   37
 H8 
A   38
 H9 
A   39
 H10
A   40
 H11
A   41
 H12
A   42
 H13
A   43
 H14
A   44
 H15
A   45
 H16
A   46
 H17
A   47
 H18
A   48
 H19
A   49
 H20
A   50
 H21
A   51
 H22
M  END
>  <ref_pdb>  (217) 
x0051_0B

>  <ref_mols>  (217) 
x0846_1B,x0969_0B

>  <original SMILES>  (217) 
[H]c1c([H])c(C(=O)N2C([H])([H])C([H])([H])n3c([H])c([H])c([H])c3C2([H])C([H])([H])[H])c([H])c([H])c1SC([H])([H])c1nc2c([H])c([H])c([H])c([H])c2n1[H]

>  <index>  (217) 
425

>  <∆∆G>  (217) 
-9.704889

>  <∆G_bound>  (217) 
-9.047405

>  <∆G_unbound>  (217) 
0.657484

>  <comRMSD>  (217) 
0.732357

>  <N_constrained_atoms>  (217) 
28.0

>  <N_unconstrained_atoms>  (217) 
3.0

>  <runtime>  (217) 
44.417021

>  <LE>  (217) 
0.313061

>  <percent_hybrid>  (217) 
36.0

>  <dist>  (217) 
8.0

>  <ecfp4>  (217) 
0.207921

>  <daylight>  (217) 
0.322684

>  <topodist>  (217) 
4.0

>  <mces>  (217) 
31.0

>  <tdn>  (217) 
2.0

>  <tup>  (217) 
2.0

>  <rdn>  (217) 
0.0

>  <rup>  (217) 
0.0

>  <ldn>  (217) 
0.0

>  <lup>  (217) 
0.0

>  <mut>  (217) 
4.0

>  <maj>  (217) 
4.0

>  <min>  (217) 
0.0

>  <hyb>  (217) 
0.0

>  <sub>  (217) 
3.0

>  <query_index>  (217) 
45.0

>  <max_hit_Tanimoto>  (217) 
0.252444

>  <largest_ring>  (217) 
0

>  <N_interactions_kept>  (217) 
0.5

>  <N_interactions_lost>  (217) 
2.0

>  <interaction_uniqueness_metric>  (217) 
0.16668

>  <ad_hoc_penalty>  (217) 
-23.484011

>  <N_rotatable_bonds>  (217) 
5

>  <N_HA>  (217) 
29

>  <cluster>  (217) 
5833

>  <N_interactions>  (217) 
5

>  <Enamine>  (217) 
1

>  <Mcule>  (217) 
0

>  <N_PAINS>  (217) 
0

>  <UFF_Gibbs>  (217) 
96.184458

>  <strain_per_HA>  (217) 
3.316705

>  <saltbridge:HIS:51>  (217) 
0

>  <pistack:HIS:51>  (217) 
0

>  <hydroph_interaction:HIS:51>  (217) 
0

>  <hbond:ALA:132>  (217) 
0

>  <hbond:SER:135>  (217) 
0

>  <hydroph_interaction:TYR:150>  (217) 
0

>  <pistack:TYR:161>  (217) 
1

>  <hydroph_interaction:TYR:161>  (217) 
1

>  <hydroph_interaction:ASP:83>  (217) 
0

>  <hbond:TYR:130>  (217) 
0

>  <hydroph_interaction:ALA:132>  (217) 
0

>  <hbond:HIS:51>  (217) 
0

>  <hbond:ASP:129>  (217) 
1

>  <hbond:TYR:150>  (217) 
0

>  <hbond:GLY:151>  (217) 
0

>  <hbond:TYR:161>  (217) 
0

>  <hydroph_interaction:TYR:130>  (217) 
1

>  <hydroph_interaction:PRO:131>  (217) 
1

>  <hydroph_interaction:ASP:129>  (217) 
0

>  <saltbridge:ASP:75>  (217) 
0

>  <saltbridge:ASP:83>  (217) 
0

>  <hydroph_interaction:ASN:152>  (217) 
0

>  <halogenbond:TYR:150>  (217) 
0

>  <hbond:ASP:83>  (217) 
0

>  <hydroph_interaction:VAL:155>  (217) 
0

>  <pication:TYR:161>  (217) 
0

>  <hbond:PRO:131>  (217) 
0

>  <hbond:LEU:128>  (217) 
0

>  <saltbridge:ASP:129>  (217) 
0

>  <hbond:THR:134>  (217) 
0

>  <pication:HIS:51>  (217) 
0

>  <hbond:SER:81>  (217) 
0

>  <hbond:GLY:159>  (217) 
0

>  <hydroph_interaction:PRO:101>  (217) 
0

>  <hydroph_interaction:THR:134>  (217) 
0

>  <hbond:GLY:82>  (217) 
0

>  <hydroph_interaction:GLU:104>  (217) 
0

>  <hydroph_interaction:VAL:36>  (217) 
0

>  <hydroph_interaction:MET:49>  (217) 
0

>  <halogenbond:GLU:104>  (217) 
0

>  <hydroph_interaction:LYS:107>  (217) 
0

$$$$
CSSS00121605657
     RDKit          3D

 42 42  0  0  0  0  0  0  0  0999 V2000
   -8.8680    6.3580  -10.6170 C   0  0  0  0  0  0  0  0  0  0  0  0
   -8.5620    4.8900  -10.6220 C   0  0  0  0  0  0  0  0  0  0  0  0
   -8.5310    4.1820  -11.8230 C   0  0  0  0  0  0  0  0  0  0  0  0
   -9.1040    4.7860  -12.9350 C   0  0  0  0  0  0  0  0  0  0  0  0
   -8.2710    4.6020  -14.0830 O   0  0  0  0  0  0  0  0  0  0  0  0
   -8.1970    5.6800  -14.8960 C   0  0  0  0  0  0  0  0  0  0  0  0
   -7.9430    6.8160  -14.5340 O   0  0  0  0  0  0  0  0  0  0  0  0
   -8.4570    5.3460  -16.3410 C   0  0  0  0  0  0  0  0  0  0  0  0
   -9.6710    4.7540  -16.9210 C   0  0  0  0  0  0  0  0  0  0  0  0
   -9.7180    4.5340  -18.3020 C   0  0  0  0  0  0  0  0  0  0  0  0
   -8.6440    4.8600  -19.1220 C   0  0  0  0  0  0  0  0  0  0  0  0
   -7.4810    5.4250  -18.5750 C   0  0  0  0  0  0  0  0  0  0  0  0
   -6.3080    5.8270  -19.2640 N   0  0  0  0  0  0  0  0  0  0  0  0
   -5.5910    5.2340  -20.2740 C   0  0  0  0  0  0  0  0  0  0  0  0
   -6.0300    4.5260  -21.1630 O   0  0  0  0  0  0  0  0  0  0  0  0
   -4.2410    5.5580  -20.1600 N   0  0  0  0  0  0  0  0  0  0  0  0
   -3.6150    5.7140  -18.8620 C   0  0  0  0  0  0  0  0  0  0  0  0
   -2.4800    4.7830  -18.6070 C   0  0  0  0  0  0  0  0  0  0  0  0
   -1.7430    4.3130  -19.7060 C   0  0  0  0  0  0  0  0  0  0  0  0
   -7.4110    5.6530  -17.2040 C   0  0  0  0  0  0  0  0  0  0  0  0
   -8.0270    6.9350  -11.0130 H   0  0  0  0  0  0  0  0  0  0  0  0
   -9.7350    6.5790  -11.2450 H   0  0  0  0  0  0  0  0  0  0  0  0
   -9.0760    6.6910   -9.5970 H   0  0  0  0  0  0  0  0  0  0  0  0
   -7.5830    4.7540  -10.1420 H   0  0  0  0  0  0  0  0  0  0  0  0
   -9.2880    4.3940   -9.9660 H   0  0  0  0  0  0  0  0  0  0  0  0
   -7.4950    3.9860  -12.1180 H   0  0  0  0  0  0  0  0  0  0  0  0
   -9.0210    3.2080  -11.6970 H   0  0  0  0  0  0  0  0  0  0  0  0
   -9.2480    5.8580  -12.7580 H   0  0  0  0  0  0  0  0  0  0  0  0
  -10.0840    4.3470  -13.1400 H   0  0  0  0  0  0  0  0  0  0  0  0
  -10.5180    4.4910  -16.3030 H   0  0  0  0  0  0  0  0  0  0  0  0
  -10.6080    4.1020  -18.7340 H   0  0  0  0  0  0  0  0  0  0  0  0
   -8.7400    4.6670  -20.1880 H   0  0  0  0  0  0  0  0  0  0  0  0
   -5.9120    6.6990  -18.9520 H   0  0  0  0  0  0  0  0  0  0  0  0
   -3.6460    5.2620  -20.9210 H   0  0  0  0  0  0  0  0  0  0  0  0
   -3.2790    6.7540  -18.7900 H   0  0  0  0  0  0  0  0  0  0  0  0
   -4.3800    5.5570  -18.0920 H   0  0  0  0  0  0  0  0  0  0  0  0
   -1.7520    5.3680  -18.0350 H   0  0  0  0  0  0  0  0  0  0  0  0
   -2.7300    3.9890  -17.9140 H   0  0  0  0  0  0  0  0  0  0  0  0
   -1.6630    3.2400  -19.8590 H   0  0  0  0  0  0  0  0  0  0  0  0
   -0.7140    4.6780  -19.6390 H   0  0  0  0  0  0  0  0  0  0  0  0
   -2.1640    4.7190  -20.6300 H   0  0  0  0  0  0  0  0  0  0  0  0
   -6.5100    6.0920  -16.7800 H   0  0  0  0  0  0  0  0  0  0  0  0
  1  2  1  0
  2  3  1  0
  3  4  1  0
  4  5  1  0
  5  6  1  0
  6  7  2  0
  6  8  1  0
  8  9  2  0
  9 10  1  0
 10 11  2  0
 11 12  1  0
 12 13  1  0
 13 14  1  0
 14 15  2  0
 14 16  1  0
 16 17  1  0
 17 18  1  0
 18 19  1  0
 12 20  2  0
 20  8  1  0
  1 21  1  0
  1 22  1  0
  1 23  1  0
  2 24  1  0
  2 25  1  0
  3 26  1  0
  3 27  1  0
  4 28  1  0
  4 29  1  0
  9 30  1  0
 10 31  1  0
 11 32  1  0
 13 33  1  0
 16 34  1  0
 17 35  1  0
 17 36  1  0
 18 37  1  0
 18 38  1  0
 19 39  1  0
 19 40  1  0
 19 41  1  0
 20 42  1  0
A    1
 C1 
A    2
 C2 
A    3
 C3 
A    4
 C4 
A    5
 O1 
A    6
 C5 
A    7
 O2 
A    8
 C6 
A    9
 C7 
A   10
 C8 
A   11
 C9 
A   12
 C10
A   13
 N1 
A   14
 C11
A   15
 O3 
A   16
 N2 
A   17
 C12
A   18
 C13
A   19
 C14
A   20
 C15
A   21
 H1 
A   22
 H2 
A   23
 H3 
A   24
 H4 
A   25
 H5 
A   26
 H6 
A   27
 H7 
A   28
 H8 
A   29
 H9 
A   30
 H10
A   31
 H11
A   32
 H12
A   33
 H13
A   34
 H14
A   35
 H15
A   36
 H16
A   37
 H17
A   38
 H18
A   39
 H19
A   40
 H20
A   41
 H21
A   42
 H22
M  END
>  <ref_pdb>  (218) 
x0051_0B

>  <ref_mols>  (218) 
x0443_0B,x1098_0B

>  <original SMILES>  (218) 
[H]c1c([H])c(C(=O)OC([H])([H])C([H])([H])C([H])([H])C([H])([H])[H])c([H])c(N([H])C(=O)N([H])C([H])([H])C([H])([H])C([H])([H])[H])c1[H]

>  <index>  (218) 
181

>  <∆∆G>  (218) 
-7.628281

>  <∆G_bound>  (218) 
-7.045885

>  <∆G_unbound>  (218) 
0.582396

>  <comRMSD>  (218) 
0.823203

>  <N_constrained_atoms>  (218) 
19.0

>  <N_unconstrained_atoms>  (218) 
5.0

>  <runtime>  (218) 
53.164015

>  <LE>  (218) 
0.317845

>  <percent_hybrid>  (218) 
19.0

>  <dist>  (218) 
12.0

>  <ecfp4>  (218) 
0.139535

>  <daylight>  (218) 
0.162698

>  <topodist>  (218) 
4.0

>  <mces>  (218) 
20.0

>  <tdn>  (218) 
2.0

>  <tup>  (218) 
0.0

>  <rdn>  (218) 
2.0

>  <rup>  (218) 
0.0

>  <ldn>  (218) 
0.0

>  <lup>  (218) 
0.0

>  <mut>  (218) 
5.0

>  <maj>  (218) 
5.0

>  <min>  (218) 
0.0

>  <hyb>  (218) 
3.0

>  <sub>  (218) 
2.0

>  <query_index>  (218) 
80.0

>  <max_hit_Tanimoto>  (218) 
0.206683

>  <largest_ring>  (218) 
0

>  <N_interactions_kept>  (218) 
4.0

>  <N_interactions_lost>  (218) 
2.0

>  <interaction_uniqueness_metric>  (218) 
0.276099

>  <ad_hoc_penalty>  (218) 
-23.402151

>  <N_rotatable_bonds>  (218) 
9

>  <N_HA>  (218) 
20

>  <cluster>  (218) 
6055

>  <N_interactions>  (218) 
10

>  <Enamine>  (218) 
1

>  <Mcule>  (218) 
0

>  <N_PAINS>  (218) 
0

>  <UFF_Gibbs>  (218) 
190.227216

>  <strain_per_HA>  (218) 
9.511361

>  <saltbridge:HIS:51>  (218) 
1

>  <pistack:HIS:51>  (218) 
0

>  <hydroph_interaction:HIS:51>  (218) 
1

>  <hbond:ALA:132>  (218) 
0

>  <hbond:SER:135>  (218) 
0

>  <hydroph_interaction:TYR:150>  (218) 
1

>  <pistack:TYR:161>  (218) 
0

>  <hydroph_interaction:TYR:161>  (218) 
3

>  <hydroph_interaction:ASP:83>  (218) 
0

>  <hbond:TYR:130>  (218) 
1

>  <hydroph_interaction:ALA:132>  (218) 
1

>  <hbond:HIS:51>  (218) 
0

>  <hbond:ASP:129>  (218) 
1

>  <hbond:TYR:150>  (218) 
0

>  <hbond:GLY:151>  (218) 
0

>  <hbond:TYR:161>  (218) 
0

>  <hydroph_interaction:TYR:130>  (218) 
0

>  <hydroph_interaction:PRO:131>  (218) 
0

>  <hydroph_interaction:ASP:129>  (218) 
0

>  <saltbridge:ASP:75>  (218) 
0

>  <saltbridge:ASP:83>  (218) 
0

>  <hydroph_interaction:ASN:152>  (218) 
0

>  <halogenbond:TYR:150>  (218) 
0

>  <hbond:ASP:83>  (218) 
0

>  <hydroph_interaction:VAL:155>  (218) 
1

>  <pication:TYR:161>  (218) 
0

>  <hbond:PRO:131>  (218) 
0

>  <hbond:LEU:128>  (218) 
0

>  <saltbridge:ASP:129>  (218) 
0

>  <hbond:THR:134>  (218) 
0

>  <pication:HIS:51>  (218) 
0

>  <hbond:SER:81>  (218) 
0

>  <hbond:GLY:159>  (218) 
0

>  <hydroph_interaction:PRO:101>  (218) 
0

>  <hydroph_interaction:THR:134>  (218) 
0

>  <hbond:GLY:82>  (218) 
0

>  <hydroph_interaction:GLU:104>  (218) 
0

>  <hydroph_interaction:VAL:36>  (218) 
0

>  <hydroph_interaction:MET:49>  (218) 
0

>  <halogenbond:GLU:104>  (218) 
0

>  <hydroph_interaction:LYS:107>  (218) 
0

$$$$
PV-003204848796
     RDKit          3D

 24 25  0  0  0  0  0  0  0  0999 V2000
  -12.5360    3.3680  -21.0860 C   0  0  0  0  0  0  0  0  0  0  0  0
  -11.6340    3.8860  -19.8870 C   0  0  0  0  0  0  0  0  0  0  0  0
  -10.2770    4.2020  -20.0100 C   0  0  0  0  0  0  0  0  0  0  0  0
   -9.4120    4.5890  -18.8580 C   0  0  0  0  0  0  0  0  0  0  0  0
  -10.1180    4.7310  -17.5770 C   0  0  0  0  0  0  0  0  0  0  0  0
   -9.5440    5.0310  -16.4160 N   0  0  0  0  0  0  0  0  0  0  0  0
   -8.2230    5.2130  -16.4270 C   0  0  0  0  0  0  0  0  0  0  0  0
   -7.5920    5.5300  -15.0730 C   0  0  0  0  0  0  0  0  0  0  0  0
   -6.1030    5.7540  -14.9780 C   0  0  0  0  0  0  0  0  0  0  0  0
   -5.3770    5.6300  -16.3560 C   0  0  0  0  0  0  0  0  0  0  0  0
   -6.0610    5.3350  -17.5220 C   0  0  0  0  0  0  0  0  0  0  0  0
   -7.4280    5.1230  -17.5980 C   0  0  0  0  0  0  0  0  0  0  0  0
   -8.0530    4.8120  -18.8070 C   0  0  0  0  0  0  0  0  0  0  0  0
  -12.7690    4.0870  -21.7760 H   0  0  0  0  0  0  0  0  0  0  0  0
  -13.4920    2.9970  -20.7010 H   0  0  0  0  0  0  0  0  0  0  0  0
  -12.0310    2.6200  -21.6780 H   0  0  0  0  0  0  0  0  0  0  0  0
  -12.0850    3.9640  -18.9020 H   0  0  0  0  0  0  0  0  0  0  0  0
   -9.8070    4.1250  -20.9970 H   0  0  0  0  0  0  0  0  0  0  0  0
  -11.1880    4.5650  -17.6030 H   0  0  0  0  0  0  0  0  0  0  0  0
   -8.2360    5.5860  -14.2010 H   0  0  0  0  0  0  0  0  0  0  0  0
   -5.5920    5.9830  -14.0460 H   0  0  0  0  0  0  0  0  0  0  0  0
   -4.3030    5.7790  -16.3980 H   0  0  0  0  0  0  0  0  0  0  0  0
   -5.5690    5.2410  -18.4970 H   0  0  0  0  0  0  0  0  0  0  0  0
   -7.3740    4.7550  -19.6640 H   0  0  0  0  0  0  0  0  0  0  0  0
  1  2  1  0
  2  3  2  0
  3  4  1  0
  4  5  2  0
  5  6  1  0
  6  7  2  0
  7  8  1  0
  8  9  2  0
  9 10  1  0
 10 11  2  0
 11 12  1  0
 12 13  2  0
 13  4  1  0
 12  7  1  0
  1 14  1  0
  1 15  1  0
  1 16  1  0
  2 17  1  0
  3 18  1  0
  5 19  1  0
  8 20  1  0
  9 21  1  0
 10 22  1  0
 11 23  1  0
 13 24  1  0
A    1
 C1 
A    2
 C2 
A    3
 C3 
A    4
 C4 
A    5
 C5 
A    6
 N1 
A    7
 C6 
A    8
 C7 
A    9
 C8 
A   10
 C9 
A   11
 C10
A   12
 C11
A   13
 C12
A   14
 H1 
A   15
 H2 
A   16
 H3 
A   17
 H4 
A   18
 H5 
A   19
 H6 
A   20
 H7 
A   21
 H8 
A   22
 H9 
A   23
 H10
A   24
 H11
M  END
>  <ref_pdb>  (219) 
x0051_0B

>  <ref_mols>  (219) 
x0559_0B,x0455_0B

>  <original SMILES>  (219) 
[H]/C(=C(/[H])C([H])([H])[H])c1c([H])nc2c([H])c([H])c([H])c([H])c2c1[H]

>  <index>  (219) 
444

>  <∆∆G>  (219) 
-5.266691

>  <∆G_bound>  (219) 
-5.293626

>  <∆G_unbound>  (219) 
-0.026935

>  <comRMSD>  (219) 
0.933357

>  <N_constrained_atoms>  (219) 
13.0

>  <N_unconstrained_atoms>  (219) 
2.0

>  <runtime>  (219) 
35.096725

>  <LE>  (219) 
0.351113

>  <percent_hybrid>  (219) 
34.0

>  <dist>  (219) 
3.0

>  <ecfp4>  (219) 
0.019231

>  <daylight>  (219) 
0.367347

>  <topodist>  (219) 
2.0

>  <mces>  (219) 
12.0

>  <tdn>  (219) 
0.0

>  <tup>  (219) 
1.0

>  <rdn>  (219) 
0.0

>  <rup>  (219) 
0.0

>  <ldn>  (219) 
0.0

>  <lup>  (219) 
1.0

>  <mut>  (219) 
1.0

>  <maj>  (219) 
1.0

>  <min>  (219) 
0.0

>  <hyb>  (219) 
0.0

>  <sub>  (219) 
1.0

>  <query_index>  (219) 
356.0

>  <max_hit_Tanimoto>  (219) 
0.163097

>  <largest_ring>  (219) 
0

>  <N_interactions_kept>  (219) 
1.0

>  <N_interactions_lost>  (219) 
2.5

>  <interaction_uniqueness_metric>  (219) 
0.415839

>  <ad_hoc_penalty>  (219) 
-23.339584

>  <N_rotatable_bonds>  (219) 
2

>  <N_HA>  (219) 
13

>  <cluster>  (219) 
5815

>  <N_interactions>  (219) 
7

>  <Enamine>  (219) 
1

>  <Mcule>  (219) 
0

>  <N_PAINS>  (219) 
0

>  <UFF_Gibbs>  (219) 
85.024861

>  <strain_per_HA>  (219) 
6.540374

>  <saltbridge:HIS:51>  (219) 
0

>  <pistack:HIS:51>  (219) 
0

>  <hydroph_interaction:HIS:51>  (219) 
0

>  <hbond:ALA:132>  (219) 
0

>  <hbond:SER:135>  (219) 
0

>  <hydroph_interaction:TYR:150>  (219) 
2

>  <pistack:TYR:161>  (219) 
1

>  <hydroph_interaction:TYR:161>  (219) 
2

>  <hydroph_interaction:ASP:83>  (219) 
0

>  <hbond:TYR:130>  (219) 
0

>  <hydroph_interaction:ALA:132>  (219) 
0

>  <hbond:HIS:51>  (219) 
0

>  <hbond:ASP:129>  (219) 
0

>  <hbond:TYR:150>  (219) 
0

>  <hbond:GLY:151>  (219) 
0

>  <hbond:TYR:161>  (219) 
0

>  <hydroph_interaction:TYR:130>  (219) 
1

>  <hydroph_interaction:PRO:131>  (219) 
0

>  <hydroph_interaction:ASP:129>  (219) 
0

>  <saltbridge:ASP:75>  (219) 
0

>  <saltbridge:ASP:83>  (219) 
0

>  <hydroph_interaction:ASN:152>  (219) 
0

>  <halogenbond:TYR:150>  (219) 
0

>  <hbond:ASP:83>  (219) 
0

>  <hydroph_interaction:VAL:155>  (219) 
0

>  <pication:TYR:161>  (219) 
0

>  <hbond:PRO:131>  (219) 
0

>  <hbond:LEU:128>  (219) 
0

>  <saltbridge:ASP:129>  (219) 
0

>  <hbond:THR:134>  (219) 
0

>  <pication:HIS:51>  (219) 
0

>  <hbond:SER:81>  (219) 
0

>  <hbond:GLY:159>  (219) 
0

>  <hydroph_interaction:PRO:101>  (219) 
0

>  <hydroph_interaction:THR:134>  (219) 
1

>  <hbond:GLY:82>  (219) 
0

>  <hydroph_interaction:GLU:104>  (219) 
0

>  <hydroph_interaction:VAL:36>  (219) 
0

>  <hydroph_interaction:MET:49>  (219) 
0

>  <halogenbond:GLU:104>  (219) 
0

>  <hydroph_interaction:LYS:107>  (219) 
0

$$$$
CSSS00015920999
     RDKit          3D

 20 21  0  0  0  0  0  0  0  0999 V2000
  -11.4030    4.6450  -18.5450 N   0  0  0  0  0  0  0  0  0  0  0  0
  -10.1540    4.7970  -18.1430 C   0  0  0  0  0  0  0  0  0  0  0  0
   -9.5200    4.9450  -16.7670 C   0  0  0  0  0  0  0  0  0  0  0  0
   -8.1560    5.0940  -16.9360 C   0  0  0  0  0  0  0  0  0  0  0  0
   -7.7090    5.0710  -18.2400 C   0  0  0  0  0  0  0  0  0  0  0  0
   -8.9690    4.8490  -19.3650 S   0  0  0  0  0  0  0  0  0  0  0  0
   -6.3980    5.2080  -18.5560 C   0  0  0  0  0  0  0  0  0  0  0  0
   -5.3130    5.2460  -17.5770 C   0  0  0  0  0  0  0  0  0  0  0  0
   -3.9020    5.3940  -18.1990 C   0  0  0  0  0  0  0  0  0  0  0  0
   -3.7550    5.4890  -19.7210 C   0  0  0  0  0  0  0  0  0  0  0  0
   -4.8650    5.4440  -20.4800 N   0  0  0  0  0  0  0  0  0  0  0  0
   -6.0800    5.3120  -19.9050 C   0  0  0  0  0  0  0  0  0  0  0  0
  -11.6760    4.9090  -19.4820 H   0  0  0  0  0  0  0  0  0  0  0  0
  -11.9590    3.8750  -18.1970 H   0  0  0  0  0  0  0  0  0  0  0  0
  -10.0530    4.9380  -15.8230 H   0  0  0  0  0  0  0  0  0  0  0  0
   -7.4550    5.2230  -16.1170 H   0  0  0  0  0  0  0  0  0  0  0  0
   -5.4670    5.1720  -16.5040 H   0  0  0  0  0  0  0  0  0  0  0  0
   -3.0230    5.4260  -17.5660 H   0  0  0  0  0  0  0  0  0  0  0  0
   -2.8000    5.5910  -20.2280 H   0  0  0  0  0  0  0  0  0  0  0  0
   -6.8540    5.2910  -20.6840 H   0  0  0  0  0  0  0  0  0  0  0  0
  1  2  1  0
  2  3  2  0
  3  4  1  0
  4  5  2  0
  5  6  1  0
  5  7  1  0
  7  8  2  0
  8  9  1  0
  9 10  2  0
 10 11  1  0
 11 12  2  0
  6  2  1  0
 12  7  1  0
  1 13  1  0
  1 14  1  0
  3 15  1  0
  4 16  1  0
  8 17  1  0
  9 18  1  0
 10 19  1  0
 12 20  1  0
A    1
 N1 
A    2
 C1 
A    3
 C2 
A    4
 C3 
A    5
 C4 
A    6
 S1 
A    7
 C5 
A    8
 C6 
A    9
 C7 
A   10
 C8 
A   11
 N2 
A   12
 C9 
A   13
 H1 
A   14
 H2 
A   15
 H3 
A   16
 H4 
A   17
 H5 
A   18
 H6 
A   19
 H7 
A   20
 H8 
M  END
>  <ref_pdb>  (220) 
x0051_0B

>  <ref_mols>  (220) 
x0680_0B,x0386_0B

>  <original SMILES>  (220) 
[H]c1nc([H])c(-c2sc(N([H])[H])c([H])c2[H])c([H])c1[H]

>  <index>  (220) 
270

>  <∆∆G>  (220) 
-5.039843

>  <∆G_bound>  (220) 
-5.047379

>  <∆G_unbound>  (220) 
-0.007536

>  <comRMSD>  (220) 
0.633582

>  <N_constrained_atoms>  (220) 
13.0

>  <N_unconstrained_atoms>  (220) 
1.0

>  <runtime>  (220) 
27.443056

>  <LE>  (220) 
0.359989

>  <percent_hybrid>  (220) 
25.0

>  <dist>  (220) 
4.0

>  <ecfp4>  (220) 
0.192308

>  <daylight>  (220) 
0.277419

>  <topodist>  (220) 
2.0

>  <mces>  (220) 
12.0

>  <tdn>  (220) 
1.0

>  <tup>  (220) 
1.0

>  <rdn>  (220) 
0.0

>  <rup>  (220) 
0.0

>  <ldn>  (220) 
0.0

>  <lup>  (220) 
0.0

>  <mut>  (220) 
2.0

>  <maj>  (220) 
2.0

>  <min>  (220) 
0.0

>  <hyb>  (220) 
0.0

>  <sub>  (220) 
2.0

>  <query_index>  (220) 
296.0

>  <max_hit_Tanimoto>  (220) 
0.128763

>  <largest_ring>  (220) 
0

>  <N_interactions_kept>  (220) 
3.5

>  <N_interactions_lost>  (220) 
0.5

>  <interaction_uniqueness_metric>  (220) 
0.153626

>  <ad_hoc_penalty>  (220) 
-23.313403

>  <N_rotatable_bonds>  (220) 
2

>  <N_HA>  (220) 
12

>  <cluster>  (220) 
5970

>  <N_interactions>  (220) 
4

>  <Enamine>  (220) 
1

>  <Mcule>  (220) 
0

>  <N_PAINS>  (220) 
0

>  <UFF_Gibbs>  (220) 
73.288973

>  <strain_per_HA>  (220) 
6.107414

>  <saltbridge:HIS:51>  (220) 
0

>  <pistack:HIS:51>  (220) 
0

>  <hydroph_interaction:HIS:51>  (220) 
0

>  <hbond:ALA:132>  (220) 
0

>  <hbond:SER:135>  (220) 
0

>  <hydroph_interaction:TYR:150>  (220) 
0

>  <pistack:TYR:161>  (220) 
0

>  <hydroph_interaction:TYR:161>  (220) 
3

>  <hydroph_interaction:ASP:83>  (220) 
0

>  <hbond:TYR:130>  (220) 
0

>  <hydroph_interaction:ALA:132>  (220) 
0

>  <hbond:HIS:51>  (220) 
0

>  <hbond:ASP:129>  (220) 
0

>  <hbond:TYR:150>  (220) 
0

>  <hbond:GLY:151>  (220) 
0

>  <hbond:TYR:161>  (220) 
0

>  <hydroph_interaction:TYR:130>  (220) 
0

>  <hydroph_interaction:PRO:131>  (220) 
0

>  <hydroph_interaction:ASP:129>  (220) 
0

>  <saltbridge:ASP:75>  (220) 
0

>  <saltbridge:ASP:83>  (220) 
0

>  <hydroph_interaction:ASN:152>  (220) 
0

>  <halogenbond:TYR:150>  (220) 
0

>  <hbond:ASP:83>  (220) 
0

>  <hydroph_interaction:VAL:155>  (220) 
0

>  <pication:TYR:161>  (220) 
0

>  <hbond:PRO:131>  (220) 
1

>  <hbond:LEU:128>  (220) 
0

>  <saltbridge:ASP:129>  (220) 
0

>  <hbond:THR:134>  (220) 
0

>  <pication:HIS:51>  (220) 
0

>  <hbond:SER:81>  (220) 
0

>  <hbond:GLY:159>  (220) 
0

>  <hydroph_interaction:PRO:101>  (220) 
0

>  <hydroph_interaction:THR:134>  (220) 
0

>  <hbond:GLY:82>  (220) 
0

>  <hydroph_interaction:GLU:104>  (220) 
0

>  <hydroph_interaction:VAL:36>  (220) 
0

>  <hydroph_interaction:MET:49>  (220) 
0

>  <halogenbond:GLU:104>  (220) 
0

>  <hydroph_interaction:LYS:107>  (220) 
0

$$$$
PV-002860140225
     RDKit          3D

 38 40  0  0  0  0  0  0  0  0999 V2000
  -10.5260    4.6210  -18.3570 C   0  0  0  0  0  0  0  0  0  0  0  0
   -9.2510    4.9350  -17.6450 C   0  0  0  0  0  0  0  0  0  0  0  0
   -8.1280    5.1080  -18.6420 C   0  0  0  0  0  0  0  0  0  0  0  0
   -6.8230    5.4350  -17.9800 C   0  0  0  0  0  0  0  0  0  0  0  0
   -5.4400    5.6760  -18.9640 Cl  0  0  0  0  0  0  0  0  0  0  0  0
   -6.7460    5.5450  -16.5750 C   0  0  0  0  0  0  0  0  0  0  0  0
   -7.8220    5.3730  -15.6780 C   0  0  0  0  0  0  0  0  0  0  0  0
   -7.5320    5.5430  -14.2790 C   0  0  0  0  0  0  0  0  0  0  0  0
   -6.5190    6.5320  -14.0770 O   0  0  0  0  0  0  0  0  0  0  0  0
   -8.1890    4.8130  -13.3160 O   0  0  0  0  0  0  0  0  0  0  0  0
   -8.9030    5.6140  -12.3320 C   0  0  0  0  0  0  0  0  0  0  0  0
   -8.8730    5.5300  -10.8640 C   0  0  0  0  0  0  0  0  0  0  0  0
   -8.9350    4.3980  -10.0350 C   0  0  0  0  0  0  0  0  0  0  0  0
   -9.0240    3.0220  -10.3860 C   0  0  0  0  0  0  0  0  0  0  0  0
   -8.6140    2.2290   -9.1520 C   0  0  0  0  0  0  0  0  0  0  0  0
   -9.3950    2.6840   -7.9250 C   0  0  0  0  0  0  0  0  0  0  0  0
   -8.9670    3.9620   -7.5670 C   0  0  0  0  0  0  0  0  0  0  0  0
   -8.9020    4.8270   -8.7370 N   0  0  0  0  0  0  0  0  0  0  0  0
   -8.8060    6.1640   -8.6300 N   0  0  0  0  0  0  0  0  0  0  0  0
   -8.7910    6.5870   -9.9100 C   0  0  0  0  0  0  0  0  0  0  0  0
   -9.0890    5.0630  -16.2380 C   0  0  0  0  0  0  0  0  0  0  0  0
  -10.3660    3.6900  -18.8710 H   0  0  0  0  0  0  0  0  0  0  0  0
  -10.7680    5.3920  -19.0950 H   0  0  0  0  0  0  0  0  0  0  0  0
  -11.3560    4.4890  -17.6860 H   0  0  0  0  0  0  0  0  0  0  0  0
   -8.2490    5.0110  -19.7170 H   0  0  0  0  0  0  0  0  0  0  0  0
   -5.7740    5.7840  -16.1520 H   0  0  0  0  0  0  0  0  0  0  0  0
   -9.9530    5.6330  -12.6220 H   0  0  0  0  0  0  0  0  0  0  0  0
   -8.5680    6.6300  -12.5690 H   0  0  0  0  0  0  0  0  0  0  0  0
  -10.0450    2.7680  -10.6770 H   0  0  0  0  0  0  0  0  0  0  0  0
   -8.3600    2.7810  -11.2240 H   0  0  0  0  0  0  0  0  0  0  0  0
   -7.5470    2.3890   -8.9640 H   0  0  0  0  0  0  0  0  0  0  0  0
   -8.7420    1.1710   -9.3200 H   0  0  0  0  0  0  0  0  0  0  0  0
   -9.2430    1.9890   -7.0950 H   0  0  0  0  0  0  0  0  0  0  0  0
  -10.4690    2.6920   -8.1550 H   0  0  0  0  0  0  0  0  0  0  0  0
   -9.6700    4.4270   -6.8670 H   0  0  0  0  0  0  0  0  0  0  0  0
   -7.9730    3.9240   -7.1070 H   0  0  0  0  0  0  0  0  0  0  0  0
   -8.7230    7.6490  -10.1020 H   0  0  0  0  0  0  0  0  0  0  0  0
   -9.9620    4.9210  -15.5930 H   0  0  0  0  0  0  0  0  0  0  0  0
  1  2  1  0
  2  3  2  0
  3  4  1  0
  4  5  1  0
  4  6  2  0
  6  7  1  0
  7  8  1  0
  8  9  2  0
  8 10  1  0
 10 11  1  0
 11 12  1  0
 12 13  2  0
 13 14  1  0
 14 15  1  0
 15 16  1  0
 16 17  1  0
 17 18  1  0
 18 19  1  0
 19 20  2  0
  7 21  2  0
 21  2  1  0
 20 12  1  0
 18 13  1  0
  1 22  1  0
  1 23  1  0
  1 24  1  0
  3 25  1  0
  6 26  1  0
 11 27  1  0
 11 28  1  0
 14 29  1  0
 14 30  1  0
 15 31  1  0
 15 32  1  0
 16 33  1  0
 16 34  1  0
 17 35  1  0
 17 36  1  0
 20 37  1  0
 21 38  1  0
A    1
 C1 
A    2
 C2 
A    3
 C3 
A    4
 C4 
A    5
CL1 
A    6
 C5 
A    7
 C6 
A    8
 C7 
A    9
 O1 
A   10
 O2 
A   11
 C8 
A   12
 C9 
A   13
 C10
A   14
 C11
A   15
 C12
A   16
 C13
A   17
 C14
A   18
 N1 
A   19
 N2 
A   20
 C15
A   21
 C16
A   22
 H1 
A   23
 H2 
A   24
 H3 
A   25
 H4 
A   26
 H5 
A   27
 H6 
A   28
 H7 
A   29
 H8 
A   30
 H9 
A   31
 H10
A   32
 H11
A   33
 H12
A   34
 H13
A   35
 H14
A   36
 H15
A   37
 H16
A   38
 H17
M  END
>  <ref_pdb>  (221) 
x0051_0B

>  <ref_mols>  (221) 
x0969_1B,x0589_0B

>  <original SMILES>  (221) 
[H]c1nn2c(c1C([H])([H])OC(=O)c1c([H])c(Cl)c([H])c(C([H])([H])[H])c1[H])C([H])([H])C([H])([H])C([H])([H])C2([H])[H]

>  <index>  (221) 
306

>  <∆∆G>  (221) 
-8.412166

>  <∆G_bound>  (221) 
-7.630356

>  <∆G_unbound>  (221) 
0.78181

>  <comRMSD>  (221) 
0.479952

>  <N_constrained_atoms>  (221) 
18.0

>  <N_unconstrained_atoms>  (221) 
3.0

>  <runtime>  (221) 
53.681826

>  <LE>  (221) 
0.400579

>  <percent_hybrid>  (221) 
45.0

>  <dist>  (221) 
4.0

>  <ecfp4>  (221) 
0.342466

>  <daylight>  (221) 
0.437751

>  <topodist>  (221) 
1.0

>  <mces>  (221) 
22.0

>  <tdn>  (221) 
0.0

>  <tup>  (221) 
1.0

>  <rdn>  (221) 
0.0

>  <rup>  (221) 
0.0

>  <ldn>  (221) 
0.0

>  <lup>  (221) 
0.0

>  <mut>  (221) 
2.0

>  <maj>  (221) 
1.0

>  <min>  (221) 
1.0

>  <hyb>  (221) 
1.0

>  <sub>  (221) 
0.0

>  <query_index>  (221) 
380.0

>  <max_hit_Tanimoto>  (221) 
0.32716

>  <largest_ring>  (221) 
0

>  <N_interactions_kept>  (221) 
1.5

>  <N_interactions_lost>  (221) 
1.0

>  <interaction_uniqueness_metric>  (221) 
0.141238

>  <ad_hoc_penalty>  (221) 
-23.279717

>  <N_rotatable_bonds>  (221) 
4

>  <N_HA>  (221) 
21

>  <cluster>  (221) 
528

>  <N_interactions>  (221) 
4

>  <Enamine>  (221) 
1

>  <Mcule>  (221) 
0

>  <N_PAINS>  (221) 
0

>  <UFF_Gibbs>  (221) 
109.382778

>  <strain_per_HA>  (221) 
5.208704

>  <saltbridge:HIS:51>  (221) 
0

>  <pistack:HIS:51>  (221) 
1

>  <hydroph_interaction:HIS:51>  (221) 
0

>  <hbond:ALA:132>  (221) 
0

>  <hbond:SER:135>  (221) 
0

>  <hydroph_interaction:TYR:150>  (221) 
1

>  <pistack:TYR:161>  (221) 
1

>  <hydroph_interaction:TYR:161>  (221) 
0

>  <hydroph_interaction:ASP:83>  (221) 
1

>  <hbond:TYR:130>  (221) 
0

>  <hydroph_interaction:ALA:132>  (221) 
0

>  <hbond:HIS:51>  (221) 
0

>  <hbond:ASP:129>  (221) 
0

>  <hbond:TYR:150>  (221) 
0

>  <hbond:GLY:151>  (221) 
0

>  <hbond:TYR:161>  (221) 
0

>  <hydroph_interaction:TYR:130>  (221) 
0

>  <hydroph_interaction:PRO:131>  (221) 
0

>  <hydroph_interaction:ASP:129>  (221) 
0

>  <saltbridge:ASP:75>  (221) 
0

>  <saltbridge:ASP:83>  (221) 
0

>  <hydroph_interaction:ASN:152>  (221) 
0

>  <halogenbond:TYR:150>  (221) 
0

>  <hbond:ASP:83>  (221) 
0

>  <hydroph_interaction:VAL:155>  (221) 
0

>  <pication:TYR:161>  (221) 
0

>  <hbond:PRO:131>  (221) 
0

>  <hbond:LEU:128>  (221) 
0

>  <saltbridge:ASP:129>  (221) 
0

>  <hbond:THR:134>  (221) 
0

>  <pication:HIS:51>  (221) 
0

>  <hbond:SER:81>  (221) 
0

>  <hbond:GLY:159>  (221) 
0

>  <hydroph_interaction:PRO:101>  (221) 
0

>  <hydroph_interaction:THR:134>  (221) 
0

>  <hbond:GLY:82>  (221) 
0

>  <hydroph_interaction:GLU:104>  (221) 
0

>  <hydroph_interaction:VAL:36>  (221) 
0

>  <hydroph_interaction:MET:49>  (221) 
0

>  <halogenbond:GLU:104>  (221) 
0

>  <hydroph_interaction:LYS:107>  (221) 
0

$$$$
LHNGKXLBQHDPFT-UHFFFAOYSA-N
     RDKit          3D

 39 42  0  0  0  0  0  0  0  0999 V2000
   -8.1500    6.4090  -11.8580 C   0  0  0  0  0  0  0  0  0  0  0  0
   -9.0650    6.2490  -12.8380 N   0  0  0  0  0  0  0  0  0  0  0  0
   -8.9720    5.1030  -13.7330 C   0  0  0  0  0  0  0  0  0  0  0  0
   -8.0440    5.3210  -14.9390 C   0  0  0  0  0  0  0  0  0  0  0  0
   -8.3870    5.1150  -16.2810 C   0  0  0  0  0  0  0  0  0  0  0  0
   -7.3380    5.3790  -17.0900 C   0  0  0  0  0  0  0  0  0  0  0  0
   -7.3730    5.2570  -18.4710 C   0  0  0  0  0  0  0  0  0  0  0  0
   -8.5510    4.8400  -19.0930 C   0  0  0  0  0  0  0  0  0  0  0  0
   -9.6670    4.5600  -18.2840 C   0  0  0  0  0  0  0  0  0  0  0  0
   -9.5820    4.6980  -16.8830 C   0  0  0  0  0  0  0  0  0  0  0  0
   -6.3320    5.7590  -16.2470 N   0  0  0  0  0  0  0  0  0  0  0  0
   -6.7310    5.7370  -14.9160 N   0  0  0  0  0  0  0  0  0  0  0  0
   -7.0090    6.8190  -12.0660 O   0  0  0  0  0  0  0  0  0  0  0  0
   -8.4760    6.0980  -10.4200 C   0  0  0  0  0  0  0  0  0  0  0  0
   -8.7610    4.7360   -9.7900 C   0  0  0  0  0  0  0  0  0  0  0  0
   -8.9660    4.9550   -8.4470 N   0  0  0  0  0  0  0  0  0  0  0  0
   -9.2400    3.8850   -7.4780 C   0  0  0  0  0  0  0  0  0  0  0  0
   -9.7790    2.7190   -8.0400 C   0  0  0  0  0  0  0  0  0  0  0  0
   -9.4480    2.3540   -9.3600 C   0  0  0  0  0  0  0  0  0  0  0  0
   -8.8340    3.3630  -10.3250 C   0  0  0  0  0  0  0  0  0  0  0  0
   -8.8750    6.2610   -8.1150 N   0  0  0  0  0  0  0  0  0  0  0  0
   -8.5930    6.9250   -9.2700 C   0  0  0  0  0  0  0  0  0  0  0  0
   -9.5140    7.0780  -13.2080 H   0  0  0  0  0  0  0  0  0  0  0  0
   -9.9730    4.8500  -14.1120 H   0  0  0  0  0  0  0  0  0  0  0  0
   -8.6250    4.2420  -13.1540 H   0  0  0  0  0  0  0  0  0  0  0  0
   -6.4430    5.5050  -18.9930 H   0  0  0  0  0  0  0  0  0  0  0  0
   -8.5360    4.7580  -20.1730 H   0  0  0  0  0  0  0  0  0  0  0  0
  -10.5880    4.2400  -18.7430 H   0  0  0  0  0  0  0  0  0  0  0  0
  -10.4230    4.4870  -16.2410 H   0  0  0  0  0  0  0  0  0  0  0  0
   -5.3850    6.0370  -16.4790 H   0  0  0  0  0  0  0  0  0  0  0  0
   -8.3070    3.7840   -6.9330 H   0  0  0  0  0  0  0  0  0  0  0  0
   -9.9740    4.2900   -6.7710 H   0  0  0  0  0  0  0  0  0  0  0  0
   -9.5010    1.8760   -7.3940 H   0  0  0  0  0  0  0  0  0  0  0  0
  -10.8660    2.7700   -7.9960 H   0  0  0  0  0  0  0  0  0  0  0  0
   -8.7900    1.4850   -9.3190 H   0  0  0  0  0  0  0  0  0  0  0  0
  -10.3630    2.0270   -9.8470 H   0  0  0  0  0  0  0  0  0  0  0  0
   -7.8430    3.0110  -10.6250 H   0  0  0  0  0  0  0  0  0  0  0  0
   -9.4460    3.3920  -11.2330 H   0  0  0  0  0  0  0  0  0  0  0  0
   -8.4790    7.9990   -9.2080 H   0  0  0  0  0  0  0  0  0  0  0  0
  1  2  1  0
  2  3  1  0
  3  4  1  0
  4  5  1  0
  5  6  1  0
  6  7  2  0
  7  8  1  0
  8  9  2  0
  9 10  1  0
  6 11  1  0
 11 12  1  0
  1 13  2  0
  1 14  1  0
 14 15  2  0
 15 16  1  0
 16 17  1  0
 17 18  1  0
 18 19  1  0
 19 20  1  0
 16 21  1  0
 21 22  2  0
  4 12  2  0
 10  5  2  0
 22 14  1  0
 20 15  1  0
  2 23  1  0
  3 24  1  0
  3 25  1  0
  7 26  1  0
  8 27  1  0
  9 28  1  0
 10 29  1  0
 11 30  1  0
 17 31  1  0
 17 32  1  0
 18 33  1  0
 18 34  1  0
 19 35  1  0
 19 36  1  0
 20 37  1  0
 20 38  1  0
 22 39  1  0
A    1
 C1 
A    2
 N1 
A    3
 C2 
A    4
 C3 
A    5
 C4 
A    6
 C5 
A    7
 C6 
A    8
 C7 
A    9
 C8 
A   10
 C9 
A   11
 N2 
A   12
 N3 
A   13
 O1 
A   14
 C10
A   15
 C11
A   16
 N4 
A   17
 C12
A   18
 C13
A   19
 C14
A   20
 C15
A   21
 N5 
A   22
 C16
A   23
 H1 
A   24
 H2 
A   25
 H3 
A   26
 H4 
A   27
 H5 
A   28
 H6 
A   29
 H7 
A   30
 H8 
A   31
 H9 
A   32
 H10
A   33
 H11
A   34
 H12
A   35
 H13
A   36
 H14
A   37
 H15
A   38
 H16
A   39
 H17
M  END
>  <ref_pdb>  (222) 
x0051_0B

>  <ref_mols>  (222) 
x0951_0B,x0969_1B

>  <original SMILES>  (222) 
[H]c1nn2c(c1C(=O)N([H])C([H])([H])c1nn([H])c3c([H])c([H])c([H])c([H])c13)C([H])([H])C([H])([H])C([H])([H])C2([H])[H]

>  <index>  (222) 
408

>  <∆∆G>  (222) 
-6.161338

>  <∆G_bound>  (222) 
-5.605573

>  <∆G_unbound>  (222) 
0.555765

>  <comRMSD>  (222) 
0.467475

>  <N_constrained_atoms>  (222) 
22.0

>  <N_unconstrained_atoms>  (222) 
1.0

>  <runtime>  (222) 
55.734247

>  <LE>  (222) 
0.267884

>  <percent_hybrid>  (222) 
46.0

>  <dist>  (222) 
6.0

>  <ecfp4>  (222) 
0.170732

>  <daylight>  (222) 
0.320635

>  <topodist>  (222) 
1.0

>  <mces>  (222) 
24.0

>  <tdn>  (222) 
0.0

>  <tup>  (222) 
0.0

>  <rdn>  (222) 
0.0

>  <rup>  (222) 
0.0

>  <ldn>  (222) 
0.0

>  <lup>  (222) 
1.0

>  <mut>  (222) 
4.0

>  <maj>  (222) 
4.0

>  <min>  (222) 
0.0

>  <hyb>  (222) 
1.0

>  <sub>  (222) 
0.0

>  <query_index>  (222) 
201.0

>  <max_hit_Tanimoto>  (222) 
0.348771

>  <largest_ring>  (222) 
0

>  <N_interactions_kept>  (222) 
1.0

>  <N_interactions_lost>  (222) 
2.0

>  <interaction_uniqueness_metric>  (222) 
0.173507

>  <ad_hoc_penalty>  (222) 
-23.277919

>  <N_rotatable_bonds>  (222) 
3

>  <N_HA>  (222) 
22

>  <cluster>  (222) 
5846

>  <N_interactions>  (222) 
6

>  <Enamine>  (222) 
0

>  <Mcule>  (222) 
1

>  <N_PAINS>  (222) 
0

>  <UFF_Gibbs>  (222) 
86.350176

>  <strain_per_HA>  (222) 
3.925008

>  <saltbridge:HIS:51>  (222) 
0

>  <pistack:HIS:51>  (222) 
1

>  <hydroph_interaction:HIS:51>  (222) 
1

>  <hbond:ALA:132>  (222) 
0

>  <hbond:SER:135>  (222) 
0

>  <hydroph_interaction:TYR:150>  (222) 
1

>  <pistack:TYR:161>  (222) 
2

>  <hydroph_interaction:TYR:161>  (222) 
0

>  <hydroph_interaction:ASP:83>  (222) 
0

>  <hbond:TYR:130>  (222) 
0

>  <hydroph_interaction:ALA:132>  (222) 
0

>  <hbond:HIS:51>  (222) 
1

>  <hbond:ASP:129>  (222) 
0

>  <hbond:TYR:150>  (222) 
0

>  <hbond:GLY:151>  (222) 
0

>  <hbond:TYR:161>  (222) 
0

>  <hydroph_interaction:TYR:130>  (222) 
0

>  <hydroph_interaction:PRO:131>  (222) 
0

>  <hydroph_interaction:ASP:129>  (222) 
0

>  <saltbridge:ASP:75>  (222) 
0

>  <saltbridge:ASP:83>  (222) 
0

>  <hydroph_interaction:ASN:152>  (222) 
0

>  <halogenbond:TYR:150>  (222) 
0

>  <hbond:ASP:83>  (222) 
0

>  <hydroph_interaction:VAL:155>  (222) 
0

>  <pication:TYR:161>  (222) 
0

>  <hbond:PRO:131>  (222) 
0

>  <hbond:LEU:128>  (222) 
0

>  <saltbridge:ASP:129>  (222) 
0

>  <hbond:THR:134>  (222) 
0

>  <pication:HIS:51>  (222) 
0

>  <hbond:SER:81>  (222) 
0

>  <hbond:GLY:159>  (222) 
0

>  <hydroph_interaction:PRO:101>  (222) 
0

>  <hydroph_interaction:THR:134>  (222) 
0

>  <hbond:GLY:82>  (222) 
0

>  <hydroph_interaction:GLU:104>  (222) 
0

>  <hydroph_interaction:VAL:36>  (222) 
0

>  <hydroph_interaction:MET:49>  (222) 
0

>  <halogenbond:GLU:104>  (222) 
0

>  <hydroph_interaction:LYS:107>  (222) 
0

$$$$
MCULE-7806067323
     RDKit          3D

 18 19  0  0  0  0  0  0  0  0999 V2000
   -7.8530    5.0700  -18.2000 C   0  0  0  0  0  0  0  0  0  0  0  0
   -8.3010    5.1050  -16.9080 C   0  0  0  0  0  0  0  0  0  0  0  0
   -9.7490    4.8340  -16.8700 C   0  0  0  0  0  0  0  0  0  0  0  0
  -10.1620    4.6440  -18.1480 O   0  0  0  0  0  0  0  0  0  0  0  0
   -9.0220    4.7860  -18.9440 C   0  0  0  0  0  0  0  0  0  0  0  0
   -6.5150    5.2590  -18.6890 C   0  0  0  0  0  0  0  0  0  0  0  0
   -5.4680    5.3040  -17.7560 C   0  0  0  0  0  0  0  0  0  0  0  0
   -4.1780    5.4660  -18.2070 C   0  0  0  0  0  0  0  0  0  0  0  0
   -3.9420    5.5910  -19.6890 C   0  0  0  0  0  0  0  0  0  0  0  0
   -4.9580    5.5490  -20.5700 N   0  0  0  0  0  0  0  0  0  0  0  0
   -6.2070    5.3850  -20.0500 C   0  0  0  0  0  0  0  0  0  0  0  0
   -2.6930    5.7520  -20.1470 F   0  0  0  0  0  0  0  0  0  0  0  0
   -7.6700    5.2990  -16.0460 H   0  0  0  0  0  0  0  0  0  0  0  0
  -10.3920    4.7850  -16.0020 H   0  0  0  0  0  0  0  0  0  0  0  0
   -9.2080    4.6540  -20.0070 H   0  0  0  0  0  0  0  0  0  0  0  0
   -5.6540    5.2100  -16.6870 H   0  0  0  0  0  0  0  0  0  0  0  0
   -3.2810    5.5150  -17.5790 H   0  0  0  0  0  0  0  0  0  0  0  0
   -6.9850    5.3550  -20.8090 H   0  0  0  0  0  0  0  0  0  0  0  0
  1  2  1  0
  2  3  2  0
  3  4  1  0
  4  5  1  0
  1  6  1  0
  6  7  2  0
  7  8  1  0
  8  9  2  0
  9 10  1  0
 10 11  2  0
  9 12  1  0
  1  5  2  0
  6 11  1  0
  2 13  1  0
  3 14  1  0
  5 15  1  0
  7 16  1  0
  8 17  1  0
 11 18  1  0
A    1
 C1 
A    2
 C2 
A    3
 C3 
A    4
 O1 
A    5
 C4 
A    6
 C5 
A    7
 C6 
A    8
 C7 
A    9
 C8 
A   10
 N1 
A   11
 C9 
A   12
 F1 
A   13
 H1 
A   14
 H2 
A   15
 H3 
A   16
 H4 
A   17
 H5 
A   18
 H6 
M  END
>  <ref_pdb>  (223) 
x0051_0B

>  <ref_mols>  (223) 
x0680_0B,x0386_0B

>  <original SMILES>  (223) 
[H]c1nc(F)c([H])c([H])c1-c1c([H])oc([H])c1[H]

>  <index>  (223) 
393

>  <∆∆G>  (223) 
-5.368879

>  <∆G_bound>  (223) 
-5.360322

>  <∆G_unbound>  (223) 
0.008557

>  <comRMSD>  (223) 
0.612815

>  <N_constrained_atoms>  (223) 
13.0

>  <N_unconstrained_atoms>  (223) 
1.0

>  <runtime>  (223) 
22.07489

>  <LE>  (223) 
0.383491

>  <percent_hybrid>  (223) 
25.0

>  <dist>  (223) 
3.0

>  <ecfp4>  (223) 
0.215686

>  <daylight>  (223) 
0.414815

>  <topodist>  (223) 
2.0

>  <mces>  (223) 
12.0

>  <tdn>  (223) 
1.0

>  <tup>  (223) 
1.0

>  <rdn>  (223) 
0.0

>  <rup>  (223) 
0.0

>  <ldn>  (223) 
0.0

>  <lup>  (223) 
0.0

>  <mut>  (223) 
1.0

>  <maj>  (223) 
1.0

>  <min>  (223) 
0.0

>  <hyb>  (223) 
0.0

>  <sub>  (223) 
2.0

>  <query_index>  (223) 
296.0

>  <max_hit_Tanimoto>  (223) 
0.136861

>  <largest_ring>  (223) 
0

>  <N_interactions_kept>  (223) 
3.5

>  <N_interactions_lost>  (223) 
0.5

>  <interaction_uniqueness_metric>  (223) 
0.016266

>  <ad_hoc_penalty>  (223) 
-23.276337

>  <N_rotatable_bonds>  (223) 
1

>  <N_HA>  (223) 
12

>  <cluster>  (223) 
5858

>  <N_interactions>  (223) 
3

>  <Enamine>  (223) 
0

>  <Mcule>  (223) 
1

>  <N_PAINS>  (223) 
0

>  <UFF_Gibbs>  (223) 
28.709708

>  <strain_per_HA>  (223) 
2.392476

>  <saltbridge:HIS:51>  (223) 
0

>  <pistack:HIS:51>  (223) 
0

>  <hydroph_interaction:HIS:51>  (223) 
0

>  <hbond:ALA:132>  (223) 
0

>  <hbond:SER:135>  (223) 
0

>  <hydroph_interaction:TYR:150>  (223) 
0

>  <pistack:TYR:161>  (223) 
0

>  <hydroph_interaction:TYR:161>  (223) 
3

>  <hydroph_interaction:ASP:83>  (223) 
0

>  <hbond:TYR:130>  (223) 
0

>  <hydroph_interaction:ALA:132>  (223) 
0

>  <hbond:HIS:51>  (223) 
0

>  <hbond:ASP:129>  (223) 
0

>  <hbond:TYR:150>  (223) 
0

>  <hbond:GLY:151>  (223) 
0

>  <hbond:TYR:161>  (223) 
0

>  <hydroph_interaction:TYR:130>  (223) 
0

>  <hydroph_interaction:PRO:131>  (223) 
0

>  <hydroph_interaction:ASP:129>  (223) 
0

>  <saltbridge:ASP:75>  (223) 
0

>  <saltbridge:ASP:83>  (223) 
0

>  <hydroph_interaction:ASN:152>  (223) 
0

>  <halogenbond:TYR:150>  (223) 
0

>  <hbond:ASP:83>  (223) 
0

>  <hydroph_interaction:VAL:155>  (223) 
0

>  <pication:TYR:161>  (223) 
0

>  <hbond:PRO:131>  (223) 
0

>  <hbond:LEU:128>  (223) 
0

>  <saltbridge:ASP:129>  (223) 
0

>  <hbond:THR:134>  (223) 
0

>  <pication:HIS:51>  (223) 
0

>  <hbond:SER:81>  (223) 
0

>  <hbond:GLY:159>  (223) 
0

>  <hydroph_interaction:PRO:101>  (223) 
0

>  <hydroph_interaction:THR:134>  (223) 
0

>  <hbond:GLY:82>  (223) 
0

>  <hydroph_interaction:GLU:104>  (223) 
0

>  <hydroph_interaction:VAL:36>  (223) 
0

>  <hydroph_interaction:MET:49>  (223) 
0

>  <halogenbond:GLU:104>  (223) 
0

>  <hydroph_interaction:LYS:107>  (223) 
0

$$$$
MHOKSTTURADPJC-UHFFFAOYSA-N
     RDKit          3D

 26 27  0  0  0  0  0  0  0  0999 V2000
   -5.3600    5.9550  -17.8090 N   0  0  0  0  0  0  0  0  0  0  0  0
   -4.0670    5.2400  -17.7980 C   0  0  0  0  0  0  0  0  0  0  0  0
   -3.2970    5.3210  -16.4900 C   0  0  0  0  0  0  0  0  0  0  0  0
   -3.2940    4.2860  -15.5100 C   0  0  0  0  0  0  0  0  0  0  0  0
   -6.3530    5.4900  -18.8400 C   0  0  0  0  0  0  0  0  0  0  0  0
   -6.4580    6.2740  -19.9900 C   0  0  0  0  0  0  0  0  0  0  0  0
   -7.7310    5.2530  -18.2650 C   0  0  0  0  0  0  0  0  0  0  0  0
   -7.9170    5.3250  -16.8810 C   0  0  0  0  0  0  0  0  0  0  0  0
   -9.5300    5.0500  -16.4110 S   0  0  0  0  0  0  0  0  0  0  0  0
  -10.0010    4.8200  -18.0330 C   0  0  0  0  0  0  0  0  0  0  0  0
   -8.9610    4.9520  -18.9280 C   0  0  0  0  0  0  0  0  0  0  0  0
   -6.8450    5.5950  -15.8810 C   0  0  0  0  0  0  0  0  0  0  0  0
   -5.9340    6.4410  -16.5110 C   0  0  0  0  0  0  0  0  0  0  0  0
   -3.4680    5.5250  -18.6620 H   0  0  0  0  0  0  0  0  0  0  0  0
   -4.2540    4.1810  -17.9380 H   0  0  0  0  0  0  0  0  0  0  0  0
   -4.3170    3.9580  -15.3040 H   0  0  0  0  0  0  0  0  0  0  0  0
   -5.9870    4.5380  -19.2000 H   0  0  0  0  0  0  0  0  0  0  0  0
   -6.5900    5.6480  -20.8690 H   0  0  0  0  0  0  0  0  0  0  0  0
   -7.2340    7.0330  -20.0160 H   0  0  0  0  0  0  0  0  0  0  0  0
   -5.5190    6.8120  -20.1510 H   0  0  0  0  0  0  0  0  0  0  0  0
  -10.9970    4.5930  -18.4380 H   0  0  0  0  0  0  0  0  0  0  0  0
   -9.2040    4.8190  -19.9900 H   0  0  0  0  0  0  0  0  0  0  0  0
   -6.3230    4.6470  -15.7120 H   0  0  0  0  0  0  0  0  0  0  0  0
   -6.9680    6.0110  -14.8720 H   0  0  0  0  0  0  0  0  0  0  0  0
   -5.1030    6.7910  -15.9040 H   0  0  0  0  0  0  0  0  0  0  0  0
   -6.5190    7.3290  -16.7560 H   0  0  0  0  0  0  0  0  0  0  0  0
  1  2  1  0
  2  3  1  0
  3  4  3  0
  1  5  1  0
  5  6  1  0
  5  7  1  0
  7  8  2  0
  8  9  1  0
  9 10  1  0
 10 11  2  0
  8 12  1  0
 12 13  1  0
 13  1  1  0
 11  7  1  0
  2 14  1  0
  2 15  1  0
  4 16  1  0
  5 17  1  0
  6 18  1  0
  6 19  1  0
  6 20  1  0
 10 21  1  0
 11 22  1  0
 12 23  1  0
 12 24  1  0
 13 25  1  0
 13 26  1  0
A    1
 N1 
A    2
 C1 
A    3
 C2 
A    4
 C3 
A    5
 C4 
A    6
 C5 
A    7
 C6 
A    8
 C7 
A    9
 S1 
A   10
 C8 
A   11
 C9 
A   12
 C10
A   13
 C11
A   14
 H1 
A   15
 H2 
A   16
 H3 
A   17
 H4 
A   18
 H5 
A   19
 H6 
A   20
 H7 
A   21
 H8 
A   22
 H9 
A   23
 H10
A   24
 H11
A   25
 H12
A   26
 H13
M  END
>  <ref_pdb>  (224) 
x0051_0B

>  <ref_mols>  (224) 
x0472_0B,x0386_0B

>  <original SMILES>  (224) 
[H]C#CC([H])([H])N1C([H])([H])C([H])([H])c2sc([H])c([H])c2C1([H])C([H])([H])[H]

>  <index>  (224) 
41

>  <∆∆G>  (224) 
-6.662563

>  <∆G_bound>  (224) 
-6.566294

>  <∆G_unbound>  (224) 
0.096269

>  <comRMSD>  (224) 
0.427111

>  <N_constrained_atoms>  (224) 
14.0

>  <N_unconstrained_atoms>  (224) 
0.0

>  <runtime>  (224) 
20.920363

>  <LE>  (224) 
0.475897

>  <percent_hybrid>  (224) 
13.0

>  <dist>  (224) 
4.0

>  <ecfp4>  (224) 
0.392157

>  <daylight>  (224) 
0.712121

>  <topodist>  (224) 
1.0

>  <mces>  (224) 
14.0

>  <tdn>  (224) 
1.0

>  <tup>  (224) 
0.0

>  <rdn>  (224) 
0.0

>  <rup>  (224) 
0.0

>  <ldn>  (224) 
0.0

>  <lup>  (224) 
0.0

>  <mut>  (224) 
2.0

>  <maj>  (224) 
2.0

>  <min>  (224) 
0.0

>  <hyb>  (224) 
1.0

>  <sub>  (224) 
1.0

>  <query_index>  (224) 
75.0

>  <max_hit_Tanimoto>  (224) 
0.649469

>  <largest_ring>  (224) 
0

>  <N_interactions_kept>  (224) 
3.0

>  <N_interactions_lost>  (224) 
0.0

>  <interaction_uniqueness_metric>  (224) 
0.049434

>  <ad_hoc_penalty>  (224) 
-23.235136

>  <N_rotatable_bonds>  (224) 
2

>  <N_HA>  (224) 
13

>  <cluster>  (224) 
6178

>  <N_interactions>  (224) 
4

>  <Enamine>  (224) 
0

>  <Mcule>  (224) 
1

>  <N_PAINS>  (224) 
0

>  <UFF_Gibbs>  (224) 
197.479029

>  <strain_per_HA>  (224) 
15.190695

>  <saltbridge:HIS:51>  (224) 
0

>  <pistack:HIS:51>  (224) 
0

>  <hydroph_interaction:HIS:51>  (224) 
0

>  <hbond:ALA:132>  (224) 
0

>  <hbond:SER:135>  (224) 
0

>  <hydroph_interaction:TYR:150>  (224) 
0

>  <pistack:TYR:161>  (224) 
0

>  <hydroph_interaction:TYR:161>  (224) 
3

>  <hydroph_interaction:ASP:83>  (224) 
0

>  <hbond:TYR:130>  (224) 
0

>  <hydroph_interaction:ALA:132>  (224) 
0

>  <hbond:HIS:51>  (224) 
0

>  <hbond:ASP:129>  (224) 
0

>  <hbond:TYR:150>  (224) 
0

>  <hbond:GLY:151>  (224) 
0

>  <hbond:TYR:161>  (224) 
0

>  <hydroph_interaction:TYR:130>  (224) 
0

>  <hydroph_interaction:PRO:131>  (224) 
0

>  <hydroph_interaction:ASP:129>  (224) 
0

>  <saltbridge:ASP:75>  (224) 
0

>  <saltbridge:ASP:83>  (224) 
0

>  <hydroph_interaction:ASN:152>  (224) 
0

>  <halogenbond:TYR:150>  (224) 
0

>  <hbond:ASP:83>  (224) 
0

>  <hydroph_interaction:VAL:155>  (224) 
1

>  <pication:TYR:161>  (224) 
0

>  <hbond:PRO:131>  (224) 
0

>  <hbond:LEU:128>  (224) 
0

>  <saltbridge:ASP:129>  (224) 
0

>  <hbond:THR:134>  (224) 
0

>  <pication:HIS:51>  (224) 
0

>  <hbond:SER:81>  (224) 
0

>  <hbond:GLY:159>  (224) 
0

>  <hydroph_interaction:PRO:101>  (224) 
0

>  <hydroph_interaction:THR:134>  (224) 
0

>  <hbond:GLY:82>  (224) 
0

>  <hydroph_interaction:GLU:104>  (224) 
0

>  <hydroph_interaction:VAL:36>  (224) 
0

>  <hydroph_interaction:MET:49>  (224) 
0

>  <halogenbond:GLU:104>  (224) 
0

>  <hydroph_interaction:LYS:107>  (224) 
0

$$$$
CSSB00015213507
     RDKit          3D

 23 25  0  0  0  0  0  0  0  0999 V2000
   -5.5260    5.6890  -15.8190 C   0  0  0  0  0  0  0  0  0  0  0  0
   -6.5570    5.5480  -14.7010 C   0  0  0  0  0  0  0  0  0  0  0  0
   -7.9880    5.2560  -15.1200 C   0  0  0  0  0  0  0  0  0  0  0  0
   -8.3490    5.1180  -16.5250 C   0  0  0  0  0  0  0  0  0  0  0  0
   -9.6720    4.8480  -16.8470 C   0  0  0  0  0  0  0  0  0  0  0  0
  -10.0680    4.7030  -18.1710 C   0  0  0  0  0  0  0  0  0  0  0  0
   -9.1260    4.8270  -19.1870 C   0  0  0  0  0  0  0  0  0  0  0  0
   -7.7880    5.0960  -18.8840 C   0  0  0  0  0  0  0  0  0  0  0  0
   -6.8350    5.2160  -19.9040 C   0  0  0  0  0  0  0  0  0  0  0  0
   -5.5060    5.4800  -19.5920 C   0  0  0  0  0  0  0  0  0  0  0  0
   -5.1030    5.6280  -18.2730 C   0  0  0  0  0  0  0  0  0  0  0  0
   -6.0300    5.5160  -17.2350 C   0  0  0  0  0  0  0  0  0  0  0  0
   -7.3820    5.2470  -17.5360 C   0  0  0  0  0  0  0  0  0  0  0  0
   -5.0590    6.6760  -15.7620 H   0  0  0  0  0  0  0  0  0  0  0  0
   -4.7330    4.9460  -15.6690 H   0  0  0  0  0  0  0  0  0  0  0  0
   -6.2590    5.6570  -13.6630 H   0  0  0  0  0  0  0  0  0  0  0  0
   -8.7720    5.1450  -14.3760 H   0  0  0  0  0  0  0  0  0  0  0  0
  -10.4040    4.7460  -16.0560 H   0  0  0  0  0  0  0  0  0  0  0  0
  -11.1060    4.4960  -18.4090 H   0  0  0  0  0  0  0  0  0  0  0  0
   -9.4450    4.7120  -20.2210 H   0  0  0  0  0  0  0  0  0  0  0  0
   -7.1200    5.1030  -20.9480 H   0  0  0  0  0  0  0  0  0  0  0  0
   -4.7700    5.5710  -20.3930 H   0  0  0  0  0  0  0  0  0  0  0  0
   -4.0600    5.8330  -18.0550 H   0  0  0  0  0  0  0  0  0  0  0  0
  1  2  1  0
  2  3  2  0
  3  4  1  0
  4  5  1  0
  5  6  2  0
  6  7  1  0
  7  8  2  0
  8  9  1  0
  9 10  2  0
 10 11  1  0
 11 12  2  0
 12 13  1  0
 12  1  1  0
 13  4  2  0
 13  8  1  0
  1 14  1  0
  1 15  1  0
  2 16  1  0
  3 17  1  0
  5 18  1  0
  6 19  1  0
  7 20  1  0
  9 21  1  0
 10 22  1  0
 11 23  1  0
A    1
 C1 
A    2
 C2 
A    3
 C3 
A    4
 C4 
A    5
 C5 
A    6
 C6 
A    7
 C7 
A    8
 C8 
A    9
 C9 
A   10
 C10
A   11
 C11
A   12
 C12
A   13
 C13
A   14
 H1 
A   15
 H2 
A   16
 H3 
A   17
 H4 
A   18
 H5 
A   19
 H6 
A   20
 H7 
A   21
 H8 
A   22
 H9 
A   23
 H10
M  END
>  <ref_pdb>  (225) 
x0051_0B

>  <ref_mols>  (225) 
x0727_0B,x0455_0B

>  <original SMILES>  (225) 
[H]C1=C([H])C([H])([H])c2c([H])c([H])c([H])c3c([H])c([H])c([H])c1c23

>  <index>  (225) 
467

>  <∆∆G>  (225) 
-6.982584

>  <∆G_bound>  (225) 
-6.97662

>  <∆G_unbound>  (225) 
0.005964

>  <comRMSD>  (225) 
0.390878

>  <N_constrained_atoms>  (225) 
14.0

>  <N_unconstrained_atoms>  (225) 
0.0

>  <runtime>  (225) 
18.0905

>  <LE>  (225) 
0.498756

>  <percent_hybrid>  (225) 
34.0

>  <dist>  (225) 
4.0

>  <ecfp4>  (225) 
0.255814

>  <daylight>  (225) 
0.236364

>  <topodist>  (225) 
1.0

>  <mces>  (225) 
15.0

>  <tdn>  (225) 
1.0

>  <tup>  (225) 
0.0

>  <rdn>  (225) 
0.0

>  <rup>  (225) 
0.0

>  <ldn>  (225) 
0.0

>  <lup>  (225) 
0.0

>  <mut>  (225) 
1.0

>  <maj>  (225) 
1.0

>  <min>  (225) 
0.0

>  <hyb>  (225) 
2.0

>  <sub>  (225) 
1.0

>  <query_index>  (225) 
57.0

>  <max_hit_Tanimoto>  (225) 
0.160714

>  <largest_ring>  (225) 
0

>  <N_interactions_kept>  (225) 
0.0

>  <N_interactions_lost>  (225) 
3.0

>  <interaction_uniqueness_metric>  (225) 
0.050285

>  <ad_hoc_penalty>  (225) 
-23.234126

>  <N_rotatable_bonds>  (225) 
0

>  <N_HA>  (225) 
13

>  <cluster>  (225) 
5794

>  <N_interactions>  (225) 
6

>  <Enamine>  (225) 
1

>  <Mcule>  (225) 
0

>  <N_PAINS>  (225) 
0

>  <UFF_Gibbs>  (225) 
21.840526

>  <strain_per_HA>  (225) 
1.68004

>  <saltbridge:HIS:51>  (225) 
0

>  <pistack:HIS:51>  (225) 
0

>  <hydroph_interaction:HIS:51>  (225) 
0

>  <hbond:ALA:132>  (225) 
0

>  <hbond:SER:135>  (225) 
0

>  <hydroph_interaction:TYR:150>  (225) 
1

>  <pistack:TYR:161>  (225) 
2

>  <hydroph_interaction:TYR:161>  (225) 
3

>  <hydroph_interaction:ASP:83>  (225) 
0

>  <hbond:TYR:130>  (225) 
0

>  <hydroph_interaction:ALA:132>  (225) 
0

>  <hbond:HIS:51>  (225) 
0

>  <hbond:ASP:129>  (225) 
0

>  <hbond:TYR:150>  (225) 
0

>  <hbond:GLY:151>  (225) 
0

>  <hbond:TYR:161>  (225) 
0

>  <hydroph_interaction:TYR:130>  (225) 
0

>  <hydroph_interaction:PRO:131>  (225) 
0

>  <hydroph_interaction:ASP:129>  (225) 
0

>  <saltbridge:ASP:75>  (225) 
0

>  <saltbridge:ASP:83>  (225) 
0

>  <hydroph_interaction:ASN:152>  (225) 
0

>  <halogenbond:TYR:150>  (225) 
0

>  <hbond:ASP:83>  (225) 
0

>  <hydroph_interaction:VAL:155>  (225) 
0

>  <pication:TYR:161>  (225) 
0

>  <hbond:PRO:131>  (225) 
0

>  <hbond:LEU:128>  (225) 
0

>  <saltbridge:ASP:129>  (225) 
0

>  <hbond:THR:134>  (225) 
0

>  <pication:HIS:51>  (225) 
0

>  <hbond:SER:81>  (225) 
0

>  <hbond:GLY:159>  (225) 
0

>  <hydroph_interaction:PRO:101>  (225) 
0

>  <hydroph_interaction:THR:134>  (225) 
0

>  <hbond:GLY:82>  (225) 
0

>  <hydroph_interaction:GLU:104>  (225) 
0

>  <hydroph_interaction:VAL:36>  (225) 
0

>  <hydroph_interaction:MET:49>  (225) 
0

>  <halogenbond:GLU:104>  (225) 
0

>  <hydroph_interaction:LYS:107>  (225) 
0

$$$$
CSSB00012224324
     RDKit          3D

 38 38  0  0  0  0  0  0  0  0999 V2000
   -9.1600    5.7000  -14.0700 C   0  0  0  0  0  0  0  0  0  0  0  0
   -8.0540    5.1290  -14.9330 C   0  0  0  0  0  0  0  0  0  0  0  0
   -6.8180    5.8560  -14.7750 C   0  0  0  0  0  0  0  0  0  0  0  0
   -8.4400    5.0480  -16.3960 C   0  0  0  0  0  0  0  0  0  0  0  0
   -9.7450    4.7850  -16.7950 C   0  0  0  0  0  0  0  0  0  0  0  0
  -10.1080    4.7020  -18.1430 C   0  0  0  0  0  0  0  0  0  0  0  0
   -9.1450    4.8850  -19.1290 C   0  0  0  0  0  0  0  0  0  0  0  0
   -7.8250    5.1540  -18.7480 C   0  0  0  0  0  0  0  0  0  0  0  0
   -6.7350    5.3640  -19.5830 N   0  0  0  0  0  0  0  0  0  0  0  0
   -5.5510    5.7470  -19.0330 C   0  0  0  0  0  0  0  0  0  0  0  0
   -5.4310    6.3190  -17.9680 O   0  0  0  0  0  0  0  0  0  0  0  0
   -4.4970    5.3950  -19.7970 O   0  0  0  0  0  0  0  0  0  0  0  0
   -3.2030    5.4970  -19.1470 C   0  0  0  0  0  0  0  0  0  0  0  0
   -2.2040    4.6460  -19.9570 C   0  0  0  0  0  0  0  0  0  0  0  0
   -2.7300    6.9550  -19.1440 C   0  0  0  0  0  0  0  0  0  0  0  0
   -3.2900    4.9300  -17.7270 C   0  0  0  0  0  0  0  0  0  0  0  0
   -7.4970    5.2300  -17.3890 C   0  0  0  0  0  0  0  0  0  0  0  0
   -9.9930    6.0670  -14.6800 H   0  0  0  0  0  0  0  0  0  0  0  0
   -8.7790    6.5200  -13.4570 H   0  0  0  0  0  0  0  0  0  0  0  0
   -9.5570    4.9230  -13.4110 H   0  0  0  0  0  0  0  0  0  0  0  0
   -7.8710    4.1150  -14.5680 H   0  0  0  0  0  0  0  0  0  0  0  0
   -5.9590    5.2540  -15.0920 H   0  0  0  0  0  0  0  0  0  0  0  0
   -6.6780    6.1360  -13.7220 H   0  0  0  0  0  0  0  0  0  0  0  0
   -6.8260    6.7860  -15.3570 H   0  0  0  0  0  0  0  0  0  0  0  0
  -10.4390    4.6510  -15.9650 H   0  0  0  0  0  0  0  0  0  0  0  0
  -11.1390    4.4950  -18.4230 H   0  0  0  0  0  0  0  0  0  0  0  0
   -9.4410    4.8160  -20.1700 H   0  0  0  0  0  0  0  0  0  0  0  0
   -6.9130    5.8010  -20.4820 H   0  0  0  0  0  0  0  0  0  0  0  0
   -1.9730    3.7110  -19.4370 H   0  0  0  0  0  0  0  0  0  0  0  0
   -2.5810    4.4040  -20.9540 H   0  0  0  0  0  0  0  0  0  0  0  0
   -1.2480    5.1700  -20.0700 H   0  0  0  0  0  0  0  0  0  0  0  0
   -2.6370    7.3500  -20.1620 H   0  0  0  0  0  0  0  0  0  0  0  0
   -1.7580    7.0520  -18.6440 H   0  0  0  0  0  0  0  0  0  0  0  0
   -3.4220    7.6080  -18.6050 H   0  0  0  0  0  0  0  0  0  0  0  0
   -2.6980    4.0220  -17.6300 H   0  0  0  0  0  0  0  0  0  0  0  0
   -4.3150    4.6810  -17.4420 H   0  0  0  0  0  0  0  0  0  0  0  0
   -2.9290    5.6590  -16.9940 H   0  0  0  0  0  0  0  0  0  0  0  0
   -6.4750    5.4340  -17.0960 H   0  0  0  0  0  0  0  0  0  0  0  0
  1  2  1  0
  2  3  1  0
  2  4  1  0
  4  5  2  0
  5  6  1  0
  6  7  2  0
  7  8  1  0
  8  9  1  0
  9 10  1  0
 10 11  2  0
 10 12  1  0
 12 13  1  0
 13 14  1  0
 13 15  1  0
 13 16  1  0
  8 17  2  0
 17  4  1  0
  1 18  1  0
  1 19  1  0
  1 20  1  0
  2 21  1  0
  3 22  1  0
  3 23  1  0
  3 24  1  0
  5 25  1  0
  6 26  1  0
  7 27  1  0
  9 28  1  0
 14 29  1  0
 14 30  1  0
 14 31  1  0
 15 32  1  0
 15 33  1  0
 15 34  1  0
 16 35  1  0
 16 36  1  0
 16 37  1  0
 17 38  1  0
A    1
 C1 
A    2
 C2 
A    3
 C3 
A    4
 C4 
A    5
 C5 
A    6
 C6 
A    7
 C7 
A    8
 C8 
A    9
 N1 
A   10
 C9 
A   11
 O1 
A   12
 O2 
A   13
 C10
A   14
 C11
A   15
 C12
A   16
 C13
A   17
 C14
A   18
 H1 
A   19
 H2 
A   20
 H3 
A   21
 H4 
A   22
 H5 
A   23
 H6 
A   24
 H7 
A   25
 H8 
A   26
 H9 
A   27
 H10
A   28
 H11
A   29
 H12
A   30
 H13
A   31
 H14
A   32
 H15
A   33
 H16
A   34
 H17
A   35
 H18
A   36
 H19
A   37
 H20
A   38
 H21
M  END
>  <ref_pdb>  (226) 
x0051_0B

>  <ref_mols>  (226) 
x0089_0B,x0951_0B

>  <original SMILES>  (226) 
[H]c1c([H])c(N([H])C(=O)OC(C([H])([H])[H])(C([H])([H])[H])C([H])([H])[H])c([H])c(C([H])(C([H])([H])[H])C([H])([H])[H])c1[H]

>  <index>  (226) 
40

>  <∆∆G>  (226) 
-8.666693

>  <∆G_bound>  (226) 
-8.587464

>  <∆G_unbound>  (226) 
0.079229

>  <comRMSD>  (226) 
0.774559

>  <N_constrained_atoms>  (226) 
18.0

>  <N_unconstrained_atoms>  (226) 
1.0

>  <runtime>  (226) 
75.085996

>  <LE>  (226) 
0.456142

>  <percent_hybrid>  (226) 
42.0

>  <dist>  (226) 
8.0

>  <ecfp4>  (226) 
0.225806

>  <daylight>  (226) 
0.336207

>  <topodist>  (226) 
4.0

>  <mces>  (226) 
16.0

>  <tdn>  (226) 
3.0

>  <tup>  (226) 
1.0

>  <rdn>  (226) 
0.0

>  <rup>  (226) 
0.0

>  <ldn>  (226) 
0.0

>  <lup>  (226) 
0.0

>  <mut>  (226) 
3.0

>  <maj>  (226) 
3.0

>  <min>  (226) 
0.0

>  <hyb>  (226) 
1.0

>  <sub>  (226) 
2.0

>  <query_index>  (226) 
292.0

>  <max_hit_Tanimoto>  (226) 
0.120075

>  <largest_ring>  (226) 
0

>  <N_interactions_kept>  (226) 
2.0

>  <N_interactions_lost>  (226) 
1.5

>  <interaction_uniqueness_metric>  (226) 
0.091834

>  <ad_hoc_penalty>  (226) 
-23.215988

>  <N_rotatable_bonds>  (226) 
4

>  <N_HA>  (226) 
17

>  <cluster>  (226) 
6179

>  <N_interactions>  (226) 
7

>  <Enamine>  (226) 
1

>  <Mcule>  (226) 
0

>  <N_PAINS>  (226) 
0

>  <UFF_Gibbs>  (226) 
269.294442

>  <strain_per_HA>  (226) 
15.84085

>  <saltbridge:HIS:51>  (226) 
0

>  <pistack:HIS:51>  (226) 
0

>  <hydroph_interaction:HIS:51>  (226) 
0

>  <hbond:ALA:132>  (226) 
0

>  <hbond:SER:135>  (226) 
0

>  <hydroph_interaction:TYR:150>  (226) 
1

>  <pistack:TYR:161>  (226) 
0

>  <hydroph_interaction:TYR:161>  (226) 
4

>  <hydroph_interaction:ASP:83>  (226) 
0

>  <hbond:TYR:130>  (226) 
1

>  <hydroph_interaction:ALA:132>  (226) 
0

>  <hbond:HIS:51>  (226) 
0

>  <hbond:ASP:129>  (226) 
0

>  <hbond:TYR:150>  (226) 
0

>  <hbond:GLY:151>  (226) 
0

>  <hbond:TYR:161>  (226) 
0

>  <hydroph_interaction:TYR:130>  (226) 
0

>  <hydroph_interaction:PRO:131>  (226) 
0

>  <hydroph_interaction:ASP:129>  (226) 
0

>  <saltbridge:ASP:75>  (226) 
0

>  <saltbridge:ASP:83>  (226) 
0

>  <hydroph_interaction:ASN:152>  (226) 
0

>  <halogenbond:TYR:150>  (226) 
0

>  <hbond:ASP:83>  (226) 
0

>  <hydroph_interaction:VAL:155>  (226) 
1

>  <pication:TYR:161>  (226) 
0

>  <hbond:PRO:131>  (226) 
0

>  <hbond:LEU:128>  (226) 
0

>  <saltbridge:ASP:129>  (226) 
0

>  <hbond:THR:134>  (226) 
0

>  <pication:HIS:51>  (226) 
0

>  <hbond:SER:81>  (226) 
0

>  <hbond:GLY:159>  (226) 
0

>  <hydroph_interaction:PRO:101>  (226) 
0

>  <hydroph_interaction:THR:134>  (226) 
0

>  <hbond:GLY:82>  (226) 
0

>  <hydroph_interaction:GLU:104>  (226) 
0

>  <hydroph_interaction:VAL:36>  (226) 
0

>  <hydroph_interaction:MET:49>  (226) 
0

>  <halogenbond:GLU:104>  (226) 
0

>  <hydroph_interaction:LYS:107>  (226) 
0

$$$$
LZTQZRKNNQXRPC-UHFFFAOYSA-N
     RDKit          3D

 45 47  0  0  0  0  0  0  0  0999 V2000
   -8.5990    7.2570  -13.9090 C   0  0  0  0  0  0  0  0  0  0  0  0
   -9.1670    6.4020  -14.7970 N   0  0  0  0  0  0  0  0  0  0  0  0
   -8.5060    6.0080  -16.0540 C   0  0  0  0  0  0  0  0  0  0  0  0
   -7.1760    6.2700  -16.4390 C   0  0  0  0  0  0  0  0  0  0  0  0
   -6.6900    5.8620  -17.7070 C   0  0  0  0  0  0  0  0  0  0  0  0
   -5.4220    6.0320  -18.2680 C   0  0  0  0  0  0  0  0  0  0  0  0
   -7.6530    5.1480  -18.6050 C   0  0  0  0  0  0  0  0  0  0  0  0
   -9.0210    4.9100  -18.0890 C   0  0  0  0  0  0  0  0  0  0  0  0
   -9.9760    4.2370  -18.8910 C   0  0  0  0  0  0  0  0  0  0  0  0
   -9.3790    5.3370  -16.8570 C   0  0  0  0  0  0  0  0  0  0  0  0
   -8.1440    8.3850  -14.1030 O   0  0  0  0  0  0  0  0  0  0  0  0
   -8.6440    6.6150  -12.5980 C   0  0  0  0  0  0  0  0  0  0  0  0
   -8.5160    7.3430  -11.2700 C   0  0  0  0  0  0  0  0  0  0  0  0
   -8.5900    6.5350   -9.9650 C   0  0  0  0  0  0  0  0  0  0  0  0
   -8.7930    5.0230  -10.1010 C   0  0  0  0  0  0  0  0  0  0  0  0
   -8.8690    4.2550   -8.9700 N   0  0  0  0  0  0  0  0  0  0  0  0
   -9.1040    2.8160   -9.1230 C   0  0  0  0  0  0  0  0  0  0  0  0
   -9.7190    2.3340   -7.8200 C   0  0  0  0  0  0  0  0  0  0  0  0
   -8.9040    2.7270   -6.7170 O   0  0  0  0  0  0  0  0  0  0  0  0
   -8.7100    4.1420   -6.6670 C   0  0  0  0  0  0  0  0  0  0  0  0
   -8.1130    4.6720   -7.8060 C   0  0  0  0  0  0  0  0  0  0  0  0
   -8.9010    4.4500  -11.3650 C   0  0  0  0  0  0  0  0  0  0  0  0
   -8.8290    5.2400  -12.6430 C   0  0  0  0  0  0  0  0  0  0  0  0
  -10.0960    6.0230  -14.6760 H   0  0  0  0  0  0  0  0  0  0  0  0
   -6.4300    6.7950  -15.8320 H   0  0  0  0  0  0  0  0  0  0  0  0
   -5.3190    5.3470  -19.1170 H   0  0  0  0  0  0  0  0  0  0  0  0
   -4.6630    5.7290  -17.5390 H   0  0  0  0  0  0  0  0  0  0  0  0
   -5.1380    7.0240  -18.6080 H   0  0  0  0  0  0  0  0  0  0  0  0
   -7.3520    4.8140  -19.5980 H   0  0  0  0  0  0  0  0  0  0  0  0
   -9.8900    4.6720  -19.8960 H   0  0  0  0  0  0  0  0  0  0  0  0
  -10.9900    4.4610  -18.5350 H   0  0  0  0  0  0  0  0  0  0  0  0
   -9.8660    3.1600  -18.9580 H   0  0  0  0  0  0  0  0  0  0  0  0
  -10.3860    5.1450  -16.5200 H   0  0  0  0  0  0  0  0  0  0  0  0
   -8.3750    8.4290  -11.3300 H   0  0  0  0  0  0  0  0  0  0  0  0
   -8.5010    7.0330   -9.0030 H   0  0  0  0  0  0  0  0  0  0  0  0
   -9.8010    2.6510   -9.9520 H   0  0  0  0  0  0  0  0  0  0  0  0
   -8.2070    2.2310   -9.3500 H   0  0  0  0  0  0  0  0  0  0  0  0
  -10.6880    2.8210   -7.6880 H   0  0  0  0  0  0  0  0  0  0  0  0
   -9.9180    1.2790   -7.7070 H   0  0  0  0  0  0  0  0  0  0  0  0
   -9.6940    4.6090   -6.5180 H   0  0  0  0  0  0  0  0  0  0  0  0
   -8.0630    4.3640   -5.8080 H   0  0  0  0  0  0  0  0  0  0  0  0
   -7.0870    4.2990   -7.8980 H   0  0  0  0  0  0  0  0  0  0  0  0
   -8.0720    5.7670   -7.7390 H   0  0  0  0  0  0  0  0  0  0  0  0
   -9.0500    3.3760  -11.5320 H   0  0  0  0  0  0  0  0  0  0  0  0
   -8.9240    4.7240  -13.5990 H   0  0  0  0  0  0  0  0  0  0  0  0
  1  2  1  0
  2  3  1  0
  3  4  2  0
  4  5  1  0
  5  6  1  0
  5  7  2  0
  7  8  1  0
  8  9  1  0
  8 10  2  0
  1 11  2  0
  1 12  1  0
 12 13  2  0
 13 14  1  0
 14 15  2  0
 15 16  1  0
 16 17  1  0
 17 18  1  0
 18 19  1  0
 19 20  1  0
 20 21  1  0
 15 22  1  0
 22 23  2  0
  3 10  1  0
 23 12  1  0
 21 16  1  0
  2 24  1  0
  4 25  1  0
  6 26  1  0
  6 27  1  0
  6 28  1  0
  7 29  1  0
  9 30  1  0
  9 31  1  0
  9 32  1  0
 10 33  1  0
 13 34  1  0
 14 35  1  0
 17 36  1  0
 17 37  1  0
 18 38  1  0
 18 39  1  0
 20 40  1  0
 20 41  1  0
 21 42  1  0
 21 43  1  0
 22 44  1  0
 23 45  1  0
A    1
 C1 
A    2
 N1 
A    3
 C2 
A    4
 C3 
A    5
 C4 
A    6
 C5 
A    7
 C6 
A    8
 C7 
A    9
 C8 
A   10
 C9 
A   11
 O1 
A   12
 C10
A   13
 C11
A   14
 C12
A   15
 C13
A   16
 N2 
A   17
 C14
A   18
 C15
A   19
 O2 
A   20
 C16
A   21
 C17
A   22
 C18
A   23
 C19
A   24
 H1 
A   25
 H2 
A   26
 H3 
A   27
 H4 
A   28
 H5 
A   29
 H6 
A   30
 H7 
A   31
 H8 
A   32
 H9 
A   33
 H10
A   34
 H11
A   35
 H12
A   36
 H13
A   37
 H14
A   38
 H15
A   39
 H16
A   40
 H17
A   41
 H18
A   42
 H19
A   43
 H20
A   44
 H21
A   45
 H22
M  END
>  <ref_pdb>  (227) 
x0051_0B

>  <ref_mols>  (227) 
x0589_0B,x0404_0B

>  <original SMILES>  (227) 
[H]c1c([H])c(N2C([H])([H])C([H])([H])OC([H])([H])C2([H])[H])c([H])c([H])c1C(=O)N([H])c1c([H])c(C([H])([H])[H])c([H])c(C([H])([H])[H])c1[H]

>  <index>  (227) 
250

>  <∆∆G>  (227) 
-7.491367

>  <∆G_bound>  (227) 
-7.285484

>  <∆G_unbound>  (227) 
0.205883

>  <comRMSD>  (227) 
0.630232

>  <N_constrained_atoms>  (227) 
23.0

>  <N_unconstrained_atoms>  (227) 
0.0

>  <runtime>  (227) 
84.787927

>  <LE>  (227) 
0.325712

>  <percent_hybrid>  (227) 
35.0

>  <dist>  (227) 
6.0

>  <ecfp4>  (227) 
0.294118

>  <daylight>  (227) 
0.213904

>  <topodist>  (227) 
2.0

>  <mces>  (227) 
25.0

>  <tdn>  (227) 
1.0

>  <tup>  (227) 
0.0

>  <rdn>  (227) 
0.0

>  <rup>  (227) 
0.0

>  <ldn>  (227) 
1.0

>  <lup>  (227) 
0.0

>  <mut>  (227) 
3.0

>  <maj>  (227) 
3.0

>  <min>  (227) 
0.0

>  <hyb>  (227) 
1.0

>  <sub>  (227) 
0.0

>  <query_index>  (227) 
29.0

>  <max_hit_Tanimoto>  (227) 
0.261157

>  <largest_ring>  (227) 
0

>  <N_interactions_kept>  (227) 
2.0

>  <N_interactions_lost>  (227) 
1.5

>  <interaction_uniqueness_metric>  (227) 
0.116545

>  <ad_hoc_penalty>  (227) 
-23.141861

>  <N_rotatable_bonds>  (227) 
5

>  <N_HA>  (227) 
23

>  <cluster>  (227) 
5990

>  <N_interactions>  (227) 
6

>  <Enamine>  (227) 
0

>  <Mcule>  (227) 
1

>  <N_PAINS>  (227) 
0

>  <UFF_Gibbs>  (227) 
150.05871

>  <strain_per_HA>  (227) 
6.524292

>  <saltbridge:HIS:51>  (227) 
0

>  <pistack:HIS:51>  (227) 
1

>  <hydroph_interaction:HIS:51>  (227) 
1

>  <hbond:ALA:132>  (227) 
0

>  <hbond:SER:135>  (227) 
0

>  <hydroph_interaction:TYR:150>  (227) 
1

>  <pistack:TYR:161>  (227) 
0

>  <hydroph_interaction:TYR:161>  (227) 
2

>  <hydroph_interaction:ASP:83>  (227) 
0

>  <hbond:TYR:130>  (227) 
0

>  <hydroph_interaction:ALA:132>  (227) 
1

>  <hbond:HIS:51>  (227) 
0

>  <hbond:ASP:129>  (227) 
0

>  <hbond:TYR:150>  (227) 
0

>  <hbond:GLY:151>  (227) 
0

>  <hbond:TYR:161>  (227) 
0

>  <hydroph_interaction:TYR:130>  (227) 
0

>  <hydroph_interaction:PRO:131>  (227) 
0

>  <hydroph_interaction:ASP:129>  (227) 
0

>  <saltbridge:ASP:75>  (227) 
0

>  <saltbridge:ASP:83>  (227) 
0

>  <hydroph_interaction:ASN:152>  (227) 
0

>  <halogenbond:TYR:150>  (227) 
0

>  <hbond:ASP:83>  (227) 
0

>  <hydroph_interaction:VAL:155>  (227) 
0

>  <pication:TYR:161>  (227) 
0

>  <hbond:PRO:131>  (227) 
0

>  <hbond:LEU:128>  (227) 
0

>  <saltbridge:ASP:129>  (227) 
0

>  <hbond:THR:134>  (227) 
0

>  <pication:HIS:51>  (227) 
0

>  <hbond:SER:81>  (227) 
0

>  <hbond:GLY:159>  (227) 
0

>  <hydroph_interaction:PRO:101>  (227) 
0

>  <hydroph_interaction:THR:134>  (227) 
0

>  <hbond:GLY:82>  (227) 
0

>  <hydroph_interaction:GLU:104>  (227) 
0

>  <hydroph_interaction:VAL:36>  (227) 
0

>  <hydroph_interaction:MET:49>  (227) 
0

>  <halogenbond:GLU:104>  (227) 
0

>  <hydroph_interaction:LYS:107>  (227) 
0

$$$$
Z1256088212
     RDKit          3D

 49 52  0  0  0  0  0  0  0  0999 V2000
   -9.6420    4.4960  -18.3560 N   0  0  0  0  0  0  0  0  0  0  0  0
   -8.7010    4.9240  -17.5620 C   0  0  0  0  0  0  0  0  0  0  0  0
   -8.6910    4.6240  -16.3850 O   0  0  0  0  0  0  0  0  0  0  0  0
   -7.8340    5.7120  -18.2440 N   0  0  0  0  0  0  0  0  0  0  0  0
   -6.4710    5.5660  -18.4870 C   0  0  0  0  0  0  0  0  0  0  0  0
   -5.5710    5.2000  -17.4980 C   0  0  0  0  0  0  0  0  0  0  0  0
   -4.2080    5.0610  -17.7380 C   0  0  0  0  0  0  0  0  0  0  0  0
   -3.6740    5.2920  -19.0030 C   0  0  0  0  0  0  0  0  0  0  0  0
   -4.5750    5.6620  -19.9920 C   0  0  0  0  0  0  0  0  0  0  0  0
   -4.0890    5.9290  -21.3240 N   0  0  0  0  0  0  0  0  0  0  0  0
   -5.2040    6.0780  -22.1040 C   0  0  0  0  0  0  0  0  0  0  0  0
   -6.0110    5.2070  -22.3680 O   0  0  0  0  0  0  0  0  0  0  0  0
   -5.4400    7.3270  -22.6300 C   0  0  0  0  0  0  0  0  0  0  0  0
   -6.1440    7.3380  -23.7990 C   0  0  0  0  0  0  0  0  0  0  0  0
   -6.4080    8.5370  -24.3760 C   0  0  0  0  0  0  0  0  0  0  0  0
   -5.9800    9.7300  -23.8140 C   0  0  0  0  0  0  0  0  0  0  0  0
   -6.4260   11.1570  -24.7560 S   0  0  0  0  0  0  0  0  0  0  0  0
   -6.1420   10.4490  -26.4270 C   0  0  0  0  0  0  0  0  0  0  0  0
   -7.2730    9.7660  -26.9040 C   0  0  0  0  0  0  0  0  0  0  0  0
   -7.3450    8.4870  -27.2430 N   0  0  0  0  0  0  0  0  0  0  0  0
   -8.6440    8.2700  -27.6330 C   0  0  0  0  0  0  0  0  0  0  0  0
   -9.3120    6.9930  -28.1110 C   0  0  0  0  0  0  0  0  0  0  0  0
  -10.6770    7.0690  -28.4350 C   0  0  0  0  0  0  0  0  0  0  0  0
  -11.3870    8.2570  -28.3270 C   0  0  0  0  0  0  0  0  0  0  0  0
  -10.7090    9.5520  -27.8480 C   0  0  0  0  0  0  0  0  0  0  0  0
   -9.3680    9.4500  -27.5340 C   0  0  0  0  0  0  0  0  0  0  0  0
   -8.4660   10.3690  -27.0780 N   0  0  0  0  0  0  0  0  0  0  0  0
   -5.2620    9.7300  -22.6130 C   0  0  0  0  0  0  0  0  0  0  0  0
   -4.9850    8.5040  -22.0070 C   0  0  0  0  0  0  0  0  0  0  0  0
   -5.9500    5.7950  -19.7480 C   0  0  0  0  0  0  0  0  0  0  0  0
  -10.5950    4.6900  -18.0800 H   0  0  0  0  0  0  0  0  0  0  0  0
   -9.4790    4.6620  -19.3410 H   0  0  0  0  0  0  0  0  0  0  0  0
   -8.3040    6.2410  -18.9650 H   0  0  0  0  0  0  0  0  0  0  0  0
   -5.9540    5.0110  -16.4850 H   0  0  0  0  0  0  0  0  0  0  0  0
   -3.5370    4.7660  -16.9240 H   0  0  0  0  0  0  0  0  0  0  0  0
   -2.6050    5.1800  -19.1680 H   0  0  0  0  0  0  0  0  0  0  0  0
   -3.5340    5.1330  -21.6670 H   0  0  0  0  0  0  0  0  0  0  0  0
   -6.4790    6.4050  -24.2440 H   0  0  0  0  0  0  0  0  0  0  0  0
   -6.9680    8.5450  -25.3050 H   0  0  0  0  0  0  0  0  0  0  0  0
   -5.3070    9.7420  -26.3650 H   0  0  0  0  0  0  0  0  0  0  0  0
   -5.7650   11.2730  -27.0290 H   0  0  0  0  0  0  0  0  0  0  0  0
   -8.7510    6.0660  -28.1930 H   0  0  0  0  0  0  0  0  0  0  0  0
  -11.1900    6.1720  -28.7790 H   0  0  0  0  0  0  0  0  0  0  0  0
  -12.4450    8.2780  -28.5860 H   0  0  0  0  0  0  0  0  0  0  0  0
  -11.2590   10.4830  -27.7630 H   0  0  0  0  0  0  0  0  0  0  0  0
   -8.6590   11.3430  -26.8910 H   0  0  0  0  0  0  0  0  0  0  0  0
   -4.9130   10.6460  -22.1440 H   0  0  0  0  0  0  0  0  0  0  0  0
   -4.4270    8.4660  -21.0730 H   0  0  0  0  0  0  0  0  0  0  0  0
   -6.6060    6.0870  -20.5610 H   0  0  0  0  0  0  0  0  0  0  0  0
  1  2  1  0
  2  3  2  0
  2  4  1  0
  4  5  1  0
  5  6  2  0
  6  7  1  0
  7  8  2  0
  8  9  1  0
  9 10  1  0
 10 11  1  0
 11 12  2  0
 11 13  1  0
 13 14  2  0
 14 15  1  0
 15 16  2  0
 16 17  1  0
 17 18  1  0
 18 19  1  0
 19 20  2  0
 20 21  1  0
 21 22  2  0
 22 23  1  0
 23 24  2  0
 24 25  1  0
 25 26  2  0
 26 27  1  0
 16 28  1  0
 28 29  2  0
  9 30  2  0
 30  5  1  0
 29 13  1  0
 27 19  1  0
 26 21  1  0
  1 31  1  0
  1 32  1  0
  4 33  1  0
  6 34  1  0
  7 35  1  0
  8 36  1  0
 10 37  1  0
 14 38  1  0
 15 39  1  0
 18 40  1  0
 18 41  1  0
 22 42  1  0
 23 43  1  0
 24 44  1  0
 25 45  1  0
 27 46  1  0
 28 47  1  0
 29 48  1  0
 30 49  1  0
A    1
 N1 
A    2
 C1 
A    3
 O1 
A    4
 N2 
A    5
 C2 
A    6
 C3 
A    7
 C4 
A    8
 C5 
A    9
 C6 
A   10
 N3 
A   11
 C7 
A   12
 O2 
A   13
 C8 
A   14
 C9 
A   15
 C10
A   16
 C11
A   17
 S1 
A   18
 C12
A   19
 C13
A   20
 N4 
A   21
 C14
A   22
 C15
A   23
 C16
A   24
 C17
A   25
 C18
A   26
 C19
A   27
 N5 
A   28
 C20
A   29
 C21
A   30
 C22
A   31
 H1 
A   32
 H2 
A   33
 H3 
A   34
 H4 
A   35
 H5 
A   36
 H6 
A   37
 H7 
A   38
 H8 
A   39
 H9 
A   40
 H10
A   41
 H11
A   42
 H12
A   43
 H13
A   44
 H14
A   45
 H15
A   46
 H16
A   47
 H17
A   48
 H18
A   49
 H19
M  END
>  <ref_pdb>  (228) 
x0051_0B

>  <ref_mols>  (228) 
x0846_1B,x0680_0B

>  <original SMILES>  (228) 
[H]c1c([H])c(N([H])C(=O)c2c([H])c([H])c(SC([H])([H])c3nc4c([H])c([H])c([H])c([H])c4n3[H])c([H])c2[H])c([H])c(N([H])C(=O)N([H])[H])c1[H]

>  <index>  (228) 
287

>  <∆∆G>  (228) 
-7.540854

>  <∆G_bound>  (228) 
-6.744474

>  <∆G_unbound>  (228) 
0.79638

>  <comRMSD>  (228) 
0.650011

>  <N_constrained_atoms>  (228) 
29.0

>  <N_unconstrained_atoms>  (228) 
2.0

>  <runtime>  (228) 
46.538776

>  <LE>  (228) 
0.243253

>  <percent_hybrid>  (228) 
38.0

>  <dist>  (228) 
8.0

>  <ecfp4>  (228) 
0.22093

>  <daylight>  (228) 
0.422111

>  <topodist>  (228) 
4.0

>  <mces>  (228) 
31.0

>  <tdn>  (228) 
2.0

>  <tup>  (228) 
1.0

>  <rdn>  (228) 
0.0

>  <rup>  (228) 
0.0

>  <ldn>  (228) 
0.0

>  <lup>  (228) 
1.0

>  <mut>  (228) 
4.0

>  <maj>  (228) 
4.0

>  <min>  (228) 
0.0

>  <hyb>  (228) 
0.0

>  <sub>  (228) 
2.0

>  <query_index>  (228) 
100.0

>  <max_hit_Tanimoto>  (228) 
0.3137

>  <largest_ring>  (228) 
0

>  <N_interactions_kept>  (228) 
1.5

>  <N_interactions_lost>  (228) 
2.5

>  <interaction_uniqueness_metric>  (228) 
0.281715

>  <ad_hoc_penalty>  (228) 
-23.105284

>  <N_rotatable_bonds>  (228) 
6

>  <N_HA>  (228) 
30

>  <cluster>  (228) 
5955

>  <N_interactions>  (228) 
8

>  <Enamine>  (228) 
1

>  <Mcule>  (228) 
0

>  <N_PAINS>  (228) 
0

>  <UFF_Gibbs>  (228) 
217.958107

>  <strain_per_HA>  (228) 
7.26527

>  <saltbridge:HIS:51>  (228) 
0

>  <pistack:HIS:51>  (228) 
0

>  <hydroph_interaction:HIS:51>  (228) 
0

>  <hbond:ALA:132>  (228) 
0

>  <hbond:SER:135>  (228) 
0

>  <hydroph_interaction:TYR:150>  (228) 
0

>  <pistack:TYR:161>  (228) 
1

>  <hydroph_interaction:TYR:161>  (228) 
1

>  <hydroph_interaction:ASP:83>  (228) 
0

>  <hbond:TYR:130>  (228) 
2

>  <hydroph_interaction:ALA:132>  (228) 
0

>  <hbond:HIS:51>  (228) 
0

>  <hbond:ASP:129>  (228) 
1

>  <hbond:TYR:150>  (228) 
1

>  <hbond:GLY:151>  (228) 
0

>  <hbond:TYR:161>  (228) 
0

>  <hydroph_interaction:TYR:130>  (228) 
1

>  <hydroph_interaction:PRO:131>  (228) 
1

>  <hydroph_interaction:ASP:129>  (228) 
0

>  <saltbridge:ASP:75>  (228) 
0

>  <saltbridge:ASP:83>  (228) 
0

>  <hydroph_interaction:ASN:152>  (228) 
0

>  <halogenbond:TYR:150>  (228) 
0

>  <hbond:ASP:83>  (228) 
0

>  <hydroph_interaction:VAL:155>  (228) 
0

>  <pication:TYR:161>  (228) 
0

>  <hbond:PRO:131>  (228) 
0

>  <hbond:LEU:128>  (228) 
0

>  <saltbridge:ASP:129>  (228) 
0

>  <hbond:THR:134>  (228) 
0

>  <pication:HIS:51>  (228) 
0

>  <hbond:SER:81>  (228) 
0

>  <hbond:GLY:159>  (228) 
0

>  <hydroph_interaction:PRO:101>  (228) 
0

>  <hydroph_interaction:THR:134>  (228) 
0

>  <hbond:GLY:82>  (228) 
0

>  <hydroph_interaction:GLU:104>  (228) 
0

>  <hydroph_interaction:VAL:36>  (228) 
0

>  <hydroph_interaction:MET:49>  (228) 
0

>  <halogenbond:GLU:104>  (228) 
0

>  <hydroph_interaction:LYS:107>  (228) 
0

$$$$
MCULE-2382032794
     RDKit          3D

 50 54  0  0  0  0  0  0  0  0999 V2000
   -6.0000    5.8500  -19.6930 C   0  0  0  0  0  0  0  0  0  0  0  0
   -5.8440    6.6120  -20.9510 C   0  0  0  0  0  0  0  0  0  0  0  0
   -5.9160    6.1840  -22.3970 C   0  0  0  0  0  0  0  0  0  0  0  0
   -5.7710    7.1470  -23.4380 C   0  0  0  0  0  0  0  0  0  0  0  0
   -5.5500    8.4760  -23.0380 C   0  0  0  0  0  0  0  0  0  0  0  0
   -5.4810    8.8250  -21.7170 C   0  0  0  0  0  0  0  0  0  0  0  0
   -5.6210    7.9410  -20.7100 C   0  0  0  0  0  0  0  0  0  0  0  0
   -5.3570    9.6310  -23.9320 C   0  0  0  0  0  0  0  0  0  0  0  0
   -4.3370   10.2800  -23.7620 O   0  0  0  0  0  0  0  0  0  0  0  0
   -6.2980    9.9890  -24.8470 N   0  0  0  0  0  0  0  0  0  0  0  0
   -6.0500    9.9110  -26.2650 C   0  0  0  0  0  0  0  0  0  0  0  0
   -7.3620    9.4320  -26.8640 C   0  0  0  0  0  0  0  0  0  0  0  0
   -7.5190    8.1100  -27.2390 N   0  0  0  0  0  0  0  0  0  0  0  0
   -8.7860    7.9350  -27.7060 C   0  0  0  0  0  0  0  0  0  0  0  0
   -9.3610    9.3170  -27.5730 C   0  0  0  0  0  0  0  0  0  0  0  0
  -10.8070    9.4810  -28.0020 C   0  0  0  0  0  0  0  0  0  0  0  0
  -11.4430    8.3200  -28.4770 C   0  0  0  0  0  0  0  0  0  0  0  0
  -10.8150    7.0690  -28.5700 C   0  0  0  0  0  0  0  0  0  0  0  0
   -9.4890    6.8470  -28.1930 C   0  0  0  0  0  0  0  0  0  0  0  0
   -8.4370   10.1740  -27.0660 N   0  0  0  0  0  0  0  0  0  0  0  0
   -6.9820    4.8900  -19.6910 O   0  0  0  0  0  0  0  0  0  0  0  0
   -7.7200    4.9470  -18.5560 C   0  0  0  0  0  0  0  0  0  0  0  0
   -9.1600    4.7310  -18.6310 C   0  0  0  0  0  0  0  0  0  0  0  0
   -9.8950    4.8170  -17.4560 C   0  0  0  0  0  0  0  0  0  0  0  0
   -9.2570    5.1050  -16.2270 C   0  0  0  0  0  0  0  0  0  0  0  0
   -7.8740    5.2960  -16.1810 C   0  0  0  0  0  0  0  0  0  0  0  0
   -7.1220    5.2170  -17.3400 C   0  0  0  0  0  0  0  0  0  0  0  0
   -5.6660    5.4270  -17.3600 C   0  0  0  0  0  0  0  0  0  0  0  0
   -4.8870    5.0990  -16.4740 O   0  0  0  0  0  0  0  0  0  0  0  0
   -5.2880    6.1400  -18.5850 C   0  0  0  0  0  0  0  0  0  0  0  0
  -10.0000    5.2280  -14.9330 C   0  0  0  0  0  0  0  0  0  0  0  0
   -6.0900    5.1440  -22.6610 H   0  0  0  0  0  0  0  0  0  0  0  0
   -5.8220    6.8840  -24.4850 H   0  0  0  0  0  0  0  0  0  0  0  0
   -5.3070    9.8620  -21.4360 H   0  0  0  0  0  0  0  0  0  0  0  0
   -5.5590    8.3030  -19.6850 H   0  0  0  0  0  0  0  0  0  0  0  0
   -7.1290   10.4850  -24.5660 H   0  0  0  0  0  0  0  0  0  0  0  0
   -5.7900   10.9090  -26.6410 H   0  0  0  0  0  0  0  0  0  0  0  0
   -5.2290    9.2170  -26.4860 H   0  0  0  0  0  0  0  0  0  0  0  0
   -6.7960    7.4010  -27.1590 H   0  0  0  0  0  0  0  0  0  0  0  0
  -11.3120   10.4380  -27.9420 H   0  0  0  0  0  0  0  0  0  0  0  0
  -12.4810    8.4020  -28.7910 H   0  0  0  0  0  0  0  0  0  0  0  0
  -11.3910    6.2280  -28.9540 H   0  0  0  0  0  0  0  0  0  0  0  0
   -9.0360    5.8640  -28.2740 H   0  0  0  0  0  0  0  0  0  0  0  0
   -9.6410    4.5150  -19.5780 H   0  0  0  0  0  0  0  0  0  0  0  0
  -10.9660    4.6630  -17.5050 H   0  0  0  0  0  0  0  0  0  0  0  0
   -7.3840    5.5140  -15.2340 H   0  0  0  0  0  0  0  0  0  0  0  0
   -4.5090    6.8880  -18.5170 H   0  0  0  0  0  0  0  0  0  0  0  0
   -9.3490    4.9870  -14.0870 H   0  0  0  0  0  0  0  0  0  0  0  0
  -10.3570    6.2530  -14.7850 H   0  0  0  0  0  0  0  0  0  0  0  0
  -10.8530    4.5510  -14.9150 H   0  0  0  0  0  0  0  0  0  0  0  0
  1  2  1  0
  2  3  2  0
  3  4  1  0
  4  5  2  0
  5  6  1  0
  6  7  2  0
  5  8  1  0
  8  9  2  0
  8 10  1  0
 10 11  1  0
 11 12  1  0
 12 13  1  0
 13 14  1  0
 14 15  2  0
 15 16  1  0
 16 17  2  0
 17 18  1  0
 18 19  2  0
 15 20  1  0
  1 21  1  0
 21 22  1  0
 22 23  2  0
 23 24  1  0
 24 25  2  0
 25 26  1  0
 26 27  2  0
 27 28  1  0
 28 29  2  0
 28 30  1  0
 25 31  1  0
  1 30  2  0
  2  7  1  0
 12 20  2  0
 14 19  1  0
 27 22  1  0
  3 32  1  0
  4 33  1  0
  6 34  1  0
  7 35  1  0
 10 36  1  0
 11 37  1  0
 11 38  1  0
 13 39  1  0
 16 40  1  0
 17 41  1  0
 18 42  1  0
 19 43  1  0
 23 44  1  0
 24 45  1  0
 26 46  1  0
 30 47  1  0
 31 48  1  0
 31 49  1  0
 31 50  1  0
A    1
 C1 
A    2
 C2 
A    3
 C3 
A    4
 C4 
A    5
 C5 
A    6
 C6 
A    7
 C7 
A    8
 C8 
A    9
 O1 
A   10
 N1 
A   11
 C9 
A   12
 C10
A   13
 N2 
A   14
 C11
A   15
 C12
A   16
 C13
A   17
 C14
A   18
 C15
A   19
 C16
A   20
 N3 
A   21
 O2 
A   22
 C17
A   23
 C18
A   24
 C19
A   25
 C20
A   26
 C21
A   27
 C22
A   28
 C23
A   29
 O3 
A   30
 C24
A   31
 C25
A   32
 H1 
A   33
 H2 
A   34
 H3 
A   35
 H4 
A   36
 H5 
A   37
 H6 
A   38
 H7 
A   39
 H8 
A   40
 H9 
A   41
 H10
A   42
 H11
A   43
 H12
A   44
 H13
A   45
 H14
A   46
 H15
A   47
 H16
A   48
 H17
A   49
 H18
A   50
 H19
M  END
>  <ref_pdb>  (229) 
x0051_0B

>  <ref_mols>  (229) 
x0727_0B,x0846_1B

>  <original SMILES>  (229) 
[H]c1c([H])c(-c2oc3c([H])c([H])c(C([H])([H])[H])c([H])c3c(=O)c2[H])c([H])c([H])c1C(=O)N([H])C([H])([H])c1nc2c([H])c([H])c([H])c([H])c2n1[H]

>  <index>  (229) 
361

>  <∆∆G>  (229) 
-9.925197

>  <∆G_bound>  (229) 
-8.869173

>  <∆G_unbound>  (229) 
1.056024

>  <comRMSD>  (229) 
0.837199

>  <N_constrained_atoms>  (229) 
29.0

>  <N_unconstrained_atoms>  (229) 
3.0

>  <runtime>  (229) 
57.475952

>  <LE>  (229) 
0.310162

>  <percent_hybrid>  (229) 
38.0

>  <dist>  (229) 
11.0

>  <ecfp4>  (229) 
0.206186

>  <daylight>  (229) 
0.375

>  <topodist>  (229) 
7.0

>  <mces>  (229) 
32.0

>  <tdn>  (229) 
2.0

>  <tup>  (229) 
2.0

>  <rdn>  (229) 
0.0

>  <rup>  (229) 
0.0

>  <ldn>  (229) 
2.0

>  <lup>  (229) 
1.0

>  <mut>  (229) 
3.0

>  <maj>  (229) 
3.0

>  <min>  (229) 
0.0

>  <hyb>  (229) 
1.0

>  <sub>  (229) 
2.0

>  <query_index>  (229) 
15.0

>  <max_hit_Tanimoto>  (229) 
0.275622

>  <largest_ring>  (229) 
0

>  <N_interactions_kept>  (229) 
1.0

>  <N_interactions_lost>  (229) 
2.0

>  <interaction_uniqueness_metric>  (229) 
0.166787

>  <ad_hoc_penalty>  (229) 
-23.08654

>  <N_rotatable_bonds>  (229) 
5

>  <N_HA>  (229) 
31

>  <cluster>  (229) 
5888

>  <N_interactions>  (229) 
5

>  <Enamine>  (229) 
0

>  <Mcule>  (229) 
1

>  <N_PAINS>  (229) 
0

>  <UFF_Gibbs>  (229) 
142.612817

>  <strain_per_HA>  (229) 
4.600413

>  <saltbridge:HIS:51>  (229) 
0

>  <pistack:HIS:51>  (229) 
0

>  <hydroph_interaction:HIS:51>  (229) 
0

>  <hbond:ALA:132>  (229) 
0

>  <hbond:SER:135>  (229) 
0

>  <hydroph_interaction:TYR:150>  (229) 
1

>  <pistack:TYR:161>  (229) 
0

>  <hydroph_interaction:TYR:161>  (229) 
1

>  <hydroph_interaction:ASP:83>  (229) 
0

>  <hbond:TYR:130>  (229) 
0

>  <hydroph_interaction:ALA:132>  (229) 
0

>  <hbond:HIS:51>  (229) 
0

>  <hbond:ASP:129>  (229) 
0

>  <hbond:TYR:150>  (229) 
0

>  <hbond:GLY:151>  (229) 
0

>  <hbond:TYR:161>  (229) 
0

>  <hydroph_interaction:TYR:130>  (229) 
1

>  <hydroph_interaction:PRO:131>  (229) 
1

>  <hydroph_interaction:ASP:129>  (229) 
1

>  <saltbridge:ASP:75>  (229) 
0

>  <saltbridge:ASP:83>  (229) 
0

>  <hydroph_interaction:ASN:152>  (229) 
0

>  <halogenbond:TYR:150>  (229) 
0

>  <hbond:ASP:83>  (229) 
0

>  <hydroph_interaction:VAL:155>  (229) 
0

>  <pication:TYR:161>  (229) 
0

>  <hbond:PRO:131>  (229) 
0

>  <hbond:LEU:128>  (229) 
0

>  <saltbridge:ASP:129>  (229) 
0

>  <hbond:THR:134>  (229) 
0

>  <pication:HIS:51>  (229) 
0

>  <hbond:SER:81>  (229) 
0

>  <hbond:GLY:159>  (229) 
0

>  <hydroph_interaction:PRO:101>  (229) 
0

>  <hydroph_interaction:THR:134>  (229) 
0

>  <hbond:GLY:82>  (229) 
0

>  <hydroph_interaction:GLU:104>  (229) 
0

>  <hydroph_interaction:VAL:36>  (229) 
0

>  <hydroph_interaction:MET:49>  (229) 
0

>  <halogenbond:GLU:104>  (229) 
0

>  <hydroph_interaction:LYS:107>  (229) 
0

$$$$
MCULE-3376179866
     RDKit          3D

 21 22  0  0  0  0  0  0  0  0999 V2000
  -11.1880    4.8980  -18.8000 C   0  0  0  0  0  0  0  0  0  0  0  0
   -9.7940    4.8900  -18.3850 C   0  0  0  0  0  0  0  0  0  0  0  0
   -9.5160    4.7540  -17.0480 O   0  0  0  0  0  0  0  0  0  0  0  0
   -8.1670    4.8410  -17.0050 C   0  0  0  0  0  0  0  0  0  0  0  0
   -7.7330    5.0160  -18.2970 C   0  0  0  0  0  0  0  0  0  0  0  0
   -6.4180    5.1670  -18.6940 C   0  0  0  0  0  0  0  0  0  0  0  0
   -5.3720    5.2600  -17.7750 C   0  0  0  0  0  0  0  0  0  0  0  0
   -4.0450    5.4070  -18.1510 C   0  0  0  0  0  0  0  0  0  0  0  0
   -3.7260    5.4670  -19.5030 C   0  0  0  0  0  0  0  0  0  0  0  0
   -4.7710    5.3800  -20.4290 C   0  0  0  0  0  0  0  0  0  0  0  0
   -6.1060    5.2320  -20.0490 C   0  0  0  0  0  0  0  0  0  0  0  0
   -8.7730    5.0320  -19.1650 N   0  0  0  0  0  0  0  0  0  0  0  0
  -11.8260    4.0580  -18.6110 H   0  0  0  0  0  0  0  0  0  0  0  0
  -11.2380    5.1090  -19.8680 H   0  0  0  0  0  0  0  0  0  0  0  0
  -11.6530    5.7150  -18.2960 H   0  0  0  0  0  0  0  0  0  0  0  0
   -7.7010    4.7650  -16.0170 H   0  0  0  0  0  0  0  0  0  0  0  0
   -5.6270    5.2120  -16.7150 H   0  0  0  0  0  0  0  0  0  0  0  0
   -3.3180    5.4660  -17.3340 H   0  0  0  0  0  0  0  0  0  0  0  0
   -2.6890    5.5810  -19.8390 H   0  0  0  0  0  0  0  0  0  0  0  0
   -4.5660    5.4250  -21.5030 H   0  0  0  0  0  0  0  0  0  0  0  0
   -6.8810    5.1680  -20.8080 H   0  0  0  0  0  0  0  0  0  0  0  0
  1  2  1  0
  2  3  1  0
  3  4  1  0
  4  5  2  0
  5  6  1  0
  6  7  2  0
  7  8  1  0
  8  9  2  0
  9 10  1  0
 10 11  2  0
  5 12  1  0
  2 12  2  0
  6 11  1  0
  1 13  1  0
  1 14  1  0
  1 15  1  0
  4 16  1  0
  7 17  1  0
  8 18  1  0
  9 19  1  0
 10 20  1  0
 11 21  1  0
A    1
 C1 
A    2
 C2 
A    3
 O1 
A    4
 C3 
A    5
 C4 
A    6
 C5 
A    7
 C6 
A    8
 C7 
A    9
 C8 
A   10
 C9 
A   11
 C10
A   12
 N1 
A   13
 H1 
A   14
 H2 
A   15
 H3 
A   16
 H4 
A   17
 H5 
A   18
 H6 
A   19
 H7 
A   20
 H8 
A   21
 H9 
M  END
>  <ref_pdb>  (230) 
x0051_0B

>  <ref_mols>  (230) 
x0680_0B,x0386_0B

>  <original SMILES>  (230) 
[H]c1oc(C([H])([H])[H])nc1-c1c([H])c([H])c([H])c([H])c1[H]

>  <index>  (230) 
452

>  <∆∆G>  (230) 
-6.036307

>  <∆G_bound>  (230) 
-6.037854

>  <∆G_unbound>  (230) 
-0.001547

>  <comRMSD>  (230) 
0.860856

>  <N_constrained_atoms>  (230) 
13.0

>  <N_unconstrained_atoms>  (230) 
1.0

>  <runtime>  (230) 
33.164353

>  <LE>  (230) 
0.431165

>  <percent_hybrid>  (230) 
25.0

>  <dist>  (230) 
3.0

>  <ecfp4>  (230) 
0.208333

>  <daylight>  (230) 
0.483051

>  <topodist>  (230) 
2.0

>  <mces>  (230) 
12.0

>  <tdn>  (230) 
1.0

>  <tup>  (230) 
1.0

>  <rdn>  (230) 
0.0

>  <rup>  (230) 
0.0

>  <ldn>  (230) 
0.0

>  <lup>  (230) 
0.0

>  <mut>  (230) 
1.0

>  <maj>  (230) 
1.0

>  <min>  (230) 
0.0

>  <hyb>  (230) 
0.0

>  <sub>  (230) 
2.0

>  <query_index>  (230) 
296.0

>  <max_hit_Tanimoto>  (230) 
0.142466

>  <largest_ring>  (230) 
0

>  <N_interactions_kept>  (230) 
3.0

>  <N_interactions_lost>  (230) 
1.0

>  <interaction_uniqueness_metric>  (230) 
0.031789

>  <ad_hoc_penalty>  (230) 
-23.031505

>  <N_rotatable_bonds>  (230) 
2

>  <N_HA>  (230) 
12

>  <cluster>  (230) 
5808

>  <N_interactions>  (230) 
4

>  <Enamine>  (230) 
0

>  <Mcule>  (230) 
1

>  <N_PAINS>  (230) 
0

>  <UFF_Gibbs>  (230) 
23.467874

>  <strain_per_HA>  (230) 
1.955656

>  <saltbridge:HIS:51>  (230) 
0

>  <pistack:HIS:51>  (230) 
0

>  <hydroph_interaction:HIS:51>  (230) 
0

>  <hbond:ALA:132>  (230) 
0

>  <hbond:SER:135>  (230) 
0

>  <hydroph_interaction:TYR:150>  (230) 
1

>  <pistack:TYR:161>  (230) 
0

>  <hydroph_interaction:TYR:161>  (230) 
3

>  <hydroph_interaction:ASP:83>  (230) 
0

>  <hbond:TYR:130>  (230) 
0

>  <hydroph_interaction:ALA:132>  (230) 
0

>  <hbond:HIS:51>  (230) 
0

>  <hbond:ASP:129>  (230) 
0

>  <hbond:TYR:150>  (230) 
0

>  <hbond:GLY:151>  (230) 
0

>  <hbond:TYR:161>  (230) 
0

>  <hydroph_interaction:TYR:130>  (230) 
0

>  <hydroph_interaction:PRO:131>  (230) 
0

>  <hydroph_interaction:ASP:129>  (230) 
0

>  <saltbridge:ASP:75>  (230) 
0

>  <saltbridge:ASP:83>  (230) 
0

>  <hydroph_interaction:ASN:152>  (230) 
0

>  <halogenbond:TYR:150>  (230) 
0

>  <hbond:ASP:83>  (230) 
0

>  <hydroph_interaction:VAL:155>  (230) 
0

>  <pication:TYR:161>  (230) 
0

>  <hbond:PRO:131>  (230) 
0

>  <hbond:LEU:128>  (230) 
0

>  <saltbridge:ASP:129>  (230) 
0

>  <hbond:THR:134>  (230) 
0

>  <pication:HIS:51>  (230) 
0

>  <hbond:SER:81>  (230) 
0

>  <hbond:GLY:159>  (230) 
0

>  <hydroph_interaction:PRO:101>  (230) 
0

>  <hydroph_interaction:THR:134>  (230) 
0

>  <hbond:GLY:82>  (230) 
0

>  <hydroph_interaction:GLU:104>  (230) 
0

>  <hydroph_interaction:VAL:36>  (230) 
0

>  <hydroph_interaction:MET:49>  (230) 
0

>  <halogenbond:GLU:104>  (230) 
0

>  <hydroph_interaction:LYS:107>  (230) 
0

$$$$
Z4637359160
     RDKit          3D

 41 43  0  0  0  0  0  0  0  0999 V2000
  -11.2540    5.5180  -19.2940 C   0  0  0  0  0  0  0  0  0  0  0  0
  -10.8230    4.6350  -18.1630 C   0  0  0  0  0  0  0  0  0  0  0  0
   -9.4300    4.8530  -17.8560 C   0  0  0  0  0  0  0  0  0  0  0  0
   -8.4650    5.1000  -18.8140 C   0  0  0  0  0  0  0  0  0  0  0  0
   -7.0400    5.3130  -18.3410 C   0  0  0  0  0  0  0  0  0  0  0  0
   -6.7920    5.2230  -16.8360 C   0  0  0  0  0  0  0  0  0  0  0  0
   -5.4980    5.3960  -16.3460 C   0  0  0  0  0  0  0  0  0  0  0  0
   -7.8630    4.9590  -15.9620 C   0  0  0  0  0  0  0  0  0  0  0  0
   -7.6040    4.8530  -14.5620 N   0  0  0  0  0  0  0  0  0  0  0  0
   -7.9460    5.7210  -13.4940 C   0  0  0  0  0  0  0  0  0  0  0  0
   -7.6720    6.9190  -13.4590 O   0  0  0  0  0  0  0  0  0  0  0  0
   -8.7030    5.0660  -12.3420 C   0  0  0  0  0  0  0  0  0  0  0  0
   -8.7460    5.3970  -10.8590 C   0  0  0  0  0  0  0  0  0  0  0  0
   -8.9090    4.2910   -9.8440 C   0  0  0  0  0  0  0  0  0  0  0  0
   -9.0250    2.9400  -10.0860 C   0  0  0  0  0  0  0  0  0  0  0  0
   -8.7950    2.2620   -8.8900 C   0  0  0  0  0  0  0  0  0  0  0  0
   -9.4270    2.7230   -7.7250 C   0  0  0  0  0  0  0  0  0  0  0  0
   -9.0700    4.0600   -7.4180 C   0  0  0  0  0  0  0  0  0  0  0  0
   -8.9200    4.8490   -8.6310 N   0  0  0  0  0  0  0  0  0  0  0  0
   -8.7800    6.2020   -8.6780 N   0  0  0  0  0  0  0  0  0  0  0  0
   -8.6790    6.5370  -10.0070 C   0  0  0  0  0  0  0  0  0  0  0  0
   -9.1380    4.7900  -16.4950 C   0  0  0  0  0  0  0  0  0  0  0  0
  -10.4450    5.5900  -20.0310 H   0  0  0  0  0  0  0  0  0  0  0  0
   -8.7100    5.1460  -19.8700 H   0  0  0  0  0  0  0  0  0  0  0  0
   -6.2450    5.5140  -19.0530 H   0  0  0  0  0  0  0  0  0  0  0  0
   -4.7720    5.2110  -17.1460 H   0  0  0  0  0  0  0  0  0  0  0  0
   -5.1760    4.7740  -15.5130 H   0  0  0  0  0  0  0  0  0  0  0  0
   -5.3720    6.4460  -16.0550 H   0  0  0  0  0  0  0  0  0  0  0  0
   -7.4760    3.8740  -14.2870 H   0  0  0  0  0  0  0  0  0  0  0  0
   -8.4390    4.0030  -12.3670 H   0  0  0  0  0  0  0  0  0  0  0  0
   -9.7360    5.0880  -12.6980 H   0  0  0  0  0  0  0  0  0  0  0  0
   -8.3090    2.6080  -10.8460 H   0  0  0  0  0  0  0  0  0  0  0  0
  -10.0360    2.7180  -10.4540 H   0  0  0  0  0  0  0  0  0  0  0  0
   -9.0260    1.2160   -9.0210 H   0  0  0  0  0  0  0  0  0  0  0  0
   -7.7160    2.2950   -8.7030 H   0  0  0  0  0  0  0  0  0  0  0  0
  -10.5140    2.6490   -7.8550 H   0  0  0  0  0  0  0  0  0  0  0  0
   -9.1630    2.0750   -6.8860 H   0  0  0  0  0  0  0  0  0  0  0  0
   -8.1050    4.0910   -6.8970 H   0  0  0  0  0  0  0  0  0  0  0  0
   -9.8330    4.5290   -6.7900 H   0  0  0  0  0  0  0  0  0  0  0  0
   -8.5630    7.5800  -10.2790 H   0  0  0  0  0  0  0  0  0  0  0  0
   -9.9740    4.5920  -15.8340 H   0  0  0  0  0  0  0  0  0  0  0  0
  1  2  3  0
  2  3  1  0
  3  4  2  0
  4  5  1  0
  5  6  2  0
  6  7  1  0
  6  8  1  0
  8  9  1  0
  9 10  1  0
 10 11  2  0
 10 12  1  0
 12 13  1  0
 13 14  2  0
 14 15  1  0
 15 16  1  0
 16 17  1  0
 17 18  1  0
 18 19  1  0
 19 20  1  0
 20 21  2  0
  8 22  2  0
 22  3  1  0
 21 13  1  0
 19 14  1  0
  1 23  1  0
  4 24  1  0
  5 25  1  0
  7 26  1  0
  7 27  1  0
  7 28  1  0
  9 29  1  0
 12 30  1  0
 12 31  1  0
 15 32  1  0
 15 33  1  0
 16 34  1  0
 16 35  1  0
 17 36  1  0
 17 37  1  0
 18 38  1  0
 18 39  1  0
 21 40  1  0
 22 41  1  0
A    1
 C1 
A    2
 C2 
A    3
 C3 
A    4
 C4 
A    5
 C5 
A    6
 C6 
A    7
 C7 
A    8
 C8 
A    9
 N1 
A   10
 C9 
A   11
 O1 
A   12
 C10
A   13
 C11
A   14
 C12
A   15
 C13
A   16
 C14
A   17
 C15
A   18
 C16
A   19
 N2 
A   20
 N3 
A   21
 C17
A   22
 C18
A   23
 H1 
A   24
 H2 
A   25
 H3 
A   26
 H4 
A   27
 H5 
A   28
 H6 
A   29
 H7 
A   30
 H8 
A   31
 H9 
A   32
 H10
A   33
 H11
A   34
 H12
A   35
 H13
A   36
 H14
A   37
 H15
A   38
 H16
A   39
 H17
A   40
 H18
A   41
 H19
M  END
>  <ref_pdb>  (231) 
x0051_0B

>  <ref_mols>  (231) 
x0553_0B,x0969_1B

>  <original SMILES>  (231) 
[H]C#Cc1c([H])c([H])c(C([H])([H])[H])c(N([H])C(=O)C([H])([H])c2c([H])nn3c2C([H])([H])C([H])([H])C([H])([H])C3([H])[H])c1[H]

>  <index>  (231) 
68

>  <∆∆G>  (231) 
-7.833085

>  <∆G_bound>  (231) 
-7.604419

>  <∆G_unbound>  (231) 
0.228667

>  <comRMSD>  (231) 
0.457645

>  <N_constrained_atoms>  (231) 
19.0

>  <N_unconstrained_atoms>  (231) 
3.0

>  <runtime>  (231) 
59.899637

>  <LE>  (231) 
0.356049

>  <percent_hybrid>  (231) 
48.0

>  <dist>  (231) 
5.0

>  <ecfp4>  (231) 
0.358974

>  <daylight>  (231) 
0.278146

>  <topodist>  (231) 
1.0

>  <mces>  (231) 
23.0

>  <tdn>  (231) 
0.0

>  <tup>  (231) 
1.0

>  <rdn>  (231) 
0.0

>  <rup>  (231) 
0.0

>  <ldn>  (231) 
0.0

>  <lup>  (231) 
0.0

>  <mut>  (231) 
3.0

>  <maj>  (231) 
3.0

>  <min>  (231) 
0.0

>  <hyb>  (231) 
1.0

>  <sub>  (231) 
0.0

>  <query_index>  (231) 
375.0

>  <max_hit_Tanimoto>  (231) 
0.318671

>  <largest_ring>  (231) 
0

>  <N_interactions_kept>  (231) 
1.5

>  <N_interactions_lost>  (231) 
1.0

>  <interaction_uniqueness_metric>  (231) 
0.192849

>  <ad_hoc_penalty>  (231) 
-23.019726

>  <N_rotatable_bonds>  (231) 
4

>  <N_HA>  (231) 
22

>  <cluster>  (231) 
6156

>  <N_interactions>  (231) 
6

>  <Enamine>  (231) 
1

>  <Mcule>  (231) 
0

>  <N_PAINS>  (231) 
0

>  <UFF_Gibbs>  (231) 
329.014057

>  <strain_per_HA>  (231) 
14.955184

>  <saltbridge:HIS:51>  (231) 
0

>  <pistack:HIS:51>  (231) 
1

>  <hydroph_interaction:HIS:51>  (231) 
0

>  <hbond:ALA:132>  (231) 
0

>  <hbond:SER:135>  (231) 
0

>  <hydroph_interaction:TYR:150>  (231) 
1

>  <pistack:TYR:161>  (231) 
1

>  <hydroph_interaction:TYR:161>  (231) 
1

>  <hydroph_interaction:ASP:83>  (231) 
1

>  <hbond:TYR:130>  (231) 
0

>  <hydroph_interaction:ALA:132>  (231) 
0

>  <hbond:HIS:51>  (231) 
0

>  <hbond:ASP:129>  (231) 
0

>  <hbond:TYR:150>  (231) 
0

>  <hbond:GLY:151>  (231) 
0

>  <hbond:TYR:161>  (231) 
1

>  <hydroph_interaction:TYR:130>  (231) 
0

>  <hydroph_interaction:PRO:131>  (231) 
0

>  <hydroph_interaction:ASP:129>  (231) 
0

>  <saltbridge:ASP:75>  (231) 
0

>  <saltbridge:ASP:83>  (231) 
0

>  <hydroph_interaction:ASN:152>  (231) 
0

>  <halogenbond:TYR:150>  (231) 
0

>  <hbond:ASP:83>  (231) 
0

>  <hydroph_interaction:VAL:155>  (231) 
0

>  <pication:TYR:161>  (231) 
0

>  <hbond:PRO:131>  (231) 
0

>  <hbond:LEU:128>  (231) 
0

>  <saltbridge:ASP:129>  (231) 
0

>  <hbond:THR:134>  (231) 
0

>  <pication:HIS:51>  (231) 
0

>  <hbond:SER:81>  (231) 
0

>  <hbond:GLY:159>  (231) 
0

>  <hydroph_interaction:PRO:101>  (231) 
0

>  <hydroph_interaction:THR:134>  (231) 
0

>  <hbond:GLY:82>  (231) 
0

>  <hydroph_interaction:GLU:104>  (231) 
0

>  <hydroph_interaction:VAL:36>  (231) 
0

>  <hydroph_interaction:MET:49>  (231) 
0

>  <halogenbond:GLU:104>  (231) 
0

>  <hydroph_interaction:LYS:107>  (231) 
0

$$$$
PV-002872467436
     RDKit          3D

 23 24  0  0  0  0  0  0  0  0999 V2000
   -9.8600    5.3420  -15.4040 C   0  0  0  0  0  0  0  0  0  0  0  0
   -9.3460    5.1930  -16.6240 C   0  0  0  0  0  0  0  0  0  0  0  0
   -8.0860    5.3490  -16.8510 N   0  0  0  0  0  0  0  0  0  0  0  0
   -7.8060    5.1420  -18.1740 C   0  0  0  0  0  0  0  0  0  0  0  0
   -6.3620    5.2640  -18.6210 C   0  0  0  0  0  0  0  0  0  0  0  0
   -6.1050    5.2600  -20.1090 C   0  0  0  0  0  0  0  0  0  0  0  0
   -4.8700    5.3510  -20.6310 N   0  0  0  0  0  0  0  0  0  0  0  0
   -3.8640    5.4400  -19.7280 C   0  0  0  0  0  0  0  0  0  0  0  0
   -4.0230    5.4550  -18.3360 C   0  0  0  0  0  0  0  0  0  0  0  0
   -5.2830    5.3710  -17.7380 C   0  0  0  0  0  0  0  0  0  0  0  0
   -5.5620    5.3760  -16.2750 C   0  0  0  0  0  0  0  0  0  0  0  0
   -8.8870    4.8220  -18.9750 C   0  0  0  0  0  0  0  0  0  0  0  0
  -10.2950    4.7850  -18.0070 S   0  0  0  0  0  0  0  0  0  0  0  0
   -9.2090    5.1150  -14.5710 H   0  0  0  0  0  0  0  0  0  0  0  0
  -10.3680    6.2920  -15.2450 H   0  0  0  0  0  0  0  0  0  0  0  0
  -10.6510    4.5950  -15.3340 H   0  0  0  0  0  0  0  0  0  0  0  0
   -6.9250    5.1780  -20.8240 H   0  0  0  0  0  0  0  0  0  0  0  0
   -2.8700    5.5080  -20.1630 H   0  0  0  0  0  0  0  0  0  0  0  0
   -3.1390    5.5330  -17.7050 H   0  0  0  0  0  0  0  0  0  0  0  0
   -6.2760    4.5950  -16.0050 H   0  0  0  0  0  0  0  0  0  0  0  0
   -4.6500    5.1770  -15.7030 H   0  0  0  0  0  0  0  0  0  0  0  0
   -5.9480    6.3530  -15.9650 H   0  0  0  0  0  0  0  0  0  0  0  0
   -8.9270    4.6080  -20.0480 H   0  0  0  0  0  0  0  0  0  0  0  0
  1  2  1  0
  2  3  2  0
  3  4  1  0
  4  5  1  0
  5  6  2  0
  6  7  1  0
  7  8  2  0
  8  9  1  0
  9 10  2  0
 10 11  1  0
  4 12  2  0
 12 13  1  0
 13  2  1  0
 10  5  1  0
  1 14  1  0
  1 15  1  0
  1 16  1  0
  6 17  1  0
  8 18  1  0
  9 19  1  0
 11 20  1  0
 11 21  1  0
 11 22  1  0
 12 23  1  0
A    1
 C1 
A    2
 C2 
A    3
 N1 
A    4
 C3 
A    5
 C4 
A    6
 C5 
A    7
 N2 
A    8
 C6 
A    9
 C7 
A   10
 C8 
A   11
 C9 
A   12
 C10
A   13
 S1 
A   14
 H1 
A   15
 H2 
A   16
 H3 
A   17
 H4 
A   18
 H5 
A   19
 H6 
A   20
 H7 
A   21
 H8 
A   22
 H9 
A   23
 H10
M  END
>  <ref_pdb>  (232) 
x0051_0B

>  <ref_mols>  (232) 
x0680_0B,x0386_0B

>  <original SMILES>  (232) 
[H]c1nc([H])c(-c2nc(C([H])([H])[H])sc2[H])c(C([H])([H])[H])c1[H]

>  <index>  (232) 
350

>  <∆∆G>  (232) 
-7.642066

>  <∆G_bound>  (232) 
-7.894844

>  <∆G_unbound>  (232) 
-0.252778

>  <comRMSD>  (232) 
0.610406

>  <N_constrained_atoms>  (232) 
12.0

>  <N_unconstrained_atoms>  (232) 
1.0

>  <runtime>  (232) 
30.578743

>  <LE>  (232) 
0.587851

>  <percent_hybrid>  (232) 
17.0

>  <dist>  (232) 
2.0

>  <ecfp4>  (232) 
0.5

>  <daylight>  (232) 
0.393548

>  <topodist>  (232) 
1.0

>  <mces>  (232) 
13.0

>  <tdn>  (232) 
0.0

>  <tup>  (232) 
1.0

>  <rdn>  (232) 
0.0

>  <rup>  (232) 
0.0

>  <ldn>  (232) 
0.0

>  <lup>  (232) 
0.0

>  <mut>  (232) 
1.0

>  <maj>  (232) 
0.0

>  <min>  (232) 
1.0

>  <hyb>  (232) 
0.0

>  <sub>  (232) 
1.0

>  <query_index>  (232) 
296.0

>  <max_hit_Tanimoto>  (232) 
0.152661

>  <largest_ring>  (232) 
0

>  <N_interactions_kept>  (232) 
3.5

>  <N_interactions_lost>  (232) 
0.5

>  <interaction_uniqueness_metric>  (232) 
0.016266

>  <ad_hoc_penalty>  (232) 
-23.007269

>  <N_rotatable_bonds>  (232) 
3

>  <N_HA>  (232) 
13

>  <cluster>  (232) 
5899

>  <N_interactions>  (232) 
3

>  <Enamine>  (232) 
1

>  <Mcule>  (232) 
0

>  <N_PAINS>  (232) 
0

>  <UFF_Gibbs>  (232) 
42.859747

>  <strain_per_HA>  (232) 
3.296904

>  <saltbridge:HIS:51>  (232) 
0

>  <pistack:HIS:51>  (232) 
0

>  <hydroph_interaction:HIS:51>  (232) 
0

>  <hbond:ALA:132>  (232) 
0

>  <hbond:SER:135>  (232) 
0

>  <hydroph_interaction:TYR:150>  (232) 
0

>  <pistack:TYR:161>  (232) 
0

>  <hydroph_interaction:TYR:161>  (232) 
3

>  <hydroph_interaction:ASP:83>  (232) 
0

>  <hbond:TYR:130>  (232) 
0

>  <hydroph_interaction:ALA:132>  (232) 
0

>  <hbond:HIS:51>  (232) 
0

>  <hbond:ASP:129>  (232) 
0

>  <hbond:TYR:150>  (232) 
0

>  <hbond:GLY:151>  (232) 
0

>  <hbond:TYR:161>  (232) 
0

>  <hydroph_interaction:TYR:130>  (232) 
0

>  <hydroph_interaction:PRO:131>  (232) 
0

>  <hydroph_interaction:ASP:129>  (232) 
0

>  <saltbridge:ASP:75>  (232) 
0

>  <saltbridge:ASP:83>  (232) 
0

>  <hydroph_interaction:ASN:152>  (232) 
0

>  <halogenbond:TYR:150>  (232) 
0

>  <hbond:ASP:83>  (232) 
0

>  <hydroph_interaction:VAL:155>  (232) 
0

>  <pication:TYR:161>  (232) 
0

>  <hbond:PRO:131>  (232) 
0

>  <hbond:LEU:128>  (232) 
0

>  <saltbridge:ASP:129>  (232) 
0

>  <hbond:THR:134>  (232) 
0

>  <pication:HIS:51>  (232) 
0

>  <hbond:SER:81>  (232) 
0

>  <hbond:GLY:159>  (232) 
0

>  <hydroph_interaction:PRO:101>  (232) 
0

>  <hydroph_interaction:THR:134>  (232) 
0

>  <hbond:GLY:82>  (232) 
0

>  <hydroph_interaction:GLU:104>  (232) 
0

>  <hydroph_interaction:VAL:36>  (232) 
0

>  <hydroph_interaction:MET:49>  (232) 
0

>  <halogenbond:GLU:104>  (232) 
0

>  <hydroph_interaction:LYS:107>  (232) 
0

$$$$
PSASNTUIQDNJSU-UHFFFAOYSA-N
     RDKit          3D

 42 45  0  0  0  0  0  0  0  0999 V2000
   -7.9470    6.1620  -12.8990 O   0  0  0  0  0  0  0  0  0  0  0  0
   -8.3700    6.3710  -14.1850 C   0  0  0  0  0  0  0  0  0  0  0  0
   -9.0390    7.3250  -14.5370 O   0  0  0  0  0  0  0  0  0  0  0  0
   -7.9060    5.2600  -15.1340 C   0  0  0  0  0  0  0  0  0  0  0  0
   -8.3410    5.1380  -16.4170 C   0  0  0  0  0  0  0  0  0  0  0  0
   -7.4840    5.2850  -17.5910 C   0  0  0  0  0  0  0  0  0  0  0  0
   -7.9880    5.1420  -18.8820 C   0  0  0  0  0  0  0  0  0  0  0  0
   -9.3390    4.8530  -19.0710 C   0  0  0  0  0  0  0  0  0  0  0  0
  -10.1600    4.7140  -18.0100 C   0  0  0  0  0  0  0  0  0  0  0  0
   -9.6840    4.8500  -16.6960 C   0  0  0  0  0  0  0  0  0  0  0  0
   -6.1360    5.5710  -17.4030 C   0  0  0  0  0  0  0  0  0  0  0  0
   -5.3340    5.5240  -18.3320 O   0  0  0  0  0  0  0  0  0  0  0  0
   -5.7530    5.9060  -16.1180 C   0  0  0  0  0  0  0  0  0  0  0  0
   -6.3670    5.2540  -15.0470 C   0  0  0  0  0  0  0  0  0  0  0  0
   -8.7990    5.2870  -12.1380 C   0  0  0  0  0  0  0  0  0  0  0  0
   -8.8150    5.5580  -10.6250 C   0  0  0  0  0  0  0  0  0  0  0  0
   -8.9540    4.4740   -9.8080 C   0  0  0  0  0  0  0  0  0  0  0  0
   -8.9400    4.9850   -8.5440 N   0  0  0  0  0  0  0  0  0  0  0  0
   -9.0640    4.1900   -7.3480 C   0  0  0  0  0  0  0  0  0  0  0  0
   -9.6370    2.8060   -7.6190 C   0  0  0  0  0  0  0  0  0  0  0  0
   -9.4420    2.2870   -9.0460 C   0  0  0  0  0  0  0  0  0  0  0  0
   -9.0820    3.1950  -10.0930 O   0  0  0  0  0  0  0  0  0  0  0  0
   -8.8010    6.3290   -8.4890 N   0  0  0  0  0  0  0  0  0  0  0  0
   -8.7230    6.6840   -9.7810 C   0  0  0  0  0  0  0  0  0  0  0  0
   -8.2440    4.3340  -14.6510 H   0  0  0  0  0  0  0  0  0  0  0  0
   -7.3400    5.2540  -19.7500 H   0  0  0  0  0  0  0  0  0  0  0  0
   -9.7230    4.7460  -20.0800 H   0  0  0  0  0  0  0  0  0  0  0  0
  -11.2090    4.4930  -18.1810 H   0  0  0  0  0  0  0  0  0  0  0  0
  -10.3910    4.7240  -15.8790 H   0  0  0  0  0  0  0  0  0  0  0  0
   -4.6690    5.7610  -16.0640 H   0  0  0  0  0  0  0  0  0  0  0  0
   -5.9400    6.9800  -16.0020 H   0  0  0  0  0  0  0  0  0  0  0  0
   -5.9980    4.2290  -14.9820 H   0  0  0  0  0  0  0  0  0  0  0  0
   -6.0460    5.7450  -14.1190 H   0  0  0  0  0  0  0  0  0  0  0  0
   -8.5700    4.2360  -12.3550 H   0  0  0  0  0  0  0  0  0  0  0  0
   -9.8090    5.4470  -12.5270 H   0  0  0  0  0  0  0  0  0  0  0  0
   -8.0740    4.1110   -6.8900 H   0  0  0  0  0  0  0  0  0  0  0  0
   -9.7200    4.7480   -6.6720 H   0  0  0  0  0  0  0  0  0  0  0  0
  -10.6980    2.7810   -7.3540 H   0  0  0  0  0  0  0  0  0  0  0  0
   -9.1280    2.1010   -6.9510 H   0  0  0  0  0  0  0  0  0  0  0  0
   -8.7340    1.4540   -9.0560 H   0  0  0  0  0  0  0  0  0  0  0  0
  -10.3950    1.8990   -9.3590 H   0  0  0  0  0  0  0  0  0  0  0  0
   -8.6060    7.7270  -10.0470 H   0  0  0  0  0  0  0  0  0  0  0  0
  1  2  1  0
  2  3  2  0
  2  4  1  0
  4  5  1  0
  5  6  1  0
  6  7  2  0
  7  8  1  0
  8  9  2  0
  9 10  1  0
  6 11  1  0
 11 12  2  0
 11 13  1  0
 13 14  1  0
  1 15  1  0
 15 16  1  0
 16 17  2  0
 17 18  1  0
 18 19  1  0
 19 20  1  0
 20 21  1  0
 21 22  1  0
 18 23  1  0
 23 24  2  0
 14  4  1  0
 10  5  2  0
 24 16  1  0
 22 17  1  0
  4 25  1  0
  7 26  1  0
  8 27  1  0
  9 28  1  0
 10 29  1  0
 13 30  1  0
 13 31  1  0
 14 32  1  0
 14 33  1  0
 15 34  1  0
 15 35  1  0
 19 36  1  0
 19 37  1  0
 20 38  1  0
 20 39  1  0
 21 40  1  0
 21 41  1  0
 24 42  1  0
A    1
 O1 
A    2
 C1 
A    3
 O2 
A    4
 C2 
A    5
 C3 
A    6
 C4 
A    7
 C5 
A    8
 C6 
A    9
 C7 
A   10
 C8 
A   11
 C9 
A   12
 O3 
A   13
 C10
A   14
 C11
A   15
 C12
A   16
 C13
A   17
 C14
A   18
 N1 
A   19
 C15
A   20
 C16
A   21
 C17
A   22
 O4 
A   23
 N2 
A   24
 C18
A   25
 H1 
A   26
 H2 
A   27
 H3 
A   28
 H4 
A   29
 H5 
A   30
 H6 
A   31
 H7 
A   32
 H8 
A   33
 H9 
A   34
 H10
A   35
 H11
A   36
 H12
A   37
 H13
A   38
 H14
A   39
 H15
A   40
 H16
A   41
 H17
A   42
 H18
M  END
>  <ref_pdb>  (233) 
x0051_0B

>  <ref_mols>  (233) 
x0969_1B,x0455_0B

>  <original SMILES>  (233) 
[H]c1nn2c(c1C([H])([H])OC(=O)C1([H])c3c([H])c([H])c([H])c([H])c3C(=O)C([H])([H])C1([H])[H])OC([H])([H])C([H])([H])C2([H])[H]

>  <index>  (233) 
374

>  <∆∆G>  (233) 
-7.135638

>  <∆G_bound>  (233) 
-5.994424

>  <∆G_unbound>  (233) 
1.141214

>  <comRMSD>  (233) 
0.342992

>  <N_constrained_atoms>  (233) 
20.0

>  <N_unconstrained_atoms>  (233) 
4.0

>  <runtime>  (233) 
50.623101

>  <LE>  (233) 
0.297318

>  <percent_hybrid>  (233) 
50.0

>  <dist>  (233) 
7.0

>  <ecfp4>  (233) 
0.247059

>  <daylight>  (233) 
0.317808

>  <topodist>  (233) 
2.0

>  <mces>  (233) 
25.0

>  <tdn>  (233) 
0.0

>  <tup>  (233) 
2.0

>  <rdn>  (233) 
0.0

>  <rup>  (233) 
0.0

>  <ldn>  (233) 
0.0

>  <lup>  (233) 
0.0

>  <mut>  (233) 
4.0

>  <maj>  (233) 
4.0

>  <min>  (233) 
0.0

>  <hyb>  (233) 
1.0

>  <sub>  (233) 
0.0

>  <query_index>  (233) 
204.0

>  <max_hit_Tanimoto>  (233) 
0.241573

>  <largest_ring>  (233) 
0

>  <N_interactions_kept>  (233) 
1.5

>  <N_interactions_lost>  (233) 
1.0

>  <interaction_uniqueness_metric>  (233) 
0.117192

>  <ad_hoc_penalty>  (233) 
-22.953086

>  <N_rotatable_bonds>  (233) 
3

>  <N_HA>  (233) 
24

>  <cluster>  (233) 
5875

>  <N_interactions>  (233) 
4

>  <Enamine>  (233) 
0

>  <Mcule>  (233) 
1

>  <N_PAINS>  (233) 
0

>  <UFF_Gibbs>  (233) 
96.941903

>  <strain_per_HA>  (233) 
4.039246

>  <saltbridge:HIS:51>  (233) 
1

>  <pistack:HIS:51>  (233) 
0

>  <hydroph_interaction:HIS:51>  (233) 
0

>  <hbond:ALA:132>  (233) 
0

>  <hbond:SER:135>  (233) 
0

>  <hydroph_interaction:TYR:150>  (233) 
1

>  <pistack:TYR:161>  (233) 
0

>  <hydroph_interaction:TYR:161>  (233) 
2

>  <hydroph_interaction:ASP:83>  (233) 
0

>  <hbond:TYR:130>  (233) 
0

>  <hydroph_interaction:ALA:132>  (233) 
0

>  <hbond:HIS:51>  (233) 
0

>  <hbond:ASP:129>  (233) 
0

>  <hbond:TYR:150>  (233) 
0

>  <hbond:GLY:151>  (233) 
0

>  <hbond:TYR:161>  (233) 
0

>  <hydroph_interaction:TYR:130>  (233) 
0

>  <hydroph_interaction:PRO:131>  (233) 
0

>  <hydroph_interaction:ASP:129>  (233) 
0

>  <saltbridge:ASP:75>  (233) 
0

>  <saltbridge:ASP:83>  (233) 
0

>  <hydroph_interaction:ASN:152>  (233) 
0

>  <halogenbond:TYR:150>  (233) 
0

>  <hbond:ASP:83>  (233) 
0

>  <hydroph_interaction:VAL:155>  (233) 
0

>  <pication:TYR:161>  (233) 
0

>  <hbond:PRO:131>  (233) 
0

>  <hbond:LEU:128>  (233) 
0

>  <saltbridge:ASP:129>  (233) 
0

>  <hbond:THR:134>  (233) 
0

>  <pication:HIS:51>  (233) 
0

>  <hbond:SER:81>  (233) 
0

>  <hbond:GLY:159>  (233) 
0

>  <hydroph_interaction:PRO:101>  (233) 
0

>  <hydroph_interaction:THR:134>  (233) 
0

>  <hbond:GLY:82>  (233) 
0

>  <hydroph_interaction:GLU:104>  (233) 
0

>  <hydroph_interaction:VAL:36>  (233) 
0

>  <hydroph_interaction:MET:49>  (233) 
0

>  <halogenbond:GLU:104>  (233) 
0

>  <hydroph_interaction:LYS:107>  (233) 
0

$$$$
CSSS00000029118
     RDKit          3D

 21 23  0  0  0  0  0  0  0  0999 V2000
   -5.2590    5.5880  -14.9730 O   0  0  0  0  0  0  0  0  0  0  0  0
   -6.2160    5.4460  -15.6930 C   0  0  0  0  0  0  0  0  0  0  0  0
   -7.6460    5.2400  -15.2610 C   0  0  0  0  0  0  0  0  0  0  0  0
   -8.3840    5.0880  -16.5630 C   0  0  0  0  0  0  0  0  0  0  0  0
   -9.8060    4.8430  -16.8100 C   0  0  0  0  0  0  0  0  0  0  0  0
  -10.2690    4.7360  -18.2730 C   0  0  0  0  0  0  0  0  0  0  0  0
   -9.1710    4.8950  -19.3220 C   0  0  0  0  0  0  0  0  0  0  0  0
   -7.8200    5.1290  -18.9730 C   0  0  0  0  0  0  0  0  0  0  0  0
   -6.7800    5.2800  -19.8960 C   0  0  0  0  0  0  0  0  0  0  0  0
   -5.4600    5.5050  -19.4490 C   0  0  0  0  0  0  0  0  0  0  0  0
   -5.1780    5.5780  -18.0760 C   0  0  0  0  0  0  0  0  0  0  0  0
   -6.2120    5.4280  -17.1650 C   0  0  0  0  0  0  0  0  0  0  0  0
   -7.5020    5.2110  -17.6080 C   0  0  0  0  0  0  0  0  0  0  0  0
   -7.7210    4.3290  -14.6630 H   0  0  0  0  0  0  0  0  0  0  0  0
   -7.9930    6.1210  -14.7180 H   0  0  0  0  0  0  0  0  0  0  0  0
  -10.4920    4.7410  -15.9840 H   0  0  0  0  0  0  0  0  0  0  0  0
  -11.3080    4.5600  -18.5390 H   0  0  0  0  0  0  0  0  0  0  0  0
   -9.4420    4.8250  -20.3720 H   0  0  0  0  0  0  0  0  0  0  0  0
   -6.9810    5.2230  -20.9630 H   0  0  0  0  0  0  0  0  0  0  0  0
   -4.6580    5.6180  -20.1730 H   0  0  0  0  0  0  0  0  0  0  0  0
   -4.1680    5.7480  -17.7230 H   0  0  0  0  0  0  0  0  0  0  0  0
  1  2  2  0
  2  3  1  0
  3  4  1  0
  4  5  2  0
  5  6  1  0
  6  7  2  0
  7  8  1  0
  8  9  2  0
  9 10  1  0
 10 11  2  0
 11 12  1  0
 12 13  2  0
 12  2  1  0
 13  4  1  0
 13  8  1  0
  3 14  1  0
  3 15  1  0
  5 16  1  0
  6 17  1  0
  7 18  1  0
  9 19  1  0
 10 20  1  0
 11 21  1  0
A    1
 O1 
A    2
 C1 
A    3
 C2 
A    4
 C3 
A    5
 C4 
A    6
 C5 
A    7
 C6 
A    8
 C7 
A    9
 C8 
A   10
 C9 
A   11
 C10
A   12
 C11
A   13
 C12
A   14
 H1 
A   15
 H2 
A   16
 H3 
A   17
 H4 
A   18
 H5 
A   19
 H6 
A   20
 H7 
A   21
 H8 
M  END
>  <ref_pdb>  (234) 
x0051_0B

>  <ref_mols>  (234) 
x0727_0B,x0455_0B

>  <original SMILES>  (234) 
[H]c1c([H])c2c3c(c([H])c([H])c([H])c3c1[H])C([H])([H])C2=O

>  <index>  (234) 
483

>  <∆∆G>  (234) 
-6.979772

>  <∆G_bound>  (234) 
-7.002299

>  <∆G_unbound>  (234) 
-0.022527

>  <comRMSD>  (234) 
0.536321

>  <N_constrained_atoms>  (234) 
13.0

>  <N_unconstrained_atoms>  (234) 
0.0

>  <runtime>  (234) 
18.485505

>  <LE>  (234) 
0.536906

>  <percent_hybrid>  (234) 
40.0

>  <dist>  (234) 
4.0

>  <ecfp4>  (234) 
0.25

>  <daylight>  (234) 
0.294118

>  <topodist>  (234) 
1.0

>  <mces>  (234) 
15.0

>  <tdn>  (234) 
0.0

>  <tup>  (234) 
0.0

>  <rdn>  (234) 
0.0

>  <rup>  (234) 
0.0

>  <ldn>  (234) 
1.0

>  <lup>  (234) 
0.0

>  <mut>  (234) 
2.0

>  <maj>  (234) 
2.0

>  <min>  (234) 
0.0

>  <hyb>  (234) 
1.0

>  <sub>  (234) 
0.0

>  <query_index>  (234) 
57.0

>  <max_hit_Tanimoto>  (234) 
0.143975

>  <largest_ring>  (234) 
0

>  <N_interactions_kept>  (234) 
0.0

>  <N_interactions_lost>  (234) 
3.0

>  <interaction_uniqueness_metric>  (234) 
0.050285

>  <ad_hoc_penalty>  (234) 
-22.948362

>  <N_rotatable_bonds>  (234) 
0

>  <N_HA>  (234) 
13

>  <cluster>  (234) 
5778

>  <N_interactions>  (234) 
6

>  <Enamine>  (234) 
1

>  <Mcule>  (234) 
0

>  <N_PAINS>  (234) 
0

>  <UFF_Gibbs>  (234) 
22.628177

>  <strain_per_HA>  (234) 
1.740629

>  <saltbridge:HIS:51>  (234) 
0

>  <pistack:HIS:51>  (234) 
0

>  <hydroph_interaction:HIS:51>  (234) 
0

>  <hbond:ALA:132>  (234) 
0

>  <hbond:SER:135>  (234) 
0

>  <hydroph_interaction:TYR:150>  (234) 
1

>  <pistack:TYR:161>  (234) 
2

>  <hydroph_interaction:TYR:161>  (234) 
3

>  <hydroph_interaction:ASP:83>  (234) 
0

>  <hbond:TYR:130>  (234) 
0

>  <hydroph_interaction:ALA:132>  (234) 
0

>  <hbond:HIS:51>  (234) 
0

>  <hbond:ASP:129>  (234) 
0

>  <hbond:TYR:150>  (234) 
0

>  <hbond:GLY:151>  (234) 
0

>  <hbond:TYR:161>  (234) 
0

>  <hydroph_interaction:TYR:130>  (234) 
0

>  <hydroph_interaction:PRO:131>  (234) 
0

>  <hydroph_interaction:ASP:129>  (234) 
0

>  <saltbridge:ASP:75>  (234) 
0

>  <saltbridge:ASP:83>  (234) 
0

>  <hydroph_interaction:ASN:152>  (234) 
0

>  <halogenbond:TYR:150>  (234) 
0

>  <hbond:ASP:83>  (234) 
0

>  <hydroph_interaction:VAL:155>  (234) 
0

>  <pication:TYR:161>  (234) 
0

>  <hbond:PRO:131>  (234) 
0

>  <hbond:LEU:128>  (234) 
0

>  <saltbridge:ASP:129>  (234) 
0

>  <hbond:THR:134>  (234) 
0

>  <pication:HIS:51>  (234) 
0

>  <hbond:SER:81>  (234) 
0

>  <hbond:GLY:159>  (234) 
0

>  <hydroph_interaction:PRO:101>  (234) 
0

>  <hydroph_interaction:THR:134>  (234) 
0

>  <hbond:GLY:82>  (234) 
0

>  <hydroph_interaction:GLU:104>  (234) 
0

>  <hydroph_interaction:VAL:36>  (234) 
0

>  <hydroph_interaction:MET:49>  (234) 
0

>  <halogenbond:GLU:104>  (234) 
0

>  <hydroph_interaction:LYS:107>  (234) 
0

$$$$
OBSUTIHBJMOOTE-UHFFFAOYSA-N
     RDKit          3D

 23 23  0  0  0  0  0  0  0  0999 V2000
   -5.6120    5.0570  -20.0180 N   0  0  0  0  0  0  0  0  0  0  0  0
   -6.3380    6.1630  -19.4240 C   0  0  0  0  0  0  0  0  0  0  0  0
   -7.2390    5.7430  -18.2790 C   0  0  0  0  0  0  0  0  0  0  0  0
   -8.5620    5.0650  -18.4550 C   0  0  0  0  0  0  0  0  0  0  0  0
   -9.0720    4.7350  -19.6910 C   0  0  0  0  0  0  0  0  0  0  0  0
   -9.3280    4.7490  -17.3420 C   0  0  0  0  0  0  0  0  0  0  0  0
   -8.8790    5.0400  -16.0670 C   0  0  0  0  0  0  0  0  0  0  0  0
   -7.6460    5.6570  -15.8790 C   0  0  0  0  0  0  0  0  0  0  0  0
   -7.1100    6.0030  -14.2810 Cl  0  0  0  0  0  0  0  0  0  0  0  0
   -6.8360    6.0050  -16.9620 C   0  0  0  0  0  0  0  0  0  0  0  0
   -6.0340    4.8380  -21.3980 C   0  0  0  0  0  0  0  0  0  0  0  0
   -5.7830    4.2200  -19.4720 H   0  0  0  0  0  0  0  0  0  0  0  0
   -5.6290    6.9060  -19.0400 H   0  0  0  0  0  0  0  0  0  0  0  0
   -6.9320    6.6870  -20.1820 H   0  0  0  0  0  0  0  0  0  0  0  0
   -9.5450    3.7650  -19.5730 H   0  0  0  0  0  0  0  0  0  0  0  0
   -8.3960    4.6650  -20.5360 H   0  0  0  0  0  0  0  0  0  0  0  0
   -9.8590    5.4370  -19.9870 H   0  0  0  0  0  0  0  0  0  0  0  0
  -10.2950    4.2690  -17.4630 H   0  0  0  0  0  0  0  0  0  0  0  0
   -9.4970    4.7820  -15.2120 H   0  0  0  0  0  0  0  0  0  0  0  0
   -5.8810    6.4900  -16.7820 H   0  0  0  0  0  0  0  0  0  0  0  0
   -5.2430    4.3190  -21.9530 H   0  0  0  0  0  0  0  0  0  0  0  0
   -6.2360    5.7800  -21.9140 H   0  0  0  0  0  0  0  0  0  0  0  0
   -6.9240    4.2060  -21.4360 H   0  0  0  0  0  0  0  0  0  0  0  0
  1  2  1  0
  2  3  1  0
  3  4  2  0
  4  5  1  0
  4  6  1  0
  6  7  2  0
  7  8  1  0
  8  9  1  0
  8 10  2  0
  1 11  1  0
 10  3  1  0
  1 12  1  0
  2 13  1  0
  2 14  1  0
  5 15  1  0
  5 16  1  0
  5 17  1  0
  6 18  1  0
  7 19  1  0
 10 20  1  0
 11 21  1  0
 11 22  1  0
 11 23  1  0
A    1
 N1 
A    2
 C1 
A    3
 C2 
A    4
 C3 
A    5
 C4 
A    6
 C5 
A    7
 C6 
A    8
 C7 
A    9
CL1 
A   10
 C8 
A   11
 C9 
A   12
 H1 
A   13
 H2 
A   14
 H3 
A   15
 H4 
A   16
 H5 
A   17
 H6 
A   18
 H7 
A   19
 H8 
A   20
 H9 
A   21
 H10
A   22
 H11
A   23
 H12
M  END
>  <ref_pdb>  (235) 
x0051_0B

>  <ref_mols>  (235) 
x0589_0B,x0386_0B

>  <original SMILES>  (235) 
[H]c1c([H])c(C([H])([H])[H])c(C([H])([H])N([H])C([H])([H])[H])c([H])c1Cl

>  <index>  (235) 
380

>  <∆∆G>  (235) 
-7.30275

>  <∆G_bound>  (235) 
-7.447955

>  <∆G_unbound>  (235) 
-0.145205

>  <comRMSD>  (235) 
0.784103

>  <N_constrained_atoms>  (235) 
9.0

>  <N_unconstrained_atoms>  (235) 
3.0

>  <runtime>  (235) 
26.847162

>  <LE>  (235) 
0.608563

>  <percent_hybrid>  (235) 
34.0

>  <dist>  (235) 
3.0

>  <ecfp4>  (235) 
0.116279

>  <daylight>  (235) 
0.411765

>  <topodist>  (235) 
2.0

>  <mces>  (235) 
9.0

>  <tdn>  (235) 
0.0

>  <tup>  (235) 
2.0

>  <rdn>  (235) 
0.0

>  <rup>  (235) 
0.0

>  <ldn>  (235) 
0.0

>  <lup>  (235) 
0.0

>  <mut>  (235) 
1.0

>  <maj>  (235) 
0.0

>  <min>  (235) 
1.0

>  <hyb>  (235) 
0.0

>  <sub>  (235) 
2.0

>  <query_index>  (235) 
373.0

>  <max_hit_Tanimoto>  (235) 
0.070423

>  <largest_ring>  (235) 
0

>  <N_interactions_kept>  (235) 
2.0

>  <N_interactions_lost>  (235) 
0.0

>  <interaction_uniqueness_metric>  (235) 
0.046888

>  <ad_hoc_penalty>  (235) 
-22.943468

>  <N_rotatable_bonds>  (235) 
4

>  <N_HA>  (235) 
11

>  <cluster>  (235) 
5869

>  <N_interactions>  (235) 
3

>  <Enamine>  (235) 
0

>  <Mcule>  (235) 
1

>  <N_PAINS>  (235) 
0

>  <UFF_Gibbs>  (235) 
36.002633

>  <strain_per_HA>  (235) 
3.272967

>  <saltbridge:HIS:51>  (235) 
0

>  <pistack:HIS:51>  (235) 
0

>  <hydroph_interaction:HIS:51>  (235) 
0

>  <hbond:ALA:132>  (235) 
0

>  <hbond:SER:135>  (235) 
0

>  <hydroph_interaction:TYR:150>  (235) 
1

>  <pistack:TYR:161>  (235) 
0

>  <hydroph_interaction:TYR:161>  (235) 
1

>  <hydroph_interaction:ASP:83>  (235) 
0

>  <hbond:TYR:130>  (235) 
0

>  <hydroph_interaction:ALA:132>  (235) 
1

>  <hbond:HIS:51>  (235) 
0

>  <hbond:ASP:129>  (235) 
0

>  <hbond:TYR:150>  (235) 
0

>  <hbond:GLY:151>  (235) 
0

>  <hbond:TYR:161>  (235) 
0

>  <hydroph_interaction:TYR:130>  (235) 
0

>  <hydroph_interaction:PRO:131>  (235) 
0

>  <hydroph_interaction:ASP:129>  (235) 
0

>  <saltbridge:ASP:75>  (235) 
0

>  <saltbridge:ASP:83>  (235) 
0

>  <hydroph_interaction:ASN:152>  (235) 
0

>  <halogenbond:TYR:150>  (235) 
0

>  <hbond:ASP:83>  (235) 
0

>  <hydroph_interaction:VAL:155>  (235) 
0

>  <pication:TYR:161>  (235) 
0

>  <hbond:PRO:131>  (235) 
0

>  <hbond:LEU:128>  (235) 
0

>  <saltbridge:ASP:129>  (235) 
0

>  <hbond:THR:134>  (235) 
0

>  <pication:HIS:51>  (235) 
0

>  <hbond:SER:81>  (235) 
0

>  <hbond:GLY:159>  (235) 
0

>  <hydroph_interaction:PRO:101>  (235) 
0

>  <hydroph_interaction:THR:134>  (235) 
0

>  <hbond:GLY:82>  (235) 
0

>  <hydroph_interaction:GLU:104>  (235) 
0

>  <hydroph_interaction:VAL:36>  (235) 
0

>  <hydroph_interaction:MET:49>  (235) 
0

>  <halogenbond:GLU:104>  (235) 
0

>  <hydroph_interaction:LYS:107>  (235) 
0

$$$$
CSSB00010002175
     RDKit          3D

 30 31  0  0  0  0  0  0  0  0999 V2000
   -3.5560    5.1710  -19.0020 C   0  0  0  0  0  0  0  0  0  0  0  0
   -4.1780    5.4140  -20.2770 N   0  0  0  0  0  0  0  0  0  0  0  0
   -5.5370    5.3620  -20.4290 C   0  0  0  0  0  0  0  0  0  0  0  0
   -6.1100    4.7390  -21.3000 O   0  0  0  0  0  0  0  0  0  0  0  0
   -6.1110    6.1360  -19.4480 O   0  0  0  0  0  0  0  0  0  0  0  0
   -7.2280    5.6360  -18.7710 C   0  0  0  0  0  0  0  0  0  0  0  0
   -8.3880    4.9450  -19.4950 C   0  0  0  0  0  0  0  0  0  0  0  0
   -9.5090    4.5090  -18.5510 C   0  0  0  0  0  0  0  0  0  0  0  0
   -9.4260    4.7310  -17.1790 C   0  0  0  0  0  0  0  0  0  0  0  0
   -8.3180    5.3590  -16.6070 C   0  0  0  0  0  0  0  0  0  0  0  0
   -7.2540    5.7970  -17.4110 C   0  0  0  0  0  0  0  0  0  0  0  0
   -6.1190    6.4810  -16.6250 C   0  0  0  0  0  0  0  0  0  0  0  0
   -5.6900    5.5880  -15.4930 C   0  0  0  0  0  0  0  0  0  0  0  0
   -6.8540    5.1970  -14.5880 C   0  0  0  0  0  0  0  0  0  0  0  0
   -8.2290    5.5880  -15.1200 C   0  0  0  0  0  0  0  0  0  0  0  0
   -3.2470    6.1080  -18.5390 H   0  0  0  0  0  0  0  0  0  0  0  0
   -2.6920    4.5100  -19.1380 H   0  0  0  0  0  0  0  0  0  0  0  0
   -4.2750    4.6820  -18.3420 H   0  0  0  0  0  0  0  0  0  0  0  0
   -3.6340    5.3430  -21.1260 H   0  0  0  0  0  0  0  0  0  0  0  0
   -8.4220    4.7810  -20.5640 H   0  0  0  0  0  0  0  0  0  0  0  0
  -10.3830    4.0180  -18.9450 H   0  0  0  0  0  0  0  0  0  0  0  0
  -10.2430    4.4050  -16.5420 H   0  0  0  0  0  0  0  0  0  0  0  0
   -6.4270    7.4490  -16.2130 H   0  0  0  0  0  0  0  0  0  0  0  0
   -5.2790    6.6680  -17.3060 H   0  0  0  0  0  0  0  0  0  0  0  0
   -5.1980    4.6920  -15.8910 H   0  0  0  0  0  0  0  0  0  0  0  0
   -4.9330    6.1090  -14.8870 H   0  0  0  0  0  0  0  0  0  0  0  0
   -6.7060    5.6800  -13.6130 H   0  0  0  0  0  0  0  0  0  0  0  0
   -6.8310    4.1230  -14.3850 H   0  0  0  0  0  0  0  0  0  0  0  0
   -8.4340    6.6370  -14.8700 H   0  0  0  0  0  0  0  0  0  0  0  0
   -9.0060    4.9840  -14.6310 H   0  0  0  0  0  0  0  0  0  0  0  0
  1  2  1  0
  2  3  1  0
  3  4  2  0
  3  5  1  0
  5  6  1  0
  6  7  2  0
  7  8  1  0
  8  9  2  0
  9 10  1  0
 10 11  2  0
 11 12  1  0
 12 13  1  0
 13 14  1  0
 14 15  1  0
 11  6  1  0
 15 10  1  0
  1 16  1  0
  1 17  1  0
  1 18  1  0
  2 19  1  0
  7 20  1  0
  8 21  1  0
  9 22  1  0
 12 23  1  0
 12 24  1  0
 13 25  1  0
 13 26  1  0
 14 27  1  0
 14 28  1  0
 15 29  1  0
 15 30  1  0
A    1
 C1 
A    2
 N1 
A    3
 C2 
A    4
 O1 
A    5
 O2 
A    6
 C3 
A    7
 C4 
A    8
 C5 
A    9
 C6 
A   10
 C7 
A   11
 C8 
A   12
 C9 
A   13
 C10
A   14
 C11
A   15
 C12
A   16
 H1 
A   17
 H2 
A   18
 H3 
A   19
 H4 
A   20
 H5 
A   21
 H6 
A   22
 H7 
A   23
 H8 
A   24
 H9 
A   25
 H10
A   26
 H11
A   27
 H12
A   28
 H13
A   29
 H14
A   30
 H15
M  END
>  <ref_pdb>  (236) 
x0051_0B

>  <ref_mols>  (236) 
x0904_0B,x0455_0B

>  <original SMILES>  (236) 
[H]c1c([H])c(OC(=O)N([H])C([H])([H])[H])c2c(c1[H])C([H])([H])C([H])([H])C([H])([H])C2([H])[H]

>  <index>  (236) 
411

>  <∆∆G>  (236) 
-5.753182

>  <∆G_bound>  (236) 
-4.73497

>  <∆G_unbound>  (236) 
1.018212

>  <comRMSD>  (236) 
0.676832

>  <N_constrained_atoms>  (236) 
16.0

>  <N_unconstrained_atoms>  (236) 
1.0

>  <runtime>  (236) 
32.867193

>  <LE>  (236) 
0.338422

>  <percent_hybrid>  (236) 
40.0

>  <dist>  (236) 
7.0

>  <ecfp4>  (236) 
0.126984

>  <daylight>  (236) 
0.110553

>  <topodist>  (236) 
2.0

>  <mces>  (236) 
16.0

>  <tdn>  (236) 
1.0

>  <tup>  (236) 
0.0

>  <rdn>  (236) 
0.0

>  <rup>  (236) 
0.0

>  <ldn>  (236) 
1.0

>  <lup>  (236) 
0.0

>  <mut>  (236) 
1.0

>  <maj>  (236) 
1.0

>  <min>  (236) 
0.0

>  <hyb>  (236) 
4.0

>  <sub>  (236) 
1.0

>  <query_index>  (236) 
160.0

>  <max_hit_Tanimoto>  (236) 
0.174326

>  <largest_ring>  (236) 
0

>  <N_interactions_kept>  (236) 
1.0

>  <N_interactions_lost>  (236) 
2.0

>  <interaction_uniqueness_metric>  (236) 
0.114212

>  <ad_hoc_penalty>  (236) 
-22.89851

>  <N_rotatable_bonds>  (236) 
2

>  <N_HA>  (236) 
15

>  <cluster>  (236) 
5844

>  <N_interactions>  (236) 
6

>  <Enamine>  (236) 
1

>  <Mcule>  (236) 
0

>  <N_PAINS>  (236) 
0

>  <UFF_Gibbs>  (236) 
52.794189

>  <strain_per_HA>  (236) 
3.519613

>  <saltbridge:HIS:51>  (236) 
0

>  <pistack:HIS:51>  (236) 
0

>  <hydroph_interaction:HIS:51>  (236) 
0

>  <hbond:ALA:132>  (236) 
0

>  <hbond:SER:135>  (236) 
0

>  <hydroph_interaction:TYR:150>  (236) 
1

>  <pistack:TYR:161>  (236) 
0

>  <hydroph_interaction:TYR:161>  (236) 
2

>  <hydroph_interaction:ASP:83>  (236) 
0

>  <hbond:TYR:130>  (236) 
1

>  <hydroph_interaction:ALA:132>  (236) 
1

>  <hbond:HIS:51>  (236) 
0

>  <hbond:ASP:129>  (236) 
1

>  <hbond:TYR:150>  (236) 
0

>  <hbond:GLY:151>  (236) 
0

>  <hbond:TYR:161>  (236) 
0

>  <hydroph_interaction:TYR:130>  (236) 
0

>  <hydroph_interaction:PRO:131>  (236) 
0

>  <hydroph_interaction:ASP:129>  (236) 
0

>  <saltbridge:ASP:75>  (236) 
0

>  <saltbridge:ASP:83>  (236) 
0

>  <hydroph_interaction:ASN:152>  (236) 
0

>  <halogenbond:TYR:150>  (236) 
0

>  <hbond:ASP:83>  (236) 
0

>  <hydroph_interaction:VAL:155>  (236) 
0

>  <pication:TYR:161>  (236) 
0

>  <hbond:PRO:131>  (236) 
0

>  <hbond:LEU:128>  (236) 
0

>  <saltbridge:ASP:129>  (236) 
0

>  <hbond:THR:134>  (236) 
0

>  <pication:HIS:51>  (236) 
0

>  <hbond:SER:81>  (236) 
0

>  <hbond:GLY:159>  (236) 
0

>  <hydroph_interaction:PRO:101>  (236) 
0

>  <hydroph_interaction:THR:134>  (236) 
0

>  <hbond:GLY:82>  (236) 
0

>  <hydroph_interaction:GLU:104>  (236) 
0

>  <hydroph_interaction:VAL:36>  (236) 
0

>  <hydroph_interaction:MET:49>  (236) 
0

>  <halogenbond:GLU:104>  (236) 
0

>  <hydroph_interaction:LYS:107>  (236) 
0

$$$$
VSLLJGPNQHJCTI-UHFFFAOYSA-N
     RDKit          3D

 56 58  0  0  0  0  0  0  0  0999 V2000
   -9.3620    5.8110  -15.2930 C   0  0  0  0  0  0  0  0  0  0  0  0
   -8.7260    6.7040  -14.4460 N   0  0  0  0  0  0  0  0  0  0  0  0
   -8.7780    6.3700  -13.1260 C   0  0  0  0  0  0  0  0  0  0  0  0
   -8.9380    4.9060  -12.9800 C   0  0  0  0  0  0  0  0  0  0  0  0
   -9.0320    4.3510  -11.6500 C   0  0  0  0  0  0  0  0  0  0  0  0
   -8.9690    5.1940  -10.5580 C   0  0  0  0  0  0  0  0  0  0  0  0
   -9.0770    4.6360   -9.3160 C   0  0  0  0  0  0  0  0  0  0  0  0
   -8.2290    3.6580   -9.0000 N   0  0  0  0  0  0  0  0  0  0  0  0
   -8.8810    2.4950   -8.4170 C   0  0  0  0  0  0  0  0  0  0  0  0
   -9.0770    2.8540   -6.9570 C   0  0  0  0  0  0  0  0  0  0  0  0
   -8.8680    4.2470   -6.6850 O   0  0  0  0  0  0  0  0  0  0  0  0
   -7.5600    4.7010   -7.0690 C   0  0  0  0  0  0  0  0  0  0  0  0
   -7.0780    4.1380   -8.2480 C   0  0  0  0  0  0  0  0  0  0  0  0
   -8.8080    6.5890  -10.7220 C   0  0  0  0  0  0  0  0  0  0  0  0
   -8.7110    7.1970  -11.9970 C   0  0  0  0  0  0  0  0  0  0  0  0
  -10.3680    5.2440  -14.9260 O   0  0  0  0  0  0  0  0  0  0  0  0
   -8.8700    5.4900  -16.6600 C   0  0  0  0  0  0  0  0  0  0  0  0
   -9.7470    4.8810  -17.5700 C   0  0  0  0  0  0  0  0  0  0  0  0
   -9.3310    4.5830  -18.8490 C   0  0  0  0  0  0  0  0  0  0  0  0
   -7.9180    4.9130  -19.2770 C   0  0  0  0  0  0  0  0  0  0  0  0
   -7.0960    5.5040  -18.3390 C   0  0  0  0  0  0  0  0  0  0  0  0
   -5.7780    5.8430  -18.6340 O   0  0  0  0  0  0  0  0  0  0  0  0
   -5.3990    5.6980  -19.9630 C   0  0  0  0  0  0  0  0  0  0  0  0
   -4.0670    5.3750  -20.1490 C   0  0  0  0  0  0  0  0  0  0  0  0
   -3.5670    5.4230  -21.4440 N   0  0  0  0  0  0  0  0  0  0  0  0
   -2.2920    4.7800  -21.6870 C   0  0  0  0  0  0  0  0  0  0  0  0
   -4.5190    5.3270  -22.5200 C   0  0  0  0  0  0  0  0  0  0  0  0
   -3.3580    5.0490  -19.1950 O   0  0  0  0  0  0  0  0  0  0  0  0
   -7.5520    5.7930  -17.0450 C   0  0  0  0  0  0  0  0  0  0  0  0
   -7.8330    7.1020  -14.7160 H   0  0  0  0  0  0  0  0  0  0  0  0
   -8.9930    4.2310  -13.8270 H   0  0  0  0  0  0  0  0  0  0  0  0
   -9.1530    3.2640  -11.6030 H   0  0  0  0  0  0  0  0  0  0  0  0
  -10.0550    4.1720   -9.2790 H   0  0  0  0  0  0  0  0  0  0  0  0
   -9.1150    5.5010   -8.6680 H   0  0  0  0  0  0  0  0  0  0  0  0
   -9.8360    2.3220   -8.8970 H   0  0  0  0  0  0  0  0  0  0  0  0
   -8.2670    1.6050   -8.4880 H   0  0  0  0  0  0  0  0  0  0  0  0
  -10.0930    2.5950   -6.6410 H   0  0  0  0  0  0  0  0  0  0  0  0
   -8.3690    2.2910   -6.3440 H   0  0  0  0  0  0  0  0  0  0  0  0
   -7.6050    5.7910   -7.1610 H   0  0  0  0  0  0  0  0  0  0  0  0
   -6.8790    4.4720   -6.2420 H   0  0  0  0  0  0  0  0  0  0  0  0
   -6.3960    3.3210   -8.0410 H   0  0  0  0  0  0  0  0  0  0  0  0
   -6.5350    4.9170   -8.7950 H   0  0  0  0  0  0  0  0  0  0  0  0
   -8.7590    7.2400   -9.8520 H   0  0  0  0  0  0  0  0  0  0  0  0
   -8.5920    8.2750  -12.0820 H   0  0  0  0  0  0  0  0  0  0  0  0
  -10.7590    4.6420  -17.2740 H   0  0  0  0  0  0  0  0  0  0  0  0
  -10.0040    4.1230  -19.5320 H   0  0  0  0  0  0  0  0  0  0  0  0
   -7.5750    4.6880  -20.2820 H   0  0  0  0  0  0  0  0  0  0  0  0
   -5.6710    6.5810  -20.5540 H   0  0  0  0  0  0  0  0  0  0  0  0
   -5.9790    4.8540  -20.3550 H   0  0  0  0  0  0  0  0  0  0  0  0
   -2.4030    4.0650  -22.5010 H   0  0  0  0  0  0  0  0  0  0  0  0
   -1.5040    5.4960  -21.9360 H   0  0  0  0  0  0  0  0  0  0  0  0
   -1.9970    4.2250  -20.7910 H   0  0  0  0  0  0  0  0  0  0  0  0
   -4.0100    5.2290  -23.4800 H   0  0  0  0  0  0  0  0  0  0  0  0
   -5.1420    4.4530  -22.3500 H   0  0  0  0  0  0  0  0  0  0  0  0
   -5.1410    6.2260  -22.5420 H   0  0  0  0  0  0  0  0  0  0  0  0
   -6.8770    6.2610  -16.3310 H   0  0  0  0  0  0  0  0  0  0  0  0
  1  2  1  0
  2  3  1  0
  3  4  2  0
  4  5  1  0
  5  6  2  0
  6  7  1  0
  7  8  1  0
  8  9  1  0
  9 10  1  0
 10 11  1  0
 11 12  1  0
 12 13  1  0
  6 14  1  0
 14 15  2  0
  1 16  2  0
  1 17  1  0
 17 18  2  0
 18 19  1  0
 19 20  2  0
 20 21  1  0
 21 22  1  0
 22 23  1  0
 23 24  1  0
 24 25  1  0
 25 26  1  0
 25 27  1  0
 24 28  2  0
 21 29  2  0
 15  3  1  0
 13  8  1  0
 17 29  1  0
  2 30  1  0
  4 31  1  0
  5 32  1  0
  7 33  1  0
  7 34  1  0
  9 35  1  0
  9 36  1  0
 10 37  1  0
 10 38  1  0
 12 39  1  0
 12 40  1  0
 13 41  1  0
 13 42  1  0
 14 43  1  0
 15 44  1  0
 18 45  1  0
 19 46  1  0
 20 47  1  0
 23 48  1  0
 23 49  1  0
 26 50  1  0
 26 51  1  0
 26 52  1  0
 27 53  1  0
 27 54  1  0
 27 55  1  0
 29 56  1  0
A    1
 C1 
A    2
 N1 
A    3
 C2 
A    4
 C3 
A    5
 C4 
A    6
 C5 
A    7
 C6 
A    8
 N2 
A    9
 C7 
A   10
 C8 
A   11
 O1 
A   12
 C9 
A   13
 C10
A   14
 C11
A   15
 C12
A   16
 O2 
A   17
 C13
A   18
 C14
A   19
 C15
A   20
 C16
A   21
 C17
A   22
 O3 
A   23
 C18
A   24
 C19
A   25
 N3 
A   26
 C20
A   27
 C21
A   28
 O4 
A   29
 C22
A   30
 H1 
A   31
 H2 
A   32
 H3 
A   33
 H4 
A   34
 H5 
A   35
 H6 
A   36
 H7 
A   37
 H8 
A   38
 H9 
A   39
 H10
A   40
 H11
A   41
 H12
A   42
 H13
A   43
 H14
A   44
 H15
A   45
 H16
A   46
 H17
A   47
 H18
A   48
 H19
A   49
 H20
A   50
 H21
A   51
 H22
A   52
 H23
A   53
 H24
A   54
 H25
A   55
 H26
A   56
 H27
M  END
>  <ref_pdb>  (237) 
x0051_0B

>  <ref_mols>  (237) 
x0904_0B,x0404_0B

>  <original SMILES>  (237) 
[H]c1c([H])c(OC([H])([H])C(=O)N(C([H])([H])[H])C([H])([H])[H])c([H])c(C(=O)N([H])c2c([H])c([H])c(C([H])([H])N3C([H])([H])C([H])([H])OC([H])([H])C3([H])[H])c([H])c2[H])c1[H]

>  <index>  (237) 
328

>  <∆∆G>  (237) 
-8.326065

>  <∆G_bound>  (237) 
-7.825958

>  <∆G_unbound>  (237) 
0.500107

>  <comRMSD>  (237) 
0.62629

>  <N_constrained_atoms>  (237) 
28.0

>  <N_unconstrained_atoms>  (237) 
2.0

>  <runtime>  (237) 
123.980453

>  <LE>  (237) 
0.277535

>  <percent_hybrid>  (237) 
50.0

>  <dist>  (237) 
7.0

>  <ecfp4>  (237) 
0.358974

>  <daylight>  (237) 
0.335

>  <topodist>  (237) 
4.0

>  <mces>  (237) 
29.0

>  <tdn>  (237) 
2.0

>  <tup>  (237) 
1.0

>  <rdn>  (237) 
0.0

>  <rup>  (237) 
0.0

>  <ldn>  (237) 
0.0

>  <lup>  (237) 
1.0

>  <mut>  (237) 
3.0

>  <maj>  (237) 
3.0

>  <min>  (237) 
0.0

>  <hyb>  (237) 
0.0

>  <sub>  (237) 
0.0

>  <query_index>  (237) 
19.0

>  <max_hit_Tanimoto>  (237) 
0.299213

>  <largest_ring>  (237) 
0

>  <N_interactions_kept>  (237) 
2.0

>  <N_interactions_lost>  (237) 
2.5

>  <interaction_uniqueness_metric>  (237) 
0.401338

>  <ad_hoc_penalty>  (237) 
-22.895399

>  <N_rotatable_bonds>  (237) 
9

>  <N_HA>  (237) 
29

>  <cluster>  (237) 
5920

>  <N_interactions>  (237) 
9

>  <Enamine>  (237) 
0

>  <Mcule>  (237) 
1

>  <N_PAINS>  (237) 
0

>  <UFF_Gibbs>  (237) 
232.254259

>  <strain_per_HA>  (237) 
8.008768

>  <saltbridge:HIS:51>  (237) 
0

>  <pistack:HIS:51>  (237) 
1

>  <hydroph_interaction:HIS:51>  (237) 
1

>  <hbond:ALA:132>  (237) 
0

>  <hbond:SER:135>  (237) 
1

>  <hydroph_interaction:TYR:150>  (237) 
1

>  <pistack:TYR:161>  (237) 
0

>  <hydroph_interaction:TYR:161>  (237) 
2

>  <hydroph_interaction:ASP:83>  (237) 
0

>  <hbond:TYR:130>  (237) 
0

>  <hydroph_interaction:ALA:132>  (237) 
1

>  <hbond:HIS:51>  (237) 
0

>  <hbond:ASP:129>  (237) 
0

>  <hbond:TYR:150>  (237) 
0

>  <hbond:GLY:151>  (237) 
0

>  <hbond:TYR:161>  (237) 
0

>  <hydroph_interaction:TYR:130>  (237) 
0

>  <hydroph_interaction:PRO:131>  (237) 
0

>  <hydroph_interaction:ASP:129>  (237) 
0

>  <saltbridge:ASP:75>  (237) 
1

>  <saltbridge:ASP:83>  (237) 
1

>  <hydroph_interaction:ASN:152>  (237) 
0

>  <halogenbond:TYR:150>  (237) 
0

>  <hbond:ASP:83>  (237) 
0

>  <hydroph_interaction:VAL:155>  (237) 
0

>  <pication:TYR:161>  (237) 
0

>  <hbond:PRO:131>  (237) 
0

>  <hbond:LEU:128>  (237) 
0

>  <saltbridge:ASP:129>  (237) 
0

>  <hbond:THR:134>  (237) 
0

>  <pication:HIS:51>  (237) 
0

>  <hbond:SER:81>  (237) 
0

>  <hbond:GLY:159>  (237) 
0

>  <hydroph_interaction:PRO:101>  (237) 
0

>  <hydroph_interaction:THR:134>  (237) 
0

>  <hbond:GLY:82>  (237) 
0

>  <hydroph_interaction:GLU:104>  (237) 
0

>  <hydroph_interaction:VAL:36>  (237) 
0

>  <hydroph_interaction:MET:49>  (237) 
0

>  <halogenbond:GLU:104>  (237) 
0

>  <hydroph_interaction:LYS:107>  (237) 
0

$$$$
LUZDAWBRMLYCBD-UHFFFAOYSA-N
     RDKit          3D

 39 42  0  0  0  0  0  0  0  0999 V2000
   -8.5180    7.1540  -13.9400 C   0  0  0  0  0  0  0  0  0  0  0  0
   -7.7350    6.4620  -14.8670 N   0  0  0  0  0  0  0  0  0  0  0  0
   -8.2350    5.8360  -16.0850 C   0  0  0  0  0  0  0  0  0  0  0  0
   -7.1770    5.6790  -17.1890 C   0  0  0  0  0  0  0  0  0  0  0  0
   -7.5390    5.1330  -18.4000 C   0  0  0  0  0  0  0  0  0  0  0  0
   -6.5120    5.0810  -19.2470 N   0  0  0  0  0  0  0  0  0  0  0  0
   -5.4600    5.6110  -18.5180 O   0  0  0  0  0  0  0  0  0  0  0  0
   -5.8710    5.9850  -17.2410 N   0  0  0  0  0  0  0  0  0  0  0  0
   -8.9750    4.6590  -18.6800 C   0  0  0  0  0  0  0  0  0  0  0  0
   -9.8910    4.8120  -17.6260 C   0  0  0  0  0  0  0  0  0  0  0  0
   -9.5310    5.3750  -16.3850 C   0  0  0  0  0  0  0  0  0  0  0  0
   -9.0220    8.2680  -14.0840 O   0  0  0  0  0  0  0  0  0  0  0  0
   -8.6670    6.4500  -12.6610 C   0  0  0  0  0  0  0  0  0  0  0  0
   -8.6220    7.1840  -11.3710 C   0  0  0  0  0  0  0  0  0  0  0  0
   -8.7500    6.4500  -10.1970 C   0  0  0  0  0  0  0  0  0  0  0  0
   -8.9130    5.0850  -10.2510 C   0  0  0  0  0  0  0  0  0  0  0  0
   -9.0380    4.3760   -9.0540 N   0  0  0  0  0  0  0  0  0  0  0  0
   -9.1190    2.9090   -9.2320 C   0  0  0  0  0  0  0  0  0  0  0  0
   -9.6280    2.3240   -7.9910 C   0  0  0  0  0  0  0  0  0  0  0  0
   -8.8010    2.6480   -6.8660 O   0  0  0  0  0  0  0  0  0  0  0  0
   -8.6760    4.0660   -6.6680 C   0  0  0  0  0  0  0  0  0  0  0  0
   -8.2240    4.8000   -7.9340 C   0  0  0  0  0  0  0  0  0  0  0  0
   -8.9600    4.4130  -11.4240 N   0  0  0  0  0  0  0  0  0  0  0  0
   -8.8410    5.0870  -12.5890 C   0  0  0  0  0  0  0  0  0  0  0  0
   -6.7970    6.2210  -14.5850 H   0  0  0  0  0  0  0  0  0  0  0  0
   -9.2510    4.2300  -19.6390 H   0  0  0  0  0  0  0  0  0  0  0  0
  -10.9150    4.4870  -17.7820 H   0  0  0  0  0  0  0  0  0  0  0  0
  -10.2900    5.4670  -15.6170 H   0  0  0  0  0  0  0  0  0  0  0  0
   -8.4880    8.2630  -11.3380 H   0  0  0  0  0  0  0  0  0  0  0  0
   -8.7210    6.9500   -9.2300 H   0  0  0  0  0  0  0  0  0  0  0  0
   -8.1290    2.4940   -9.4570 H   0  0  0  0  0  0  0  0  0  0  0  0
   -9.8120    2.6460  -10.0460 H   0  0  0  0  0  0  0  0  0  0  0  0
   -9.6710    1.2410   -8.0760 H   0  0  0  0  0  0  0  0  0  0  0  0
  -10.6440    2.6710   -7.7790 H   0  0  0  0  0  0  0  0  0  0  0  0
   -7.9520    4.2170   -5.8620 H   0  0  0  0  0  0  0  0  0  0  0  0
   -9.6480    4.4360   -6.3170 H   0  0  0  0  0  0  0  0  0  0  0  0
   -8.3800    5.8780   -7.8110 H   0  0  0  0  0  0  0  0  0  0  0  0
   -7.1480    4.6700   -8.1070 H   0  0  0  0  0  0  0  0  0  0  0  0
   -8.8900    4.4490  -13.4830 H   0  0  0  0  0  0  0  0  0  0  0  0
  1  2  1  0
  2  3  1  0
  3  4  1  0
  4  5  1  0
  5  6  2  0
  6  7  1  0
  7  8  1  0
  5  9  1  0
  9 10  2  0
 10 11  1  0
  1 12  2  0
  1 13  1  0
 13 14  2  0
 14 15  1  0
 15 16  2  0
 16 17  1  0
 17 18  1  0
 18 19  1  0
 19 20  1  0
 20 21  1  0
 21 22  1  0
 16 23  1  0
 23 24  2  0
  3 11  2  0
  4  8  2  0
 24 13  1  0
 22 17  1  0
  2 25  1  0
  9 26  1  0
 10 27  1  0
 11 28  1  0
 14 29  1  0
 15 30  1  0
 18 31  1  0
 18 32  1  0
 19 33  1  0
 19 34  1  0
 21 35  1  0
 21 36  1  0
 22 37  1  0
 22 38  1  0
 24 39  1  0
A    1
 C1 
A    2
 N1 
A    3
 C2 
A    4
 C3 
A    5
 C4 
A    6
 N2 
A    7
 O1 
A    8
 N3 
A    9
 C5 
A   10
 C6 
A   11
 C7 
A   12
 O2 
A   13
 C8 
A   14
 C9 
A   15
 C10
A   16
 C11
A   17
 N4 
A   18
 C12
A   19
 C13
A   20
 O3 
A   21
 C14
A   22
 C15
A   23
 N5 
A   24
 C16
A   25
 H1 
A   26
 H2 
A   27
 H3 
A   28
 H4 
A   29
 H5 
A   30
 H6 
A   31
 H7 
A   32
 H8 
A   33
 H9 
A   34
 H10
A   35
 H11
A   36
 H12
A   37
 H13
A   38
 H14
A   39
 H15
M  END
>  <ref_pdb>  (238) 
x0051_0B

>  <ref_mols>  (238) 
x0435_0B,x0404_0B

>  <original SMILES>  (238) 
[H]c1nc(N2C([H])([H])C([H])([H])OC([H])([H])C2([H])[H])c([H])c([H])c1C(=O)N([H])c1c([H])c([H])c([H])c2nonc12

>  <index>  (238) 
419

>  <∆∆G>  (238) 
-6.047059

>  <∆G_bound>  (238) 
-5.227839

>  <∆G_unbound>  (238) 
0.81922

>  <comRMSD>  (238) 
0.521739

>  <N_constrained_atoms>  (238) 
24.0

>  <N_unconstrained_atoms>  (238) 
0.0

>  <runtime>  (238) 
86.121089

>  <LE>  (238) 
0.251961

>  <percent_hybrid>  (238) 
38.0

>  <dist>  (238) 
10.0

>  <ecfp4>  (238) 
0.130435

>  <daylight>  (238) 
0.21

>  <topodist>  (238) 
3.0

>  <mces>  (238) 
27.0

>  <tdn>  (238) 
2.0

>  <tup>  (238) 
0.0

>  <rdn>  (238) 
0.0

>  <rup>  (238) 
0.0

>  <ldn>  (238) 
1.0

>  <lup>  (238) 
0.0

>  <mut>  (238) 
6.0

>  <maj>  (238) 
6.0

>  <min>  (238) 
0.0

>  <hyb>  (238) 
1.0

>  <sub>  (238) 
0.0

>  <query_index>  (238) 
26.0

>  <max_hit_Tanimoto>  (238) 
0.201638

>  <largest_ring>  (238) 
0

>  <N_interactions_kept>  (238) 
3.0

>  <N_interactions_lost>  (238) 
1.5

>  <interaction_uniqueness_metric>  (238) 
0.112655

>  <ad_hoc_penalty>  (238) 
-22.876068

>  <N_rotatable_bonds>  (238) 
3

>  <N_HA>  (238) 
24

>  <cluster>  (238) 
525

>  <N_interactions>  (238) 
5

>  <Enamine>  (238) 
0

>  <Mcule>  (238) 
1

>  <N_PAINS>  (238) 
0

>  <UFF_Gibbs>  (238) 
84.476242

>  <strain_per_HA>  (238) 
3.519843

>  <saltbridge:HIS:51>  (238) 
0

>  <pistack:HIS:51>  (238) 
1

>  <hydroph_interaction:HIS:51>  (238) 
1

>  <hbond:ALA:132>  (238) 
0

>  <hbond:SER:135>  (238) 
0

>  <hydroph_interaction:TYR:150>  (238) 
1

>  <pistack:TYR:161>  (238) 
0

>  <hydroph_interaction:TYR:161>  (238) 
1

>  <hydroph_interaction:ASP:83>  (238) 
0

>  <hbond:TYR:130>  (238) 
0

>  <hydroph_interaction:ALA:132>  (238) 
1

>  <hbond:HIS:51>  (238) 
0

>  <hbond:ASP:129>  (238) 
0

>  <hbond:TYR:150>  (238) 
0

>  <hbond:GLY:151>  (238) 
0

>  <hbond:TYR:161>  (238) 
0

>  <hydroph_interaction:TYR:130>  (238) 
0

>  <hydroph_interaction:PRO:131>  (238) 
0

>  <hydroph_interaction:ASP:129>  (238) 
0

>  <saltbridge:ASP:75>  (238) 
0

>  <saltbridge:ASP:83>  (238) 
0

>  <hydroph_interaction:ASN:152>  (238) 
0

>  <halogenbond:TYR:150>  (238) 
0

>  <hbond:ASP:83>  (238) 
0

>  <hydroph_interaction:VAL:155>  (238) 
0

>  <pication:TYR:161>  (238) 
0

>  <hbond:PRO:131>  (238) 
0

>  <hbond:LEU:128>  (238) 
0

>  <saltbridge:ASP:129>  (238) 
0

>  <hbond:THR:134>  (238) 
0

>  <pication:HIS:51>  (238) 
0

>  <hbond:SER:81>  (238) 
0

>  <hbond:GLY:159>  (238) 
0

>  <hydroph_interaction:PRO:101>  (238) 
0

>  <hydroph_interaction:THR:134>  (238) 
0

>  <hbond:GLY:82>  (238) 
0

>  <hydroph_interaction:GLU:104>  (238) 
0

>  <hydroph_interaction:VAL:36>  (238) 
0

>  <hydroph_interaction:MET:49>  (238) 
0

>  <halogenbond:GLU:104>  (238) 
0

>  <hydroph_interaction:LYS:107>  (238) 
0

$$$$
MCULE-4054944874
     RDKit          3D

 40 42  0  0  0  0  0  0  0  0999 V2000
   -8.5270    7.0620  -13.8330 C   0  0  0  0  0  0  0  0  0  0  0  0
   -8.6710    6.4260  -12.6120 C   0  0  0  0  0  0  0  0  0  0  0  0
   -8.6220    7.1270  -11.4060 C   0  0  0  0  0  0  0  0  0  0  0  0
   -8.7290    6.4710  -10.1970 C   0  0  0  0  0  0  0  0  0  0  0  0
   -8.9010    4.9540  -10.2110 C   0  0  0  0  0  0  0  0  0  0  0  0
   -9.0030    4.1830   -9.0520 N   0  0  0  0  0  0  0  0  0  0  0  0
   -9.1780    2.8110   -9.0600 C   0  0  0  0  0  0  0  0  0  0  0  0
   -9.7120    2.3750   -7.8590 C   0  0  0  0  0  0  0  0  0  0  0  0
   -8.9240    2.8570   -6.7690 O   0  0  0  0  0  0  0  0  0  0  0  0
   -8.8970    4.0780   -6.8220 C   0  0  0  0  0  0  0  0  0  0  0  0
   -8.3150    4.5980   -7.9760 C   0  0  0  0  0  0  0  0  0  0  0  0
   -8.9520    4.3460  -11.4690 C   0  0  0  0  0  0  0  0  0  0  0  0
   -8.8430    5.0460  -12.6490 C   0  0  0  0  0  0  0  0  0  0  0  0
   -9.1560    8.0900  -14.0790 O   0  0  0  0  0  0  0  0  0  0  0  0
   -7.5680    6.4090  -14.6200 N   0  0  0  0  0  0  0  0  0  0  0  0
   -7.8270    5.8590  -15.9550 C   0  0  0  0  0  0  0  0  0  0  0  0
   -9.1850    5.4370  -16.4700 C   0  0  0  0  0  0  0  0  0  0  0  0
   -9.3780    4.9430  -17.7550 C   0  0  0  0  0  0  0  0  0  0  0  0
  -10.6300    4.5790  -18.2290 C   0  0  0  0  0  0  0  0  0  0  0  0
  -11.3470    5.3760  -19.0750 N   0  0  0  0  0  0  0  0  0  0  0  0
   -8.2650    4.8340  -18.5730 C   0  0  0  0  0  0  0  0  0  0  0  0
   -8.3530    4.2500  -20.1670 Cl  0  0  0  0  0  0  0  0  0  0  0  0
   -6.9120    5.2190  -18.1180 C   0  0  0  0  0  0  0  0  0  0  0  0
   -6.7580    5.7130  -16.8300 C   0  0  0  0  0  0  0  0  0  0  0  0
   -8.4880    8.2100  -11.4980 H   0  0  0  0  0  0  0  0  0  0  0  0
   -8.6860    7.0180   -9.2580 H   0  0  0  0  0  0  0  0  0  0  0  0
   -9.8680    2.5500   -9.8730 H   0  0  0  0  0  0  0  0  0  0  0  0
   -8.2410    2.2780   -9.2280 H   0  0  0  0  0  0  0  0  0  0  0  0
   -9.7720    1.2940   -7.8220 H   0  0  0  0  0  0  0  0  0  0  0  0
  -10.7240    2.7670   -7.7390 H   0  0  0  0  0  0  0  0  0  0  0  0
   -8.2940    4.3930   -5.9670 H   0  0  0  0  0  0  0  0  0  0  0  0
   -9.9060    4.4180   -6.5950 H   0  0  0  0  0  0  0  0  0  0  0  0
   -7.2580    4.4070   -8.1560 H   0  0  0  0  0  0  0  0  0  0  0  0
   -8.3750    5.6910   -7.9040 H   0  0  0  0  0  0  0  0  0  0  0  0
   -9.0780    3.2680  -11.6320 H   0  0  0  0  0  0  0  0  0  0  0  0
   -8.8830    4.5190  -13.6020 H   0  0  0  0  0  0  0  0  0  0  0  0
   -6.7860    5.9980  -14.1230 H   0  0  0  0  0  0  0  0  0  0  0  0
  -10.0530    5.5310  -15.8130 H   0  0  0  0  0  0  0  0  0  0  0  0
   -6.0960    5.0920  -18.8360 H   0  0  0  0  0  0  0  0  0  0  0  0
   -5.7450    5.9940  -16.5210 H   0  0  0  0  0  0  0  0  0  0  0  0
  1  2  1  0
  2  3  2  0
  3  4  1  0
  4  5  2  0
  5  6  1  0
  6  7  1  0
  7  8  1  0
  8  9  1  0
  9 10  1  0
 10 11  1  0
  5 12  1  0
 12 13  2  0
  1 14  2  0
  1 15  1  0
 15 16  1  0
 16 17  2  0
 17 18  1  0
 18 19  1  0
 19 20  3  0
 18 21  2  0
 21 22  1  0
 21 23  1  0
 23 24  2  0
  2 13  1  0
 11  6  1  0
 16 24  1  0
  3 25  1  0
  4 26  1  0
  7 27  1  0
  7 28  1  0
  8 29  1  0
  8 30  1  0
 10 31  1  0
 10 32  1  0
 11 33  1  0
 11 34  1  0
 12 35  1  0
 13 36  1  0
 15 37  1  0
 17 38  1  0
 23 39  1  0
 24 40  1  0
A    1
 C1 
A    2
 C2 
A    3
 C3 
A    4
 C4 
A    5
 C5 
A    6
 N1 
A    7
 C6 
A    8
 C7 
A    9
 O1 
A   10
 C8 
A   11
 C9 
A   12
 C10
A   13
 C11
A   14
 O2 
A   15
 N2 
A   16
 C12
A   17
 C13
A   18
 C14
A   19
 C15
A   20
 N3 
A   21
 C16
A   22
CL1 
A   23
 C17
A   24
 C18
A   25
 H1 
A   26
 H2 
A   27
 H3 
A   28
 H4 
A   29
 H5 
A   30
 H6 
A   31
 H7 
A   32
 H8 
A   33
 H9 
A   34
 H10
A   35
 H11
A   36
 H12
A   37
 H13
A   38
 H14
A   39
 H15
A   40
 H16
M  END
>  <ref_pdb>  (239) 
x0051_0B

>  <ref_mols>  (239) 
x0553_0B,x0404_0B

>  <original SMILES>  (239) 
[H]c1c([H])c(N([H])C(=O)c2c([H])c([H])c(N3C([H])([H])C([H])([H])OC([H])([H])C3([H])[H])c([H])c2[H])c([H])c(C#N)c1Cl

>  <index>  (239) 
313

>  <∆∆G>  (239) 
-5.637168

>  <∆G_bound>  (239) 
-5.224219

>  <∆G_unbound>  (239) 
0.412949

>  <comRMSD>  (239) 
0.622326

>  <N_constrained_atoms>  (239) 
24.0

>  <N_unconstrained_atoms>  (239) 
1.0

>  <runtime>  (239) 
76.964958

>  <LE>  (239) 
0.225487

>  <percent_hybrid>  (239) 
38.0

>  <dist>  (239) 
7.0

>  <ecfp4>  (239) 
0.25

>  <daylight>  (239) 
0.236453

>  <topodist>  (239) 
4.0

>  <mces>  (239) 
25.0

>  <tdn>  (239) 
2.0

>  <tup>  (239) 
1.0

>  <rdn>  (239) 
0.0

>  <rup>  (239) 
0.0

>  <ldn>  (239) 
1.0

>  <lup>  (239) 
0.0

>  <mut>  (239) 
2.0

>  <maj>  (239) 
2.0

>  <min>  (239) 
0.0

>  <hyb>  (239) 
1.0

>  <sub>  (239) 
2.0

>  <query_index>  (239) 
112.0

>  <max_hit_Tanimoto>  (239) 
0.239193

>  <largest_ring>  (239) 
0

>  <N_interactions_kept>  (239) 
1.0

>  <N_interactions_lost>  (239) 
2.5

>  <interaction_uniqueness_metric>  (239) 
0.550597

>  <ad_hoc_penalty>  (239) 
-22.769051

>  <N_rotatable_bonds>  (239) 
3

>  <N_HA>  (239) 
24

>  <cluster>  (239) 
5934

>  <N_interactions>  (239) 
7

>  <Enamine>  (239) 
0

>  <Mcule>  (239) 
1

>  <N_PAINS>  (239) 
0

>  <UFF_Gibbs>  (239) 
256.646272

>  <strain_per_HA>  (239) 
10.693595

>  <saltbridge:HIS:51>  (239) 
0

>  <pistack:HIS:51>  (239) 
1

>  <hydroph_interaction:HIS:51>  (239) 
1

>  <hbond:ALA:132>  (239) 
0

>  <hbond:SER:135>  (239) 
0

>  <hydroph_interaction:TYR:150>  (239) 
0

>  <pistack:TYR:161>  (239) 
1

>  <hydroph_interaction:TYR:161>  (239) 
0

>  <hydroph_interaction:ASP:83>  (239) 
0

>  <hbond:TYR:130>  (239) 
0

>  <hydroph_interaction:ALA:132>  (239) 
1

>  <hbond:HIS:51>  (239) 
0

>  <hbond:ASP:129>  (239) 
0

>  <hbond:TYR:150>  (239) 
0

>  <hbond:GLY:151>  (239) 
0

>  <hbond:TYR:161>  (239) 
0

>  <hydroph_interaction:TYR:130>  (239) 
0

>  <hydroph_interaction:PRO:131>  (239) 
0

>  <hydroph_interaction:ASP:129>  (239) 
0

>  <saltbridge:ASP:75>  (239) 
0

>  <saltbridge:ASP:83>  (239) 
0

>  <hydroph_interaction:ASN:152>  (239) 
0

>  <halogenbond:TYR:150>  (239) 
1

>  <hbond:ASP:83>  (239) 
0

>  <hydroph_interaction:VAL:155>  (239) 
0

>  <pication:TYR:161>  (239) 
0

>  <hbond:PRO:131>  (239) 
1

>  <hbond:LEU:128>  (239) 
0

>  <saltbridge:ASP:129>  (239) 
0

>  <hbond:THR:134>  (239) 
1

>  <pication:HIS:51>  (239) 
0

>  <hbond:SER:81>  (239) 
0

>  <hbond:GLY:159>  (239) 
0

>  <hydroph_interaction:PRO:101>  (239) 
0

>  <hydroph_interaction:THR:134>  (239) 
0

>  <hbond:GLY:82>  (239) 
0

>  <hydroph_interaction:GLU:104>  (239) 
0

>  <hydroph_interaction:VAL:36>  (239) 
0

>  <hydroph_interaction:MET:49>  (239) 
0

>  <halogenbond:GLU:104>  (239) 
0

>  <hydroph_interaction:LYS:107>  (239) 
0

$$$$
MCULE-8315662683
     RDKit          3D

 18 19  0  0  0  0  0  0  0  0999 V2000
   -7.8660    5.0550  -18.2140 C   0  0  0  0  0  0  0  0  0  0  0  0
   -8.3430    5.0600  -16.8200 C   0  0  0  0  0  0  0  0  0  0  0  0
   -9.7840    4.8160  -16.7590 C   0  0  0  0  0  0  0  0  0  0  0  0
  -10.1770    4.6770  -18.0660 O   0  0  0  0  0  0  0  0  0  0  0  0
   -9.0620    4.8130  -18.9110 C   0  0  0  0  0  0  0  0  0  0  0  0
   -6.5330    5.2250  -18.7200 C   0  0  0  0  0  0  0  0  0  0  0  0
   -6.1880    5.3620  -20.1870 C   0  0  0  0  0  0  0  0  0  0  0  0
   -4.9180    5.4970  -20.6210 N   0  0  0  0  0  0  0  0  0  0  0  0
   -3.9460    5.5060  -19.6760 C   0  0  0  0  0  0  0  0  0  0  0  0
   -4.1580    5.3860  -18.3070 C   0  0  0  0  0  0  0  0  0  0  0  0
   -5.4580    5.2490  -17.8300 C   0  0  0  0  0  0  0  0  0  0  0  0
   -7.6980    5.2140  -15.9490 H   0  0  0  0  0  0  0  0  0  0  0  0
  -10.5080    4.7290  -15.9730 H   0  0  0  0  0  0  0  0  0  0  0  0
   -9.2960    4.7090  -19.9650 H   0  0  0  0  0  0  0  0  0  0  0  0
   -6.9380    5.3510  -20.9680 H   0  0  0  0  0  0  0  0  0  0  0  0
   -2.9370    5.6150  -20.0700 H   0  0  0  0  0  0  0  0  0  0  0  0
   -3.3170    5.4010  -17.6240 H   0  0  0  0  0  0  0  0  0  0  0  0
   -5.6160    5.1520  -16.7590 H   0  0  0  0  0  0  0  0  0  0  0  0
  1  2  1  0
  2  3  2  0
  3  4  1  0
  4  5  1  0
  1  6  1  0
  6  7  2  0
  7  8  1  0
  8  9  2  0
  9 10  1  0
 10 11  2  0
  1  5  2  0
  6 11  1  0
  2 12  1  0
  3 13  1  0
  5 14  1  0
  7 15  1  0
  9 16  1  0
 10 17  1  0
 11 18  1  0
A    1
 C1 
A    2
 C2 
A    3
 C3 
A    4
 O1 
A    5
 C4 
A    6
 C5 
A    7
 C6 
A    8
 N1 
A    9
 C7 
A   10
 C8 
A   11
 C9 
A   12
 H1 
A   13
 H2 
A   14
 H3 
A   15
 H4 
A   16
 H5 
A   17
 H6 
A   18
 H7 
M  END
>  <ref_pdb>  (240) 
x0051_0B

>  <ref_mols>  (240) 
x0680_0B,x0386_0B

>  <original SMILES>  (240) 
[H]c1nc([H])c(-c2c([H])oc([H])c2[H])c([H])c1[H]

>  <index>  (240) 
381

>  <∆∆G>  (240) 
-5.273917

>  <∆G_bound>  (240) 
-5.287037

>  <∆G_unbound>  (240) 
-0.01312

>  <comRMSD>  (240) 
0.639671

>  <N_constrained_atoms>  (240) 
13.0

>  <N_unconstrained_atoms>  (240) 
0.0

>  <runtime>  (240) 
21.920014

>  <LE>  (240) 
0.405686

>  <percent_hybrid>  (240) 
25.0

>  <dist>  (240) 
2.0

>  <ecfp4>  (240) 
0.276596

>  <daylight>  (240) 
0.438017

>  <topodist>  (240) 
1.0

>  <mces>  (240) 
12.0

>  <tdn>  (240) 
1.0

>  <tup>  (240) 
0.0

>  <rdn>  (240) 
0.0

>  <rup>  (240) 
0.0

>  <ldn>  (240) 
0.0

>  <lup>  (240) 
0.0

>  <mut>  (240) 
1.0

>  <maj>  (240) 
1.0

>  <min>  (240) 
0.0

>  <hyb>  (240) 
0.0

>  <sub>  (240) 
1.0

>  <query_index>  (240) 
296.0

>  <max_hit_Tanimoto>  (240) 
0.122153

>  <largest_ring>  (240) 
0

>  <N_interactions_kept>  (240) 
3.5

>  <N_interactions_lost>  (240) 
0.5

>  <interaction_uniqueness_metric>  (240) 
0.016266

>  <ad_hoc_penalty>  (240) 
-22.730155

>  <N_rotatable_bonds>  (240) 
1

>  <N_HA>  (240) 
11

>  <cluster>  (240) 
5868

>  <N_interactions>  (240) 
3

>  <Enamine>  (240) 
0

>  <Mcule>  (240) 
1

>  <N_PAINS>  (240) 
0

>  <UFF_Gibbs>  (240) 
34.529714

>  <strain_per_HA>  (240) 
3.139065

>  <saltbridge:HIS:51>  (240) 
0

>  <pistack:HIS:51>  (240) 
0

>  <hydroph_interaction:HIS:51>  (240) 
0

>  <hbond:ALA:132>  (240) 
0

>  <hbond:SER:135>  (240) 
0

>  <hydroph_interaction:TYR:150>  (240) 
0

>  <pistack:TYR:161>  (240) 
0

>  <hydroph_interaction:TYR:161>  (240) 
3

>  <hydroph_interaction:ASP:83>  (240) 
0

>  <hbond:TYR:130>  (240) 
0

>  <hydroph_interaction:ALA:132>  (240) 
0

>  <hbond:HIS:51>  (240) 
0

>  <hbond:ASP:129>  (240) 
0

>  <hbond:TYR:150>  (240) 
0

>  <hbond:GLY:151>  (240) 
0

>  <hbond:TYR:161>  (240) 
0

>  <hydroph_interaction:TYR:130>  (240) 
0

>  <hydroph_interaction:PRO:131>  (240) 
0

>  <hydroph_interaction:ASP:129>  (240) 
0

>  <saltbridge:ASP:75>  (240) 
0

>  <saltbridge:ASP:83>  (240) 
0

>  <hydroph_interaction:ASN:152>  (240) 
0

>  <halogenbond:TYR:150>  (240) 
0

>  <hbond:ASP:83>  (240) 
0

>  <hydroph_interaction:VAL:155>  (240) 
0

>  <pication:TYR:161>  (240) 
0

>  <hbond:PRO:131>  (240) 
0

>  <hbond:LEU:128>  (240) 
0

>  <saltbridge:ASP:129>  (240) 
0

>  <hbond:THR:134>  (240) 
0

>  <pication:HIS:51>  (240) 
0

>  <hbond:SER:81>  (240) 
0

>  <hbond:GLY:159>  (240) 
0

>  <hydroph_interaction:PRO:101>  (240) 
0

>  <hydroph_interaction:THR:134>  (240) 
0

>  <hbond:GLY:82>  (240) 
0

>  <hydroph_interaction:GLU:104>  (240) 
0

>  <hydroph_interaction:VAL:36>  (240) 
0

>  <hydroph_interaction:MET:49>  (240) 
0

>  <halogenbond:GLU:104>  (240) 
0

>  <hydroph_interaction:LYS:107>  (240) 
0

$$$$
Z2445835847
     RDKit          3D

 42 43  0  0  0  0  0  0  0  0999 V2000
  -12.0080    3.3190  -12.3630 C   0  0  0  0  0  0  0  0  0  0  0  0
  -10.6050    3.6720  -12.5270 N   0  0  0  0  0  0  0  0  0  0  0  0
   -9.6820    3.1180  -11.5450 C   0  0  0  0  0  0  0  0  0  0  0  0
  -10.1490    4.6840  -13.3820 C   0  0  0  0  0  0  0  0  0  0  0  0
  -10.9450    5.4980  -13.8500 O   0  0  0  0  0  0  0  0  0  0  0  0
   -8.6520    4.7200  -13.7190 C   0  0  0  0  0  0  0  0  0  0  0  0
   -8.2150    6.0750  -14.8880 S   0  0  0  0  0  0  0  0  0  0  0  0
   -8.3460    5.5580  -16.6130 C   0  0  0  0  0  0  0  0  0  0  0  0
   -9.6360    5.0040  -17.0330 C   0  0  0  0  0  0  0  0  0  0  0  0
   -9.8860    4.5830  -18.4230 C   0  0  0  0  0  0  0  0  0  0  0  0
   -8.8490    4.7130  -19.3630 C   0  0  0  0  0  0  0  0  0  0  0  0
   -7.6220    5.2260  -18.9560 C   0  0  0  0  0  0  0  0  0  0  0  0
   -7.3580    5.6360  -17.6370 C   0  0  0  0  0  0  0  0  0  0  0  0
   -5.9580    6.1590  -17.4470 C   0  0  0  0  0  0  0  0  0  0  0  0
   -5.4750    6.7620  -18.4000 O   0  0  0  0  0  0  0  0  0  0  0  0
   -5.2760    5.9550  -16.2650 N   0  0  0  0  0  0  0  0  0  0  0  0
   -5.2840    6.9880  -15.2290 C   0  0  0  0  0  0  0  0  0  0  0  0
   -3.9790    7.1110  -14.4760 C   0  0  0  0  0  0  0  0  0  0  0  0
   -3.4920    5.8130  -13.9970 N   0  0  0  0  0  0  0  0  0  0  0  0
   -3.4970    4.7310  -14.9920 C   0  0  0  0  0  0  0  0  0  0  0  0
   -4.0460    5.1520  -16.3670 C   0  0  0  0  0  0  0  0  0  0  0  0
  -12.1170    2.6610  -11.5080 H   0  0  0  0  0  0  0  0  0  0  0  0
  -12.6360    4.1960  -12.1930 H   0  0  0  0  0  0  0  0  0  0  0  0
  -12.3490    2.8010  -13.2640 H   0  0  0  0  0  0  0  0  0  0  0  0
   -9.3360    3.9270  -10.8960 H   0  0  0  0  0  0  0  0  0  0  0  0
   -8.8310    2.6690  -12.0630 H   0  0  0  0  0  0  0  0  0  0  0  0
  -10.1580    2.3520  -10.9290 H   0  0  0  0  0  0  0  0  0  0  0  0
   -8.1170    4.9130  -12.7830 H   0  0  0  0  0  0  0  0  0  0  0  0
   -8.3280    3.7460  -14.0720 H   0  0  0  0  0  0  0  0  0  0  0  0
  -10.4270    4.9050  -16.3080 H   0  0  0  0  0  0  0  0  0  0  0  0
  -10.8510    4.1870  -18.6980 H   0  0  0  0  0  0  0  0  0  0  0  0
   -9.0010    4.4140  -20.3960 H   0  0  0  0  0  0  0  0  0  0  0  0
   -6.8270    5.3150  -19.7020 H   0  0  0  0  0  0  0  0  0  0  0  0
   -5.5090    7.9360  -15.7310 H   0  0  0  0  0  0  0  0  0  0  0  0
   -6.0880    6.8010  -14.5100 H   0  0  0  0  0  0  0  0  0  0  0  0
   -4.1560    7.7430  -13.5990 H   0  0  0  0  0  0  0  0  0  0  0  0
   -3.1400    7.5760  -14.9890 H   0  0  0  0  0  0  0  0  0  0  0  0
   -4.0340    5.5140  -13.1870 H   0  0  0  0  0  0  0  0  0  0  0  0
   -2.4650    4.3780  -15.1230 H   0  0  0  0  0  0  0  0  0  0  0  0
   -4.0760    3.8950  -14.6020 H   0  0  0  0  0  0  0  0  0  0  0  0
   -3.3050    5.7640  -16.8940 H   0  0  0  0  0  0  0  0  0  0  0  0
   -4.2220    4.2660  -16.9780 H   0  0  0  0  0  0  0  0  0  0  0  0
  1  2  1  0
  2  3  1  0
  2  4  1  0
  4  5  2  0
  4  6  1  0
  6  7  1  0
  7  8  1  0
  8  9  2  0
  9 10  1  0
 10 11  2  0
 11 12  1  0
 12 13  2  0
 13 14  1  0
 14 15  2  0
 14 16  1  0
 16 17  1  0
 17 18  1  0
 18 19  1  0
 19 20  1  0
 20 21  1  0
 13  8  1  0
 21 16  1  0
  1 22  1  0
  1 23  1  0
  1 24  1  0
  3 25  1  0
  3 26  1  0
  3 27  1  0
  6 28  1  0
  6 29  1  0
  9 30  1  0
 10 31  1  0
 11 32  1  0
 12 33  1  0
 17 34  1  0
 17 35  1  0
 18 36  1  0
 18 37  1  0
 19 38  1  0
 20 39  1  0
 20 40  1  0
 21 41  1  0
 21 42  1  0
A    1
 C1 
A    2
 N1 
A    3
 C2 
A    4
 C3 
A    5
 O1 
A    6
 C4 
A    7
 S1 
A    8
 C5 
A    9
 C6 
A   10
 C7 
A   11
 C8 
A   12
 C9 
A   13
 C10
A   14
 C11
A   15
 O2 
A   16
 N2 
A   17
 C12
A   18
 C13
A   19
 N3 
A   20
 C14
A   21
 C15
A   22
 H1 
A   23
 H2 
A   24
 H3 
A   25
 H4 
A   26
 H5 
A   27
 H6 
A   28
 H7 
A   29
 H8 
A   30
 H9 
A   31
 H10
A   32
 H11
A   33
 H12
A   34
 H13
A   35
 H14
A   36
 H15
A   37
 H16
A   38
 H17
A   39
 H18
A   40
 H19
A   41
 H20
A   42
 H21
M  END
>  <ref_pdb>  (241) 
x0051_0B

>  <ref_mols>  (241) 
x0904_0B,x0429_0B

>  <original SMILES>  (241) 
[H]c1c([H])c([H])c(C(=O)N2C([H])([H])C([H])([H])N([H])C([H])([H])C2([H])[H])c(SC([H])([H])C(=O)N(C([H])([H])[H])C([H])([H])[H])c1[H]

>  <index>  (241) 
440

>  <∆∆G>  (241) 
-10.458259

>  <∆G_bound>  (241) 
-10.05287

>  <∆G_unbound>  (241) 
0.405389

>  <comRMSD>  (241) 
0.875423

>  <N_constrained_atoms>  (241) 
17.0

>  <N_unconstrained_atoms>  (241) 
6.0

>  <runtime>  (241) 
58.476767

>  <LE>  (241) 
0.454707

>  <percent_hybrid>  (241) 
12.0

>  <dist>  (241) 
5.0

>  <ecfp4>  (241) 
0.34375

>  <daylight>  (241) 
0.222772

>  <topodist>  (241) 
2.0

>  <mces>  (241) 
22.0

>  <tdn>  (241) 
1.0

>  <tup>  (241) 
0.0

>  <rdn>  (241) 
1.0

>  <rup>  (241) 
0.0

>  <ldn>  (241) 
0.0

>  <lup>  (241) 
0.0

>  <mut>  (241) 
2.0

>  <maj>  (241) 
2.0

>  <min>  (241) 
0.0

>  <hyb>  (241) 
1.0

>  <sub>  (241) 
1.0

>  <query_index>  (241) 
49.0

>  <max_hit_Tanimoto>  (241) 
0.175501

>  <largest_ring>  (241) 
0

>  <N_interactions_kept>  (241) 
2.0

>  <N_interactions_lost>  (241) 
1.5

>  <interaction_uniqueness_metric>  (241) 
0.098669

>  <ad_hoc_penalty>  (241) 
-22.721758

>  <N_rotatable_bonds>  (241) 
6

>  <N_HA>  (241) 
21

>  <cluster>  (241) 
5818

>  <N_interactions>  (241) 
5

>  <Enamine>  (241) 
1

>  <Mcule>  (241) 
0

>  <N_PAINS>  (241) 
0

>  <UFF_Gibbs>  (241) 
67.240003

>  <strain_per_HA>  (241) 
3.201905

>  <saltbridge:HIS:51>  (241) 
0

>  <pistack:HIS:51>  (241) 
0

>  <hydroph_interaction:HIS:51>  (241) 
0

>  <hbond:ALA:132>  (241) 
0

>  <hbond:SER:135>  (241) 
1

>  <hydroph_interaction:TYR:150>  (241) 
1

>  <pistack:TYR:161>  (241) 
0

>  <hydroph_interaction:TYR:161>  (241) 
2

>  <hydroph_interaction:ASP:83>  (241) 
0

>  <hbond:TYR:130>  (241) 
0

>  <hydroph_interaction:ALA:132>  (241) 
1

>  <hbond:HIS:51>  (241) 
0

>  <hbond:ASP:129>  (241) 
0

>  <hbond:TYR:150>  (241) 
0

>  <hbond:GLY:151>  (241) 
0

>  <hbond:TYR:161>  (241) 
0

>  <hydroph_interaction:TYR:130>  (241) 
0

>  <hydroph_interaction:PRO:131>  (241) 
0

>  <hydroph_interaction:ASP:129>  (241) 
0

>  <saltbridge:ASP:75>  (241) 
0

>  <saltbridge:ASP:83>  (241) 
0

>  <hydroph_interaction:ASN:152>  (241) 
0

>  <halogenbond:TYR:150>  (241) 
0

>  <hbond:ASP:83>  (241) 
0

>  <hydroph_interaction:VAL:155>  (241) 
0

>  <pication:TYR:161>  (241) 
0

>  <hbond:PRO:131>  (241) 
0

>  <hbond:LEU:128>  (241) 
0

>  <saltbridge:ASP:129>  (241) 
0

>  <hbond:THR:134>  (241) 
0

>  <pication:HIS:51>  (241) 
0

>  <hbond:SER:81>  (241) 
0

>  <hbond:GLY:159>  (241) 
0

>  <hydroph_interaction:PRO:101>  (241) 
0

>  <hydroph_interaction:THR:134>  (241) 
0

>  <hbond:GLY:82>  (241) 
0

>  <hydroph_interaction:GLU:104>  (241) 
0

>  <hydroph_interaction:VAL:36>  (241) 
0

>  <hydroph_interaction:MET:49>  (241) 
0

>  <halogenbond:GLU:104>  (241) 
0

>  <hydroph_interaction:LYS:107>  (241) 
0

$$$$
MCULE-9058033267
     RDKit          3D

 18 19  0  0  0  0  0  0  0  0999 V2000
   -7.9210    5.0670  -18.2120 C   0  0  0  0  0  0  0  0  0  0  0  0
   -8.4500    5.0990  -16.8440 C   0  0  0  0  0  0  0  0  0  0  0  0
   -9.7860    4.8580  -16.8510 C   0  0  0  0  0  0  0  0  0  0  0  0
  -10.2240    4.6710  -18.1260 O   0  0  0  0  0  0  0  0  0  0  0  0
   -9.0930    4.7950  -18.9490 C   0  0  0  0  0  0  0  0  0  0  0  0
   -6.5390    5.2460  -18.6950 C   0  0  0  0  0  0  0  0  0  0  0  0
   -5.4200    5.2970  -17.8190 C   0  0  0  0  0  0  0  0  0  0  0  0
   -4.1080    5.4390  -18.2790 C   0  0  0  0  0  0  0  0  0  0  0  0
   -3.1050    5.4720  -17.3890 F   0  0  0  0  0  0  0  0  0  0  0  0
   -3.8330    5.5430  -19.6280 C   0  0  0  0  0  0  0  0  0  0  0  0
   -4.8840    5.5140  -20.6420 N   0  0  0  0  0  0  0  0  0  0  0  0
   -6.1400    5.3730  -20.1660 C   0  0  0  0  0  0  0  0  0  0  0  0
   -7.8500    5.2840  -15.9470 H   0  0  0  0  0  0  0  0  0  0  0  0
  -10.3620    4.8330  -15.9210 H   0  0  0  0  0  0  0  0  0  0  0  0
   -9.3020    4.6590  -20.0140 H   0  0  0  0  0  0  0  0  0  0  0  0
   -5.5600    5.2180  -16.7450 H   0  0  0  0  0  0  0  0  0  0  0  0
   -2.8040    5.6540  -19.9920 H   0  0  0  0  0  0  0  0  0  0  0  0
   -6.8910    5.3480  -20.9470 H   0  0  0  0  0  0  0  0  0  0  0  0
  1  2  1  0
  2  3  2  0
  3  4  1  0
  4  5  1  0
  1  6  1  0
  6  7  2  0
  7  8  1  0
  8  9  1  0
  8 10  2  0
 10 11  1  0
 11 12  2  0
  1  5  2  0
  6 12  1  0
  2 13  1  0
  3 14  1  0
  5 15  1  0
  7 16  1  0
 10 17  1  0
 12 18  1  0
A    1
 C1 
A    2
 C2 
A    3
 C3 
A    4
 O1 
A    5
 C4 
A    6
 C5 
A    7
 C6 
A    8
 C7 
A    9
 F1 
A   10
 C8 
A   11
 N1 
A   12
 C9 
A   13
 H1 
A   14
 H2 
A   15
 H3 
A   16
 H4 
A   17
 H5 
A   18
 H6 
M  END
>  <ref_pdb>  (242) 
x0051_0B

>  <ref_mols>  (242) 
x0680_0B,x0386_0B

>  <original SMILES>  (242) 
[H]c1nc([H])c(-c2c([H])oc([H])c2[H])c([H])c1F

>  <index>  (242) 
373

>  <∆∆G>  (242) 
-5.495469

>  <∆G_bound>  (242) 
-5.473664

>  <∆G_unbound>  (242) 
0.021805

>  <comRMSD>  (242) 
0.634227

>  <N_constrained_atoms>  (242) 
13.0

>  <N_unconstrained_atoms>  (242) 
1.0

>  <runtime>  (242) 
23.455277

>  <LE>  (242) 
0.392533

>  <percent_hybrid>  (242) 
25.0

>  <dist>  (242) 
3.0

>  <ecfp4>  (242) 
0.192308

>  <daylight>  (242) 
0.416667

>  <topodist>  (242) 
2.0

>  <mces>  (242) 
12.0

>  <tdn>  (242) 
1.0

>  <tup>  (242) 
1.0

>  <rdn>  (242) 
0.0

>  <rup>  (242) 
0.0

>  <ldn>  (242) 
0.0

>  <lup>  (242) 
0.0

>  <mut>  (242) 
1.0

>  <maj>  (242) 
1.0

>  <min>  (242) 
0.0

>  <hyb>  (242) 
0.0

>  <sub>  (242) 
2.0

>  <query_index>  (242) 
296.0

>  <max_hit_Tanimoto>  (242) 
0.115865

>  <largest_ring>  (242) 
0

>  <N_interactions_kept>  (242) 
3.5

>  <N_interactions_lost>  (242) 
0.5

>  <interaction_uniqueness_metric>  (242) 
0.016266

>  <ad_hoc_penalty>  (242) 
-22.712653

>  <N_rotatable_bonds>  (242) 
1

>  <N_HA>  (242) 
12

>  <cluster>  (242) 
5876

>  <N_interactions>  (242) 
3

>  <Enamine>  (242) 
0

>  <Mcule>  (242) 
1

>  <N_PAINS>  (242) 
0

>  <UFF_Gibbs>  (242) 
39.779177

>  <strain_per_HA>  (242) 
3.314931

>  <saltbridge:HIS:51>  (242) 
0

>  <pistack:HIS:51>  (242) 
0

>  <hydroph_interaction:HIS:51>  (242) 
0

>  <hbond:ALA:132>  (242) 
0

>  <hbond:SER:135>  (242) 
0

>  <hydroph_interaction:TYR:150>  (242) 
0

>  <pistack:TYR:161>  (242) 
0

>  <hydroph_interaction:TYR:161>  (242) 
3

>  <hydroph_interaction:ASP:83>  (242) 
0

>  <hbond:TYR:130>  (242) 
0

>  <hydroph_interaction:ALA:132>  (242) 
0

>  <hbond:HIS:51>  (242) 
0

>  <hbond:ASP:129>  (242) 
0

>  <hbond:TYR:150>  (242) 
0

>  <hbond:GLY:151>  (242) 
0

>  <hbond:TYR:161>  (242) 
0

>  <hydroph_interaction:TYR:130>  (242) 
0

>  <hydroph_interaction:PRO:131>  (242) 
0

>  <hydroph_interaction:ASP:129>  (242) 
0

>  <saltbridge:ASP:75>  (242) 
0

>  <saltbridge:ASP:83>  (242) 
0

>  <hydroph_interaction:ASN:152>  (242) 
0

>  <halogenbond:TYR:150>  (242) 
0

>  <hbond:ASP:83>  (242) 
0

>  <hydroph_interaction:VAL:155>  (242) 
0

>  <pication:TYR:161>  (242) 
0

>  <hbond:PRO:131>  (242) 
0

>  <hbond:LEU:128>  (242) 
0

>  <saltbridge:ASP:129>  (242) 
0

>  <hbond:THR:134>  (242) 
0

>  <pication:HIS:51>  (242) 
0

>  <hbond:SER:81>  (242) 
0

>  <hbond:GLY:159>  (242) 
0

>  <hydroph_interaction:PRO:101>  (242) 
0

>  <hydroph_interaction:THR:134>  (242) 
0

>  <hbond:GLY:82>  (242) 
0

>  <hydroph_interaction:GLU:104>  (242) 
0

>  <hydroph_interaction:VAL:36>  (242) 
0

>  <hydroph_interaction:MET:49>  (242) 
0

>  <halogenbond:GLU:104>  (242) 
0

>  <hydroph_interaction:LYS:107>  (242) 
0

$$$$
CSCS03437721251
     RDKit          3D

 33 34  0  0  0  0  0  0  0  0999 V2000
   -8.7380    4.4900  -19.8680 C   0  0  0  0  0  0  0  0  0  0  0  0
   -8.4220    4.8640  -18.4460 C   0  0  0  0  0  0  0  0  0  0  0  0
   -9.6470    4.9410  -17.5620 C   0  0  0  0  0  0  0  0  0  0  0  0
   -9.4070    5.2920  -16.1730 C   0  0  0  0  0  0  0  0  0  0  0  0
   -8.0040    5.5840  -15.5590 C   0  0  0  0  0  0  0  0  0  0  0  0
   -7.0040    5.4530  -16.5470 C   0  0  0  0  0  0  0  0  0  0  0  0
   -5.7550    5.6970  -16.0190 C   0  0  0  0  0  0  0  0  0  0  0  0
   -7.1590    5.1200  -17.8970 C   0  0  0  0  0  0  0  0  0  0  0  0
   -5.9410    5.0500  -18.6270 N   0  0  0  0  0  0  0  0  0  0  0  0
   -5.5460    5.8630  -19.7770 C   0  0  0  0  0  0  0  0  0  0  0  0
   -6.3820    7.1330  -20.4820 S   0  0  0  0  0  0  0  0  0  0  0  0
   -4.2770    5.4410  -20.2420 N   0  0  0  0  0  0  0  0  0  0  0  0
   -3.1620    5.2450  -19.3240 C   0  0  0  0  0  0  0  0  0  0  0  0
   -2.0100    4.7390  -20.1870 C   0  0  0  0  0  0  0  0  0  0  0  0
   -2.3260    5.1100  -21.6310 C   0  0  0  0  0  0  0  0  0  0  0  0
   -3.8290    5.3790  -21.5930 C   0  0  0  0  0  0  0  0  0  0  0  0
   -4.5080    5.5160  -22.5990 O   0  0  0  0  0  0  0  0  0  0  0  0
   -8.9060    3.4240  -19.9190 H   0  0  0  0  0  0  0  0  0  0  0  0
   -7.8970    4.7230  -20.5310 H   0  0  0  0  0  0  0  0  0  0  0  0
   -9.6270    5.0100  -20.2450 H   0  0  0  0  0  0  0  0  0  0  0  0
  -10.6250    4.7340  -18.0100 H   0  0  0  0  0  0  0  0  0  0  0  0
  -10.2670    5.3550  -15.5160 H   0  0  0  0  0  0  0  0  0  0  0  0
   -7.8220    5.8460  -14.5220 H   0  0  0  0  0  0  0  0  0  0  0  0
   -5.0430    4.9800  -16.4480 H   0  0  0  0  0  0  0  0  0  0  0  0
   -5.4420    6.7100  -16.2920 H   0  0  0  0  0  0  0  0  0  0  0  0
   -5.7550    5.5750  -14.9430 H   0  0  0  0  0  0  0  0  0  0  0  0
   -5.1970    5.0490  -17.9230 H   0  0  0  0  0  0  0  0  0  0  0  0
   -2.8940    6.1590  -18.8080 H   0  0  0  0  0  0  0  0  0  0  0  0
   -3.4310    4.4840  -18.5850 H   0  0  0  0  0  0  0  0  0  0  0  0
   -1.6980    3.7050  -20.0310 H   0  0  0  0  0  0  0  0  0  0  0  0
   -1.1320    5.3330  -19.9180 H   0  0  0  0  0  0  0  0  0  0  0  0
   -1.7690    5.9890  -21.9630 H   0  0  0  0  0  0  0  0  0  0  0  0
   -2.1260    4.2500  -22.2860 H   0  0  0  0  0  0  0  0  0  0  0  0
  1  2  1  0
  2  3  2  0
  3  4  1  0
  4  5  2  0
  5  6  1  0
  6  7  1  0
  6  8  2  0
  8  9  1  0
  9 10  1  0
 10 11  2  0
 10 12  1  0
 12 13  1  0
 13 14  1  0
 14 15  1  0
 15 16  1  0
 16 17  2  0
  8  2  1  0
 16 12  1  0
  1 18  1  0
  1 19  1  0
  1 20  1  0
  3 21  1  0
  4 22  1  0
  5 23  1  0
  7 24  1  0
  7 25  1  0
  7 26  1  0
  9 27  1  0
 13 28  1  0
 13 29  1  0
 14 30  1  0
 14 31  1  0
 15 32  1  0
 15 33  1  0
A    1
 C1 
A    2
 C2 
A    3
 C3 
A    4
 C4 
A    5
 C5 
A    6
 C6 
A    7
 C7 
A    8
 C8 
A    9
 N1 
A   10
 C9 
A   11
 S1 
A   12
 N2 
A   13
 C10
A   14
 C11
A   15
 C12
A   16
 C13
A   17
 O1 
A   18
 H1 
A   19
 H2 
A   20
 H3 
A   21
 H4 
A   22
 H5 
A   23
 H6 
A   24
 H7 
A   25
 H8 
A   26
 H9 
A   27
 H10
A   28
 H11
A   29
 H12
A   30
 H13
A   31
 H14
A   32
 H15
A   33
 H16
M  END
>  <ref_pdb>  (243) 
x0051_0B

>  <ref_mols>  (243) 
x0904_0B,x0229_0B

>  <original SMILES>  (243) 
[H]c1c([H])c(C([H])([H])[H])c(N([H])C(=S)N2C(=O)C([H])([H])C([H])([H])C2([H])[H])c(C([H])([H])[H])c1[H]

>  <index>  (243) 
81

>  <∆∆G>  (243) 
-8.612232

>  <∆G_bound>  (243) 
-8.689878

>  <∆G_unbound>  (243) 
-0.077646

>  <comRMSD>  (243) 
0.791794

>  <N_constrained_atoms>  (243) 
17.0

>  <N_unconstrained_atoms>  (243) 
2.0

>  <runtime>  (243) 
34.708147

>  <LE>  (243) 
0.453275

>  <percent_hybrid>  (243) 
38.0

>  <dist>  (243) 
9.0

>  <ecfp4>  (243) 
0.217391

>  <daylight>  (243) 
0.235602

>  <topodist>  (243) 
4.0

>  <mces>  (243) 
18.0

>  <tdn>  (243) 
3.0

>  <tup>  (243) 
0.0

>  <rdn>  (243) 
1.0

>  <rup>  (243) 
0.0

>  <ldn>  (243) 
0.0

>  <lup>  (243) 
0.0

>  <mut>  (243) 
3.0

>  <maj>  (243) 
2.0

>  <min>  (243) 
1.0

>  <hyb>  (243) 
2.0

>  <sub>  (243) 
1.0

>  <query_index>  (243) 
148.0

>  <max_hit_Tanimoto>  (243) 
0.276163

>  <largest_ring>  (243) 
0

>  <N_interactions_kept>  (243) 
2.0

>  <N_interactions_lost>  (243) 
1.5

>  <interaction_uniqueness_metric>  (243) 
0.073378

>  <ad_hoc_penalty>  (243) 
-22.700303

>  <N_rotatable_bonds>  (243) 
3

>  <N_HA>  (243) 
17

>  <cluster>  (243) 
6143

>  <N_interactions>  (243) 
6

>  <Enamine>  (243) 
1

>  <Mcule>  (243) 
0

>  <N_PAINS>  (243) 
0

>  <UFF_Gibbs>  (243) 
225.762057

>  <strain_per_HA>  (243) 
13.280121

>  <saltbridge:HIS:51>  (243) 
0

>  <pistack:HIS:51>  (243) 
0

>  <hydroph_interaction:HIS:51>  (243) 
0

>  <hbond:ALA:132>  (243) 
0

>  <hbond:SER:135>  (243) 
0

>  <hydroph_interaction:TYR:150>  (243) 
1

>  <pistack:TYR:161>  (243) 
0

>  <hydroph_interaction:TYR:161>  (243) 
4

>  <hydroph_interaction:ASP:83>  (243) 
0

>  <hbond:TYR:130>  (243) 
0

>  <hydroph_interaction:ALA:132>  (243) 
0

>  <hbond:HIS:51>  (243) 
0

>  <hbond:ASP:129>  (243) 
1

>  <hbond:TYR:150>  (243) 
0

>  <hbond:GLY:151>  (243) 
0

>  <hbond:TYR:161>  (243) 
0

>  <hydroph_interaction:TYR:130>  (243) 
0

>  <hydroph_interaction:PRO:131>  (243) 
0

>  <hydroph_interaction:ASP:129>  (243) 
0

>  <saltbridge:ASP:75>  (243) 
0

>  <saltbridge:ASP:83>  (243) 
0

>  <hydroph_interaction:ASN:152>  (243) 
0

>  <halogenbond:TYR:150>  (243) 
0

>  <hbond:ASP:83>  (243) 
0

>  <hydroph_interaction:VAL:155>  (243) 
0

>  <pication:TYR:161>  (243) 
0

>  <hbond:PRO:131>  (243) 
0

>  <hbond:LEU:128>  (243) 
0

>  <saltbridge:ASP:129>  (243) 
0

>  <hbond:THR:134>  (243) 
0

>  <pication:HIS:51>  (243) 
0

>  <hbond:SER:81>  (243) 
0

>  <hbond:GLY:159>  (243) 
0

>  <hydroph_interaction:PRO:101>  (243) 
0

>  <hydroph_interaction:THR:134>  (243) 
0

>  <hbond:GLY:82>  (243) 
0

>  <hydroph_interaction:GLU:104>  (243) 
0

>  <hydroph_interaction:VAL:36>  (243) 
0

>  <hydroph_interaction:MET:49>  (243) 
0

>  <halogenbond:GLU:104>  (243) 
0

>  <hydroph_interaction:LYS:107>  (243) 
0

$$$$
MCULE-8166329430
     RDKit          3D

 18 19  0  0  0  0  0  0  0  0999 V2000
   -5.6480    5.6490  -15.9880 Br  0  0  0  0  0  0  0  0  0  0  0  0
   -5.4250    5.4770  -17.8680 C   0  0  0  0  0  0  0  0  0  0  0  0
   -6.5520    5.1900  -18.8100 C   0  0  0  0  0  0  0  0  0  0  0  0
   -7.9360    5.0130  -18.1850 C   0  0  0  0  0  0  0  0  0  0  0  0
   -8.2660    5.0710  -16.8010 N   0  0  0  0  0  0  0  0  0  0  0  0
   -9.6980    4.8090  -16.8150 C   0  0  0  0  0  0  0  0  0  0  0  0
  -10.2320    4.6120  -18.0880 O   0  0  0  0  0  0  0  0  0  0  0  0
   -9.1830    4.7240  -19.0050 C   0  0  0  0  0  0  0  0  0  0  0  0
   -6.3430    5.0800  -20.1870 C   0  0  0  0  0  0  0  0  0  0  0  0
   -4.9360    5.2500  -20.7320 C   0  0  0  0  0  0  0  0  0  0  0  0
   -3.8540    5.5110  -19.8630 C   0  0  0  0  0  0  0  0  0  0  0  0
   -4.1270    5.6290  -18.3650 C   0  0  0  0  0  0  0  0  0  0  0  0
  -10.3790    4.7500  -15.9630 H   0  0  0  0  0  0  0  0  0  0  0  0
   -9.4170    4.5950  -20.0530 H   0  0  0  0  0  0  0  0  0  0  0  0
   -7.1650    4.8730  -20.8680 H   0  0  0  0  0  0  0  0  0  0  0  0
   -4.7620    5.1660  -21.8000 H   0  0  0  0  0  0  0  0  0  0  0  0
   -2.8460    5.6270  -20.2550 H   0  0  0  0  0  0  0  0  0  0  0  0
   -3.2980    5.8340  -17.6910 H   0  0  0  0  0  0  0  0  0  0  0  0
  1  2  1  0
  2  3  2  0
  3  4  1  0
  4  5  1  0
  5  6  2  0
  6  7  1  0
  7  8  1  0
  3  9  1  0
  9 10  2  0
 10 11  1  0
 11 12  2  0
  2 12  1  0
  4  8  2  0
  6 13  1  0
  8 14  1  0
  9 15  1  0
 10 16  1  0
 11 17  1  0
 12 18  1  0
A    1
BR1 
A    2
 C1 
A    3
 C2 
A    4
 C3 
A    5
 N1 
A    6
 C4 
A    7
 O1 
A    8
 C5 
A    9
 C6 
A   10
 C7 
A   11
 C8 
A   12
 C9 
A   13
 H1 
A   14
 H2 
A   15
 H3 
A   16
 H4 
A   17
 H5 
A   18
 H6 
M  END
>  <ref_pdb>  (244) 
x0051_0B

>  <ref_mols>  (244) 
x0680_0B,x0386_0B

>  <original SMILES>  (244) 
[H]c1nc(-c2c([H])c([H])c([H])c([H])c2Br)c([H])o1

>  <index>  (244) 
291

>  <∆∆G>  (244) 
-5.849611

>  <∆G_bound>  (244) 
-5.59307

>  <∆G_unbound>  (244) 
0.256541

>  <comRMSD>  (244) 
0.603058

>  <N_constrained_atoms>  (244) 
13.0

>  <N_unconstrained_atoms>  (244) 
0.0

>  <runtime>  (244) 
21.545573

>  <LE>  (244) 
0.44997

>  <percent_hybrid>  (244) 
25.0

>  <dist>  (244) 
2.0

>  <ecfp4>  (244) 
0.428571

>  <daylight>  (244) 
0.451613

>  <topodist>  (244) 
0.0

>  <mces>  (244) 
13.0

>  <tdn>  (244) 
0.0

>  <tup>  (244) 
0.0

>  <rdn>  (244) 
0.0

>  <rup>  (244) 
0.0

>  <ldn>  (244) 
0.0

>  <lup>  (244) 
0.0

>  <mut>  (244) 
2.0

>  <maj>  (244) 
2.0

>  <min>  (244) 
0.0

>  <hyb>  (244) 
0.0

>  <sub>  (244) 
0.0

>  <query_index>  (244) 
296.0

>  <max_hit_Tanimoto>  (244) 
0.119128

>  <largest_ring>  (244) 
0

>  <N_interactions_kept>  (244) 
3.5

>  <N_interactions_lost>  (244) 
0.5

>  <interaction_uniqueness_metric>  (244) 
0.016266

>  <ad_hoc_penalty>  (244) 
-22.680669

>  <N_rotatable_bonds>  (244) 
1

>  <N_HA>  (244) 
12

>  <cluster>  (244) 
5951

>  <N_interactions>  (244) 
3

>  <Enamine>  (244) 
0

>  <Mcule>  (244) 
1

>  <N_PAINS>  (244) 
0

>  <UFF_Gibbs>  (244) 
58.951269

>  <strain_per_HA>  (244) 
4.912606

>  <saltbridge:HIS:51>  (244) 
0

>  <pistack:HIS:51>  (244) 
0

>  <hydroph_interaction:HIS:51>  (244) 
0

>  <hbond:ALA:132>  (244) 
0

>  <hbond:SER:135>  (244) 
0

>  <hydroph_interaction:TYR:150>  (244) 
0

>  <pistack:TYR:161>  (244) 
0

>  <hydroph_interaction:TYR:161>  (244) 
3

>  <hydroph_interaction:ASP:83>  (244) 
0

>  <hbond:TYR:130>  (244) 
0

>  <hydroph_interaction:ALA:132>  (244) 
0

>  <hbond:HIS:51>  (244) 
0

>  <hbond:ASP:129>  (244) 
0

>  <hbond:TYR:150>  (244) 
0

>  <hbond:GLY:151>  (244) 
0

>  <hbond:TYR:161>  (244) 
0

>  <hydroph_interaction:TYR:130>  (244) 
0

>  <hydroph_interaction:PRO:131>  (244) 
0

>  <hydroph_interaction:ASP:129>  (244) 
0

>  <saltbridge:ASP:75>  (244) 
0

>  <saltbridge:ASP:83>  (244) 
0

>  <hydroph_interaction:ASN:152>  (244) 
0

>  <halogenbond:TYR:150>  (244) 
0

>  <hbond:ASP:83>  (244) 
0

>  <hydroph_interaction:VAL:155>  (244) 
0

>  <pication:TYR:161>  (244) 
0

>  <hbond:PRO:131>  (244) 
0

>  <hbond:LEU:128>  (244) 
0

>  <saltbridge:ASP:129>  (244) 
0

>  <hbond:THR:134>  (244) 
0

>  <pication:HIS:51>  (244) 
0

>  <hbond:SER:81>  (244) 
0

>  <hbond:GLY:159>  (244) 
0

>  <hydroph_interaction:PRO:101>  (244) 
0

>  <hydroph_interaction:THR:134>  (244) 
0

>  <hbond:GLY:82>  (244) 
0

>  <hydroph_interaction:GLU:104>  (244) 
0

>  <hydroph_interaction:VAL:36>  (244) 
0

>  <hydroph_interaction:MET:49>  (244) 
0

>  <halogenbond:GLU:104>  (244) 
0

>  <hydroph_interaction:LYS:107>  (244) 
0

$$$$
CSSB00103157836
     RDKit          3D

 32 34  0  0  0  0  0  0  0  0999 V2000
  -11.1510    4.6140  -18.3340 F   0  0  0  0  0  0  0  0  0  0  0  0
   -9.8930    4.8300  -17.9670 C   0  0  0  0  0  0  0  0  0  0  0  0
   -9.5310    4.9540  -16.5210 C   0  0  0  0  0  0  0  0  0  0  0  0
   -8.1170    5.1970  -16.1890 C   0  0  0  0  0  0  0  0  0  0  0  0
   -7.2060    5.2970  -17.2470 C   0  0  0  0  0  0  0  0  0  0  0  0
   -5.8600    5.5200  -16.9590 N   0  0  0  0  0  0  0  0  0  0  0  0
   -4.9090    5.5380  -17.9360 C   0  0  0  0  0  0  0  0  0  0  0  0
   -3.7800    5.0980  -17.7080 O   0  0  0  0  0  0  0  0  0  0  0  0
   -5.3620    6.1330  -19.2780 C   0  0  0  0  0  0  0  0  0  0  0  0
   -5.7920    7.4600  -19.3000 C   0  0  0  0  0  0  0  0  0  0  0  0
   -5.7140    8.1990  -20.4700 C   0  0  0  0  0  0  0  0  0  0  0  0
   -4.3430    8.1670  -20.9340 N   0  0  0  0  0  0  0  0  0  0  0  0
   -4.0780    6.8040  -21.3630 C   0  0  0  0  0  0  0  0  0  0  0  0
   -4.2580    5.8510  -20.3350 C   0  0  0  0  0  0  0  0  0  0  0  0
   -6.5780    5.2990  -19.6970 C   0  0  0  0  0  0  0  0  0  0  0  0
   -7.6040    5.1750  -18.5990 C   0  0  0  0  0  0  0  0  0  0  0  0
   -8.9300    4.9430  -18.9480 C   0  0  0  0  0  0  0  0  0  0  0  0
  -10.2860    4.8650  -15.7480 H   0  0  0  0  0  0  0  0  0  0  0  0
   -7.8100    5.2910  -15.1520 H   0  0  0  0  0  0  0  0  0  0  0  0
   -5.5130    5.3500  -16.0220 H   0  0  0  0  0  0  0  0  0  0  0  0
   -5.2850    8.0400  -18.5200 H   0  0  0  0  0  0  0  0  0  0  0  0
   -6.8510    7.4530  -19.0180 H   0  0  0  0  0  0  0  0  0  0  0  0
   -5.9560    9.2370  -20.2210 H   0  0  0  0  0  0  0  0  0  0  0  0
   -6.3760    7.9440  -21.2930 H   0  0  0  0  0  0  0  0  0  0  0  0
   -3.7140    8.4130  -20.1680 H   0  0  0  0  0  0  0  0  0  0  0  0
   -3.0420    6.7480  -21.7180 H   0  0  0  0  0  0  0  0  0  0  0  0
   -4.6950    6.5650  -22.2360 H   0  0  0  0  0  0  0  0  0  0  0  0
   -3.2960    5.7280  -19.8160 H   0  0  0  0  0  0  0  0  0  0  0  0
   -4.4580    4.8880  -20.8180 H   0  0  0  0  0  0  0  0  0  0  0  0
   -6.2680    4.2990  -19.9970 H   0  0  0  0  0  0  0  0  0  0  0  0
   -7.0360    5.7570  -20.5730 H   0  0  0  0  0  0  0  0  0  0  0  0
   -9.2280    4.8500  -19.9890 H   0  0  0  0  0  0  0  0  0  0  0  0
  1  2  1  0
  2  3  2  0
  3  4  1  0
  4  5  2  0
  5  6  1  0
  6  7  1  0
  7  8  2  0
  7  9  1  0
  9 10  1  0
 10 11  1  0
 11 12  1  0
 12 13  1  0
 13 14  1  0
  9 15  1  0
 15 16  1  0
 16 17  2  0
 17  2  1  0
 16  5  1  0
 14  9  1  0
  3 18  1  0
  4 19  1  0
  6 20  1  0
 10 21  1  0
 10 22  1  0
 11 23  1  0
 11 24  1  0
 12 25  1  0
 13 26  1  0
 13 27  1  0
 14 28  1  0
 14 29  1  0
 15 30  1  0
 15 31  1  0
 17 32  1  0
A    1
 F1 
A    2
 C1 
A    3
 C2 
A    4
 C3 
A    5
 C4 
A    6
 N1 
A    7
 C5 
A    8
 O1 
A    9
 C6 
A   10
 C7 
A   11
 C8 
A   12
 N2 
A   13
 C9 
A   14
 C10
A   15
 C11
A   16
 C12
A   17
 C13
A   18
 H1 
A   19
 H2 
A   20
 H3 
A   21
 H4 
A   22
 H5 
A   23
 H6 
A   24
 H7 
A   25
 H8 
A   26
 H9 
A   27
 H10
A   28
 H11
A   29
 H12
A   30
 H13
A   31
 H14
A   32
 H15
M  END
>  <ref_pdb>  (245) 
x0051_0B

>  <ref_mols>  (245) 
x0229_0B,x0945_0B

>  <original SMILES>  (245) 
[H]c1c([H])c2c(c([H])c1F)C([H])([H])C1(C(=O)N2[H])C([H])([H])C([H])([H])N([H])C([H])([H])C1([H])[H]

>  <index>  (245) 
320

>  <∆∆G>  (245) 
-5.960796

>  <∆G_bound>  (245) 
-5.276627

>  <∆G_unbound>  (245) 
0.684169

>  <comRMSD>  (245) 
0.759077

>  <N_constrained_atoms>  (245) 
19.0

>  <N_unconstrained_atoms>  (245) 
1.0

>  <runtime>  (245) 
27.909374

>  <LE>  (245) 
0.29804

>  <percent_hybrid>  (245) 
45.0

>  <dist>  (245) 
3.0

>  <ecfp4>  (245) 
0.407407

>  <daylight>  (245) 
0.548571

>  <topodist>  (245) 
1.0

>  <mces>  (245) 
18.0

>  <tdn>  (245) 
0.0

>  <tup>  (245) 
0.0

>  <rdn>  (245) 
0.0

>  <rup>  (245) 
0.0

>  <ldn>  (245) 
0.0

>  <lup>  (245) 
1.0

>  <mut>  (245) 
2.0

>  <maj>  (245) 
2.0

>  <min>  (245) 
0.0

>  <hyb>  (245) 
0.0

>  <sub>  (245) 
0.0

>  <query_index>  (245) 
101.0

>  <max_hit_Tanimoto>  (245) 
0.546843

>  <largest_ring>  (245) 
0

>  <N_interactions_kept>  (245) 
1.0

>  <N_interactions_lost>  (245) 
1.0

>  <interaction_uniqueness_metric>  (245) 
0.016266

>  <ad_hoc_penalty>  (245) 
-22.651875

>  <N_rotatable_bonds>  (245) 
0

>  <N_HA>  (245) 
17

>  <cluster>  (245) 
5928

>  <N_interactions>  (245) 
3

>  <Enamine>  (245) 
1

>  <Mcule>  (245) 
0

>  <N_PAINS>  (245) 
0

>  <UFF_Gibbs>  (245) 
74.845406

>  <strain_per_HA>  (245) 
4.402671

>  <saltbridge:HIS:51>  (245) 
0

>  <pistack:HIS:51>  (245) 
0

>  <hydroph_interaction:HIS:51>  (245) 
0

>  <hbond:ALA:132>  (245) 
0

>  <hbond:SER:135>  (245) 
0

>  <hydroph_interaction:TYR:150>  (245) 
0

>  <pistack:TYR:161>  (245) 
0

>  <hydroph_interaction:TYR:161>  (245) 
3

>  <hydroph_interaction:ASP:83>  (245) 
0

>  <hbond:TYR:130>  (245) 
0

>  <hydroph_interaction:ALA:132>  (245) 
0

>  <hbond:HIS:51>  (245) 
0

>  <hbond:ASP:129>  (245) 
0

>  <hbond:TYR:150>  (245) 
0

>  <hbond:GLY:151>  (245) 
0

>  <hbond:TYR:161>  (245) 
0

>  <hydroph_interaction:TYR:130>  (245) 
0

>  <hydroph_interaction:PRO:131>  (245) 
0

>  <hydroph_interaction:ASP:129>  (245) 
0

>  <saltbridge:ASP:75>  (245) 
0

>  <saltbridge:ASP:83>  (245) 
0

>  <hydroph_interaction:ASN:152>  (245) 
0

>  <halogenbond:TYR:150>  (245) 
0

>  <hbond:ASP:83>  (245) 
0

>  <hydroph_interaction:VAL:155>  (245) 
0

>  <pication:TYR:161>  (245) 
0

>  <hbond:PRO:131>  (245) 
0

>  <hbond:LEU:128>  (245) 
0

>  <saltbridge:ASP:129>  (245) 
0

>  <hbond:THR:134>  (245) 
0

>  <pication:HIS:51>  (245) 
0

>  <hbond:SER:81>  (245) 
0

>  <hbond:GLY:159>  (245) 
0

>  <hydroph_interaction:PRO:101>  (245) 
0

>  <hydroph_interaction:THR:134>  (245) 
0

>  <hbond:GLY:82>  (245) 
0

>  <hydroph_interaction:GLU:104>  (245) 
0

>  <hydroph_interaction:VAL:36>  (245) 
0

>  <hydroph_interaction:MET:49>  (245) 
0

>  <halogenbond:GLU:104>  (245) 
0

>  <hydroph_interaction:LYS:107>  (245) 
0

$$$$
Z27039637
     RDKit          3D

 50 54  0  0  0  0  0  0  0  0999 V2000
   -5.6120    5.3100  -21.7390 O   0  0  0  0  0  0  0  0  0  0  0  0
   -4.9850    6.3460  -21.5800 C   0  0  0  0  0  0  0  0  0  0  0  0
   -3.8950    6.5400  -20.7290 N   0  0  0  0  0  0  0  0  0  0  0  0
   -3.3770    5.4980  -20.0600 N   0  0  0  0  0  0  0  0  0  0  0  0
   -3.5290    5.4930  -18.6920 C   0  0  0  0  0  0  0  0  0  0  0  0
   -2.5630    5.4900  -17.9290 O   0  0  0  0  0  0  0  0  0  0  0  0
   -4.8390    5.4790  -18.1950 C   0  0  0  0  0  0  0  0  0  0  0  0
   -5.0780    5.8830  -16.8760 C   0  0  0  0  0  0  0  0  0  0  0  0
   -6.3600    5.8660  -16.3510 C   0  0  0  0  0  0  0  0  0  0  0  0
   -7.4610    5.4090  -17.2130 C   0  0  0  0  0  0  0  0  0  0  0  0
   -8.8210    5.2650  -16.9990 N   0  0  0  0  0  0  0  0  0  0  0  0
   -9.3800    4.7950  -18.1510 C   0  0  0  0  0  0  0  0  0  0  0  0
   -8.3660    4.6240  -19.1600 N   0  0  0  0  0  0  0  0  0  0  0  0
   -7.2170    5.0150  -18.5230 C   0  0  0  0  0  0  0  0  0  0  0  0
   -5.9020    5.0530  -19.0170 C   0  0  0  0  0  0  0  0  0  0  0  0
   -5.3350    7.5390  -22.3490 C   0  0  0  0  0  0  0  0  0  0  0  0
   -4.8850    8.8700  -21.7640 C   0  0  0  0  0  0  0  0  0  0  0  0
   -5.2850   10.0140  -22.6650 C   0  0  0  0  0  0  0  0  0  0  0  0
   -5.9780    9.8060  -23.8630 C   0  0  0  0  0  0  0  0  0  0  0  0
   -6.3330   10.9560  -24.7450 C   0  0  0  0  0  0  0  0  0  0  0  0
   -5.9100   10.5030  -26.4560 S   0  0  0  0  0  0  0  0  0  0  0  0
   -7.3690    9.7630  -26.9820 C   0  0  0  0  0  0  0  0  0  0  0  0
   -8.5160   10.3590  -27.1250 N   0  0  0  0  0  0  0  0  0  0  0  0
   -9.3650    9.3770  -27.5550 C   0  0  0  0  0  0  0  0  0  0  0  0
  -10.7290    9.4530  -27.8560 C   0  0  0  0  0  0  0  0  0  0  0  0
  -11.3880    8.2910  -28.2790 C   0  0  0  0  0  0  0  0  0  0  0  0
  -10.7040    7.0840  -28.4030 C   0  0  0  0  0  0  0  0  0  0  0  0
   -9.3390    6.9890  -28.1050 C   0  0  0  0  0  0  0  0  0  0  0  0
   -8.7050    8.1550  -27.6810 C   0  0  0  0  0  0  0  0  0  0  0  0
   -7.4200    8.4390  -27.3050 N   0  0  0  0  0  0  0  0  0  0  0  0
   -6.3490    8.5320  -24.2880 C   0  0  0  0  0  0  0  0  0  0  0  0
   -6.0380    7.4210  -23.5550 C   0  0  0  0  0  0  0  0  0  0  0  0
   -3.8850    7.4300  -20.2400 H   0  0  0  0  0  0  0  0  0  0  0  0
   -2.7840    4.8630  -20.5930 H   0  0  0  0  0  0  0  0  0  0  0  0
   -4.2440    6.2130  -16.2590 H   0  0  0  0  0  0  0  0  0  0  0  0
   -6.5450    6.1800  -15.3250 H   0  0  0  0  0  0  0  0  0  0  0  0
   -9.3140    5.4710  -16.1390 H   0  0  0  0  0  0  0  0  0  0  0  0
  -10.4370    4.5920  -18.2570 H   0  0  0  0  0  0  0  0  0  0  0  0
   -5.7530    4.7370  -20.0370 H   0  0  0  0  0  0  0  0  0  0  0  0
   -4.3440    8.9920  -20.8280 H   0  0  0  0  0  0  0  0  0  0  0  0
   -5.0180   11.0270  -22.3710 H   0  0  0  0  0  0  0  0  0  0  0  0
   -7.3790   11.2460  -24.6540 H   0  0  0  0  0  0  0  0  0  0  0  0
   -5.7390   11.8340  -24.4600 H   0  0  0  0  0  0  0  0  0  0  0  0
  -11.2570   10.3930  -27.7590 H   0  0  0  0  0  0  0  0  0  0  0  0
  -12.4500    8.3420  -28.5140 H   0  0  0  0  0  0  0  0  0  0  0  0
  -11.2410    6.2000  -28.7350 H   0  0  0  0  0  0  0  0  0  0  0  0
   -8.8100    6.0480  -28.2010 H   0  0  0  0  0  0  0  0  0  0  0  0
   -6.6460    7.7950  -27.2680 H   0  0  0  0  0  0  0  0  0  0  0  0
   -6.8900    8.4070  -25.2220 H   0  0  0  0  0  0  0  0  0  0  0  0
   -6.3490    6.4550  -23.9420 H   0  0  0  0  0  0  0  0  0  0  0  0
  1  2  2  0
  2  3  1  0
  3  4  1  0
  4  5  1  0
  5  6  2  0
  5  7  1  0
  7  8  2  0
  8  9  1  0
  9 10  2  0
 10 11  1  0
 11 12  1  0
 12 13  2  0
 13 14  1  0
 14 15  2  0
  2 16  1  0
 16 17  2  0
 17 18  1  0
 18 19  2  0
 19 20  1  0
 20 21  1  0
 21 22  1  0
 22 23  2  0
 23 24  1  0
 24 25  2  0
 25 26  1  0
 26 27  2  0
 27 28  1  0
 28 29  2  0
 29 30  1  0
 19 31  1  0
 31 32  2  0
 15  7  1  0
 14 10  1  0
 32 16  1  0
 30 22  1  0
 29 24  1  0
  3 33  1  0
  4 34  1  0
  8 35  1  0
  9 36  1  0
 11 37  1  0
 12 38  1  0
 15 39  1  0
 17 40  1  0
 18 41  1  0
 20 42  1  0
 20 43  1  0
 25 44  1  0
 26 45  1  0
 27 46  1  0
 28 47  1  0
 30 48  1  0
 31 49  1  0
 32 50  1  0
A    1
 O1 
A    2
 C1 
A    3
 N1 
A    4
 N2 
A    5
 C2 
A    6
 O2 
A    7
 C3 
A    8
 C4 
A    9
 C5 
A   10
 C6 
A   11
 N3 
A   12
 C7 
A   13
 N4 
A   14
 C8 
A   15
 C9 
A   16
 C10
A   17
 C11
A   18
 C12
A   19
 C13
A   20
 C14
A   21
 S1 
A   22
 C15
A   23
 N5 
A   24
 C16
A   25
 C17
A   26
 C18
A   27
 C19
A   28
 C20
A   29
 C21
A   30
 N6 
A   31
 C22
A   32
 C23
A   33
 H1 
A   34
 H2 
A   35
 H3 
A   36
 H4 
A   37
 H5 
A   38
 H6 
A   39
 H7 
A   40
 H8 
A   41
 H9 
A   42
 H10
A   43
 H11
A   44
 H12
A   45
 H13
A   46
 H14
A   47
 H15
A   48
 H16
A   49
 H17
A   50
 H18
M  END
>  <ref_pdb>  (246) 
x0051_0B

>  <ref_mols>  (246) 
x0051_0B,x0846_1B

>  <original SMILES>  (246) 
[H]c1c([H])c(C([H])([H])Sc2nc3c([H])c([H])c([H])c([H])c3n2[H])c([H])c([H])c1C(=O)N([H])N([H])C(=O)c1c([H])c([H])c2c(nc([H])n2[H])c1[H]

>  <index>  (246) 
365

>  <∆∆G>  (246) 
-8.064691

>  <∆G_bound>  (246) 
-7.12783

>  <∆G_unbound>  (246) 
0.936861

>  <comRMSD>  (246) 
0.583408

>  <N_constrained_atoms>  (246) 
30.0

>  <N_unconstrained_atoms>  (246) 
3.0

>  <runtime>  (246) 
52.093193

>  <LE>  (246) 
0.244385

>  <percent_hybrid>  (246) 
40.0

>  <dist>  (246) 
10.0

>  <ecfp4>  (246) 
0.215054

>  <daylight>  (246) 
0.219231

>  <topodist>  (246) 
4.0

>  <mces>  (246) 
34.0

>  <tdn>  (246) 
2.0

>  <tup>  (246) 
2.0

>  <rdn>  (246) 
0.0

>  <rup>  (246) 
0.0

>  <ldn>  (246) 
0.0

>  <lup>  (246) 
0.0

>  <mut>  (246) 
5.0

>  <maj>  (246) 
5.0

>  <min>  (246) 
0.0

>  <hyb>  (246) 
1.0

>  <sub>  (246) 
2.0

>  <query_index>  (246) 
185.0

>  <max_hit_Tanimoto>  (246) 
0.312661

>  <largest_ring>  (246) 
0

>  <N_interactions_kept>  (246) 
1.0

>  <N_interactions_lost>  (246) 
2.5

>  <interaction_uniqueness_metric>  (246) 
0.196459

>  <ad_hoc_penalty>  (246) 
-22.628397

>  <N_rotatable_bonds>  (246) 
5

>  <N_HA>  (246) 
32

>  <cluster>  (246) 
5884

>  <N_interactions>  (246) 
7

>  <Enamine>  (246) 
1

>  <Mcule>  (246) 
0

>  <N_PAINS>  (246) 
0

>  <UFF_Gibbs>  (246) 
169.840521

>  <strain_per_HA>  (246) 
5.307516

>  <saltbridge:HIS:51>  (246) 
0

>  <pistack:HIS:51>  (246) 
0

>  <hydroph_interaction:HIS:51>  (246) 
0

>  <hbond:ALA:132>  (246) 
0

>  <hbond:SER:135>  (246) 
0

>  <hydroph_interaction:TYR:150>  (246) 
0

>  <pistack:TYR:161>  (246) 
2

>  <hydroph_interaction:TYR:161>  (246) 
1

>  <hydroph_interaction:ASP:83>  (246) 
0

>  <hbond:TYR:130>  (246) 
1

>  <hydroph_interaction:ALA:132>  (246) 
0

>  <hbond:HIS:51>  (246) 
0

>  <hbond:ASP:129>  (246) 
1

>  <hbond:TYR:150>  (246) 
0

>  <hbond:GLY:151>  (246) 
0

>  <hbond:TYR:161>  (246) 
0

>  <hydroph_interaction:TYR:130>  (246) 
1

>  <hydroph_interaction:PRO:131>  (246) 
1

>  <hydroph_interaction:ASP:129>  (246) 
0

>  <saltbridge:ASP:75>  (246) 
0

>  <saltbridge:ASP:83>  (246) 
0

>  <hydroph_interaction:ASN:152>  (246) 
0

>  <halogenbond:TYR:150>  (246) 
0

>  <hbond:ASP:83>  (246) 
0

>  <hydroph_interaction:VAL:155>  (246) 
0

>  <pication:TYR:161>  (246) 
0

>  <hbond:PRO:131>  (246) 
0

>  <hbond:LEU:128>  (246) 
0

>  <saltbridge:ASP:129>  (246) 
0

>  <hbond:THR:134>  (246) 
0

>  <pication:HIS:51>  (246) 
0

>  <hbond:SER:81>  (246) 
0

>  <hbond:GLY:159>  (246) 
0

>  <hydroph_interaction:PRO:101>  (246) 
0

>  <hydroph_interaction:THR:134>  (246) 
0

>  <hbond:GLY:82>  (246) 
0

>  <hydroph_interaction:GLU:104>  (246) 
0

>  <hydroph_interaction:VAL:36>  (246) 
0

>  <hydroph_interaction:MET:49>  (246) 
0

>  <halogenbond:GLU:104>  (246) 
0

>  <hydroph_interaction:LYS:107>  (246) 
0

$$$$
MCULE-1795619491
     RDKit          3D

 43 45  0  0  0  0  0  0  0  0999 V2000
   -9.3840    6.7570  -28.3750 O   0  0  0  0  0  0  0  0  0  0  0  0
   -9.0300    7.9850  -27.9200 C   0  0  0  0  0  0  0  0  0  0  0  0
   -7.7250    8.2540  -27.2210 C   0  0  0  0  0  0  0  0  0  0  0  0
   -7.4250    9.5380  -26.7830 C   0  0  0  0  0  0  0  0  0  0  0  0
   -6.2520    9.9370  -26.1110 N   0  0  0  0  0  0  0  0  0  0  0  0
   -6.1860   10.5360  -24.7610 C   0  0  0  0  0  0  0  0  0  0  0  0
   -5.8340    9.5740  -23.6880 C   0  0  0  0  0  0  0  0  0  0  0  0
   -6.1730    8.1170  -23.9090 C   0  0  0  0  0  0  0  0  0  0  0  0
   -5.8390    7.0920  -22.8630 C   0  0  0  0  0  0  0  0  0  0  0  0
   -5.1630    7.6470  -21.6230 C   0  0  0  0  0  0  0  0  0  0  0  0
   -4.8620    6.6870  -20.6550 N   0  0  0  0  0  0  0  0  0  0  0  0
   -5.7520    5.5890  -20.2900 C   0  0  0  0  0  0  0  0  0  0  0  0
   -5.9600    5.6130  -18.9270 N   0  0  0  0  0  0  0  0  0  0  0  0
   -7.1530    5.3620  -18.2360 C   0  0  0  0  0  0  0  0  0  0  0  0
   -8.4600    4.9600  -18.8930 C   0  0  0  0  0  0  0  0  0  0  0  0
   -9.5730    4.7340  -18.0860 C   0  0  0  0  0  0  0  0  0  0  0  0
   -9.4350    4.8960  -16.6060 C   0  0  0  0  0  0  0  0  0  0  0  0
   -8.2190    5.2670  -16.0470 C   0  0  0  0  0  0  0  0  0  0  0  0
   -7.0970    5.4950  -16.8450 C   0  0  0  0  0  0  0  0  0  0  0  0
   -6.2270    4.7850  -21.0780 O   0  0  0  0  0  0  0  0  0  0  0  0
   -4.8840    9.0170  -21.4980 C   0  0  0  0  0  0  0  0  0  0  0  0
   -5.2080    9.9570  -22.4970 C   0  0  0  0  0  0  0  0  0  0  0  0
   -6.3850   11.7060  -24.4590 O   0  0  0  0  0  0  0  0  0  0  0  0
   -8.3710   10.5420  -27.0220 C   0  0  0  0  0  0  0  0  0  0  0  0
   -9.5920   10.2880  -27.6690 C   0  0  0  0  0  0  0  0  0  0  0  0
   -9.9300    9.0230  -28.1170 C   0  0  0  0  0  0  0  0  0  0  0  0
  -10.3310    6.7680  -28.5970 H   0  0  0  0  0  0  0  0  0  0  0  0
   -7.0840    7.3730  -27.1060 H   0  0  0  0  0  0  0  0  0  0  0  0
   -5.4780    9.3300  -26.3880 H   0  0  0  0  0  0  0  0  0  0  0  0
   -6.6650    7.8050  -24.8370 H   0  0  0  0  0  0  0  0  0  0  0  0
   -6.0620    6.0220  -22.9710 H   0  0  0  0  0  0  0  0  0  0  0  0
   -4.1830    6.9590  -19.9630 H   0  0  0  0  0  0  0  0  0  0  0  0
   -5.1610    5.8320  -18.3550 H   0  0  0  0  0  0  0  0  0  0  0  0
   -8.5660    4.8400  -19.9690 H   0  0  0  0  0  0  0  0  0  0  0  0
  -10.5210    4.4450  -18.5290 H   0  0  0  0  0  0  0  0  0  0  0  0
  -10.2900    4.7240  -15.9590 H   0  0  0  0  0  0  0  0  0  0  0  0
   -8.1410    5.3790  -14.9700 H   0  0  0  0  0  0  0  0  0  0  0  0
   -6.1700    5.7810  -16.3560 H   0  0  0  0  0  0  0  0  0  0  0  0
   -4.3990    9.4030  -20.6070 H   0  0  0  0  0  0  0  0  0  0  0  0
   -4.9580   10.9950  -22.3140 H   0  0  0  0  0  0  0  0  0  0  0  0
   -8.1750   11.5600  -26.7000 H   0  0  0  0  0  0  0  0  0  0  0  0
  -10.2930   11.1050  -27.8240 H   0  0  0  0  0  0  0  0  0  0  0  0
  -10.8780    8.8430  -28.6160 H   0  0  0  0  0  0  0  0  0  0  0  0
  1  2  1  0
  2  3  2  0
  3  4  1  0
  4  5  1  0
  5  6  1  0
  6  7  1  0
  7  8  2  0
  8  9  1  0
  9 10  2  0
 10 11  1  0
 11 12  1  0
 12 13  1  0
 13 14  1  0
 14 15  2  0
 15 16  1  0
 16 17  2  0
 17 18  1  0
 18 19  2  0
 12 20  2  0
 10 21  1  0
 21 22  2  0
  6 23  2  0
  4 24  2  0
 24 25  1  0
 25 26  2  0
 26  2  1  0
 22  7  1  0
 19 14  1  0
  1 27  1  0
  3 28  1  0
  5 29  1  0
  8 30  1  0
  9 31  1  0
 11 32  1  0
 13 33  1  0
 15 34  1  0
 16 35  1  0
 17 36  1  0
 18 37  1  0
 19 38  1  0
 21 39  1  0
 22 40  1  0
 24 41  1  0
 25 42  1  0
 26 43  1  0
A    1
 O1 
A    2
 C1 
A    3
 C2 
A    4
 C3 
A    5
 N1 
A    6
 C4 
A    7
 C5 
A    8
 C6 
A    9
 C7 
A   10
 C8 
A   11
 N2 
A   12
 C9 
A   13
 N3 
A   14
 C10
A   15
 C11
A   16
 C12
A   17
 C13
A   18
 C14
A   19
 C15
A   20
 O2 
A   21
 C16
A   22
 C17
A   23
 O3 
A   24
 C18
A   25
 C19
A   26
 C20
A   27
 H1 
A   28
 H2 
A   29
 H3 
A   30
 H4 
A   31
 H5 
A   32
 H6 
A   33
 H7 
A   34
 H8 
A   35
 H9 
A   36
 H10
A   37
 H11
A   38
 H12
A   39
 H13
A   40
 H14
A   41
 H15
A   42
 H16
A   43
 H17
M  END
>  <ref_pdb>  (247) 
x0051_0B

>  <ref_mols>  (247) 
x0846_1B,x0589_0B

>  <original SMILES>  (247) 
[H]Oc1c([H])c([H])c([H])c(N([H])C(=O)c2c([H])c([H])c(N([H])C(=O)N([H])c3c([H])c([H])c([H])c([H])c3[H])c([H])c2[H])c1[H]

>  <index>  (247) 
433

>  <∆∆G>  (247) 
-8.3662

>  <∆G_bound>  (247) 
-7.741501

>  <∆G_unbound>  (247) 
0.624699

>  <comRMSD>  (247) 
0.500801

>  <N_constrained_atoms>  (247) 
26.0

>  <N_unconstrained_atoms>  (247) 
4.0

>  <runtime>  (247) 
53.659697

>  <LE>  (247) 
0.278873

>  <percent_hybrid>  (247) 
31.0

>  <dist>  (247) 
9.0

>  <ecfp4>  (247) 
0.141026

>  <daylight>  (247) 
0.197917

>  <topodist>  (247) 
5.0

>  <mces>  (247) 
27.0

>  <tdn>  (247) 
1.0

>  <tup>  (247) 
1.0

>  <rdn>  (247) 
1.0

>  <rup>  (247) 
0.0

>  <ldn>  (247) 
2.0

>  <lup>  (247) 
0.0

>  <mut>  (247) 
3.0

>  <maj>  (247) 
3.0

>  <min>  (247) 
0.0

>  <hyb>  (247) 
1.0

>  <sub>  (247) 
2.0

>  <query_index>  (247) 
309.0

>  <max_hit_Tanimoto>  (247) 
0.228659

>  <largest_ring>  (247) 
0

>  <N_interactions_kept>  (247) 
0.5

>  <N_interactions_lost>  (247) 
1.5

>  <interaction_uniqueness_metric>  (247) 
0.145875

>  <ad_hoc_penalty>  (247) 
-22.614314

>  <N_rotatable_bonds>  (247) 
5

>  <N_HA>  (247) 
26

>  <cluster>  (247) 
5825

>  <N_interactions>  (247) 
5

>  <Enamine>  (247) 
0

>  <Mcule>  (247) 
1

>  <N_PAINS>  (247) 
0

>  <UFF_Gibbs>  (247) 
99.591322

>  <strain_per_HA>  (247) 
3.830435

>  <saltbridge:HIS:51>  (247) 
0

>  <pistack:HIS:51>  (247) 
0

>  <hydroph_interaction:HIS:51>  (247) 
0

>  <hbond:ALA:132>  (247) 
0

>  <hbond:SER:135>  (247) 
0

>  <hydroph_interaction:TYR:150>  (247) 
1

>  <pistack:TYR:161>  (247) 
1

>  <hydroph_interaction:TYR:161>  (247) 
0

>  <hydroph_interaction:ASP:83>  (247) 
0

>  <hbond:TYR:130>  (247) 
1

>  <hydroph_interaction:ALA:132>  (247) 
0

>  <hbond:HIS:51>  (247) 
0

>  <hbond:ASP:129>  (247) 
1

>  <hbond:TYR:150>  (247) 
0

>  <hbond:GLY:151>  (247) 
0

>  <hbond:TYR:161>  (247) 
0

>  <hydroph_interaction:TYR:130>  (247) 
0

>  <hydroph_interaction:PRO:131>  (247) 
1

>  <hydroph_interaction:ASP:129>  (247) 
0

>  <saltbridge:ASP:75>  (247) 
0

>  <saltbridge:ASP:83>  (247) 
0

>  <hydroph_interaction:ASN:152>  (247) 
0

>  <halogenbond:TYR:150>  (247) 
0

>  <hbond:ASP:83>  (247) 
0

>  <hydroph_interaction:VAL:155>  (247) 
0

>  <pication:TYR:161>  (247) 
0

>  <hbond:PRO:131>  (247) 
0

>  <hbond:LEU:128>  (247) 
0

>  <saltbridge:ASP:129>  (247) 
0

>  <hbond:THR:134>  (247) 
0

>  <pication:HIS:51>  (247) 
0

>  <hbond:SER:81>  (247) 
0

>  <hbond:GLY:159>  (247) 
0

>  <hydroph_interaction:PRO:101>  (247) 
0

>  <hydroph_interaction:THR:134>  (247) 
0

>  <hbond:GLY:82>  (247) 
0

>  <hydroph_interaction:GLU:104>  (247) 
0

>  <hydroph_interaction:VAL:36>  (247) 
0

>  <hydroph_interaction:MET:49>  (247) 
0

>  <halogenbond:GLU:104>  (247) 
0

>  <hydroph_interaction:LYS:107>  (247) 
0

$$$$
MCULE-3518890417
     RDKit          3D

 22 24  0  0  0  0  0  0  0  0999 V2000
   -8.2950    5.3480  -16.5820 C   0  0  0  0  0  0  0  0  0  0  0  0
   -9.7410    4.9460  -16.8460 C   0  0  0  0  0  0  0  0  0  0  0  0
  -10.1320    4.6330  -18.1590 C   0  0  0  0  0  0  0  0  0  0  0  0
   -9.1040    4.6890  -19.2640 C   0  0  0  0  0  0  0  0  0  0  0  0
   -7.7780    5.0530  -18.9780 C   0  0  0  0  0  0  0  0  0  0  0  0
   -6.7310    5.1320  -19.9050 C   0  0  0  0  0  0  0  0  0  0  0  0
   -5.4480    5.5100  -19.4560 C   0  0  0  0  0  0  0  0  0  0  0  0
   -5.1700    5.8170  -18.1310 C   0  0  0  0  0  0  0  0  0  0  0  0
   -6.2360    5.7320  -17.2430 C   0  0  0  0  0  0  0  0  0  0  0  0
   -6.3030    6.0000  -15.7830 C   0  0  0  0  0  0  0  0  0  0  0  0
   -5.0810    4.8740  -14.8060 Br  0  0  0  0  0  0  0  0  0  0  0  0
   -7.5900    5.7420  -15.3070 C   0  0  0  0  0  0  0  0  0  0  0  0
   -7.4570    5.3630  -17.6600 C   0  0  0  0  0  0  0  0  0  0  0  0
  -10.4470    4.9050  -16.0290 H   0  0  0  0  0  0  0  0  0  0  0  0
  -11.1580    4.3540  -18.3710 H   0  0  0  0  0  0  0  0  0  0  0  0
   -9.3750    4.4490  -20.3010 H   0  0  0  0  0  0  0  0  0  0  0  0
   -6.8980    4.9030  -20.9550 H   0  0  0  0  0  0  0  0  0  0  0  0
   -4.5840    5.5870  -20.1270 H   0  0  0  0  0  0  0  0  0  0  0  0
   -4.1760    6.1100  -17.7980 H   0  0  0  0  0  0  0  0  0  0  0  0
   -6.0130    7.0330  -15.5630 H   0  0  0  0  0  0  0  0  0  0  0  0
   -7.6040    4.9400  -14.5600 H   0  0  0  0  0  0  0  0  0  0  0  0
   -8.0650    6.6240  -14.8640 H   0  0  0  0  0  0  0  0  0  0  0  0
  1  2  2  0
  2  3  1  0
  3  4  2  0
  4  5  1  0
  5  6  2  0
  6  7  1  0
  7  8  2  0
  8  9  1  0
  9 10  1  0
 10 11  1  0
 10 12  1  0
  9 13  2  0
 12  1  1  0
  1 13  1  0
 13  5  1  0
  2 14  1  0
  3 15  1  0
  4 16  1  0
  6 17  1  0
  7 18  1  0
  8 19  1  0
 10 20  1  0
 12 21  1  0
 12 22  1  0
A    1
 C1 
A    2
 C2 
A    3
 C3 
A    4
 C4 
A    5
 C5 
A    6
 C6 
A    7
 C7 
A    8
 C8 
A    9
 C9 
A   10
 C10
A   11
BR1 
A   12
 C11
A   13
 C12
A   14
 H1 
A   15
 H2 
A   16
 H3 
A   17
 H4 
A   18
 H5 
A   19
 H6 
A   20
 H7 
A   21
 H8 
A   22
 H9 
M  END
>  <ref_pdb>  (248) 
x0051_0B

>  <ref_mols>  (248) 
x0727_0B,x0455_0B

>  <original SMILES>  (248) 
[H]c1c([H])c2c3c(c([H])c([H])c([H])c3c1[H])C([H])(Br)C2([H])[H]

>  <index>  (248) 
476

>  <∆∆G>  (248) 
-7.033912

>  <∆G_bound>  (248) 
-7.091185

>  <∆G_unbound>  (248) 
-0.057274

>  <comRMSD>  (248) 
0.92441

>  <N_constrained_atoms>  (248) 
14.0

>  <N_unconstrained_atoms>  (248) 
1.0

>  <runtime>  (248) 
19.181777

>  <LE>  (248) 
0.468927

>  <percent_hybrid>  (248) 
34.0

>  <dist>  (248) 
3.0

>  <ecfp4>  (248) 
0.27907

>  <daylight>  (248) 
0.269231

>  <topodist>  (248) 
1.0

>  <mces>  (248) 
15.0

>  <tdn>  (248) 
0.0

>  <tup>  (248) 
0.0

>  <rdn>  (248) 
0.0

>  <rup>  (248) 
0.0

>  <ldn>  (248) 
1.0

>  <lup>  (248) 
0.0

>  <mut>  (248) 
2.0

>  <maj>  (248) 
2.0

>  <min>  (248) 
0.0

>  <hyb>  (248) 
0.0

>  <sub>  (248) 
0.0

>  <query_index>  (248) 
57.0

>  <max_hit_Tanimoto>  (248) 
0.172348

>  <largest_ring>  (248) 
0

>  <N_interactions_kept>  (248) 
0.0

>  <N_interactions_lost>  (248) 
3.0

>  <interaction_uniqueness_metric>  (248) 
0.069541

>  <ad_hoc_penalty>  (248) 
-22.606352

>  <N_rotatable_bonds>  (248) 
0

>  <N_HA>  (248) 
13

>  <cluster>  (248) 
5785

>  <N_interactions>  (248) 
6

>  <Enamine>  (248) 
0

>  <Mcule>  (248) 
1

>  <N_PAINS>  (248) 
0

>  <UFF_Gibbs>  (248) 
30.661263

>  <strain_per_HA>  (248) 
2.358559

>  <saltbridge:HIS:51>  (248) 
0

>  <pistack:HIS:51>  (248) 
0

>  <hydroph_interaction:HIS:51>  (248) 
0

>  <hbond:ALA:132>  (248) 
0

>  <hbond:SER:135>  (248) 
0

>  <hydroph_interaction:TYR:150>  (248) 
1

>  <pistack:TYR:161>  (248) 
3

>  <hydroph_interaction:TYR:161>  (248) 
1

>  <hydroph_interaction:ASP:83>  (248) 
0

>  <hbond:TYR:130>  (248) 
0

>  <hydroph_interaction:ALA:132>  (248) 
1

>  <hbond:HIS:51>  (248) 
0

>  <hbond:ASP:129>  (248) 
0

>  <hbond:TYR:150>  (248) 
0

>  <hbond:GLY:151>  (248) 
0

>  <hbond:TYR:161>  (248) 
0

>  <hydroph_interaction:TYR:130>  (248) 
0

>  <hydroph_interaction:PRO:131>  (248) 
0

>  <hydroph_interaction:ASP:129>  (248) 
0

>  <saltbridge:ASP:75>  (248) 
0

>  <saltbridge:ASP:83>  (248) 
0

>  <hydroph_interaction:ASN:152>  (248) 
0

>  <halogenbond:TYR:150>  (248) 
0

>  <hbond:ASP:83>  (248) 
0

>  <hydroph_interaction:VAL:155>  (248) 
0

>  <pication:TYR:161>  (248) 
0

>  <hbond:PRO:131>  (248) 
0

>  <hbond:LEU:128>  (248) 
0

>  <saltbridge:ASP:129>  (248) 
0

>  <hbond:THR:134>  (248) 
0

>  <pication:HIS:51>  (248) 
0

>  <hbond:SER:81>  (248) 
0

>  <hbond:GLY:159>  (248) 
0

>  <hydroph_interaction:PRO:101>  (248) 
0

>  <hydroph_interaction:THR:134>  (248) 
0

>  <hbond:GLY:82>  (248) 
0

>  <hydroph_interaction:GLU:104>  (248) 
0

>  <hydroph_interaction:VAL:36>  (248) 
0

>  <hydroph_interaction:MET:49>  (248) 
0

>  <halogenbond:GLU:104>  (248) 
0

>  <hydroph_interaction:LYS:107>  (248) 
0

$$$$
MCULE-7101319039
     RDKit          3D

 48 50  0  0  0  0  0  0  0  0999 V2000
   -7.8960    7.4900  -14.4850 O   0  0  0  0  0  0  0  0  0  0  0  0
   -7.3180    6.2030  -14.8080 C   0  0  0  0  0  0  0  0  0  0  0  0
   -7.8050    5.7090  -16.1960 C   0  0  0  0  0  0  0  0  0  0  0  0
   -6.9150    5.8020  -17.2570 C   0  0  0  0  0  0  0  0  0  0  0  0
   -7.2700    5.3940  -18.5330 C   0  0  0  0  0  0  0  0  0  0  0  0
   -6.3340    5.5150  -19.5560 C   0  0  0  0  0  0  0  0  0  0  0  0
   -8.5470    4.8770  -18.7650 C   0  0  0  0  0  0  0  0  0  0  0  0
   -9.4550    4.7740  -17.7050 C   0  0  0  0  0  0  0  0  0  0  0  0
   -9.0810    5.1900  -16.4170 C   0  0  0  0  0  0  0  0  0  0  0  0
   -9.1240    7.3590  -13.9830 C   0  0  0  0  0  0  0  0  0  0  0  0
   -9.0580    6.4470  -12.7970 C   0  0  0  0  0  0  0  0  0  0  0  0
   -8.8600    7.1580  -11.5010 C   0  0  0  0  0  0  0  0  0  0  0  0
   -8.7720    6.4830  -10.2890 C   0  0  0  0  0  0  0  0  0  0  0  0
   -8.8670    5.0720  -10.2550 C   0  0  0  0  0  0  0  0  0  0  0  0
   -8.7810    4.4110   -9.0660 N   0  0  0  0  0  0  0  0  0  0  0  0
   -9.0140    2.9470   -9.0020 C   0  0  0  0  0  0  0  0  0  0  0  0
   -9.6920    2.5850   -7.8310 C   0  0  0  0  0  0  0  0  0  0  0  0
   -9.2080    3.2990   -6.6360 N   0  0  0  0  0  0  0  0  0  0  0  0
   -7.8120    3.0230   -6.4690 C   0  0  0  0  0  0  0  0  0  0  0  0
   -9.2230    4.6750   -6.7870 C   0  0  0  0  0  0  0  0  0  0  0  0
   -8.4390    5.1470   -7.8330 C   0  0  0  0  0  0  0  0  0  0  0  0
   -9.0530    4.3610  -11.4700 C   0  0  0  0  0  0  0  0  0  0  0  0
   -9.1540    5.0770  -12.7950 C   0  0  0  0  0  0  0  0  0  0  0  0
  -10.1340    7.8580  -14.4070 O   0  0  0  0  0  0  0  0  0  0  0  0
   -6.2290    6.3150  -14.7920 H   0  0  0  0  0  0  0  0  0  0  0  0
   -7.5770    5.4570  -14.0540 H   0  0  0  0  0  0  0  0  0  0  0  0
   -5.9180    6.2010  -17.0980 H   0  0  0  0  0  0  0  0  0  0  0  0
   -6.3680    6.5270  -19.9740 H   0  0  0  0  0  0  0  0  0  0  0  0
   -6.5920    4.8250  -20.3680 H   0  0  0  0  0  0  0  0  0  0  0  0
   -5.3010    5.3160  -19.2870 H   0  0  0  0  0  0  0  0  0  0  0  0
   -8.8480    4.5510  -19.7620 H   0  0  0  0  0  0  0  0  0  0  0  0
  -10.4540    4.3700  -17.8820 H   0  0  0  0  0  0  0  0  0  0  0  0
   -9.7980    5.1050  -15.6040 H   0  0  0  0  0  0  0  0  0  0  0  0
   -8.7850    8.2430  -11.5150 H   0  0  0  0  0  0  0  0  0  0  0  0
   -8.6290    7.0680   -9.3860 H   0  0  0  0  0  0  0  0  0  0  0  0
   -9.6030    2.6350   -9.8730 H   0  0  0  0  0  0  0  0  0  0  0  0
   -8.0670    2.3940   -9.0190 H   0  0  0  0  0  0  0  0  0  0  0  0
  -10.7310    2.8840   -7.9620 H   0  0  0  0  0  0  0  0  0  0  0  0
   -9.7640    1.5280   -7.5890 H   0  0  0  0  0  0  0  0  0  0  0  0
   -7.3670    3.6670   -5.7060 H   0  0  0  0  0  0  0  0  0  0  0  0
   -7.2710    3.1620   -7.3990 H   0  0  0  0  0  0  0  0  0  0  0  0
   -7.7220    1.9990   -6.1300 H   0  0  0  0  0  0  0  0  0  0  0  0
   -8.8880    5.0770   -5.8320 H   0  0  0  0  0  0  0  0  0  0  0  0
  -10.2680    4.9390   -6.8000 H   0  0  0  0  0  0  0  0  0  0  0  0
   -7.3590    5.1020   -7.7270 H   0  0  0  0  0  0  0  0  0  0  0  0
   -8.6930    6.2020   -7.9770 H   0  0  0  0  0  0  0  0  0  0  0  0
   -9.1290    3.2770  -11.4760 H   0  0  0  0  0  0  0  0  0  0  0  0
   -9.2990    4.4470  -13.6790 H   0  0  0  0  0  0  0  0  0  0  0  0
  1  2  1  0
  2  3  1  0
  3  4  2  0
  4  5  1  0
  5  6  1  0
  5  7  2  0
  7  8  1  0
  8  9  2  0
  1 10  1  0
 10 11  1  0
 11 12  2  0
 12 13  1  0
 13 14  2  0
 14 15  1  0
 15 16  1  0
 16 17  1  0
 17 18  1  0
 18 19  1  0
 18 20  1  0
 20 21  1  0
 14 22  1  0
 22 23  2  0
 10 24  2  0
  9  3  1  0
 11 23  1  0
 21 15  1  0
  2 25  1  0
  2 26  1  0
  4 27  1  0
  6 28  1  0
  6 29  1  0
  6 30  1  0
  7 31  1  0
  8 32  1  0
  9 33  1  0
 12 34  1  0
 13 35  1  0
 16 36  1  0
 16 37  1  0
 17 38  1  0
 17 39  1  0
 19 40  1  0
 19 41  1  0
 19 42  1  0
 20 43  1  0
 20 44  1  0
 21 45  1  0
 21 46  1  0
 22 47  1  0
 23 48  1  0
A    1
 O1 
A    2
 C1 
A    3
 C2 
A    4
 C3 
A    5
 C4 
A    6
 C5 
A    7
 C6 
A    8
 C7 
A    9
 C8 
A   10
 C9 
A   11
 C10
A   12
 C11
A   13
 C12
A   14
 C13
A   15
 N1 
A   16
 C14
A   17
 C15
A   18
 N2 
A   19
 C16
A   20
 C17
A   21
 C18
A   22
 C19
A   23
 C20
A   24
 O2 
A   25
 H1 
A   26
 H2 
A   27
 H3 
A   28
 H4 
A   29
 H5 
A   30
 H6 
A   31
 H7 
A   32
 H8 
A   33
 H9 
A   34
 H10
A   35
 H11
A   36
 H12
A   37
 H13
A   38
 H14
A   39
 H15
A   40
 H16
A   41
 H17
A   42
 H18
A   43
 H19
A   44
 H20
A   45
 H21
A   46
 H22
A   47
 H23
A   48
 H24
M  END
>  <ref_pdb>  (249) 
x0051_0B

>  <ref_mols>  (249) 
x0589_0B,x0404_0B

>  <original SMILES>  (249) 
[H]c1c([H])c(C([H])([H])[H])c([H])c(C([H])([H])OC(=O)c2c([H])c([H])c(N3C([H])([H])C([H])([H])N(C([H])([H])[H])C([H])([H])C3([H])[H])c([H])c2[H])c1[H]

>  <index>  (249) 
228

>  <∆∆G>  (249) 
-8.637563

>  <∆G_bound>  (249) 
-8.205023

>  <∆G_unbound>  (249) 
0.432541

>  <comRMSD>  (249) 
0.707858

>  <N_constrained_atoms>  (249) 
23.0

>  <N_unconstrained_atoms>  (249) 
2.0

>  <runtime>  (249) 
111.553525

>  <LE>  (249) 
0.345503

>  <percent_hybrid>  (249) 
35.0

>  <dist>  (249) 
6.0

>  <ecfp4>  (249) 
0.24

>  <daylight>  (249) 
0.283237

>  <topodist>  (249) 
3.0

>  <mces>  (249) 
25.0

>  <tdn>  (249) 
2.0

>  <tup>  (249) 
1.0

>  <rdn>  (249) 
0.0

>  <rup>  (249) 
0.0

>  <ldn>  (249) 
0.0

>  <lup>  (249) 
0.0

>  <mut>  (249) 
3.0

>  <maj>  (249) 
3.0

>  <min>  (249) 
0.0

>  <hyb>  (249) 
0.0

>  <sub>  (249) 
2.0

>  <query_index>  (249) 
29.0

>  <max_hit_Tanimoto>  (249) 
0.345521

>  <largest_ring>  (249) 
0

>  <N_interactions_kept>  (249) 
2.0

>  <N_interactions_lost>  (249) 
1.5

>  <interaction_uniqueness_metric>  (249) 
0.203084

>  <ad_hoc_penalty>  (249) 
-22.596408

>  <N_rotatable_bonds>  (249) 
6

>  <N_HA>  (249) 
24

>  <cluster>  (249) 
523

>  <N_interactions>  (249) 
6

>  <Enamine>  (249) 
0

>  <Mcule>  (249) 
1

>  <N_PAINS>  (249) 
0

>  <UFF_Gibbs>  (249) 
199.763476

>  <strain_per_HA>  (249) 
8.323478

>  <saltbridge:HIS:51>  (249) 
0

>  <pistack:HIS:51>  (249) 
1

>  <hydroph_interaction:HIS:51>  (249) 
1

>  <hbond:ALA:132>  (249) 
0

>  <hbond:SER:135>  (249) 
0

>  <hydroph_interaction:TYR:150>  (249) 
0

>  <pistack:TYR:161>  (249) 
0

>  <hydroph_interaction:TYR:161>  (249) 
2

>  <hydroph_interaction:ASP:83>  (249) 
0

>  <hbond:TYR:130>  (249) 
0

>  <hydroph_interaction:ALA:132>  (249) 
1

>  <hbond:HIS:51>  (249) 
0

>  <hbond:ASP:129>  (249) 
0

>  <hbond:TYR:150>  (249) 
0

>  <hbond:GLY:151>  (249) 
0

>  <hbond:TYR:161>  (249) 
0

>  <hydroph_interaction:TYR:130>  (249) 
0

>  <hydroph_interaction:PRO:131>  (249) 
0

>  <hydroph_interaction:ASP:129>  (249) 
0

>  <saltbridge:ASP:75>  (249) 
1

>  <saltbridge:ASP:83>  (249) 
0

>  <hydroph_interaction:ASN:152>  (249) 
0

>  <halogenbond:TYR:150>  (249) 
0

>  <hbond:ASP:83>  (249) 
0

>  <hydroph_interaction:VAL:155>  (249) 
0

>  <pication:TYR:161>  (249) 
0

>  <hbond:PRO:131>  (249) 
0

>  <hbond:LEU:128>  (249) 
0

>  <saltbridge:ASP:129>  (249) 
0

>  <hbond:THR:134>  (249) 
0

>  <pication:HIS:51>  (249) 
0

>  <hbond:SER:81>  (249) 
0

>  <hbond:GLY:159>  (249) 
0

>  <hydroph_interaction:PRO:101>  (249) 
0

>  <hydroph_interaction:THR:134>  (249) 
0

>  <hbond:GLY:82>  (249) 
0

>  <hydroph_interaction:GLU:104>  (249) 
0

>  <hydroph_interaction:VAL:36>  (249) 
0

>  <hydroph_interaction:MET:49>  (249) 
0

>  <halogenbond:GLU:104>  (249) 
0

>  <hydroph_interaction:LYS:107>  (249) 
0

$$$$
CSSS00025781953
     RDKit          3D

 24 26  0  0  0  0  0  0  0  0999 V2000
   -4.2460    5.7650  -15.5540 O   0  0  0  0  0  0  0  0  0  0  0  0
   -5.4040    5.4420  -15.8200 C   0  0  0  0  0  0  0  0  0  0  0  0
   -6.3350    5.1060  -14.8100 C   0  0  0  0  0  0  0  0  0  0  0  0
   -7.7270    5.2020  -15.0710 C   0  0  0  0  0  0  0  0  0  0  0  0
   -8.0970    5.0990  -16.4110 C   0  0  0  0  0  0  0  0  0  0  0  0
   -9.5710    4.8860  -16.6900 C   0  0  0  0  0  0  0  0  0  0  0  0
  -10.0890    4.7650  -18.1120 C   0  0  0  0  0  0  0  0  0  0  0  0
   -9.0380    4.8820  -19.0300 C   0  0  0  0  0  0  0  0  0  0  0  0
   -7.6600    5.0780  -18.8330 C   0  0  0  0  0  0  0  0  0  0  0  0
   -6.7570    5.1700  -19.8950 C   0  0  0  0  0  0  0  0  0  0  0  0
   -5.4050    5.3600  -19.6070 C   0  0  0  0  0  0  0  0  0  0  0  0
   -4.9750    5.4480  -18.2900 C   0  0  0  0  0  0  0  0  0  0  0  0
   -5.8510    5.3600  -17.2230 C   0  0  0  0  0  0  0  0  0  0  0  0
   -7.1930    5.1810  -17.4800 C   0  0  0  0  0  0  0  0  0  0  0  0
   -6.0800    5.5240  -13.8410 H   0  0  0  0  0  0  0  0  0  0  0  0
   -6.1390    4.0380  -14.6670 H   0  0  0  0  0  0  0  0  0  0  0  0
   -8.1470    4.3160  -14.5830 H   0  0  0  0  0  0  0  0  0  0  0  0
   -8.2190    6.0260  -14.5580 H   0  0  0  0  0  0  0  0  0  0  0  0
  -10.3060    4.8120  -15.8790 H   0  0  0  0  0  0  0  0  0  0  0  0
  -11.1320    4.6120  -18.3840 H   0  0  0  0  0  0  0  0  0  0  0  0
   -9.3620    4.8050  -20.0730 H   0  0  0  0  0  0  0  0  0  0  0  0
   -7.0830    5.0970  -20.9290 H   0  0  0  0  0  0  0  0  0  0  0  0
   -4.7740    5.4220  -20.5010 H   0  0  0  0  0  0  0  0  0  0  0  0
   -3.9070    5.5890  -18.0690 H   0  0  0  0  0  0  0  0  0  0  0  0
  1  2  2  0
  2  3  1  0
  3  4  1  0
  4  5  1  0
  5  6  1  0
  6  7  2  0
  7  8  1  0
  8  9  2  0
  9 10  1  0
 10 11  2  0
 11 12  1  0
 12 13  2  0
 13 14  1  0
 13  2  1  0
 14  5  2  0
 14  9  1  0
  3 15  1  0
  3 16  1  0
  4 17  1  0
  4 18  1  0
  6 19  1  0
  7 20  1  0
  8 21  1  0
 10 22  1  0
 11 23  1  0
 12 24  1  0
A    1
 O1 
A    2
 C1 
A    3
 C2 
A    4
 C3 
A    5
 C4 
A    6
 C5 
A    7
 C6 
A    8
 C7 
A    9
 C8 
A   10
 C9 
A   11
 C10
A   12
 C11
A   13
 C12
A   14
 C13
A   15
 H1 
A   16
 H2 
A   17
 H3 
A   18
 H4 
A   19
 H5 
A   20
 H6 
A   21
 H7 
A   22
 H8 
A   23
 H9 
A   24
 H10
M  END
>  <ref_pdb>  (250) 
x0051_0B

>  <ref_mols>  (250) 
x0727_0B,x0455_0B

>  <original SMILES>  (250) 
[H]c1c([H])c2c3c(c([H])c([H])c([H])c3c1[H])C([H])([H])C([H])([H])C2=O

>  <index>  (250) 
376

>  <∆∆G>  (250) 
-7.462438

>  <∆G_bound>  (250) 
-7.453799

>  <∆G_unbound>  (250) 
0.008639

>  <comRMSD>  (250) 
0.32864

>  <N_constrained_atoms>  (250) 
14.0

>  <N_unconstrained_atoms>  (250) 
0.0

>  <runtime>  (250) 
19.230891

>  <LE>  (250) 
0.533031

>  <percent_hybrid>  (250) 
34.0

>  <dist>  (250) 
3.0

>  <ecfp4>  (250) 
0.295455

>  <daylight>  (250) 
0.36

>  <topodist>  (250) 
0.0

>  <mces>  (250) 
16.0

>  <tdn>  (250) 
0.0

>  <tup>  (250) 
0.0

>  <rdn>  (250) 
0.0

>  <rup>  (250) 
0.0

>  <ldn>  (250) 
0.0

>  <lup>  (250) 
0.0

>  <mut>  (250) 
2.0

>  <maj>  (250) 
2.0

>  <min>  (250) 
0.0

>  <hyb>  (250) 
1.0

>  <sub>  (250) 
0.0

>  <query_index>  (250) 
57.0

>  <max_hit_Tanimoto>  (250) 
0.158462

>  <largest_ring>  (250) 
0

>  <N_interactions_kept>  (250) 
0.0

>  <N_interactions_lost>  (250) 
3.0

>  <interaction_uniqueness_metric>  (250) 
0.047384

>  <ad_hoc_penalty>  (250) 
-22.587181

>  <N_rotatable_bonds>  (250) 
0

>  <N_HA>  (250) 
14

>  <cluster>  (250) 
5873

>  <N_interactions>  (250) 
6

>  <Enamine>  (250) 
1

>  <Mcule>  (250) 
0

>  <N_PAINS>  (250) 
0

>  <UFF_Gibbs>  (250) 
51.887823

>  <strain_per_HA>  (250) 
3.706273

>  <saltbridge:HIS:51>  (250) 
0

>  <pistack:HIS:51>  (250) 
0

>  <hydroph_interaction:HIS:51>  (250) 
0

>  <hbond:ALA:132>  (250) 
0

>  <hbond:SER:135>  (250) 
0

>  <hydroph_interaction:TYR:150>  (250) 
1

>  <pistack:TYR:161>  (250) 
1

>  <hydroph_interaction:TYR:161>  (250) 
4

>  <hydroph_interaction:ASP:83>  (250) 
0

>  <hbond:TYR:130>  (250) 
0

>  <hydroph_interaction:ALA:132>  (250) 
0

>  <hbond:HIS:51>  (250) 
0

>  <hbond:ASP:129>  (250) 
0

>  <hbond:TYR:150>  (250) 
0

>  <hbond:GLY:151>  (250) 
0

>  <hbond:TYR:161>  (250) 
0

>  <hydroph_interaction:TYR:130>  (250) 
0

>  <hydroph_interaction:PRO:131>  (250) 
0

>  <hydroph_interaction:ASP:129>  (250) 
0

>  <saltbridge:ASP:75>  (250) 
0

>  <saltbridge:ASP:83>  (250) 
0

>  <hydroph_interaction:ASN:152>  (250) 
0

>  <halogenbond:TYR:150>  (250) 
0

>  <hbond:ASP:83>  (250) 
0

>  <hydroph_interaction:VAL:155>  (250) 
0

>  <pication:TYR:161>  (250) 
0

>  <hbond:PRO:131>  (250) 
0

>  <hbond:LEU:128>  (250) 
0

>  <saltbridge:ASP:129>  (250) 
0

>  <hbond:THR:134>  (250) 
0

>  <pication:HIS:51>  (250) 
0

>  <hbond:SER:81>  (250) 
0

>  <hbond:GLY:159>  (250) 
0

>  <hydroph_interaction:PRO:101>  (250) 
0

>  <hydroph_interaction:THR:134>  (250) 
0

>  <hbond:GLY:82>  (250) 
0

>  <hydroph_interaction:GLU:104>  (250) 
0

>  <hydroph_interaction:VAL:36>  (250) 
0

>  <hydroph_interaction:MET:49>  (250) 
0

>  <halogenbond:GLU:104>  (250) 
0

>  <hydroph_interaction:LYS:107>  (250) 
0

$$$$
Z5080829372
     RDKit          3D

 37 40  0  0  0  0  0  0  0  0999 V2000
   -6.4620    5.1760  -20.3640 C   0  0  0  0  0  0  0  0  0  0  0  0
   -6.4730    5.2560  -18.9930 N   0  0  0  0  0  0  0  0  0  0  0  0
   -5.3200    5.4810  -18.2960 N   0  0  0  0  0  0  0  0  0  0  0  0
   -5.6690    5.5040  -16.9690 N   0  0  0  0  0  0  0  0  0  0  0  0
   -7.0250    5.2960  -16.8620 C   0  0  0  0  0  0  0  0  0  0  0  0
   -7.8800    5.2370  -15.6110 C   0  0  0  0  0  0  0  0  0  0  0  0
   -7.3940    5.3990  -14.2810 C   0  0  0  0  0  0  0  0  0  0  0  0
   -8.3540    4.9220  -13.2730 O   0  0  0  0  0  0  0  0  0  0  0  0
   -8.7640    5.8960  -12.3600 C   0  0  0  0  0  0  0  0  0  0  0  0
   -9.1080    7.0070  -12.7630 O   0  0  0  0  0  0  0  0  0  0  0  0
   -8.7930    5.6480  -10.9320 C   0  0  0  0  0  0  0  0  0  0  0  0
   -8.9090    4.4410  -10.2040 C   0  0  0  0  0  0  0  0  0  0  0  0
   -9.0110    3.1500  -10.6970 C   0  0  0  0  0  0  0  0  0  0  0  0
   -8.6210    2.0040   -9.3530 S   0  0  0  0  0  0  0  0  0  0  0  0
   -9.5790    2.7340   -8.0020 C   0  0  0  0  0  0  0  0  0  0  0  0
   -9.0070    3.9740   -7.6950 C   0  0  0  0  0  0  0  0  0  0  0  0
   -8.9020    4.8140   -8.8780 N   0  0  0  0  0  0  0  0  0  0  0  0
   -8.7790    6.1400   -8.7530 N   0  0  0  0  0  0  0  0  0  0  0  0
   -8.7120    6.6580   -9.9840 N   0  0  0  0  0  0  0  0  0  0  0  0
   -9.2510    5.0050  -15.8810 C   0  0  0  0  0  0  0  0  0  0  0  0
   -9.9010    4.8110  -17.2730 C   0  0  0  0  0  0  0  0  0  0  0  0
   -9.0100    4.8750  -18.4810 C   0  0  0  0  0  0  0  0  0  0  0  0
   -7.5500    5.1320  -18.1620 C   0  0  0  0  0  0  0  0  0  0  0  0
   -5.5140    4.7310  -20.6800 H   0  0  0  0  0  0  0  0  0  0  0  0
   -7.2930    4.5610  -20.7180 H   0  0  0  0  0  0  0  0  0  0  0  0
   -6.5700    6.1850  -20.7780 H   0  0  0  0  0  0  0  0  0  0  0  0
   -6.4670    4.9920  -13.9050 H   0  0  0  0  0  0  0  0  0  0  0  0
   -7.2860    6.4490  -14.0260 H   0  0  0  0  0  0  0  0  0  0  0  0
  -10.0430    2.9400  -10.9830 H   0  0  0  0  0  0  0  0  0  0  0  0
   -8.3890    2.8730  -11.5460 H   0  0  0  0  0  0  0  0  0  0  0  0
  -10.5960    2.8810   -8.3710 H   0  0  0  0  0  0  0  0  0  0  0  0
   -9.6480    1.9870   -7.2170 H   0  0  0  0  0  0  0  0  0  0  0  0
   -9.5340    4.5570   -6.9430 H   0  0  0  0  0  0  0  0  0  0  0  0
   -7.9840    3.8300   -7.3320 H   0  0  0  0  0  0  0  0  0  0  0  0
  -10.0180    4.9350  -15.0910 H   0  0  0  0  0  0  0  0  0  0  0  0
  -10.9600    4.6330  -17.4030 H   0  0  0  0  0  0  0  0  0  0  0  0
   -9.3920    4.7500  -19.4890 H   0  0  0  0  0  0  0  0  0  0  0  0
  1  2  1  0
  2  3  1  0
  3  4  2  0
  4  5  1  0
  5  6  2  0
  6  7  1  0
  7  8  1  0
  8  9  1  0
  9 10  2  0
  9 11  1  0
 11 12  2  0
 12 13  1  0
 13 14  1  0
 14 15  1  0
 15 16  1  0
 16 17  1  0
 17 18  1  0
 18 19  2  0
  6 20  1  0
 20 21  2  0
 21 22  1  0
 22 23  2  0
 23  2  1  0
 23  5  1  0
 19 11  1  0
 17 12  1  0
  1 24  1  0
  1 25  1  0
  1 26  1  0
  7 27  1  0
  7 28  1  0
 13 29  1  0
 13 30  1  0
 15 31  1  0
 15 32  1  0
 16 33  1  0
 16 34  1  0
 20 35  1  0
 21 36  1  0
 22 37  1  0
A    1
 C1 
A    2
 N1 
A    3
 N2 
A    4
 N3 
A    5
 C2 
A    6
 C3 
A    7
 C4 
A    8
 O1 
A    9
 C5 
A   10
 O2 
A   11
 C6 
A   12
 C7 
A   13
 C8 
A   14
 S1 
A   15
 C9 
A   16
 C10
A   17
 N4 
A   18
 N5 
A   19
 N6 
A   20
 C11
A   21
 C12
A   22
 C13
A   23
 C14
A   24
 H1 
A   25
 H2 
A   26
 H3 
A   27
 H4 
A   28
 H5 
A   29
 H6 
A   30
 H7 
A   31
 H8 
A   32
 H9 
A   33
 H10
A   34
 H11
A   35
 H12
A   36
 H13
A   37
 H14
M  END
>  <ref_pdb>  (251) 
x0051_0B

>  <ref_mols>  (251) 
x0969_1B,x0435_0B

>  <original SMILES>  (251) 
[H]c1c([H])c([H])c2c(nnn2C([H])([H])[H])c1C([H])([H])OC(=O)c1nnn2c1C([H])([H])SC([H])([H])C2([H])[H]

>  <index>  (251) 
391

>  <∆∆G>  (251) 
-7.801668

>  <∆G_bound>  (251) 
-7.214126

>  <∆G_unbound>  (251) 
0.587542

>  <comRMSD>  (251) 
0.42018

>  <N_constrained_atoms>  (251) 
20.0

>  <N_unconstrained_atoms>  (251) 
3.0

>  <runtime>  (251) 
53.860511

>  <LE>  (251) 
0.339203

>  <percent_hybrid>  (251) 
50.0

>  <dist>  (251) 
7.0

>  <ecfp4>  (251) 
0.094737

>  <daylight>  (251) 
0.265363

>  <topodist>  (251) 
1.0

>  <mces>  (251) 
25.0

>  <tdn>  (251) 
0.0

>  <tup>  (251) 
1.0

>  <rdn>  (251) 
0.0

>  <rup>  (251) 
0.0

>  <ldn>  (251) 
0.0

>  <lup>  (251) 
0.0

>  <mut>  (251) 
5.0

>  <maj>  (251) 
5.0

>  <min>  (251) 
0.0

>  <hyb>  (251) 
1.0

>  <sub>  (251) 
0.0

>  <query_index>  (251) 
343.0

>  <max_hit_Tanimoto>  (251) 
0.229912

>  <largest_ring>  (251) 
0

>  <N_interactions_kept>  (251) 
2.5

>  <N_interactions_lost>  (251) 
1.0

>  <interaction_uniqueness_metric>  (251) 
0.139279

>  <ad_hoc_penalty>  (251) 
-22.543912

>  <N_rotatable_bonds>  (251) 
4

>  <N_HA>  (251) 
23

>  <cluster>  (251) 
5860

>  <N_interactions>  (251) 
4

>  <Enamine>  (251) 
1

>  <Mcule>  (251) 
0

>  <N_PAINS>  (251) 
0

>  <UFF_Gibbs>  (251) 
100.661571

>  <strain_per_HA>  (251) 
4.37659

>  <saltbridge:HIS:51>  (251) 
1

>  <pistack:HIS:51>  (251) 
1

>  <hydroph_interaction:HIS:51>  (251) 
0

>  <hbond:ALA:132>  (251) 
0

>  <hbond:SER:135>  (251) 
0

>  <hydroph_interaction:TYR:150>  (251) 
0

>  <pistack:TYR:161>  (251) 
1

>  <hydroph_interaction:TYR:161>  (251) 
1

>  <hydroph_interaction:ASP:83>  (251) 
0

>  <hbond:TYR:130>  (251) 
0

>  <hydroph_interaction:ALA:132>  (251) 
0

>  <hbond:HIS:51>  (251) 
0

>  <hbond:ASP:129>  (251) 
0

>  <hbond:TYR:150>  (251) 
0

>  <hbond:GLY:151>  (251) 
0

>  <hbond:TYR:161>  (251) 
0

>  <hydroph_interaction:TYR:130>  (251) 
0

>  <hydroph_interaction:PRO:131>  (251) 
0

>  <hydroph_interaction:ASP:129>  (251) 
0

>  <saltbridge:ASP:75>  (251) 
0

>  <saltbridge:ASP:83>  (251) 
0

>  <hydroph_interaction:ASN:152>  (251) 
0

>  <halogenbond:TYR:150>  (251) 
0

>  <hbond:ASP:83>  (251) 
0

>  <hydroph_interaction:VAL:155>  (251) 
0

>  <pication:TYR:161>  (251) 
0

>  <hbond:PRO:131>  (251) 
0

>  <hbond:LEU:128>  (251) 
0

>  <saltbridge:ASP:129>  (251) 
0

>  <hbond:THR:134>  (251) 
0

>  <pication:HIS:51>  (251) 
0

>  <hbond:SER:81>  (251) 
0

>  <hbond:GLY:159>  (251) 
0

>  <hydroph_interaction:PRO:101>  (251) 
0

>  <hydroph_interaction:THR:134>  (251) 
0

>  <hbond:GLY:82>  (251) 
0

>  <hydroph_interaction:GLU:104>  (251) 
0

>  <hydroph_interaction:VAL:36>  (251) 
0

>  <hydroph_interaction:MET:49>  (251) 
0

>  <halogenbond:GLU:104>  (251) 
0

>  <hydroph_interaction:LYS:107>  (251) 
0

$$$$
UEBFPNWKLCPIIC-UHFFFAOYSA-N
     RDKit          3D

 41 43  0  0  0  0  0  0  0  0999 V2000
   -8.9850    7.1830  -14.1300 C   0  0  0  0  0  0  0  0  0  0  0  0
   -7.9180    6.9880  -14.9850 N   0  0  0  0  0  0  0  0  0  0  0  0
   -7.6780    5.6060  -15.4790 C   0  0  0  0  0  0  0  0  0  0  0  0
   -8.3340    5.2350  -16.8300 C   0  0  0  0  0  0  0  0  0  0  0  0
   -9.7010    4.9970  -16.8510 O   0  0  0  0  0  0  0  0  0  0  0  0
  -10.0970    4.6830  -18.1300 C   0  0  0  0  0  0  0  0  0  0  0  0
   -8.9870    4.7050  -18.9810 C   0  0  0  0  0  0  0  0  0  0  0  0
   -7.8250    5.0740  -18.1040 C   0  0  0  0  0  0  0  0  0  0  0  0
   -9.9360    7.8710  -14.4170 O   0  0  0  0  0  0  0  0  0  0  0  0
   -8.9600    6.5120  -12.8400 C   0  0  0  0  0  0  0  0  0  0  0  0
   -8.7870    7.2620  -11.5470 C   0  0  0  0  0  0  0  0  0  0  0  0
   -8.7870    6.4840  -10.3020 C   0  0  0  0  0  0  0  0  0  0  0  0
   -8.9390    5.1030  -10.3510 C   0  0  0  0  0  0  0  0  0  0  0  0
   -8.9480    4.3950   -9.1720 N   0  0  0  0  0  0  0  0  0  0  0  0
   -9.0730    2.9250   -9.2480 C   0  0  0  0  0  0  0  0  0  0  0  0
   -9.4520    2.3900   -7.8930 C   0  0  0  0  0  0  0  0  0  0  0  0
   -8.4140    2.9440   -6.9530 C   0  0  0  0  0  0  0  0  0  0  0  0
   -8.8040    4.3660   -6.7090 C   0  0  0  0  0  0  0  0  0  0  0  0
   -8.4330    5.1130   -7.9760 C   0  0  0  0  0  0  0  0  0  0  0  0
   -9.0890    4.4500  -11.5880 C   0  0  0  0  0  0  0  0  0  0  0  0
   -9.1020    5.1330  -12.8030 C   0  0  0  0  0  0  0  0  0  0  0  0
   -7.0960    7.5660  -14.8730 H   0  0  0  0  0  0  0  0  0  0  0  0
   -6.5940    5.4830  -15.5850 H   0  0  0  0  0  0  0  0  0  0  0  0
   -8.0060    4.8610  -14.7480 H   0  0  0  0  0  0  0  0  0  0  0  0
  -11.1500    4.4810  -18.2690 H   0  0  0  0  0  0  0  0  0  0  0  0
   -8.9840    4.4990  -20.0440 H   0  0  0  0  0  0  0  0  0  0  0  0
   -6.8060    5.1740  -18.4740 H   0  0  0  0  0  0  0  0  0  0  0  0
   -8.6690    8.3390  -11.5090 H   0  0  0  0  0  0  0  0  0  0  0  0
   -8.6700    6.9950   -9.3500 H   0  0  0  0  0  0  0  0  0  0  0  0
   -8.1270    2.4670   -9.5710 H   0  0  0  0  0  0  0  0  0  0  0  0
   -9.8600    2.6340   -9.9560 H   0  0  0  0  0  0  0  0  0  0  0  0
   -9.4560    1.3070   -7.8980 H   0  0  0  0  0  0  0  0  0  0  0  0
  -10.4540    2.7320   -7.6060 H   0  0  0  0  0  0  0  0  0  0  0  0
   -8.3740    2.3960   -6.0320 H   0  0  0  0  0  0  0  0  0  0  0  0
   -7.3960    2.9800   -7.3050 H   0  0  0  0  0  0  0  0  0  0  0  0
   -8.2750    4.7740   -5.8430 H   0  0  0  0  0  0  0  0  0  0  0  0
   -9.8830    4.4370   -6.5190 H   0  0  0  0  0  0  0  0  0  0  0  0
   -8.8500    6.1240   -7.8910 H   0  0  0  0  0  0  0  0  0  0  0  0
   -7.3420    5.2180   -8.0470 H   0  0  0  0  0  0  0  0  0  0  0  0
   -9.2070    3.3730  -11.6310 H   0  0  0  0  0  0  0  0  0  0  0  0
   -9.2270    4.5680  -13.7270 H   0  0  0  0  0  0  0  0  0  0  0  0
  1  2  1  0
  2  3  1  0
  3  4  1  0
  4  5  1  0
  5  6  1  0
  6  7  2  0
  7  8  1  0
  1  9  2  0
  1 10  1  0
 10 11  2  0
 11 12  1  0
 12 13  2  0
 13 14  1  0
 14 15  1  0
 15 16  1  0
 16 17  1  0
 17 18  1  0
 18 19  1  0
 13 20  1  0
 20 21  2  0
  4  8  2  0
 21 10  1  0
 19 14  1  0
  2 22  1  0
  3 23  1  0
  3 24  1  0
  6 25  1  0
  7 26  1  0
  8 27  1  0
 11 28  1  0
 12 29  1  0
 15 30  1  0
 15 31  1  0
 16 32  1  0
 16 33  1  0
 17 34  1  0
 17 35  1  0
 18 36  1  0
 18 37  1  0
 19 38  1  0
 19 39  1  0
 20 40  1  0
 21 41  1  0
A    1
 C1 
A    2
 N1 
A    3
 C2 
A    4
 C3 
A    5
 O1 
A    6
 C4 
A    7
 C5 
A    8
 C6 
A    9
 O2 
A   10
 C7 
A   11
 C8 
A   12
 C9 
A   13
 C10
A   14
 N2 
A   15
 C11
A   16
 C12
A   17
 C13
A   18
 C14
A   19
 C15
A   20
 C16
A   21
 C17
A   22
 H1 
A   23
 H2 
A   24
 H3 
A   25
 H4 
A   26
 H5 
A   27
 H6 
A   28
 H7 
A   29
 H8 
A   30
 H9 
A   31
 H10
A   32
 H11
A   33
 H12
A   34
 H13
A   35
 H14
A   36
 H15
A   37
 H16
A   38
 H17
A   39
 H18
A   40
 H19
A   41
 H20
M  END
>  <ref_pdb>  (252) 
x0051_0B

>  <ref_mols>  (252) 
x0386_0B,x0404_0B

>  <original SMILES>  (252) 
[H]c1oc(C([H])([H])N([H])C(=O)c2c([H])c([H])c(N3C([H])([H])C([H])([H])C([H])([H])C([H])([H])C3([H])[H])c([H])c2[H])c([H])c1[H]

>  <index>  (252) 
263

>  <∆∆G>  (252) 
-6.399209

>  <∆G_bound>  (252) 
-6.094745

>  <∆G_unbound>  (252) 
0.304464

>  <comRMSD>  (252) 
0.738053

>  <N_constrained_atoms>  (252) 
21.0

>  <N_unconstrained_atoms>  (252) 
1.0

>  <runtime>  (252) 
45.984117

>  <LE>  (252) 
0.290873

>  <percent_hybrid>  (252) 
29.0

>  <dist>  (252) 
8.0

>  <ecfp4>  (252) 
0.223684

>  <daylight>  (252) 
0.175732

>  <topodist>  (252) 
3.0

>  <mces>  (252) 
23.0

>  <tdn>  (252) 
3.0

>  <tup>  (252) 
0.0

>  <rdn>  (252) 
0.0

>  <rup>  (252) 
0.0

>  <ldn>  (252) 
0.0

>  <lup>  (252) 
0.0

>  <mut>  (252) 
4.0

>  <maj>  (252) 
4.0

>  <min>  (252) 
0.0

>  <hyb>  (252) 
1.0

>  <sub>  (252) 
1.0

>  <query_index>  (252) 
109.0

>  <max_hit_Tanimoto>  (252) 
0.247209

>  <largest_ring>  (252) 
0

>  <N_interactions_kept>  (252) 
2.0

>  <N_interactions_lost>  (252) 
1.5

>  <interaction_uniqueness_metric>  (252) 
0.178786

>  <ad_hoc_penalty>  (252) 
-22.530883

>  <N_rotatable_bonds>  (252) 
4

>  <N_HA>  (252) 
21

>  <cluster>  (252) 
5977

>  <N_interactions>  (252) 
6

>  <Enamine>  (252) 
0

>  <Mcule>  (252) 
1

>  <N_PAINS>  (252) 
0

>  <UFF_Gibbs>  (252) 
150.98305

>  <strain_per_HA>  (252) 
7.189669

>  <saltbridge:HIS:51>  (252) 
0

>  <pistack:HIS:51>  (252) 
1

>  <hydroph_interaction:HIS:51>  (252) 
1

>  <hbond:ALA:132>  (252) 
0

>  <hbond:SER:135>  (252) 
0

>  <hydroph_interaction:TYR:150>  (252) 
1

>  <pistack:TYR:161>  (252) 
0

>  <hydroph_interaction:TYR:161>  (252) 
2

>  <hydroph_interaction:ASP:83>  (252) 
1

>  <hbond:TYR:130>  (252) 
0

>  <hydroph_interaction:ALA:132>  (252) 
0

>  <hbond:HIS:51>  (252) 
0

>  <hbond:ASP:129>  (252) 
0

>  <hbond:TYR:150>  (252) 
0

>  <hbond:GLY:151>  (252) 
0

>  <hbond:TYR:161>  (252) 
0

>  <hydroph_interaction:TYR:130>  (252) 
0

>  <hydroph_interaction:PRO:131>  (252) 
0

>  <hydroph_interaction:ASP:129>  (252) 
0

>  <saltbridge:ASP:75>  (252) 
0

>  <saltbridge:ASP:83>  (252) 
0

>  <hydroph_interaction:ASN:152>  (252) 
0

>  <halogenbond:TYR:150>  (252) 
0

>  <hbond:ASP:83>  (252) 
0

>  <hydroph_interaction:VAL:155>  (252) 
0

>  <pication:TYR:161>  (252) 
0

>  <hbond:PRO:131>  (252) 
0

>  <hbond:LEU:128>  (252) 
0

>  <saltbridge:ASP:129>  (252) 
0

>  <hbond:THR:134>  (252) 
0

>  <pication:HIS:51>  (252) 
0

>  <hbond:SER:81>  (252) 
0

>  <hbond:GLY:159>  (252) 
0

>  <hydroph_interaction:PRO:101>  (252) 
0

>  <hydroph_interaction:THR:134>  (252) 
0

>  <hbond:GLY:82>  (252) 
0

>  <hydroph_interaction:GLU:104>  (252) 
0

>  <hydroph_interaction:VAL:36>  (252) 
0

>  <hydroph_interaction:MET:49>  (252) 
0

>  <halogenbond:GLU:104>  (252) 
0

>  <hydroph_interaction:LYS:107>  (252) 
0

$$$$
MCULE-7802559569
     RDKit          3D

 22 23  0  0  0  0  0  0  0  0999 V2000
   -7.9690    5.0120  -18.2190 C   0  0  0  0  0  0  0  0  0  0  0  0
   -8.4760    4.8950  -16.7980 C   0  0  0  0  0  0  0  0  0  0  0  0
   -9.8030    4.7490  -16.9130 C   0  0  0  0  0  0  0  0  0  0  0  0
  -10.1890    4.7640  -18.2250 C   0  0  0  0  0  0  0  0  0  0  0  0
   -9.0620    4.9260  -19.0280 N   0  0  0  0  0  0  0  0  0  0  0  0
   -6.6050    5.1770  -18.6630 C   0  0  0  0  0  0  0  0  0  0  0  0
   -6.2290    5.2010  -20.1250 C   0  0  0  0  0  0  0  0  0  0  0  0
   -4.9830    5.3350  -20.5930 N   0  0  0  0  0  0  0  0  0  0  0  0
   -3.8610    5.4660  -19.7000 C   0  0  0  0  0  0  0  0  0  0  0  0
   -4.0590    5.4650  -18.3290 C   0  0  0  0  0  0  0  0  0  0  0  0
   -5.4290    5.3280  -17.6710 C   0  0  0  0  0  0  0  0  0  0  0  0
   -5.5830    5.3360  -16.2860 C   0  0  0  0  0  0  0  0  0  0  0  0
   -7.8840    4.9200  -15.8910 H   0  0  0  0  0  0  0  0  0  0  0  0
  -10.4840    4.6350  -16.0850 H   0  0  0  0  0  0  0  0  0  0  0  0
  -11.2170    4.6640  -18.5670 H   0  0  0  0  0  0  0  0  0  0  0  0
   -9.0460    4.9720  -20.0400 H   0  0  0  0  0  0  0  0  0  0  0  0
   -7.0520    5.0970  -20.8360 H   0  0  0  0  0  0  0  0  0  0  0  0
   -2.8450    5.5680  -20.1070 H   0  0  0  0  0  0  0  0  0  0  0  0
   -3.2020    5.5670  -17.6510 H   0  0  0  0  0  0  0  0  0  0  0  0
   -6.0010    6.2880  -15.9470 H   0  0  0  0  0  0  0  0  0  0  0  0
   -4.6200    5.1600  -15.7960 H   0  0  0  0  0  0  0  0  0  0  0  0
   -6.2700    4.5510  -15.9560 H   0  0  0  0  0  0  0  0  0  0  0  0
  1  2  2  0
  2  3  1  0
  3  4  2  0
  4  5  1  0
  1  6  1  0
  6  7  2  0
  7  8  1  0
  8  9  2  0
  9 10  1  0
 10 11  2  0
 11 12  1  0
  5  1  1  0
  6 11  1  0
  2 13  1  0
  3 14  1  0
  4 15  1  0
  5 16  1  0
  7 17  1  0
  9 18  1  0
 10 19  1  0
 12 20  1  0
 12 21  1  0
 12 22  1  0
A    1
 C1 
A    2
 C2 
A    3
 C3 
A    4
 C4 
A    5
 N1 
A    6
 C5 
A    7
 C6 
A    8
 N2 
A    9
 C7 
A   10
 C8 
A   11
 C9 
A   12
 C10
A   13
 H1 
A   14
 H2 
A   15
 H3 
A   16
 H4 
A   17
 H5 
A   18
 H6 
A   19
 H7 
A   20
 H8 
A   21
 H9 
A   22
 H10
M  END
>  <ref_pdb>  (253) 
x0051_0B

>  <ref_mols>  (253) 
x0680_0B,x0386_0B

>  <original SMILES>  (253) 
[H]c1nc([H])c(-c2c([H])c([H])c([H])n2[H])c(C([H])([H])[H])c1[H]

>  <index>  (253) 
208

>  <∆∆G>  (253) 
-5.84237

>  <∆G_bound>  (253) 
-5.992076

>  <∆G_unbound>  (253) 
-0.149706

>  <comRMSD>  (253) 
0.582418

>  <N_constrained_atoms>  (253) 
13.0

>  <N_unconstrained_atoms>  (253) 
0.0

>  <runtime>  (253) 
22.170544

>  <LE>  (253) 
0.449413

>  <percent_hybrid>  (253) 
25.0

>  <dist>  (253) 
2.0

>  <ecfp4>  (253) 
0.431818

>  <daylight>  (253) 
0.5

>  <topodist>  (253) 
0.0

>  <mces>  (253) 
13.0

>  <tdn>  (253) 
0.0

>  <tup>  (253) 
0.0

>  <rdn>  (253) 
0.0

>  <rup>  (253) 
0.0

>  <ldn>  (253) 
0.0

>  <lup>  (253) 
0.0

>  <mut>  (253) 
1.0

>  <maj>  (253) 
1.0

>  <min>  (253) 
0.0

>  <hyb>  (253) 
1.0

>  <sub>  (253) 
0.0

>  <query_index>  (253) 
296.0

>  <max_hit_Tanimoto>  (253) 
0.163511

>  <largest_ring>  (253) 
0

>  <N_interactions_kept>  (253) 
3.5

>  <N_interactions_lost>  (253) 
0.5

>  <interaction_uniqueness_metric>  (253) 
0.018782

>  <ad_hoc_penalty>  (253) 
-22.526549

>  <N_rotatable_bonds>  (253) 
2

>  <N_HA>  (253) 
12

>  <cluster>  (253) 
6029

>  <N_interactions>  (253) 
4

>  <Enamine>  (253) 
0

>  <Mcule>  (253) 
1

>  <N_PAINS>  (253) 
0

>  <UFF_Gibbs>  (253) 
85.67656

>  <strain_per_HA>  (253) 
7.139713

>  <saltbridge:HIS:51>  (253) 
0

>  <pistack:HIS:51>  (253) 
0

>  <hydroph_interaction:HIS:51>  (253) 
0

>  <hbond:ALA:132>  (253) 
0

>  <hbond:SER:135>  (253) 
0

>  <hydroph_interaction:TYR:150>  (253) 
0

>  <pistack:TYR:161>  (253) 
0

>  <hydroph_interaction:TYR:161>  (253) 
4

>  <hydroph_interaction:ASP:83>  (253) 
0

>  <hbond:TYR:130>  (253) 
0

>  <hydroph_interaction:ALA:132>  (253) 
0

>  <hbond:HIS:51>  (253) 
0

>  <hbond:ASP:129>  (253) 
0

>  <hbond:TYR:150>  (253) 
0

>  <hbond:GLY:151>  (253) 
0

>  <hbond:TYR:161>  (253) 
0

>  <hydroph_interaction:TYR:130>  (253) 
0

>  <hydroph_interaction:PRO:131>  (253) 
0

>  <hydroph_interaction:ASP:129>  (253) 
0

>  <saltbridge:ASP:75>  (253) 
0

>  <saltbridge:ASP:83>  (253) 
0

>  <hydroph_interaction:ASN:152>  (253) 
0

>  <halogenbond:TYR:150>  (253) 
0

>  <hbond:ASP:83>  (253) 
0

>  <hydroph_interaction:VAL:155>  (253) 
0

>  <pication:TYR:161>  (253) 
0

>  <hbond:PRO:131>  (253) 
0

>  <hbond:LEU:128>  (253) 
0

>  <saltbridge:ASP:129>  (253) 
0

>  <hbond:THR:134>  (253) 
0

>  <pication:HIS:51>  (253) 
0

>  <hbond:SER:81>  (253) 
0

>  <hbond:GLY:159>  (253) 
0

>  <hydroph_interaction:PRO:101>  (253) 
0

>  <hydroph_interaction:THR:134>  (253) 
0

>  <hbond:GLY:82>  (253) 
0

>  <hydroph_interaction:GLU:104>  (253) 
0

>  <hydroph_interaction:VAL:36>  (253) 
0

>  <hydroph_interaction:MET:49>  (253) 
0

>  <halogenbond:GLU:104>  (253) 
0

>  <hydroph_interaction:LYS:107>  (253) 
0

$$$$
MCULE-5163825503
     RDKit          3D

 34 35  0  0  0  0  0  0  0  0999 V2000
  -11.0830    4.8460  -18.7690 C   0  0  0  0  0  0  0  0  0  0  0  0
   -9.8780    4.9120  -18.0660 C   0  0  0  0  0  0  0  0  0  0  0  0
   -8.7300    5.1170  -18.7760 C   0  0  0  0  0  0  0  0  0  0  0  0
   -7.4930    5.2400  -18.2230 C   0  0  0  0  0  0  0  0  0  0  0  0
   -6.3910    5.4580  -19.0220 N   0  0  0  0  0  0  0  0  0  0  0  0
   -6.2910    5.0340  -20.3080 C   0  0  0  0  0  0  0  0  0  0  0  0
   -5.0570    5.2790  -20.8480 C   0  0  0  0  0  0  0  0  0  0  0  0
   -3.9140    5.2850  -20.0060 C   0  0  0  0  0  0  0  0  0  0  0  0
   -2.6330    5.5080  -20.5060 C   0  0  0  0  0  0  0  0  0  0  0  0
   -1.5080    5.5050  -19.6660 N   0  0  0  0  0  0  0  0  0  0  0  0
   -2.4960    5.7530  -21.9860 C   0  0  0  0  0  0  0  0  0  0  0  0
   -3.6490    5.7440  -22.7470 C   0  0  0  0  0  0  0  0  0  0  0  0
   -4.9190    5.5180  -22.2390 C   0  0  0  0  0  0  0  0  0  0  0  0
   -7.1400    4.4640  -20.9830 O   0  0  0  0  0  0  0  0  0  0  0  0
   -7.3580    5.1440  -16.8340 C   0  0  0  0  0  0  0  0  0  0  0  0
   -6.0060    5.2700  -16.1360 C   0  0  0  0  0  0  0  0  0  0  0  0
   -8.5080    4.9220  -16.0690 C   0  0  0  0  0  0  0  0  0  0  0  0
   -9.7530    4.8050  -16.6750 C   0  0  0  0  0  0  0  0  0  0  0  0
  -10.8530    4.9230  -19.8340 H   0  0  0  0  0  0  0  0  0  0  0  0
  -11.6600    3.9470  -18.5960 H   0  0  0  0  0  0  0  0  0  0  0  0
  -11.6700    5.7110  -18.5130 H   0  0  0  0  0  0  0  0  0  0  0  0
   -8.8100    5.1990  -19.8690 H   0  0  0  0  0  0  0  0  0  0  0  0
   -5.5210    5.6400  -18.5400 H   0  0  0  0  0  0  0  0  0  0  0  0
   -4.0520    5.1030  -18.9420 H   0  0  0  0  0  0  0  0  0  0  0  0
   -0.6230    5.5240  -20.1640 H   0  0  0  0  0  0  0  0  0  0  0  0
   -1.5480    6.2060  -18.9320 H   0  0  0  0  0  0  0  0  0  0  0  0
   -1.5130    5.9350  -22.4430 H   0  0  0  0  0  0  0  0  0  0  0  0
   -3.5710    5.9230  -23.8280 H   0  0  0  0  0  0  0  0  0  0  0  0
   -5.7790    5.5220  -22.8970 H   0  0  0  0  0  0  0  0  0  0  0  0
   -5.9970    4.6880  -15.2050 H   0  0  0  0  0  0  0  0  0  0  0  0
   -5.8070    6.3140  -15.8750 H   0  0  0  0  0  0  0  0  0  0  0  0
   -5.2060    4.8850  -16.7760 H   0  0  0  0  0  0  0  0  0  0  0  0
   -8.4440    4.8370  -14.9850 H   0  0  0  0  0  0  0  0  0  0  0  0
  -10.6090    4.6330  -16.0350 H   0  0  0  0  0  0  0  0  0  0  0  0
  1  2  1  0
  2  3  2  0
  3  4  1  0
  4  5  1  0
  5  6  1  0
  6  7  1  0
  7  8  2  0
  8  9  1  0
  9 10  1  0
  9 11  2  0
 11 12  1  0
 12 13  2  0
  6 14  2  0
  4 15  2  0
 15 16  1  0
 15 17  1  0
 17 18  2  0
 18  2  1  0
 13  7  1  0
  1 19  1  0
  1 20  1  0
  1 21  1  0
  3 22  1  0
  5 23  1  0
  8 24  1  0
 10 25  1  0
 10 26  1  0
 11 27  1  0
 12 28  1  0
 13 29  1  0
 16 30  1  0
 16 31  1  0
 16 32  1  0
 17 33  1  0
 18 34  1  0
A    1
 C1 
A    2
 C2 
A    3
 C3 
A    4
 C4 
A    5
 N1 
A    6
 C5 
A    7
 C6 
A    8
 C7 
A    9
 C8 
A   10
 N2 
A   11
 C9 
A   12
 C10
A   13
 C11
A   14
 O1 
A   15
 C12
A   16
 C13
A   17
 C14
A   18
 C15
A   19
 H1 
A   20
 H2 
A   21
 H3 
A   22
 H4 
A   23
 H5 
A   24
 H6 
A   25
 H7 
A   26
 H8 
A   27
 H9 
A   28
 H10
A   29
 H11
A   30
 H12
A   31
 H13
A   32
 H14
A   33
 H15
A   34
 H16
M  END
>  <ref_pdb>  (254) 
x0051_0B

>  <ref_mols>  (254) 
x0852_0B,x0605_0B

>  <original SMILES>  (254) 
[H]c1c([H])c(C(=O)N([H])c2c([H])c(C([H])([H])[H])c([H])c([H])c2C([H])([H])[H])c([H])c(N([H])[H])c1[H]

>  <index>  (254) 
293

>  <∆∆G>  (254) 
-8.241471

>  <∆G_bound>  (254) 
-8.221957

>  <∆G_unbound>  (254) 
0.019514

>  <comRMSD>  (254) 
0.576373

>  <N_constrained_atoms>  (254) 
21.0

>  <N_unconstrained_atoms>  (254) 
1.0

>  <runtime>  (254) 
37.737039

>  <LE>  (254) 
0.374612

>  <percent_hybrid>  (254) 
20.0

>  <dist>  (254) 
4.0

>  <ecfp4>  (254) 
0.238095

>  <daylight>  (254) 
0.492308

>  <topodist>  (254) 
3.0

>  <mces>  (254) 
18.0

>  <tdn>  (254) 
2.0

>  <tup>  (254) 
1.0

>  <rdn>  (254) 
0.0

>  <rup>  (254) 
0.0

>  <ldn>  (254) 
0.0

>  <lup>  (254) 
0.0

>  <mut>  (254) 
1.0

>  <maj>  (254) 
1.0

>  <min>  (254) 
0.0

>  <hyb>  (254) 
0.0

>  <sub>  (254) 
3.0

>  <query_index>  (254) 
176.0

>  <max_hit_Tanimoto>  (254) 
0.44051

>  <largest_ring>  (254) 
0

>  <N_interactions_kept>  (254) 
3.0

>  <N_interactions_lost>  (254) 
3.0

>  <interaction_uniqueness_metric>  (254) 
0.244473

>  <ad_hoc_penalty>  (254) 
-22.460252

>  <N_rotatable_bonds>  (254) 
5

>  <N_HA>  (254) 
18

>  <cluster>  (254) 
5949

>  <N_interactions>  (254) 
8

>  <Enamine>  (254) 
0

>  <Mcule>  (254) 
1

>  <N_PAINS>  (254) 
0

>  <UFF_Gibbs>  (254) 
113.294519

>  <strain_per_HA>  (254) 
6.29414

>  <saltbridge:HIS:51>  (254) 
0

>  <pistack:HIS:51>  (254) 
0

>  <hydroph_interaction:HIS:51>  (254) 
0

>  <hbond:ALA:132>  (254) 
0

>  <hbond:SER:135>  (254) 
0

>  <hydroph_interaction:TYR:150>  (254) 
1

>  <pistack:TYR:161>  (254) 
0

>  <hydroph_interaction:TYR:161>  (254) 
4

>  <hydroph_interaction:ASP:83>  (254) 
0

>  <hbond:TYR:130>  (254) 
1

>  <hydroph_interaction:ALA:132>  (254) 
0

>  <hbond:HIS:51>  (254) 
0

>  <hbond:ASP:129>  (254) 
0

>  <hbond:TYR:150>  (254) 
0

>  <hbond:GLY:151>  (254) 
0

>  <hbond:TYR:161>  (254) 
0

>  <hydroph_interaction:TYR:130>  (254) 
0

>  <hydroph_interaction:PRO:131>  (254) 
0

>  <hydroph_interaction:ASP:129>  (254) 
1

>  <saltbridge:ASP:75>  (254) 
0

>  <saltbridge:ASP:83>  (254) 
0

>  <hydroph_interaction:ASN:152>  (254) 
0

>  <halogenbond:TYR:150>  (254) 
0

>  <hbond:ASP:83>  (254) 
0

>  <hydroph_interaction:VAL:155>  (254) 
0

>  <pication:TYR:161>  (254) 
0

>  <hbond:PRO:131>  (254) 
0

>  <hbond:LEU:128>  (254) 
0

>  <saltbridge:ASP:129>  (254) 
0

>  <hbond:THR:134>  (254) 
0

>  <pication:HIS:51>  (254) 
0

>  <hbond:SER:81>  (254) 
0

>  <hbond:GLY:159>  (254) 
1

>  <hydroph_interaction:PRO:101>  (254) 
0

>  <hydroph_interaction:THR:134>  (254) 
0

>  <hbond:GLY:82>  (254) 
0

>  <hydroph_interaction:GLU:104>  (254) 
0

>  <hydroph_interaction:VAL:36>  (254) 
0

>  <hydroph_interaction:MET:49>  (254) 
0

>  <halogenbond:GLU:104>  (254) 
0

>  <hydroph_interaction:LYS:107>  (254) 
0

$$$$
nan
     RDKit          3D

 52 54  0  0  0  0  0  0  0  0999 V2000
   -5.3600    7.3250  -20.7110 C   0  0  0  0  0  0  0  0  0  0  0  0
   -5.1300    5.8230  -20.6230 C   0  0  0  0  0  0  0  0  0  0  0  0
   -3.6920    5.5020  -20.4140 C   0  0  0  0  0  0  0  0  0  0  0  0
   -5.5840    5.1210  -21.9110 C   0  0  0  0  0  0  0  0  0  0  0  0
   -5.8050    5.2560  -19.4580 O   0  0  0  0  0  0  0  0  0  0  0  0
   -5.8060    5.8470  -18.2300 C   0  0  0  0  0  0  0  0  0  0  0  0
   -4.9210    6.5190  -17.7400 O   0  0  0  0  0  0  0  0  0  0  0  0
   -7.1360    5.5230  -17.5210 C   0  0  0  0  0  0  0  0  0  0  0  0
   -8.1750    5.1090  -18.3700 C   0  0  0  0  0  0  0  0  0  0  0  0
   -9.5040    4.7560  -17.7800 C   0  0  0  0  0  0  0  0  0  0  0  0
   -9.6860    4.8430  -16.4180 C   0  0  0  0  0  0  0  0  0  0  0  0
   -8.6550    5.2600  -15.5970 C   0  0  0  0  0  0  0  0  0  0  0  0
   -7.3950    5.6010  -16.1050 C   0  0  0  0  0  0  0  0  0  0  0  0
   -6.4910    5.9920  -15.1330 O   0  0  0  0  0  0  0  0  0  0  0  0
   -6.7190    5.2830  -13.8680 C   0  0  0  0  0  0  0  0  0  0  0  0
   -7.4110    6.1750  -12.7950 C   0  0  0  0  0  0  0  0  0  0  0  0
   -8.4920    5.4590  -12.1360 O   0  0  0  0  0  0  0  0  0  0  0  0
   -8.6240    5.5600  -10.7740 C   0  0  0  0  0  0  0  0  0  0  0  0
   -8.8420    4.4600   -9.9670 C   0  0  0  0  0  0  0  0  0  0  0  0
   -8.9850    3.0090  -10.2500 C   0  0  0  0  0  0  0  0  0  0  0  0
   -8.6540    2.2400   -8.9820 C   0  0  0  0  0  0  0  0  0  0  0  0
   -9.5300    2.6960   -7.8280 C   0  0  0  0  0  0  0  0  0  0  0  0
   -9.1460    4.1300   -7.4750 C   0  0  0  0  0  0  0  0  0  0  0  0
   -8.9200    4.9350   -8.6770 N   0  0  0  0  0  0  0  0  0  0  0  0
   -8.7650    6.2680   -8.5850 N   0  0  0  0  0  0  0  0  0  0  0  0
   -8.5890    6.6470   -9.8650 C   0  0  0  0  0  0  0  0  0  0  0  0
   -6.3030    7.5230  -21.2340 H   0  0  0  0  0  0  0  0  0  0  0  0
   -5.3980    7.7700  -19.7110 H   0  0  0  0  0  0  0  0  0  0  0  0
   -4.5530    7.8110  -21.2680 H   0  0  0  0  0  0  0  0  0  0  0  0
   -3.5250    5.0550  -19.4290 H   0  0  0  0  0  0  0  0  0  0  0  0
   -3.0590    6.3960  -20.4980 H   0  0  0  0  0  0  0  0  0  0  0  0
   -3.3450    4.7690  -21.1560 H   0  0  0  0  0  0  0  0  0  0  0  0
   -6.0580    5.8260  -22.6080 H   0  0  0  0  0  0  0  0  0  0  0  0
   -6.3000    4.3160  -21.6890 H   0  0  0  0  0  0  0  0  0  0  0  0
   -4.7390    4.6570  -22.4340 H   0  0  0  0  0  0  0  0  0  0  0  0
   -8.0230    5.0390  -19.4480 H   0  0  0  0  0  0  0  0  0  0  0  0
  -10.2710    4.4400  -18.4920 H   0  0  0  0  0  0  0  0  0  0  0  0
  -10.6350    4.5830  -15.9700 H   0  0  0  0  0  0  0  0  0  0  0  0
   -8.8360    5.3200  -14.5290 H   0  0  0  0  0  0  0  0  0  0  0  0
   -5.7380    4.9650  -13.4910 H   0  0  0  0  0  0  0  0  0  0  0  0
   -7.3290    4.3770  -14.0120 H   0  0  0  0  0  0  0  0  0  0  0  0
   -6.6610    6.4690  -12.0500 H   0  0  0  0  0  0  0  0  0  0  0  0
   -7.8160    7.0710  -13.2850 H   0  0  0  0  0  0  0  0  0  0  0  0
  -10.0200    2.7970  -10.5520 H   0  0  0  0  0  0  0  0  0  0  0  0
   -8.3280    2.6930  -11.0670 H   0  0  0  0  0  0  0  0  0  0  0  0
   -7.6050    2.4170   -8.7220 H   0  0  0  0  0  0  0  0  0  0  0  0
   -8.7630    1.1770   -9.1450 H   0  0  0  0  0  0  0  0  0  0  0  0
   -9.3580    2.0390   -6.9690 H   0  0  0  0  0  0  0  0  0  0  0  0
  -10.5930    2.6340   -8.0890 H   0  0  0  0  0  0  0  0  0  0  0  0
   -8.2270    4.1440   -6.8770 H   0  0  0  0  0  0  0  0  0  0  0  0
   -9.9470    4.6170   -6.9040 H   0  0  0  0  0  0  0  0  0  0  0  0
   -8.4410    7.6980  -10.0700 H   0  0  0  0  0  0  0  0  0  0  0  0
  1  2  1  0
  2  3  1  0
  2  4  1  0
  2  5  1  0
  5  6  1  0
  6  7  2  0
  6  8  1  0
  8  9  2  0
  9 10  1  0
 10 11  2  0
 11 12  1  0
 12 13  2  0
 13 14  1  0
 14 15  1  0
 15 16  1  0
 16 17  1  0
 17 18  1  0
 18 19  2  0
 19 20  1  0
 20 21  1  0
 21 22  1  0
 22 23  1  0
 23 24  1  0
 24 25  1  0
 25 26  2  0
 13  8  1  0
 26 18  1  0
 24 19  1  0
  1 27  1  0
  1 28  1  0
  1 29  1  0
  3 30  1  0
  3 31  1  0
  3 32  1  0
  4 33  1  0
  4 34  1  0
  4 35  1  0
  9 36  1  0
 10 37  1  0
 11 38  1  0
 12 39  1  0
 15 40  1  0
 15 41  1  0
 16 42  1  0
 16 43  1  0
 20 44  1  0
 20 45  1  0
 21 46  1  0
 21 47  1  0
 22 48  1  0
 22 49  1  0
 23 50  1  0
 23 51  1  0
 26 52  1  0
A    1
 C1 
A    2
 C2 
A    3
 C3 
A    4
 C4 
A    5
 O1 
A    6
 C5 
A    7
 O2 
A    8
 C6 
A    9
 C7 
A   10
 C8 
A   11
 C9 
A   12
 C10
A   13
 C11
A   14
 O3 
A   15
 C12
A   16
 C13
A   17
 O4 
A   18
 C14
A   19
 C15
A   20
 C16
A   21
 C17
A   22
 C18
A   23
 C19
A   24
 N1 
A   25
 N2 
A   26
 C20
A   27
 H1 
A   28
 H2 
A   29
 H3 
A   30
 H4 
A   31
 H5 
A   32
 H6 
A   33
 H7 
A   34
 H8 
A   35
 H9 
A   36
 H10
A   37
 H11
A   38
 H12
A   39
 H13
A   40
 H14
A   41
 H15
A   42
 H16
A   43
 H17
A   44
 H18
A   45
 H19
A   46
 H20
A   47
 H21
A   48
 H22
A   49
 H23
A   50
 H24
A   51
 H25
A   52
 H26
M  END
>  <ref_pdb>  (255) 
x0051_0B

>  <ref_mols>  (255) 
x0101_0B,x0969_1B,x0693_0B

>  <original SMILES>  (255) 
[H]c1nn2c(c1OC([H])([H])C([H])([H])Oc1c([H])c([H])c([H])c([H])c1C(=O)OC(C([H])([H])[H])(C([H])([H])[H])C([H])([H])[H])C([H])([H])C([H])([H])C([H])([H])C2([H])[H]

>  <index>  (255) 
22942

>  <∆∆G>  (255) 
-9.107093

>  <∆G_bound>  (255) 
-8.365711

>  <∆G_unbound>  (255) 
0.741382

>  <comRMSD>  (255) 
0.670795

>  <N_constrained_atoms>  (255) 
26.0

>  <N_unconstrained_atoms>  (255) 
2.0

>  <runtime>  (255) 
76.239591

>  <LE>  (255) 
0.325253

>  <percent_hybrid>  (255) 
50.0

>  <dist>  (255) 
nan

>  <ecfp4>  (255) 
nan

>  <daylight>  (255) 
nan

>  <topodist>  (255) 
nan

>  <mces>  (255) 
nan

>  <tdn>  (255) 
nan

>  <tup>  (255) 
nan

>  <rdn>  (255) 
nan

>  <rup>  (255) 
nan

>  <ldn>  (255) 
nan

>  <lup>  (255) 
nan

>  <mut>  (255) 
nan

>  <maj>  (255) 
nan

>  <min>  (255) 
nan

>  <hyb>  (255) 
nan

>  <sub>  (255) 
nan

>  <query_index>  (255) 
nan

>  <max_hit_Tanimoto>  (255) 
0.263158

>  <largest_ring>  (255) 
6

>  <N_interactions_kept>  (255) 
6.0

>  <N_interactions_lost>  (255) 
1.0

>  <interaction_uniqueness_metric>  (255) 
0.162451

>  <ad_hoc_penalty>  (255) 
-22.459959

>  <N_rotatable_bonds>  (255) 
6

>  <N_HA>  (255) 
26

>  <cluster>  (255) 
1400

>  <N_interactions>  (255) 
4

>  <Enamine>  (255) 
0

>  <Mcule>  (255) 
0

>  <N_PAINS>  (255) 
0

>  <UFF_Gibbs>  (255) 
118.910954

>  <strain_per_HA>  (255) 
4.573498

>  <saltbridge:HIS:51>  (255) 
0

>  <pistack:HIS:51>  (255) 
1

>  <hydroph_interaction:HIS:51>  (255) 
0

>  <hbond:ALA:132>  (255) 
0

>  <hbond:SER:135>  (255) 
0

>  <hydroph_interaction:TYR:150>  (255) 
0

>  <pistack:TYR:161>  (255) 
1

>  <hydroph_interaction:TYR:161>  (255) 
0

>  <hydroph_interaction:ASP:83>  (255) 
1

>  <hbond:TYR:130>  (255) 
0

>  <hydroph_interaction:ALA:132>  (255) 
0

>  <hbond:HIS:51>  (255) 
0

>  <hbond:ASP:129>  (255) 
0

>  <hbond:TYR:150>  (255) 
0

>  <hbond:GLY:151>  (255) 
0

>  <hbond:TYR:161>  (255) 
0

>  <hydroph_interaction:TYR:130>  (255) 
0

>  <hydroph_interaction:PRO:131>  (255) 
0

>  <hydroph_interaction:ASP:129>  (255) 
1

>  <saltbridge:ASP:75>  (255) 
0

>  <saltbridge:ASP:83>  (255) 
0

>  <hydroph_interaction:ASN:152>  (255) 
0

>  <halogenbond:TYR:150>  (255) 
0

>  <hbond:ASP:83>  (255) 
0

>  <hydroph_interaction:VAL:155>  (255) 
0

>  <pication:TYR:161>  (255) 
0

>  <hbond:PRO:131>  (255) 
0

>  <hbond:LEU:128>  (255) 
0

>  <saltbridge:ASP:129>  (255) 
0

>  <hbond:THR:134>  (255) 
0

>  <pication:HIS:51>  (255) 
0

>  <hbond:SER:81>  (255) 
0

>  <hbond:GLY:159>  (255) 
0

>  <hydroph_interaction:PRO:101>  (255) 
0

>  <hydroph_interaction:THR:134>  (255) 
0

>  <hbond:GLY:82>  (255) 
0

>  <hydroph_interaction:GLU:104>  (255) 
0

>  <hydroph_interaction:VAL:36>  (255) 
0

>  <hydroph_interaction:MET:49>  (255) 
0

>  <halogenbond:GLU:104>  (255) 
0

>  <hydroph_interaction:LYS:107>  (255) 
0

$$$$
Z3363955323
     RDKit          3D

 46 48  0  0  0  0  0  0  0  0999 V2000
   -4.6140    4.5780  -15.7280 C   0  0  0  0  0  0  0  0  0  0  0  0
   -5.2090    5.6790  -16.3920 O   0  0  0  0  0  0  0  0  0  0  0  0
   -6.5690    5.4740  -16.7540 C   0  0  0  0  0  0  0  0  0  0  0  0
   -6.8430    5.3320  -18.2270 C   0  0  0  0  0  0  0  0  0  0  0  0
   -8.2790    5.1120  -18.6200 C   0  0  0  0  0  0  0  0  0  0  0  0
   -9.2900    5.0650  -17.4630 C   0  0  0  0  0  0  0  0  0  0  0  0
  -10.6610    4.8390  -18.0770 C   0  0  0  0  0  0  0  0  0  0  0  0
   -8.9100    5.2260  -16.0550 C   0  0  0  0  0  0  0  0  0  0  0  0
   -9.8210    5.2240  -14.7980 C   0  0  0  0  0  0  0  0  0  0  0  0
   -9.1660    4.8010  -13.4980 N   0  0  0  0  0  0  0  0  0  0  0  0
   -8.8440    5.9200  -12.5710 C   0  0  0  0  0  0  0  0  0  0  0  0
   -8.8820    5.6650  -11.0310 C   0  0  0  0  0  0  0  0  0  0  0  0
   -9.0550    4.4970  -10.2980 C   0  0  0  0  0  0  0  0  0  0  0  0
   -9.2680    3.0590  -10.6280 C   0  0  0  0  0  0  0  0  0  0  0  0
   -8.6040    2.3030   -9.5760 N   0  0  0  0  0  0  0  0  0  0  0  0
   -7.2780    2.8990   -9.5380 C   0  0  0  0  0  0  0  0  0  0  0  0
   -9.3200    2.5320   -8.3000 C   0  0  0  0  0  0  0  0  0  0  0  0
   -9.1180    3.9450   -7.7530 C   0  0  0  0  0  0  0  0  0  0  0  0
   -8.9910    4.8610   -8.8790 N   0  0  0  0  0  0  0  0  0  0  0  0
   -8.7920    6.1720   -8.7180 N   0  0  0  0  0  0  0  0  0  0  0  0
   -8.7310    6.6470   -9.9870 C   0  0  0  0  0  0  0  0  0  0  0  0
   -7.5530    5.4190  -15.7690 C   0  0  0  0  0  0  0  0  0  0  0  0
   -3.8920    4.9210  -14.9820 H   0  0  0  0  0  0  0  0  0  0  0  0
   -4.0810    3.9800  -16.4700 H   0  0  0  0  0  0  0  0  0  0  0  0
   -5.3730    3.9530  -15.2550 H   0  0  0  0  0  0  0  0  0  0  0  0
   -6.0000    5.3920  -18.9250 H   0  0  0  0  0  0  0  0  0  0  0  0
   -8.5700    4.9950  -19.6650 H   0  0  0  0  0  0  0  0  0  0  0  0
  -11.1110    5.7660  -18.4270 H   0  0  0  0  0  0  0  0  0  0  0  0
  -10.5670    4.1840  -18.9330 H   0  0  0  0  0  0  0  0  0  0  0  0
  -11.3150    4.3530  -17.3940 H   0  0  0  0  0  0  0  0  0  0  0  0
  -10.2260    6.2370  -14.6780 H   0  0  0  0  0  0  0  0  0  0  0  0
  -10.6960    4.6020  -14.9920 H   0  0  0  0  0  0  0  0  0  0  0  0
   -8.3280    4.2630  -13.7040 H   0  0  0  0  0  0  0  0  0  0  0  0
   -7.8470    6.2930  -12.8240 H   0  0  0  0  0  0  0  0  0  0  0  0
   -9.5340    6.7490  -12.7750 H   0  0  0  0  0  0  0  0  0  0  0  0
  -10.3340    2.8140  -10.6220 H   0  0  0  0  0  0  0  0  0  0  0  0
   -8.8860    2.7990  -11.6220 H   0  0  0  0  0  0  0  0  0  0  0  0
   -6.9010    2.9470   -8.5200 H   0  0  0  0  0  0  0  0  0  0  0  0
   -6.5560    2.3870  -10.1700 H   0  0  0  0  0  0  0  0  0  0  0  0
   -7.3190    3.9360   -9.8840 H   0  0  0  0  0  0  0  0  0  0  0  0
  -10.3890    2.3210   -8.4130 H   0  0  0  0  0  0  0  0  0  0  0  0
   -8.9550    1.8070   -7.5620 H   0  0  0  0  0  0  0  0  0  0  0  0
   -8.2070    4.0050   -7.1510 H   0  0  0  0  0  0  0  0  0  0  0  0
   -9.9720    4.2690   -7.1510 H   0  0  0  0  0  0  0  0  0  0  0  0
   -8.5750    7.7100  -10.1170 H   0  0  0  0  0  0  0  0  0  0  0  0
   -7.2440    5.5370  -14.7310 H   0  0  0  0  0  0  0  0  0  0  0  0
  1  2  1  0
  2  3  1  0
  3  4  2  0
  4  5  1  0
  5  6  2  0
  6  7  1  0
  6  8  1  0
  8  9  1  0
  9 10  1  0
 10 11  1  0
 11 12  1  0
 12 13  2  0
 13 14  1  0
 14 15  1  0
 15 16  1  0
 15 17  1  0
 17 18  1  0
 18 19  1  0
 19 20  1  0
 20 21  2  0
  8 22  2  0
 22  3  1  0
 21 12  1  0
 19 13  1  0
  1 23  1  0
  1 24  1  0
  1 25  1  0
  4 26  1  0
  5 27  1  0
  7 28  1  0
  7 29  1  0
  7 30  1  0
  9 31  1  0
  9 32  1  0
 10 33  1  0
 11 34  1  0
 11 35  1  0
 14 36  1  0
 14 37  1  0
 16 38  1  0
 16 39  1  0
 16 40  1  0
 17 41  1  0
 17 42  1  0
 18 43  1  0
 18 44  1  0
 21 45  1  0
 22 46  1  0
A    1
 C1 
A    2
 O1 
A    3
 C2 
A    4
 C3 
A    5
 C4 
A    6
 C5 
A    7
 C6 
A    8
 C7 
A    9
 C8 
A   10
 N1 
A   11
 C9 
A   12
 C10
A   13
 C11
A   14
 C12
A   15
 N2 
A   16
 C13
A   17
 C14
A   18
 C15
A   19
 N3 
A   20
 N4 
A   21
 C16
A   22
 C17
A   23
 H1 
A   24
 H2 
A   25
 H3 
A   26
 H4 
A   27
 H5 
A   28
 H6 
A   29
 H7 
A   30
 H8 
A   31
 H9 
A   32
 H10
A   33
 H11
A   34
 H12
A   35
 H13
A   36
 H14
A   37
 H15
A   38
 H16
A   39
 H17
A   40
 H18
A   41
 H19
A   42
 H20
A   43
 H21
A   44
 H22
A   45
 H23
A   46
 H24
M  END
>  <ref_pdb>  (256) 
x0051_0B

>  <ref_mols>  (256) 
x0969_1B,x0553_0B

>  <original SMILES>  (256) 
[H]c1nn2c(c1C([H])([H])N([H])C([H])([H])c1c([H])c(OC([H])([H])[H])c([H])c([H])c1C([H])([H])[H])C([H])([H])N(C([H])([H])[H])C([H])([H])C2([H])[H]

>  <index>  (256) 
282

>  <∆∆G>  (256) 
-6.947227

>  <∆G_bound>  (256) 
-6.643199

>  <∆G_unbound>  (256) 
0.304028

>  <comRMSD>  (256) 
0.679861

>  <N_constrained_atoms>  (256) 
19.0

>  <N_unconstrained_atoms>  (256) 
4.0

>  <runtime>  (256) 
60.924924

>  <LE>  (256) 
0.302053

>  <percent_hybrid>  (256) 
48.0

>  <dist>  (256) 
4.0

>  <ecfp4>  (256) 
0.381579

>  <daylight>  (256) 
0.555046

>  <topodist>  (256) 
1.0

>  <mces>  (256) 
23.0

>  <tdn>  (256) 
0.0

>  <tup>  (256) 
1.0

>  <rdn>  (256) 
0.0

>  <rup>  (256) 
0.0

>  <ldn>  (256) 
0.0

>  <lup>  (256) 
0.0

>  <mut>  (256) 
3.0

>  <maj>  (256) 
3.0

>  <min>  (256) 
0.0

>  <hyb>  (256) 
0.0

>  <sub>  (256) 
1.0

>  <query_index>  (256) 
376.0

>  <max_hit_Tanimoto>  (256) 
0.590966

>  <largest_ring>  (256) 
0

>  <N_interactions_kept>  (256) 
1.5

>  <N_interactions_lost>  (256) 
1.0

>  <interaction_uniqueness_metric>  (256) 
0.353633

>  <ad_hoc_penalty>  (256) 
-22.449347

>  <N_rotatable_bonds>  (256) 
8

>  <N_HA>  (256) 
22

>  <cluster>  (256) 
5958

>  <N_interactions>  (256) 
7

>  <Enamine>  (256) 
1

>  <Mcule>  (256) 
0

>  <N_PAINS>  (256) 
0

>  <UFF_Gibbs>  (256) 
194.831207

>  <strain_per_HA>  (256) 
8.855964

>  <saltbridge:HIS:51>  (256) 
0

>  <pistack:HIS:51>  (256) 
1

>  <hydroph_interaction:HIS:51>  (256) 
0

>  <hbond:ALA:132>  (256) 
0

>  <hbond:SER:135>  (256) 
0

>  <hydroph_interaction:TYR:150>  (256) 
1

>  <pistack:TYR:161>  (256) 
1

>  <hydroph_interaction:TYR:161>  (256) 
0

>  <hydroph_interaction:ASP:83>  (256) 
0

>  <hbond:TYR:130>  (256) 
0

>  <hydroph_interaction:ALA:132>  (256) 
0

>  <hbond:HIS:51>  (256) 
0

>  <hbond:ASP:129>  (256) 
0

>  <hbond:TYR:150>  (256) 
0

>  <hbond:GLY:151>  (256) 
0

>  <hbond:TYR:161>  (256) 
2

>  <hydroph_interaction:TYR:130>  (256) 
0

>  <hydroph_interaction:PRO:131>  (256) 
0

>  <hydroph_interaction:ASP:129>  (256) 
0

>  <saltbridge:ASP:75>  (256) 
1

>  <saltbridge:ASP:83>  (256) 
1

>  <hydroph_interaction:ASN:152>  (256) 
0

>  <halogenbond:TYR:150>  (256) 
0

>  <hbond:ASP:83>  (256) 
0

>  <hydroph_interaction:VAL:155>  (256) 
0

>  <pication:TYR:161>  (256) 
0

>  <hbond:PRO:131>  (256) 
0

>  <hbond:LEU:128>  (256) 
0

>  <saltbridge:ASP:129>  (256) 
0

>  <hbond:THR:134>  (256) 
0

>  <pication:HIS:51>  (256) 
0

>  <hbond:SER:81>  (256) 
0

>  <hbond:GLY:159>  (256) 
0

>  <hydroph_interaction:PRO:101>  (256) 
0

>  <hydroph_interaction:THR:134>  (256) 
0

>  <hbond:GLY:82>  (256) 
0

>  <hydroph_interaction:GLU:104>  (256) 
0

>  <hydroph_interaction:VAL:36>  (256) 
0

>  <hydroph_interaction:MET:49>  (256) 
0

>  <halogenbond:GLU:104>  (256) 
0

>  <hydroph_interaction:LYS:107>  (256) 
0

$$$$
CSSS00000693921
     RDKit          3D

 42 45  0  0  0  0  0  0  0  0999 V2000
   -2.5420    6.2390  -12.5630 C   0  0  0  0  0  0  0  0  0  0  0  0
   -3.4540    6.0020  -13.6820 N   0  0  0  0  0  0  0  0  0  0  0  0
   -3.8780    7.2630  -14.3170 C   0  0  0  0  0  0  0  0  0  0  0  0
   -4.8480    7.0830  -15.4730 C   0  0  0  0  0  0  0  0  0  0  0  0
   -4.3880    6.0670  -16.4490 N   0  0  0  0  0  0  0  0  0  0  0  0
   -3.7310    4.8680  -15.8840 C   0  0  0  0  0  0  0  0  0  0  0  0
   -2.8150    5.1450  -14.6900 C   0  0  0  0  0  0  0  0  0  0  0  0
   -5.3510    5.7670  -17.3630 C   0  0  0  0  0  0  0  0  0  0  0  0
   -6.5130    5.6330  -16.9040 N   0  0  0  0  0  0  0  0  0  0  0  0
   -7.6130    5.3400  -17.4590 C   0  0  0  0  0  0  0  0  0  0  0  0
   -8.5480    5.1110  -16.4700 C   0  0  0  0  0  0  0  0  0  0  0  0
   -9.8300    4.7750  -16.7750 C   0  0  0  0  0  0  0  0  0  0  0  0
  -10.2250    4.6570  -18.2090 C   0  0  0  0  0  0  0  0  0  0  0  0
   -9.2640    4.8900  -19.1800 C   0  0  0  0  0  0  0  0  0  0  0  0
   -7.9440    5.2350  -18.8300 C   0  0  0  0  0  0  0  0  0  0  0  0
   -7.0530    5.4510  -19.9070 N   0  0  0  0  0  0  0  0  0  0  0  0
   -5.6960    5.5000  -19.8110 C   0  0  0  0  0  0  0  0  0  0  0  0
   -4.8770    5.6350  -18.7200 C   0  0  0  0  0  0  0  0  0  0  0  0
   -3.4760    5.6350  -19.0210 C   0  0  0  0  0  0  0  0  0  0  0  0
   -3.2510    5.5000  -20.3620 C   0  0  0  0  0  0  0  0  0  0  0  0
   -1.9420    5.4430  -21.0740 C   0  0  0  0  0  0  0  0  0  0  0  0
   -4.7320    5.3790  -21.2300 S   0  0  0  0  0  0  0  0  0  0  0  0
   -1.5140    5.9890  -12.8460 H   0  0  0  0  0  0  0  0  0  0  0  0
   -2.5550    7.2820  -12.2320 H   0  0  0  0  0  0  0  0  0  0  0  0
   -2.8100    5.6050  -11.7100 H   0  0  0  0  0  0  0  0  0  0  0  0
   -2.9810    7.7670  -14.6950 H   0  0  0  0  0  0  0  0  0  0  0  0
   -4.3140    7.9500  -13.5830 H   0  0  0  0  0  0  0  0  0  0  0  0
   -4.9960    8.0360  -15.9910 H   0  0  0  0  0  0  0  0  0  0  0  0
   -5.8260    6.7690  -15.0930 H   0  0  0  0  0  0  0  0  0  0  0  0
   -3.1400    4.3480  -16.6490 H   0  0  0  0  0  0  0  0  0  0  0  0
   -4.5180    4.1830  -15.5600 H   0  0  0  0  0  0  0  0  0  0  0  0
   -2.5170    4.1800  -14.2550 H   0  0  0  0  0  0  0  0  0  0  0  0
   -1.9010    5.6360  -15.0460 H   0  0  0  0  0  0  0  0  0  0  0  0
   -8.2500    5.1980  -15.4270 H   0  0  0  0  0  0  0  0  0  0  0  0
  -10.5390    4.5970  -15.9770 H   0  0  0  0  0  0  0  0  0  0  0  0
  -11.2390    4.3950  -18.4820 H   0  0  0  0  0  0  0  0  0  0  0  0
   -9.5480    4.8030  -20.2270 H   0  0  0  0  0  0  0  0  0  0  0  0
   -7.4890    5.9170  -20.7070 H   0  0  0  0  0  0  0  0  0  0  0  0
   -2.6920    5.7280  -18.2800 H   0  0  0  0  0  0  0  0  0  0  0  0
   -1.7080    6.4120  -21.5250 H   0  0  0  0  0  0  0  0  0  0  0  0
   -1.1160    5.1740  -20.4080 H   0  0  0  0  0  0  0  0  0  0  0  0
   -1.9850    4.6940  -21.8720 H   0  0  0  0  0  0  0  0  0  0  0  0
  1  2  1  0
  2  3  1  0
  3  4  1  0
  4  5  1  0
  5  6  1  0
  6  7  1  0
  5  8  1  0
  8  9  2  0
  9 10  1  0
 10 11  2  0
 11 12  1  0
 12 13  2  0
 13 14  1  0
 14 15  2  0
 15 16  1  0
 16 17  1  0
 17 18  2  0
 18 19  1  0
 19 20  2  0
 20 21  1  0
 20 22  1  0
  7  2  1  0
 18  8  1  0
 15 10  1  0
 22 17  1  0
  1 23  1  0
  1 24  1  0
  1 25  1  0
  3 26  1  0
  3 27  1  0
  4 28  1  0
  4 29  1  0
  6 30  1  0
  6 31  1  0
  7 32  1  0
  7 33  1  0
 11 34  1  0
 12 35  1  0
 13 36  1  0
 14 37  1  0
 16 38  1  0
 19 39  1  0
 21 40  1  0
 21 41  1  0
 21 42  1  0
A    1
 C1 
A    2
 N1 
A    3
 C2 
A    4
 C3 
A    5
 N2 
A    6
 C4 
A    7
 C5 
A    8
 C6 
A    9
 N3 
A   10
 C7 
A   11
 C8 
A   12
 C9 
A   13
 C10
A   14
 C11
A   15
 C12
A   16
 N4 
A   17
 C13
A   18
 C14
A   19
 C15
A   20
 C16
A   21
 C17
A   22
 S1 
A   23
 H1 
A   24
 H2 
A   25
 H3 
A   26
 H4 
A   27
 H5 
A   28
 H6 
A   29
 H7 
A   30
 H8 
A   31
 H9 
A   32
 H10
A   33
 H11
A   34
 H12
A   35
 H13
A   36
 H14
A   37
 H15
A   38
 H16
A   39
 H17
A   40
 H18
A   41
 H19
A   42
 H20
M  END
>  <ref_pdb>  (257) 
x0051_0B

>  <ref_mols>  (257) 
x0429_0B,x0089_0B

>  <original SMILES>  (257) 
[H]c1c([H])c([H])c2c(c1[H])N=C(N1C([H])([H])C([H])([H])N(C([H])([H])[H])C([H])([H])C1([H])[H])c1c(sc(C([H])([H])[H])c1[H])N2[H]

>  <index>  (257) 
399

>  <∆∆G>  (257) 
-8.030606

>  <∆G_bound>  (257) 
-7.566177

>  <∆G_unbound>  (257) 
0.464429

>  <comRMSD>  (257) 
0.794848

>  <N_constrained_atoms>  (257) 
19.0

>  <N_unconstrained_atoms>  (257) 
4.0

>  <runtime>  (257) 
29.584267

>  <LE>  (257) 
0.349157

>  <percent_hybrid>  (257) 
34.0

>  <dist>  (257) 
7.0

>  <ecfp4>  (257) 
0.148649

>  <daylight>  (257) 
0.142857

>  <topodist>  (257) 
3.0

>  <mces>  (257) 
22.0

>  <tdn>  (257) 
0.0

>  <tup>  (257) 
1.0

>  <rdn>  (257) 
0.0

>  <rup>  (257) 
1.0

>  <ldn>  (257) 
0.0

>  <lup>  (257) 
1.0

>  <mut>  (257) 
2.0

>  <maj>  (257) 
2.0

>  <min>  (257) 
0.0

>  <hyb>  (257) 
2.0

>  <sub>  (257) 
2.0

>  <query_index>  (257) 
103.0

>  <max_hit_Tanimoto>  (257) 
0.200481

>  <largest_ring>  (257) 
0

>  <N_interactions_kept>  (257) 
2.0

>  <N_interactions_lost>  (257) 
1.5

>  <interaction_uniqueness_metric>  (257) 
0.031789

>  <ad_hoc_penalty>  (257) 
-22.447361

>  <N_rotatable_bonds>  (257) 
2

>  <N_HA>  (257) 
22

>  <cluster>  (257) 
5855

>  <N_interactions>  (257) 
4

>  <Enamine>  (257) 
1

>  <Mcule>  (257) 
0

>  <N_PAINS>  (257) 
0

>  <UFF_Gibbs>  (257) 
72.17566

>  <strain_per_HA>  (257) 
3.280712

>  <saltbridge:HIS:51>  (257) 
0

>  <pistack:HIS:51>  (257) 
0

>  <hydroph_interaction:HIS:51>  (257) 
0

>  <hbond:ALA:132>  (257) 
0

>  <hbond:SER:135>  (257) 
0

>  <hydroph_interaction:TYR:150>  (257) 
1

>  <pistack:TYR:161>  (257) 
0

>  <hydroph_interaction:TYR:161>  (257) 
3

>  <hydroph_interaction:ASP:83>  (257) 
0

>  <hbond:TYR:130>  (257) 
0

>  <hydroph_interaction:ALA:132>  (257) 
0

>  <hbond:HIS:51>  (257) 
0

>  <hbond:ASP:129>  (257) 
0

>  <hbond:TYR:150>  (257) 
0

>  <hbond:GLY:151>  (257) 
0

>  <hbond:TYR:161>  (257) 
0

>  <hydroph_interaction:TYR:130>  (257) 
0

>  <hydroph_interaction:PRO:131>  (257) 
0

>  <hydroph_interaction:ASP:129>  (257) 
0

>  <saltbridge:ASP:75>  (257) 
0

>  <saltbridge:ASP:83>  (257) 
0

>  <hydroph_interaction:ASN:152>  (257) 
0

>  <halogenbond:TYR:150>  (257) 
0

>  <hbond:ASP:83>  (257) 
0

>  <hydroph_interaction:VAL:155>  (257) 
0

>  <pication:TYR:161>  (257) 
0

>  <hbond:PRO:131>  (257) 
0

>  <hbond:LEU:128>  (257) 
0

>  <saltbridge:ASP:129>  (257) 
0

>  <hbond:THR:134>  (257) 
0

>  <pication:HIS:51>  (257) 
0

>  <hbond:SER:81>  (257) 
0

>  <hbond:GLY:159>  (257) 
0

>  <hydroph_interaction:PRO:101>  (257) 
0

>  <hydroph_interaction:THR:134>  (257) 
0

>  <hbond:GLY:82>  (257) 
0

>  <hydroph_interaction:GLU:104>  (257) 
0

>  <hydroph_interaction:VAL:36>  (257) 
0

>  <hydroph_interaction:MET:49>  (257) 
0

>  <halogenbond:GLU:104>  (257) 
0

>  <hydroph_interaction:LYS:107>  (257) 
0

$$$$
WTJMAXUZDKRMOS-UHFFFAOYSA-N
     RDKit          3D

 42 44  0  0  0  0  0  0  0  0999 V2000
   -8.9240    6.0110  -12.3620 C   0  0  0  0  0  0  0  0  0  0  0  0
   -8.6700    4.9280  -13.2250 N   0  0  0  0  0  0  0  0  0  0  0  0
   -7.6080    4.9530  -14.2750 C   0  0  0  0  0  0  0  0  0  0  0  0
   -7.8990    5.0160  -15.8180 C   0  0  0  0  0  0  0  0  0  0  0  0
   -6.7810    5.1760  -16.8060 C   0  0  0  0  0  0  0  0  0  0  0  0
   -5.4630    5.2720  -16.3590 C   0  0  0  0  0  0  0  0  0  0  0  0
   -7.0610    5.2230  -18.1680 C   0  0  0  0  0  0  0  0  0  0  0  0
   -8.3440    5.1280  -18.6160 C   0  0  0  0  0  0  0  0  0  0  0  0
   -9.4260    4.9850  -17.7750 C   0  0  0  0  0  0  0  0  0  0  0  0
  -10.7310    4.9270  -18.4980 C   0  0  0  0  0  0  0  0  0  0  0  0
   -9.2130    4.9260  -16.3620 C   0  0  0  0  0  0  0  0  0  0  0  0
   -9.2260    7.3000  -12.9010 O   0  0  0  0  0  0  0  0  0  0  0  0
   -8.8950    5.9050  -10.8230 C   0  0  0  0  0  0  0  0  0  0  0  0
   -8.9370    4.5890  -10.0450 C   0  0  0  0  0  0  0  0  0  0  0  0
   -8.9110    4.9960   -8.7330 N   0  0  0  0  0  0  0  0  0  0  0  0
   -8.9500    4.1440   -7.5610 C   0  0  0  0  0  0  0  0  0  0  0  0
   -9.5160    2.8900   -7.8310 C   0  0  0  0  0  0  0  0  0  0  0  0
   -9.4140    2.2650   -9.2230 C   0  0  0  0  0  0  0  0  0  0  0  0
   -8.9980    3.1560  -10.4000 C   0  0  0  0  0  0  0  0  0  0  0  0
   -8.8440    6.3350   -8.5610 N   0  0  0  0  0  0  0  0  0  0  0  0
   -8.8360    6.8670   -9.7900 C   0  0  0  0  0  0  0  0  0  0  0  0
   -8.8380    4.0500  -12.7350 H   0  0  0  0  0  0  0  0  0  0  0  0
   -6.9750    4.0760  -14.1040 H   0  0  0  0  0  0  0  0  0  0  0  0
   -6.9950    5.8280  -14.0370 H   0  0  0  0  0  0  0  0  0  0  0  0
   -4.7680    4.8850  -17.1130 H   0  0  0  0  0  0  0  0  0  0  0  0
   -5.2040    6.3230  -16.1810 H   0  0  0  0  0  0  0  0  0  0  0  0
   -5.3140    4.6890  -15.4450 H   0  0  0  0  0  0  0  0  0  0  0  0
   -6.3060    5.3340  -18.9570 H   0  0  0  0  0  0  0  0  0  0  0  0
   -8.5130    5.1710  -19.7000 H   0  0  0  0  0  0  0  0  0  0  0  0
  -10.6620    5.1550  -19.5590 H   0  0  0  0  0  0  0  0  0  0  0  0
  -11.3570    5.7090  -18.0990 H   0  0  0  0  0  0  0  0  0  0  0  0
  -11.3240    4.0360  -18.4400 H   0  0  0  0  0  0  0  0  0  0  0  0
  -10.0850    4.8100  -15.7000 H   0  0  0  0  0  0  0  0  0  0  0  0
   -9.5870    4.6560   -6.8310 H   0  0  0  0  0  0  0  0  0  0  0  0
   -7.9390    4.1730   -7.1690 H   0  0  0  0  0  0  0  0  0  0  0  0
  -10.5820    2.9320   -7.5710 H   0  0  0  0  0  0  0  0  0  0  0  0
   -9.0830    2.1800   -7.1180 H   0  0  0  0  0  0  0  0  0  0  0  0
   -8.7550    1.3970   -9.1850 H   0  0  0  0  0  0  0  0  0  0  0  0
  -10.4030    1.9050   -9.4530 H   0  0  0  0  0  0  0  0  0  0  0  0
   -9.7210    3.0300  -11.2160 H   0  0  0  0  0  0  0  0  0  0  0  0
   -8.0290    2.8100  -10.7760 H   0  0  0  0  0  0  0  0  0  0  0  0
   -8.7900    7.9450   -9.8750 H   0  0  0  0  0  0  0  0  0  0  0  0
  1  2  1  0
  2  3  1  0
  3  4  1  0
  4  5  2  0
  5  6  1  0
  5  7  1  0
  7  8  2  0
  8  9  1  0
  9 10  1  0
  9 11  2  0
  1 12  2  0
  1 13  1  0
 13 14  2  0
 14 15  1  0
 15 16  1  0
 16 17  1  0
 17 18  1  0
 18 19  1  0
 15 20  1  0
 20 21  2  0
  4 11  1  0
 21 13  1  0
 19 14  1  0
  2 22  1  0
  3 23  1  0
  3 24  1  0
  6 25  1  0
  6 26  1  0
  6 27  1  0
  7 28  1  0
  8 29  1  0
 10 30  1  0
 10 31  1  0
 10 32  1  0
 11 33  1  0
 16 34  1  0
 16 35  1  0
 17 36  1  0
 17 37  1  0
 18 38  1  0
 18 39  1  0
 19 40  1  0
 19 41  1  0
 21 42  1  0
A    1
 C1 
A    2
 N1 
A    3
 C2 
A    4
 C3 
A    5
 C4 
A    6
 C5 
A    7
 C6 
A    8
 C7 
A    9
 C8 
A   10
 C9 
A   11
 C10
A   12
 O1 
A   13
 C11
A   14
 C12
A   15
 N2 
A   16
 C13
A   17
 C14
A   18
 C15
A   19
 C16
A   20
 N3 
A   21
 C17
A   22
 H1 
A   23
 H2 
A   24
 H3 
A   25
 H4 
A   26
 H5 
A   27
 H6 
A   28
 H7 
A   29
 H8 
A   30
 H9 
A   31
 H10
A   32
 H11
A   33
 H12
A   34
 H13
A   35
 H14
A   36
 H15
A   37
 H16
A   38
 H17
A   39
 H18
A   40
 H19
A   41
 H20
A   42
 H21
M  END
>  <ref_pdb>  (258) 
x0051_0B

>  <ref_mols>  (258) 
x0553_0B,x0969_1B

>  <original SMILES>  (258) 
[H]c1nn2c(c1C(=O)N([H])C([H])([H])c1c([H])c(C([H])([H])[H])c([H])c([H])c1C([H])([H])[H])C([H])([H])C([H])([H])C([H])([H])C2([H])[H]

>  <index>  (258) 
330

>  <∆∆G>  (258) 
-7.656341

>  <∆G_bound>  (258) 
-7.42879

>  <∆G_unbound>  (258) 
0.227551

>  <comRMSD>  (258) 
0.468768

>  <N_constrained_atoms>  (258) 
19.0

>  <N_unconstrained_atoms>  (258) 
3.0

>  <runtime>  (258) 
56.96161

>  <LE>  (258) 
0.348015

>  <percent_hybrid>  (258) 
48.0

>  <dist>  (258) 
7.0

>  <ecfp4>  (258) 
0.291139

>  <daylight>  (258) 
0.314286

>  <topodist>  (258) 
2.0

>  <mces>  (258) 
22.0

>  <tdn>  (258) 
1.0

>  <tup>  (258) 
1.0

>  <rdn>  (258) 
0.0

>  <rup>  (258) 
0.0

>  <ldn>  (258) 
0.0

>  <lup>  (258) 
0.0

>  <mut>  (258) 
3.0

>  <maj>  (258) 
3.0

>  <min>  (258) 
0.0

>  <hyb>  (258) 
2.0

>  <sub>  (258) 
0.0

>  <query_index>  (258) 
375.0

>  <max_hit_Tanimoto>  (258) 
0.344756

>  <largest_ring>  (258) 
0

>  <N_interactions_kept>  (258) 
1.5

>  <N_interactions_lost>  (258) 
1.0

>  <interaction_uniqueness_metric>  (258) 
0.103838

>  <ad_hoc_penalty>  (258) 
-22.370579

>  <N_rotatable_bonds>  (258) 
5

>  <N_HA>  (258) 
21

>  <cluster>  (258) 
5918

>  <N_interactions>  (258) 
5

>  <Enamine>  (258) 
0

>  <Mcule>  (258) 
1

>  <N_PAINS>  (258) 
0

>  <UFF_Gibbs>  (258) 
111.719146

>  <strain_per_HA>  (258) 
5.319959

>  <saltbridge:HIS:51>  (258) 
0

>  <pistack:HIS:51>  (258) 
1

>  <hydroph_interaction:HIS:51>  (258) 
0

>  <hbond:ALA:132>  (258) 
0

>  <hbond:SER:135>  (258) 
0

>  <hydroph_interaction:TYR:150>  (258) 
1

>  <pistack:TYR:161>  (258) 
1

>  <hydroph_interaction:TYR:161>  (258) 
1

>  <hydroph_interaction:ASP:83>  (258) 
0

>  <hbond:TYR:130>  (258) 
0

>  <hydroph_interaction:ALA:132>  (258) 
0

>  <hbond:HIS:51>  (258) 
0

>  <hbond:ASP:129>  (258) 
0

>  <hbond:TYR:150>  (258) 
0

>  <hbond:GLY:151>  (258) 
1

>  <hbond:TYR:161>  (258) 
0

>  <hydroph_interaction:TYR:130>  (258) 
0

>  <hydroph_interaction:PRO:131>  (258) 
0

>  <hydroph_interaction:ASP:129>  (258) 
0

>  <saltbridge:ASP:75>  (258) 
0

>  <saltbridge:ASP:83>  (258) 
0

>  <hydroph_interaction:ASN:152>  (258) 
0

>  <halogenbond:TYR:150>  (258) 
0

>  <hbond:ASP:83>  (258) 
0

>  <hydroph_interaction:VAL:155>  (258) 
0

>  <pication:TYR:161>  (258) 
0

>  <hbond:PRO:131>  (258) 
0

>  <hbond:LEU:128>  (258) 
0

>  <saltbridge:ASP:129>  (258) 
0

>  <hbond:THR:134>  (258) 
0

>  <pication:HIS:51>  (258) 
0

>  <hbond:SER:81>  (258) 
0

>  <hbond:GLY:159>  (258) 
0

>  <hydroph_interaction:PRO:101>  (258) 
0

>  <hydroph_interaction:THR:134>  (258) 
0

>  <hbond:GLY:82>  (258) 
0

>  <hydroph_interaction:GLU:104>  (258) 
0

>  <hydroph_interaction:VAL:36>  (258) 
0

>  <hydroph_interaction:MET:49>  (258) 
0

>  <halogenbond:GLU:104>  (258) 
0

>  <hydroph_interaction:LYS:107>  (258) 
0

$$$$
Z2691844754
     RDKit          3D

 45 48  0  0  0  0  0  0  0  0999 V2000
   -7.2530    6.2830  -12.4490 O   0  0  0  0  0  0  0  0  0  0  0  0
   -8.3610    5.9040  -12.0880 C   0  0  0  0  0  0  0  0  0  0  0  0
   -9.3430    5.6520  -13.0370 N   0  0  0  0  0  0  0  0  0  0  0  0
   -9.0410    4.9500  -14.2910 C   0  0  0  0  0  0  0  0  0  0  0  0
   -8.0100    5.6410  -15.2050 C   0  0  0  0  0  0  0  0  0  0  0  0
   -6.6900    5.2970  -14.9380 C   0  0  0  0  0  0  0  0  0  0  0  0
   -5.6790    5.7080  -15.9780 C   0  0  0  0  0  0  0  0  0  0  0  0
   -6.1640    5.5920  -17.3060 C   0  0  0  0  0  0  0  0  0  0  0  0
   -7.5160    5.3100  -17.5380 C   0  0  0  0  0  0  0  0  0  0  0  0
   -7.9370    5.0160  -18.8180 C   0  0  0  0  0  0  0  0  0  0  0  0
   -9.3530    4.7190  -19.0610 C   0  0  0  0  0  0  0  0  0  0  0  0
  -10.2030    4.7530  -17.9540 C   0  0  0  0  0  0  0  0  0  0  0  0
   -9.7750    5.0470  -16.6920 N   0  0  0  0  0  0  0  0  0  0  0  0
   -8.4730    5.3160  -16.5140 C   0  0  0  0  0  0  0  0  0  0  0  0
   -8.6160    5.7430  -10.6460 C   0  0  0  0  0  0  0  0  0  0  0  0
   -8.8800    4.5110   -9.7820 C   0  0  0  0  0  0  0  0  0  0  0  0
   -8.9520    3.2070  -10.2250 C   0  0  0  0  0  0  0  0  0  0  0  0
   -9.4170    2.3360   -9.2240 C   0  0  0  0  0  0  0  0  0  0  0  0
   -9.6280    2.7250   -7.8820 C   0  0  0  0  0  0  0  0  0  0  0  0
   -9.2750    4.0070   -7.4100 C   0  0  0  0  0  0  0  0  0  0  0  0
   -9.0220    4.9100   -8.5160 N   0  0  0  0  0  0  0  0  0  0  0  0
   -8.9030    6.2450   -8.3700 N   0  0  0  0  0  0  0  0  0  0  0  0
   -8.6690    6.7290   -9.6170 C   0  0  0  0  0  0  0  0  0  0  0  0
  -10.3370    5.6030  -12.7660 H   0  0  0  0  0  0  0  0  0  0  0  0
  -10.0210    4.7360  -14.7050 H   0  0  0  0  0  0  0  0  0  0  0  0
   -8.6140    3.9850  -14.0040 H   0  0  0  0  0  0  0  0  0  0  0  0
   -8.1410    6.7210  -15.2240 H   0  0  0  0  0  0  0  0  0  0  0  0
   -6.2740    5.5880  -13.9790 H   0  0  0  0  0  0  0  0  0  0  0  0
   -6.6490    4.2040  -14.9050 H   0  0  0  0  0  0  0  0  0  0  0  0
   -5.5040    6.7780  -15.8260 H   0  0  0  0  0  0  0  0  0  0  0  0
   -4.6810    5.2970  -15.8480 H   0  0  0  0  0  0  0  0  0  0  0  0
   -6.0270    6.5920  -17.7270 H   0  0  0  0  0  0  0  0  0  0  0  0
   -5.5410    4.9880  -17.9610 H   0  0  0  0  0  0  0  0  0  0  0  0
   -7.1730    5.0210  -19.6000 H   0  0  0  0  0  0  0  0  0  0  0  0
   -9.6280    4.4940  -20.0940 H   0  0  0  0  0  0  0  0  0  0  0  0
  -11.2750    4.5420  -18.0610 H   0  0  0  0  0  0  0  0  0  0  0  0
   -9.6930    3.1690  -11.0320 H   0  0  0  0  0  0  0  0  0  0  0  0
   -8.0670    2.7450  -10.6490 H   0  0  0  0  0  0  0  0  0  0  0  0
   -8.7690    1.4570   -9.2260 H   0  0  0  0  0  0  0  0  0  0  0  0
  -10.3820    1.9920   -9.5780 H   0  0  0  0  0  0  0  0  0  0  0  0
   -9.1200    1.9940   -7.2400 H   0  0  0  0  0  0  0  0  0  0  0  0
  -10.6950    2.5820   -7.6730 H   0  0  0  0  0  0  0  0  0  0  0  0
   -8.3330    3.9230   -6.8560 H   0  0  0  0  0  0  0  0  0  0  0  0
   -9.9740    4.5350   -6.7700 H   0  0  0  0  0  0  0  0  0  0  0  0
   -8.5410    7.7970   -9.7220 H   0  0  0  0  0  0  0  0  0  0  0  0
  1  2  2  0
  2  3  1  0
  3  4  1  0
  4  5  1  0
  5  6  1  0
  6  7  1  0
  7  8  1  0
  8  9  1  0
  9 10  2  0
 10 11  1  0
 11 12  2  0
 12 13  1  0
 13 14  2  0
  2 15  1  0
 15 16  2  0
 16 17  1  0
 17 18  1  0
 18 19  1  0
 19 20  1  0
 20 21  1  0
 21 22  1  0
 22 23  2  0
 14  5  1  0
 14  9  1  0
 23 15  1  0
 21 16  1  0
  3 24  1  0
  4 25  1  0
  4 26  1  0
  5 27  1  0
  6 28  1  0
  6 29  1  0
  7 30  1  0
  7 31  1  0
  8 32  1  0
  8 33  1  0
 10 34  1  0
 11 35  1  0
 12 36  1  0
 17 37  1  0
 17 38  1  0
 18 39  1  0
 18 40  1  0
 19 41  1  0
 19 42  1  0
 20 43  1  0
 20 44  1  0
 23 45  1  0
A    1
 O1 
A    2
 C1 
A    3
 N1 
A    4
 C2 
A    5
 C3 
A    6
 C4 
A    7
 C5 
A    8
 C6 
A    9
 C7 
A   10
 C8 
A   11
 C9 
A   12
 C10
A   13
 N2 
A   14
 C11
A   15
 C12
A   16
 C13
A   17
 C14
A   18
 C15
A   19
 C16
A   20
 C17
A   21
 N3 
A   22
 N4 
A   23
 C18
A   24
 H1 
A   25
 H2 
A   26
 H3 
A   27
 H4 
A   28
 H5 
A   29
 H6 
A   30
 H7 
A   31
 H8 
A   32
 H9 
A   33
 H10
A   34
 H11
A   35
 H12
A   36
 H13
A   37
 H14
A   38
 H15
A   39
 H16
A   40
 H17
A   41
 H18
A   42
 H19
A   43
 H20
A   44
 H21
A   45
 H22
M  END
>  <ref_pdb>  (259) 
x0051_0B

>  <ref_mols>  (259) 
x0969_1B,x0455_0B

>  <original SMILES>  (259) 
[H]c1nc2c(c([H])c1[H])C([H])([H])C([H])([H])C([H])([H])C2([H])C([H])([H])N([H])C(=O)c1c([H])nn2c1C([H])([H])C([H])([H])C([H])([H])C2([H])[H]

>  <index>  (259) 
262

>  <∆∆G>  (259) 
-5.903085

>  <∆G_bound>  (259) 
-4.646679

>  <∆G_unbound>  (259) 
1.256406

>  <comRMSD>  (259) 
0.372107

>  <N_constrained_atoms>  (259) 
20.0

>  <N_unconstrained_atoms>  (259) 
3.0

>  <runtime>  (259) 
78.384182

>  <LE>  (259) 
0.256656

>  <percent_hybrid>  (259) 
50.0

>  <dist>  (259) 
5.0

>  <ecfp4>  (259) 
0.329268

>  <daylight>  (259) 
0.315508

>  <topodist>  (259) 
1.0

>  <mces>  (259) 
25.0

>  <tdn>  (259) 
0.0

>  <tup>  (259) 
1.0

>  <rdn>  (259) 
0.0

>  <rup>  (259) 
0.0

>  <ldn>  (259) 
0.0

>  <lup>  (259) 
0.0

>  <mut>  (259) 
3.0

>  <maj>  (259) 
3.0

>  <min>  (259) 
0.0

>  <hyb>  (259) 
1.0

>  <sub>  (259) 
0.0

>  <query_index>  (259) 
204.0

>  <max_hit_Tanimoto>  (259) 
0.302775

>  <largest_ring>  (259) 
0

>  <N_interactions_kept>  (259) 
1.0

>  <N_interactions_lost>  (259) 
1.5

>  <interaction_uniqueness_metric>  (259) 
0.168292

>  <ad_hoc_penalty>  (259) 
-22.286694

>  <N_rotatable_bonds>  (259) 
3

>  <N_HA>  (259) 
23

>  <cluster>  (259) 
5978

>  <N_interactions>  (259) 
6

>  <Enamine>  (259) 
1

>  <Mcule>  (259) 
0

>  <N_PAINS>  (259) 
0

>  <UFF_Gibbs>  (259) 
174.596873

>  <strain_per_HA>  (259) 
7.591168

>  <saltbridge:HIS:51>  (259) 
0

>  <pistack:HIS:51>  (259) 
1

>  <hydroph_interaction:HIS:51>  (259) 
1

>  <hbond:ALA:132>  (259) 
0

>  <hbond:SER:135>  (259) 
0

>  <hydroph_interaction:TYR:150>  (259) 
1

>  <pistack:TYR:161>  (259) 
0

>  <hydroph_interaction:TYR:161>  (259) 
2

>  <hydroph_interaction:ASP:83>  (259) 
0

>  <hbond:TYR:130>  (259) 
0

>  <hydroph_interaction:ALA:132>  (259) 
0

>  <hbond:HIS:51>  (259) 
1

>  <hbond:ASP:129>  (259) 
0

>  <hbond:TYR:150>  (259) 
0

>  <hbond:GLY:151>  (259) 
0

>  <hbond:TYR:161>  (259) 
0

>  <hydroph_interaction:TYR:130>  (259) 
0

>  <hydroph_interaction:PRO:131>  (259) 
0

>  <hydroph_interaction:ASP:129>  (259) 
0

>  <saltbridge:ASP:75>  (259) 
0

>  <saltbridge:ASP:83>  (259) 
0

>  <hydroph_interaction:ASN:152>  (259) 
0

>  <halogenbond:TYR:150>  (259) 
0

>  <hbond:ASP:83>  (259) 
0

>  <hydroph_interaction:VAL:155>  (259) 
0

>  <pication:TYR:161>  (259) 
0

>  <hbond:PRO:131>  (259) 
0

>  <hbond:LEU:128>  (259) 
0

>  <saltbridge:ASP:129>  (259) 
0

>  <hbond:THR:134>  (259) 
0

>  <pication:HIS:51>  (259) 
0

>  <hbond:SER:81>  (259) 
0

>  <hbond:GLY:159>  (259) 
0

>  <hydroph_interaction:PRO:101>  (259) 
0

>  <hydroph_interaction:THR:134>  (259) 
0

>  <hbond:GLY:82>  (259) 
0

>  <hydroph_interaction:GLU:104>  (259) 
0

>  <hydroph_interaction:VAL:36>  (259) 
0

>  <hydroph_interaction:MET:49>  (259) 
0

>  <halogenbond:GLU:104>  (259) 
0

>  <hydroph_interaction:LYS:107>  (259) 
0

$$$$
CSSB00000717227
     RDKit          3D

 20 21  0  0  0  0  0  0  0  0999 V2000
   -9.9630    4.9830  -15.5050 N   0  0  0  0  0  0  0  0  0  0  0  0
   -9.2880    4.9930  -16.7820 C   0  0  0  0  0  0  0  0  0  0  0  0
   -7.9910    5.1940  -16.9430 N   0  0  0  0  0  0  0  0  0  0  0  0
   -7.7940    5.0980  -18.2740 C   0  0  0  0  0  0  0  0  0  0  0  0
   -9.1190    4.8240  -18.9330 C   0  0  0  0  0  0  0  0  0  0  0  0
  -10.0350    4.7690  -17.9180 O   0  0  0  0  0  0  0  0  0  0  0  0
   -6.4810    5.2330  -18.8320 C   0  0  0  0  0  0  0  0  0  0  0  0
   -5.4050    5.3510  -17.9470 C   0  0  0  0  0  0  0  0  0  0  0  0
   -4.0910    5.4660  -18.3500 C   0  0  0  0  0  0  0  0  0  0  0  0
   -3.6290    5.4830  -19.7880 C   0  0  0  0  0  0  0  0  0  0  0  0
   -4.7460    5.3620  -20.8230 C   0  0  0  0  0  0  0  0  0  0  0  0
   -6.1930    5.2350  -20.3540 C   0  0  0  0  0  0  0  0  0  0  0  0
  -10.0510    4.0120  -15.2260 H   0  0  0  0  0  0  0  0  0  0  0  0
   -9.3680    5.4200  -14.8030 H   0  0  0  0  0  0  0  0  0  0  0  0
   -9.4800    4.6690  -19.9390 H   0  0  0  0  0  0  0  0  0  0  0  0
   -5.5330    5.3550  -16.8600 H   0  0  0  0  0  0  0  0  0  0  0  0
   -3.3240    5.5500  -17.5730 H   0  0  0  0  0  0  0  0  0  0  0  0
   -2.5830    5.5740  -20.0660 H   0  0  0  0  0  0  0  0  0  0  0  0
   -4.4290    5.3720  -21.8730 H   0  0  0  0  0  0  0  0  0  0  0  0
   -6.9800    5.1450  -21.0950 H   0  0  0  0  0  0  0  0  0  0  0  0
  1  2  1  0
  2  3  2  0
  3  4  1  0
  4  5  2  0
  5  6  1  0
  4  7  1  0
  7  8  2  0
  8  9  1  0
  9 10  2  0
 10 11  1  0
 11 12  2  0
  6  2  1  0
 12  7  1  0
  1 13  1  0
  1 14  1  0
  5 15  1  0
  8 16  1  0
  9 17  1  0
 10 18  1  0
 11 19  1  0
 12 20  1  0
A    1
 N1 
A    2
 C1 
A    3
 N2 
A    4
 C2 
A    5
 C3 
A    6
 O1 
A    7
 C4 
A    8
 C5 
A    9
 C6 
A   10
 C7 
A   11
 C8 
A   12
 C9 
A   13
 H1 
A   14
 H2 
A   15
 H3 
A   16
 H4 
A   17
 H5 
A   18
 H6 
A   19
 H7 
A   20
 H8 
M  END
>  <ref_pdb>  (260) 
x0051_0B

>  <ref_mols>  (260) 
x0680_0B,x0386_0B

>  <original SMILES>  (260) 
[H]c1oc(N([H])[H])nc1-c1c([H])c([H])c([H])c([H])c1[H]

>  <index>  (260) 
269

>  <∆∆G>  (260) 
-5.180398

>  <∆G_bound>  (260) 
-5.105114

>  <∆G_unbound>  (260) 
0.075284

>  <comRMSD>  (260) 
0.704614

>  <N_constrained_atoms>  (260) 
13.0

>  <N_unconstrained_atoms>  (260) 
0.0

>  <runtime>  (260) 
29.464552

>  <LE>  (260) 
0.398492

>  <percent_hybrid>  (260) 
25.0

>  <dist>  (260) 
3.0

>  <ecfp4>  (260) 
0.183673

>  <daylight>  (260) 
0.471074

>  <topodist>  (260) 
2.0

>  <mces>  (260) 
12.0

>  <tdn>  (260) 
1.0

>  <tup>  (260) 
1.0

>  <rdn>  (260) 
0.0

>  <rup>  (260) 
0.0

>  <ldn>  (260) 
0.0

>  <lup>  (260) 
0.0

>  <mut>  (260) 
1.0

>  <maj>  (260) 
1.0

>  <min>  (260) 
0.0

>  <hyb>  (260) 
0.0

>  <sub>  (260) 
2.0

>  <query_index>  (260) 
296.0

>  <max_hit_Tanimoto>  (260) 
0.119481

>  <largest_ring>  (260) 
0

>  <N_interactions_kept>  (260) 
3.5

>  <N_interactions_lost>  (260) 
0.5

>  <interaction_uniqueness_metric>  (260) 
0.064157

>  <ad_hoc_penalty>  (260) 
-22.199958

>  <N_rotatable_bonds>  (260) 
2

>  <N_HA>  (260) 
12

>  <cluster>  (260) 
5971

>  <N_interactions>  (260) 
4

>  <Enamine>  (260) 
1

>  <Mcule>  (260) 
0

>  <N_PAINS>  (260) 
0

>  <UFF_Gibbs>  (260) 
76.126306

>  <strain_per_HA>  (260) 
6.343859

>  <saltbridge:HIS:51>  (260) 
0

>  <pistack:HIS:51>  (260) 
0

>  <hydroph_interaction:HIS:51>  (260) 
0

>  <hbond:ALA:132>  (260) 
0

>  <hbond:SER:135>  (260) 
1

>  <hydroph_interaction:TYR:150>  (260) 
0

>  <pistack:TYR:161>  (260) 
0

>  <hydroph_interaction:TYR:161>  (260) 
3

>  <hydroph_interaction:ASP:83>  (260) 
0

>  <hbond:TYR:130>  (260) 
0

>  <hydroph_interaction:ALA:132>  (260) 
0

>  <hbond:HIS:51>  (260) 
0

>  <hbond:ASP:129>  (260) 
0

>  <hbond:TYR:150>  (260) 
0

>  <hbond:GLY:151>  (260) 
0

>  <hbond:TYR:161>  (260) 
0

>  <hydroph_interaction:TYR:130>  (260) 
0

>  <hydroph_interaction:PRO:131>  (260) 
0

>  <hydroph_interaction:ASP:129>  (260) 
0

>  <saltbridge:ASP:75>  (260) 
0

>  <saltbridge:ASP:83>  (260) 
0

>  <hydroph_interaction:ASN:152>  (260) 
0

>  <halogenbond:TYR:150>  (260) 
0

>  <hbond:ASP:83>  (260) 
0

>  <hydroph_interaction:VAL:155>  (260) 
0

>  <pication:TYR:161>  (260) 
0

>  <hbond:PRO:131>  (260) 
0

>  <hbond:LEU:128>  (260) 
0

>  <saltbridge:ASP:129>  (260) 
0

>  <hbond:THR:134>  (260) 
0

>  <pication:HIS:51>  (260) 
0

>  <hbond:SER:81>  (260) 
0

>  <hbond:GLY:159>  (260) 
0

>  <hydroph_interaction:PRO:101>  (260) 
0

>  <hydroph_interaction:THR:134>  (260) 
0

>  <hbond:GLY:82>  (260) 
0

>  <hydroph_interaction:GLU:104>  (260) 
0

>  <hydroph_interaction:VAL:36>  (260) 
0

>  <hydroph_interaction:MET:49>  (260) 
0

>  <halogenbond:GLU:104>  (260) 
0

>  <hydroph_interaction:LYS:107>  (260) 
0

$$$$
UPLZAXIYAXARIS-UHFFFAOYSA-N
     RDKit          3D

 31 31  0  0  0  0  0  0  0  0999 V2000
   -8.8170    5.1630  -14.9340 C   0  0  0  0  0  0  0  0  0  0  0  0
  -10.1330    5.5240  -14.8120 N   0  0  0  0  0  0  0  0  0  0  0  0
  -10.5350    6.5790  -13.8900 C   0  0  0  0  0  0  0  0  0  0  0  0
  -11.3740    6.0510  -12.7210 C   0  0  0  0  0  0  0  0  0  0  0  0
  -11.1720    4.5580  -12.4360 C   0  0  0  0  0  0  0  0  0  0  0  0
  -12.4330    3.6930  -12.2040 C   0  0  0  0  0  0  0  0  0  0  0  0
   -8.1460    4.7970  -13.9780 O   0  0  0  0  0  0  0  0  0  0  0  0
   -8.2530    5.2620  -16.2570 C   0  0  0  0  0  0  0  0  0  0  0  0
   -8.8470    5.0660  -17.6210 C   0  0  0  0  0  0  0  0  0  0  0  0
  -10.1520    4.7260  -17.9880 C   0  0  0  0  0  0  0  0  0  0  0  0
   -7.7840    5.3040  -18.5100 C   0  0  0  0  0  0  0  0  0  0  0  0
   -6.5440    5.6410  -17.7760 N   0  0  0  0  0  0  0  0  0  0  0  0
   -6.9410    5.5830  -16.4600 N   0  0  0  0  0  0  0  0  0  0  0  0
   -5.9500    5.8580  -15.4510 C   0  0  0  0  0  0  0  0  0  0  0  0
  -10.8350    4.8220  -15.0120 H   0  0  0  0  0  0  0  0  0  0  0  0
  -11.0870    7.3360  -14.4600 H   0  0  0  0  0  0  0  0  0  0  0  0
   -9.6080    7.0310  -13.5240 H   0  0  0  0  0  0  0  0  0  0  0  0
  -12.4370    6.2600  -12.9080 H   0  0  0  0  0  0  0  0  0  0  0  0
  -11.1180    6.6100  -11.8120 H   0  0  0  0  0  0  0  0  0  0  0  0
  -10.4530    4.1980  -13.1850 H   0  0  0  0  0  0  0  0  0  0  0  0
  -10.5960    4.4790  -11.5070 H   0  0  0  0  0  0  0  0  0  0  0  0
  -13.3390    4.3050  -12.2060 H   0  0  0  0  0  0  0  0  0  0  0  0
  -12.5770    2.9500  -13.0000 H   0  0  0  0  0  0  0  0  0  0  0  0
  -12.3800    3.1720  -11.2520 H   0  0  0  0  0  0  0  0  0  0  0  0
  -10.0730    3.8300  -18.6100 H   0  0  0  0  0  0  0  0  0  0  0  0
  -10.6850    4.4520  -17.0790 H   0  0  0  0  0  0  0  0  0  0  0  0
  -10.7770    5.4300  -18.5300 H   0  0  0  0  0  0  0  0  0  0  0  0
   -7.7770    5.2690  -19.5980 H   0  0  0  0  0  0  0  0  0  0  0  0
   -6.1840    6.7900  -14.9460 H   0  0  0  0  0  0  0  0  0  0  0  0
   -5.9190    5.0140  -14.7510 H   0  0  0  0  0  0  0  0  0  0  0  0
   -4.9580    5.9250  -15.9130 H   0  0  0  0  0  0  0  0  0  0  0  0
  1  2  1  0
  2  3  1  0
  3  4  1  0
  4  5  1  0
  5  6  1  0
  1  7  2  0
  1  8  1  0
  8  9  2  0
  9 10  1  0
  9 11  1  0
 11 12  2  0
 12 13  1  0
 13 14  1  0
 13  8  1  0
  2 15  1  0
  3 16  1  0
  3 17  1  0
  4 18  1  0
  4 19  1  0
  5 20  1  0
  5 21  1  0
  6 22  1  0
  6 23  1  0
  6 24  1  0
 10 25  1  0
 10 26  1  0
 10 27  1  0
 11 28  1  0
 14 29  1  0
 14 30  1  0
 14 31  1  0
A    1
 C1 
A    2
 N1 
A    3
 C2 
A    4
 C3 
A    5
 C4 
A    6
 C5 
A    7
 O1 
A    8
 C6 
A    9
 C7 
A   10
 C8 
A   11
 C9 
A   12
 N2 
A   13
 N3 
A   14
 C10
A   15
 H1 
A   16
 H2 
A   17
 H3 
A   18
 H4 
A   19
 H5 
A   20
 H6 
A   21
 H7 
A   22
 H8 
A   23
 H9 
A   24
 H10
A   25
 H11
A   26
 H12
A   27
 H13
A   28
 H14
A   29
 H15
A   30
 H16
A   31
 H17
M  END
>  <ref_pdb>  (261) 
x0051_0B

>  <ref_mols>  (261) 
x0969_0B,x0693_0B

>  <original SMILES>  (261) 
[H]c1nn(C([H])([H])[H])c(C(=O)N([H])C([H])([H])C([H])([H])C([H])([H])C([H])([H])[H])c1C([H])([H])[H]

>  <index>  (261) 
598

>  <∆∆G>  (261) 
-6.966219

>  <∆G_bound>  (261) 
-7.356586

>  <∆G_unbound>  (261) 
-0.390368

>  <comRMSD>  (261) 
0.925477

>  <N_constrained_atoms>  (261) 
9.0

>  <N_unconstrained_atoms>  (261) 
7.0

>  <runtime>  (261) 
42.784647

>  <LE>  (261) 
0.435389

>  <percent_hybrid>  (261) 
0.0

>  <dist>  (261) 
6.0

>  <ecfp4>  (261) 
0.209677

>  <daylight>  (261) 
0.357798

>  <topodist>  (261) 
3.0

>  <mces>  (261) 
13.0

>  <tdn>  (261) 
1.0

>  <tup>  (261) 
1.0

>  <rdn>  (261) 
1.0

>  <rup>  (261) 
0.0

>  <ldn>  (261) 
0.0

>  <lup>  (261) 
0.0

>  <mut>  (261) 
1.0

>  <maj>  (261) 
1.0

>  <min>  (261) 
0.0

>  <hyb>  (261) 
2.0

>  <sub>  (261) 
1.0

>  <query_index>  (261) 
104.0

>  <max_hit_Tanimoto>  (261) 
0.504518

>  <largest_ring>  (261) 
5

>  <N_interactions_kept>  (261) 
3.0

>  <N_interactions_lost>  (261) 
1.5

>  <interaction_uniqueness_metric>  (261) 
0.711026

>  <ad_hoc_penalty>  (261) 
-22.19457

>  <N_rotatable_bonds>  (261) 
7

>  <N_HA>  (261) 
14

>  <cluster>  (261) 
5671

>  <N_interactions>  (261) 
6

>  <Enamine>  (261) 
0

>  <Mcule>  (261) 
1

>  <N_PAINS>  (261) 
0

>  <UFF_Gibbs>  (261) 
80.207843

>  <strain_per_HA>  (261) 
5.729132

>  <saltbridge:HIS:51>  (261) 
0

>  <pistack:HIS:51>  (261) 
0

>  <hydroph_interaction:HIS:51>  (261) 
1

>  <hbond:ALA:132>  (261) 
0

>  <hbond:SER:135>  (261) 
2

>  <hydroph_interaction:TYR:150>  (261) 
1

>  <pistack:TYR:161>  (261) 
1

>  <hydroph_interaction:TYR:161>  (261) 
0

>  <hydroph_interaction:ASP:83>  (261) 
0

>  <hbond:TYR:130>  (261) 
0

>  <hydroph_interaction:ALA:132>  (261) 
0

>  <hbond:HIS:51>  (261) 
0

>  <hbond:ASP:129>  (261) 
0

>  <hbond:TYR:150>  (261) 
0

>  <hbond:GLY:151>  (261) 
0

>  <hbond:TYR:161>  (261) 
0

>  <hydroph_interaction:TYR:130>  (261) 
0

>  <hydroph_interaction:PRO:131>  (261) 
0

>  <hydroph_interaction:ASP:129>  (261) 
0

>  <saltbridge:ASP:75>  (261) 
0

>  <saltbridge:ASP:83>  (261) 
0

>  <hydroph_interaction:ASN:152>  (261) 
0

>  <halogenbond:TYR:150>  (261) 
0

>  <hbond:ASP:83>  (261) 
0

>  <hydroph_interaction:VAL:155>  (261) 
0

>  <pication:TYR:161>  (261) 
0

>  <hbond:PRO:131>  (261) 
0

>  <hbond:LEU:128>  (261) 
0

>  <saltbridge:ASP:129>  (261) 
0

>  <hbond:THR:134>  (261) 
0

>  <pication:HIS:51>  (261) 
0

>  <hbond:SER:81>  (261) 
0

>  <hbond:GLY:159>  (261) 
0

>  <hydroph_interaction:PRO:101>  (261) 
0

>  <hydroph_interaction:THR:134>  (261) 
0

>  <hbond:GLY:82>  (261) 
0

>  <hydroph_interaction:GLU:104>  (261) 
0

>  <hydroph_interaction:VAL:36>  (261) 
0

>  <hydroph_interaction:MET:49>  (261) 
1

>  <halogenbond:GLU:104>  (261) 
0

>  <hydroph_interaction:LYS:107>  (261) 
0

$$$$
HRISILJTHVDORW-UHFFFAOYSA-N
     RDKit          3D

 34 36  0  0  0  0  0  0  0  0999 V2000
   -5.4380    5.3610  -17.5740 N   0  0  0  0  0  0  0  0  0  0  0  0
   -4.0060    5.4000  -17.9350 C   0  0  0  0  0  0  0  0  0  0  0  0
   -3.0790    5.0460  -16.7960 C   0  0  0  0  0  0  0  0  0  0  0  0
   -3.4630    4.3160  -15.6470 C   0  0  0  0  0  0  0  0  0  0  0  0
   -2.4060    3.4380  -15.8390 C   0  0  0  0  0  0  0  0  0  0  0  0
   -2.0210    4.1190  -17.1630 C   0  0  0  0  0  0  0  0  0  0  0  0
   -6.3810    5.6300  -18.7100 C   0  0  0  0  0  0  0  0  0  0  0  0
   -6.1410    6.8630  -19.3240 C   0  0  0  0  0  0  0  0  0  0  0  0
   -7.6740    5.3630  -18.2570 C   0  0  0  0  0  0  0  0  0  0  0  0
   -7.9850    5.4640  -16.7950 C   0  0  0  0  0  0  0  0  0  0  0  0
   -9.5960    5.1030  -16.4760 S   0  0  0  0  0  0  0  0  0  0  0  0
   -9.9560    4.8010  -18.1340 C   0  0  0  0  0  0  0  0  0  0  0  0
   -8.8510    4.9730  -18.9770 C   0  0  0  0  0  0  0  0  0  0  0  0
   -6.9840    5.8390  -15.7550 C   0  0  0  0  0  0  0  0  0  0  0  0
   -5.7910    6.1910  -16.3880 C   0  0  0  0  0  0  0  0  0  0  0  0
   -3.8030    6.3220  -18.4680 H   0  0  0  0  0  0  0  0  0  0  0  0
   -3.8510    4.6080  -18.6700 H   0  0  0  0  0  0  0  0  0  0  0  0
   -2.6160    5.9740  -16.4400 H   0  0  0  0  0  0  0  0  0  0  0  0
   -4.4550    3.8880  -15.5890 H   0  0  0  0  0  0  0  0  0  0  0  0
   -3.2590    4.8180  -14.6950 H   0  0  0  0  0  0  0  0  0  0  0  0
   -1.6420    3.5120  -15.0600 H   0  0  0  0  0  0  0  0  0  0  0  0
   -2.7360    2.3990  -15.8970 H   0  0  0  0  0  0  0  0  0  0  0  0
   -1.0040    4.5220  -17.2310 H   0  0  0  0  0  0  0  0  0  0  0  0
   -2.2060    3.5090  -18.0570 H   0  0  0  0  0  0  0  0  0  0  0  0
   -6.1740    4.8460  -19.4490 H   0  0  0  0  0  0  0  0  0  0  0  0
   -5.9100    7.6430  -18.5940 H   0  0  0  0  0  0  0  0  0  0  0  0
   -5.3190    6.7760  -20.0430 H   0  0  0  0  0  0  0  0  0  0  0  0
   -7.0270    7.1890  -19.8860 H   0  0  0  0  0  0  0  0  0  0  0  0
  -10.9730    4.5100  -18.4250 H   0  0  0  0  0  0  0  0  0  0  0  0
   -8.9070    4.8200  -20.0630 H   0  0  0  0  0  0  0  0  0  0  0  0
   -7.3660    6.6810  -15.1720 H   0  0  0  0  0  0  0  0  0  0  0  0
   -6.8010    5.0030  -15.0690 H   0  0  0  0  0  0  0  0  0  0  0  0
   -5.8600    7.2380  -16.7130 H   0  0  0  0  0  0  0  0  0  0  0  0
   -4.9720    6.1740  -15.6590 H   0  0  0  0  0  0  0  0  0  0  0  0
  1  2  1  0
  2  3  1  0
  3  4  1  0
  4  5  1  0
  5  6  1  0
  1  7  1  0
  7  8  1  0
  7  9  1  0
  9 10  2  0
 10 11  1  0
 11 12  1  0
 12 13  2  0
 10 14  1  0
 14 15  1  0
 15  1  1  0
  6  3  1  0
 13  9  1  0
  2 16  1  0
  2 17  1  0
  3 18  1  0
  4 19  1  0
  4 20  1  0
  5 21  1  0
  5 22  1  0
  6 23  1  0
  6 24  1  0
  7 25  1  0
  8 26  1  0
  8 27  1  0
  8 28  1  0
 12 29  1  0
 13 30  1  0
 14 31  1  0
 14 32  1  0
 15 33  1  0
 15 34  1  0
A    1
 N1 
A    2
 C1 
A    3
 C2 
A    4
 C3 
A    5
 C4 
A    6
 C5 
A    7
 C6 
A    8
 C7 
A    9
 C8 
A   10
 C9 
A   11
 S1 
A   12
 C10
A   13
 C11
A   14
 C12
A   15
 C13
A   16
 H1 
A   17
 H2 
A   18
 H3 
A   19
 H4 
A   20
 H5 
A   21
 H6 
A   22
 H7 
A   23
 H8 
A   24
 H9 
A   25
 H10
A   26
 H11
A   27
 H12
A   28
 H13
A   29
 H14
A   30
 H15
A   31
 H16
A   32
 H17
A   33
 H18
A   34
 H19
M  END
>  <ref_pdb>  (262) 
x0051_0B

>  <ref_mols>  (262) 
x0472_0B,x0227_0B

>  <original SMILES>  (262) 
[H]c1sc2c(c1[H])C([H])(C([H])([H])[H])N(C([H])([H])C1([H])C([H])([H])C([H])([H])C1([H])[H])C([H])([H])C2([H])[H]

>  <index>  (262) 
343

>  <∆∆G>  (262) 
-6.941716

>  <∆G_bound>  (262) 
-6.843605

>  <∆G_unbound>  (262) 
0.098111

>  <comRMSD>  (262) 
0.587992

>  <N_constrained_atoms>  (262) 
18.0

>  <N_unconstrained_atoms>  (262) 
2.0

>  <runtime>  (262) 
18.590182

>  <LE>  (262) 
0.347086

>  <percent_hybrid>  (262) 
50.0

>  <dist>  (262) 
4.0

>  <ecfp4>  (262) 
0.4

>  <daylight>  (262) 
0.780303

>  <topodist>  (262) 
3.0

>  <mces>  (262) 
15.0

>  <tdn>  (262) 
1.0

>  <tup>  (262) 
0.0

>  <rdn>  (262) 
0.0

>  <rup>  (262) 
1.0

>  <ldn>  (262) 
0.0

>  <lup>  (262) 
1.0

>  <mut>  (262) 
1.0

>  <maj>  (262) 
1.0

>  <min>  (262) 
0.0

>  <hyb>  (262) 
0.0

>  <sub>  (262) 
2.0

>  <query_index>  (262) 
78.0

>  <max_hit_Tanimoto>  (262) 
0.63135

>  <largest_ring>  (262) 
0

>  <N_interactions_kept>  (262) 
3.5

>  <N_interactions_lost>  (262) 
1.5

>  <interaction_uniqueness_metric>  (262) 
0.134253

>  <ad_hoc_penalty>  (262) 
-22.18998

>  <N_rotatable_bonds>  (262) 
3

>  <N_HA>  (262) 
15

>  <cluster>  (262) 
5905

>  <N_interactions>  (262) 
5

>  <Enamine>  (262) 
0

>  <Mcule>  (262) 
1

>  <N_PAINS>  (262) 
0

>  <UFF_Gibbs>  (262) 
83.273536

>  <strain_per_HA>  (262) 
5.551569

>  <saltbridge:HIS:51>  (262) 
0

>  <pistack:HIS:51>  (262) 
0

>  <hydroph_interaction:HIS:51>  (262) 
0

>  <hbond:ALA:132>  (262) 
0

>  <hbond:SER:135>  (262) 
0

>  <hydroph_interaction:TYR:150>  (262) 
0

>  <pistack:TYR:161>  (262) 
0

>  <hydroph_interaction:TYR:161>  (262) 
3

>  <hydroph_interaction:ASP:83>  (262) 
0

>  <hbond:TYR:130>  (262) 
0

>  <hydroph_interaction:ALA:132>  (262) 
0

>  <hbond:HIS:51>  (262) 
0

>  <hbond:ASP:129>  (262) 
0

>  <hbond:TYR:150>  (262) 
0

>  <hbond:GLY:151>  (262) 
0

>  <hbond:TYR:161>  (262) 
0

>  <hydroph_interaction:TYR:130>  (262) 
0

>  <hydroph_interaction:PRO:131>  (262) 
0

>  <hydroph_interaction:ASP:129>  (262) 
0

>  <saltbridge:ASP:75>  (262) 
0

>  <saltbridge:ASP:83>  (262) 
0

>  <hydroph_interaction:ASN:152>  (262) 
0

>  <halogenbond:TYR:150>  (262) 
0

>  <hbond:ASP:83>  (262) 
0

>  <hydroph_interaction:VAL:155>  (262) 
1

>  <pication:TYR:161>  (262) 
1

>  <hbond:PRO:131>  (262) 
0

>  <hbond:LEU:128>  (262) 
0

>  <saltbridge:ASP:129>  (262) 
0

>  <hbond:THR:134>  (262) 
0

>  <pication:HIS:51>  (262) 
0

>  <hbond:SER:81>  (262) 
0

>  <hbond:GLY:159>  (262) 
0

>  <hydroph_interaction:PRO:101>  (262) 
0

>  <hydroph_interaction:THR:134>  (262) 
0

>  <hbond:GLY:82>  (262) 
0

>  <hydroph_interaction:GLU:104>  (262) 
0

>  <hydroph_interaction:VAL:36>  (262) 
0

>  <hydroph_interaction:MET:49>  (262) 
0

>  <halogenbond:GLU:104>  (262) 
0

>  <hydroph_interaction:LYS:107>  (262) 
0

$$$$
VELKSSCVUCTETM-UHFFFAOYSA-N
     RDKit          3D

 26 27  0  0  0  0  0  0  0  0999 V2000
   -5.9620    5.4980  -17.8080 N   0  0  0  0  0  0  0  0  0  0  0  0
   -5.1170    5.3390  -16.6480 C   0  0  0  0  0  0  0  0  0  0  0  0
   -3.8140    4.9550  -17.0650 O   0  0  0  0  0  0  0  0  0  0  0  0
   -2.9830    4.7160  -15.9450 C   0  0  0  0  0  0  0  0  0  0  0  0
   -5.2710    5.7310  -19.0900 C   0  0  0  0  0  0  0  0  0  0  0  0
   -5.8900    5.2640  -20.2440 C   0  0  0  0  0  0  0  0  0  0  0  0
   -5.2620    4.9570  -21.2560 O   0  0  0  0  0  0  0  0  0  0  0  0
   -7.2520    5.1670  -20.2320 N   0  0  0  0  0  0  0  0  0  0  0  0
   -7.9790    5.0770  -19.0510 C   0  0  0  0  0  0  0  0  0  0  0  0
   -7.3340    5.2420  -17.8210 C   0  0  0  0  0  0  0  0  0  0  0  0
   -8.1320    5.1370  -16.6740 C   0  0  0  0  0  0  0  0  0  0  0  0
   -9.5050    4.8820  -16.7640 C   0  0  0  0  0  0  0  0  0  0  0  0
  -10.1120    4.7260  -18.0070 C   0  0  0  0  0  0  0  0  0  0  0  0
   -9.3410    4.8250  -19.1540 C   0  0  0  0  0  0  0  0  0  0  0  0
   -5.5370    4.6120  -15.9440 H   0  0  0  0  0  0  0  0  0  0  0  0
   -5.0510    6.2920  -16.1080 H   0  0  0  0  0  0  0  0  0  0  0  0
   -3.2880    5.3890  -15.1390 H   0  0  0  0  0  0  0  0  0  0  0  0
   -1.9380    4.9200  -16.1910 H   0  0  0  0  0  0  0  0  0  0  0  0
   -3.0930    3.6860  -15.5950 H   0  0  0  0  0  0  0  0  0  0  0  0
   -4.2890    5.2440  -19.0480 H   0  0  0  0  0  0  0  0  0  0  0  0
   -5.1140    6.8080  -19.2280 H   0  0  0  0  0  0  0  0  0  0  0  0
   -7.7140    5.5590  -21.0410 H   0  0  0  0  0  0  0  0  0  0  0  0
   -7.7100    5.2510  -15.6800 H   0  0  0  0  0  0  0  0  0  0  0  0
  -10.0990    4.8050  -15.8550 H   0  0  0  0  0  0  0  0  0  0  0  0
  -11.1760    4.5310  -18.0820 H   0  0  0  0  0  0  0  0  0  0  0  0
   -9.7990    4.7080  -20.1260 H   0  0  0  0  0  0  0  0  0  0  0  0
  1  2  1  0
  2  3  1  0
  3  4  1  0
  1  5  1  0
  5  6  1  0
  6  7  2  0
  6  8  1  0
  8  9  1  0
  9 10  2  0
 10 11  1  0
 11 12  2  0
 12 13  1  0
 13 14  2  0
 10  1  1  0
 14  9  1  0
  2 15  1  0
  2 16  1  0
  4 17  1  0
  4 18  1  0
  4 19  1  0
  5 20  1  0
  5 21  1  0
  8 22  1  0
 11 23  1  0
 12 24  1  0
 13 25  1  0
 14 26  1  0
A    1
 N1 
A    2
 C1 
A    3
 O1 
A    4
 C2 
A    5
 C3 
A    6
 C4 
A    7
 O2 
A    8
 N2 
A    9
 C5 
A   10
 C6 
A   11
 C7 
A   12
 C8 
A   13
 C9 
A   14
 C10
A   15
 H1 
A   16
 H2 
A   17
 H3 
A   18
 H4 
A   19
 H5 
A   20
 H6 
A   21
 H7 
A   22
 H8 
A   23
 H9 
A   24
 H10
A   25
 H11
A   26
 H12
M  END
>  <ref_pdb>  (263) 
x0051_0B

>  <ref_mols>  (263) 
x0443_0B,x0490_0B

>  <original SMILES>  (263) 
[H]c1c([H])c([H])c2c(c1[H])N([H])C(=O)C([H])([H])N2C([H])([H])OC([H])([H])[H]

>  <index>  (263) 
513

>  <∆∆G>  (263) 
-6.740448

>  <∆G_bound>  (263) 
-6.63515

>  <∆G_unbound>  (263) 
0.105298

>  <comRMSD>  (263) 
0.508709

>  <N_constrained_atoms>  (263) 
12.0

>  <N_unconstrained_atoms>  (263) 
2.0

>  <runtime>  (263) 
28.728522

>  <LE>  (263) 
0.481461

>  <percent_hybrid>  (263) 
50.0

>  <dist>  (263) 
4.0

>  <ecfp4>  (263) 
0.211538

>  <daylight>  (263) 
0.088889

>  <topodist>  (263) 
2.0

>  <mces>  (263) 
13.0

>  <tdn>  (263) 
0.0

>  <tup>  (263) 
0.0

>  <rdn>  (263) 
0.0

>  <rup>  (263) 
0.0

>  <ldn>  (263) 
0.0

>  <lup>  (263) 
2.0

>  <mut>  (263) 
1.0

>  <maj>  (263) 
1.0

>  <min>  (263) 
0.0

>  <hyb>  (263) 
1.0

>  <sub>  (263) 
0.0

>  <query_index>  (263) 
234.0

>  <max_hit_Tanimoto>  (263) 
0.122253

>  <largest_ring>  (263) 
6

>  <N_interactions_kept>  (263) 
2.0

>  <N_interactions_lost>  (263) 
2.0

>  <interaction_uniqueness_metric>  (263) 
0.102329

>  <ad_hoc_penalty>  (263) 
-22.16609

>  <N_rotatable_bonds>  (263) 
3

>  <N_HA>  (263) 
14

>  <cluster>  (263) 
5751

>  <N_interactions>  (263) 
6

>  <Enamine>  (263) 
0

>  <Mcule>  (263) 
1

>  <N_PAINS>  (263) 
0

>  <UFF_Gibbs>  (263) 
36.737276

>  <strain_per_HA>  (263) 
2.624091

>  <saltbridge:HIS:51>  (263) 
0

>  <pistack:HIS:51>  (263) 
0

>  <hydroph_interaction:HIS:51>  (263) 
0

>  <hbond:ALA:132>  (263) 
0

>  <hbond:SER:135>  (263) 
0

>  <hydroph_interaction:TYR:150>  (263) 
1

>  <pistack:TYR:161>  (263) 
0

>  <hydroph_interaction:TYR:161>  (263) 
2

>  <hydroph_interaction:ASP:83>  (263) 
0

>  <hbond:TYR:130>  (263) 
2

>  <hydroph_interaction:ALA:132>  (263) 
0

>  <hbond:HIS:51>  (263) 
0

>  <hbond:ASP:129>  (263) 
1

>  <hbond:TYR:150>  (263) 
0

>  <hbond:GLY:151>  (263) 
0

>  <hbond:TYR:161>  (263) 
0

>  <hydroph_interaction:TYR:130>  (263) 
0

>  <hydroph_interaction:PRO:131>  (263) 
0

>  <hydroph_interaction:ASP:129>  (263) 
0

>  <saltbridge:ASP:75>  (263) 
0

>  <saltbridge:ASP:83>  (263) 
0

>  <hydroph_interaction:ASN:152>  (263) 
0

>  <halogenbond:TYR:150>  (263) 
0

>  <hbond:ASP:83>  (263) 
0

>  <hydroph_interaction:VAL:155>  (263) 
0

>  <pication:TYR:161>  (263) 
0

>  <hbond:PRO:131>  (263) 
0

>  <hbond:LEU:128>  (263) 
0

>  <saltbridge:ASP:129>  (263) 
0

>  <hbond:THR:134>  (263) 
0

>  <pication:HIS:51>  (263) 
0

>  <hbond:SER:81>  (263) 
0

>  <hbond:GLY:159>  (263) 
0

>  <hydroph_interaction:PRO:101>  (263) 
0

>  <hydroph_interaction:THR:134>  (263) 
0

>  <hbond:GLY:82>  (263) 
0

>  <hydroph_interaction:GLU:104>  (263) 
0

>  <hydroph_interaction:VAL:36>  (263) 
0

>  <hydroph_interaction:MET:49>  (263) 
0

>  <halogenbond:GLU:104>  (263) 
0

>  <hydroph_interaction:LYS:107>  (263) 
0

$$$$
CSSB00013921274
     RDKit          3D

 18 19  0  0  0  0  0  0  0  0999 V2000
   -9.7720    5.7600  -14.5180 I   0  0  0  0  0  0  0  0  0  0  0  0
   -9.0870    5.3110  -16.4290 C   0  0  0  0  0  0  0  0  0  0  0  0
   -7.7250    5.5560  -16.7050 N   0  0  0  0  0  0  0  0  0  0  0  0
   -7.6450    5.1630  -18.0230 C   0  0  0  0  0  0  0  0  0  0  0  0
   -8.8660    4.6850  -18.6010 C   0  0  0  0  0  0  0  0  0  0  0  0
   -9.7920    4.7860  -17.5470 O   0  0  0  0  0  0  0  0  0  0  0  0
   -6.3580    5.2360  -18.7780 C   0  0  0  0  0  0  0  0  0  0  0  0
   -5.2030    5.3700  -17.9950 C   0  0  0  0  0  0  0  0  0  0  0  0
   -3.9640    5.4490  -18.6130 C   0  0  0  0  0  0  0  0  0  0  0  0
   -3.8860    5.3950  -20.0040 C   0  0  0  0  0  0  0  0  0  0  0  0
   -5.0340    5.2590  -20.8050 C   0  0  0  0  0  0  0  0  0  0  0  0
   -6.2690    5.1800  -20.1710 C   0  0  0  0  0  0  0  0  0  0  0  0
   -9.2070    4.3040  -19.5540 H   0  0  0  0  0  0  0  0  0  0  0  0
   -5.2470    5.4130  -16.9110 H   0  0  0  0  0  0  0  0  0  0  0  0
   -3.0590    5.5530  -18.0170 H   0  0  0  0  0  0  0  0  0  0  0  0
   -2.8770    5.4640  -20.4430 H   0  0  0  0  0  0  0  0  0  0  0  0
   -4.9620    5.2140  -21.8850 H   0  0  0  0  0  0  0  0  0  0  0  0
   -7.1680    5.0740  -20.7750 H   0  0  0  0  0  0  0  0  0  0  0  0
  1  2  1  0
  2  3  2  0
  3  4  1  0
  4  5  2  0
  5  6  1  0
  4  7  1  0
  7  8  2  0
  8  9  1  0
  9 10  2  0
 10 11  1  0
 11 12  2  0
  6  2  1  0
 12  7  1  0
  5 13  1  0
  8 14  1  0
  9 15  1  0
 10 16  1  0
 11 17  1  0
 12 18  1  0
A    1
 I1 
A    2
 C1 
A    3
 N1 
A    4
 C2 
A    5
 C3 
A    6
 O1 
A    7
 C4 
A    8
 C5 
A    9
 C6 
A   10
 C7 
A   11
 C8 
A   12
 C9 
A   13
 H1 
A   14
 H2 
A   15
 H3 
A   16
 H4 
A   17
 H5 
A   18
 H6 
M  END
>  <ref_pdb>  (264) 
x0051_0B

>  <ref_mols>  (264) 
x0680_0B,x0386_0B

>  <original SMILES>  (264) 
[H]c1oc(I)nc1-c1c([H])c([H])c([H])c([H])c1[H]

>  <index>  (264) 
470

>  <∆∆G>  (264) 
-5.065631

>  <∆G_bound>  (264) 
-5.024235

>  <∆G_unbound>  (264) 
0.041395

>  <comRMSD>  (264) 
0.804919

>  <N_constrained_atoms>  (264) 
12.0

>  <N_unconstrained_atoms>  (264) 
1.0

>  <runtime>  (264) 
29.884859

>  <LE>  (264) 
0.389664

>  <percent_hybrid>  (264) 
17.0

>  <dist>  (264) 
3.0

>  <ecfp4>  (264) 
0.183673

>  <daylight>  (264) 
0.467213

>  <topodist>  (264) 
2.0

>  <mces>  (264) 
12.0

>  <tdn>  (264) 
1.0

>  <tup>  (264) 
1.0

>  <rdn>  (264) 
0.0

>  <rup>  (264) 
0.0

>  <ldn>  (264) 
0.0

>  <lup>  (264) 
0.0

>  <mut>  (264) 
1.0

>  <maj>  (264) 
1.0

>  <min>  (264) 
0.0

>  <hyb>  (264) 
0.0

>  <sub>  (264) 
2.0

>  <query_index>  (264) 
296.0

>  <max_hit_Tanimoto>  (264) 
0.121372

>  <largest_ring>  (264) 
0

>  <N_interactions_kept>  (264) 
3.5

>  <N_interactions_lost>  (264) 
0.5

>  <interaction_uniqueness_metric>  (264) 
0.016266

>  <ad_hoc_penalty>  (264) 
-22.131437

>  <N_rotatable_bonds>  (264) 
1

>  <N_HA>  (264) 
12

>  <cluster>  (264) 
5791

>  <N_interactions>  (264) 
3

>  <Enamine>  (264) 
1

>  <Mcule>  (264) 
0

>  <N_PAINS>  (264) 
0

>  <UFF_Gibbs>  (264) 
28.945695

>  <strain_per_HA>  (264) 
2.412141

>  <saltbridge:HIS:51>  (264) 
0

>  <pistack:HIS:51>  (264) 
0

>  <hydroph_interaction:HIS:51>  (264) 
0

>  <hbond:ALA:132>  (264) 
0

>  <hbond:SER:135>  (264) 
0

>  <hydroph_interaction:TYR:150>  (264) 
0

>  <pistack:TYR:161>  (264) 
0

>  <hydroph_interaction:TYR:161>  (264) 
3

>  <hydroph_interaction:ASP:83>  (264) 
0

>  <hbond:TYR:130>  (264) 
0

>  <hydroph_interaction:ALA:132>  (264) 
0

>  <hbond:HIS:51>  (264) 
0

>  <hbond:ASP:129>  (264) 
0

>  <hbond:TYR:150>  (264) 
0

>  <hbond:GLY:151>  (264) 
0

>  <hbond:TYR:161>  (264) 
0

>  <hydroph_interaction:TYR:130>  (264) 
0

>  <hydroph_interaction:PRO:131>  (264) 
0

>  <hydroph_interaction:ASP:129>  (264) 
0

>  <saltbridge:ASP:75>  (264) 
0

>  <saltbridge:ASP:83>  (264) 
0

>  <hydroph_interaction:ASN:152>  (264) 
0

>  <halogenbond:TYR:150>  (264) 
0

>  <hbond:ASP:83>  (264) 
0

>  <hydroph_interaction:VAL:155>  (264) 
0

>  <pication:TYR:161>  (264) 
0

>  <hbond:PRO:131>  (264) 
0

>  <hbond:LEU:128>  (264) 
0

>  <saltbridge:ASP:129>  (264) 
0

>  <hbond:THR:134>  (264) 
0

>  <pication:HIS:51>  (264) 
0

>  <hbond:SER:81>  (264) 
0

>  <hbond:GLY:159>  (264) 
0

>  <hydroph_interaction:PRO:101>  (264) 
0

>  <hydroph_interaction:THR:134>  (264) 
0

>  <hbond:GLY:82>  (264) 
0

>  <hydroph_interaction:GLU:104>  (264) 
0

>  <hydroph_interaction:VAL:36>  (264) 
0

>  <hydroph_interaction:MET:49>  (264) 
0

>  <halogenbond:GLU:104>  (264) 
0

>  <hydroph_interaction:LYS:107>  (264) 
0

$$$$
Z2761221075
     RDKit          3D

 41 43  0  0  0  0  0  0  0  0999 V2000
  -10.5370    4.5760  -18.4360 C   0  0  0  0  0  0  0  0  0  0  0  0
   -9.3140    4.9900  -17.6530 C   0  0  0  0  0  0  0  0  0  0  0  0
   -8.0850    5.0580  -18.5680 C   0  0  0  0  0  0  0  0  0  0  0  0
   -6.8970    5.4400  -17.9600 C   0  0  0  0  0  0  0  0  0  0  0  0
   -5.7390    5.5210  -18.7340 C   0  0  0  0  0  0  0  0  0  0  0  0
   -6.8560    5.7490  -16.5790 C   0  0  0  0  0  0  0  0  0  0  0  0
   -7.9950    5.6910  -15.7330 C   0  0  0  0  0  0  0  0  0  0  0  0
   -7.8160    6.0600  -14.3900 C   0  0  0  0  0  0  0  0  0  0  0  0
   -7.6320    7.2530  -14.1690 O   0  0  0  0  0  0  0  0  0  0  0  0
   -7.8410    5.1480  -13.3260 N   0  0  0  0  0  0  0  0  0  0  0  0
   -9.0410    4.9600  -12.5160 C   0  0  0  0  0  0  0  0  0  0  0  0
   -8.9480    5.2990  -11.0920 C   0  0  0  0  0  0  0  0  0  0  0  0
   -9.0410    4.5120   -9.9710 C   0  0  0  0  0  0  0  0  0  0  0  0
   -9.2390    3.0460  -10.2390 C   0  0  0  0  0  0  0  0  0  0  0  0
   -9.0140    2.1640   -9.1080 N   0  0  0  0  0  0  0  0  0  0  0  0
   -9.6400    2.6860   -7.9070 C   0  0  0  0  0  0  0  0  0  0  0  0
   -9.1170    3.9380   -7.6430 C   0  0  0  0  0  0  0  0  0  0  0  0
   -9.0000    4.7340   -8.8610 N   0  0  0  0  0  0  0  0  0  0  0  0
   -8.7990    6.0960   -8.8800 N   0  0  0  0  0  0  0  0  0  0  0  0
   -8.7680    6.4480  -10.2460 C   0  0  0  0  0  0  0  0  0  0  0  0
   -9.2340    5.2980  -16.2840 C   0  0  0  0  0  0  0  0  0  0  0  0
  -10.3150    3.6230  -18.9010 H   0  0  0  0  0  0  0  0  0  0  0  0
  -10.7690    5.2990  -19.2280 H   0  0  0  0  0  0  0  0  0  0  0  0
  -11.4200    4.4530  -17.8200 H   0  0  0  0  0  0  0  0  0  0  0  0
   -8.1300    4.8250  -19.6300 H   0  0  0  0  0  0  0  0  0  0  0  0
   -5.5180    6.5740  -18.9320 H   0  0  0  0  0  0  0  0  0  0  0  0
   -5.9390    5.0400  -19.6990 H   0  0  0  0  0  0  0  0  0  0  0  0
   -4.8160    5.0940  -18.3520 H   0  0  0  0  0  0  0  0  0  0  0  0
   -5.9040    6.0500  -16.1480 H   0  0  0  0  0  0  0  0  0  0  0  0
   -7.1270    4.4370  -13.2650 H   0  0  0  0  0  0  0  0  0  0  0  0
   -9.4010    3.9300  -12.6190 H   0  0  0  0  0  0  0  0  0  0  0  0
   -9.8020    5.5950  -12.9810 H   0  0  0  0  0  0  0  0  0  0  0  0
   -8.5530    2.7480  -11.0350 H   0  0  0  0  0  0  0  0  0  0  0  0
  -10.2320    2.8150  -10.6100 H   0  0  0  0  0  0  0  0  0  0  0  0
   -8.0110    2.1560   -8.9690 H   0  0  0  0  0  0  0  0  0  0  0  0
  -10.6970    2.7820   -8.0970 H   0  0  0  0  0  0  0  0  0  0  0  0
   -9.5610    1.9260   -7.1360 H   0  0  0  0  0  0  0  0  0  0  0  0
   -8.1120    3.8720   -7.2170 H   0  0  0  0  0  0  0  0  0  0  0  0
   -9.7580    4.4780   -6.9500 H   0  0  0  0  0  0  0  0  0  0  0  0
   -8.6260    7.4820  -10.5340 H   0  0  0  0  0  0  0  0  0  0  0  0
  -10.1280    5.2390  -15.6680 H   0  0  0  0  0  0  0  0  0  0  0  0
  1  2  1  0
  2  3  2  0
  3  4  1  0
  4  5  1  0
  4  6  2  0
  6  7  1  0
  7  8  1  0
  8  9  2  0
  8 10  1  0
 10 11  1  0
 11 12  1  0
 12 13  2  0
 13 14  1  0
 14 15  1  0
 15 16  1  0
 16 17  1  0
 17 18  1  0
 18 19  1  0
 19 20  2  0
  7 21  2  0
 21  2  1  0
 20 12  1  0
 18 13  1  0
  1 22  1  0
  1 23  1  0
  1 24  1  0
  3 25  1  0
  5 26  1  0
  5 27  1  0
  5 28  1  0
  6 29  1  0
 10 30  1  0
 11 31  1  0
 11 32  1  0
 14 33  1  0
 14 34  1  0
 15 35  1  0
 16 36  1  0
 16 37  1  0
 17 38  1  0
 17 39  1  0
 20 40  1  0
 21 41  1  0
A    1
 C1 
A    2
 C2 
A    3
 C3 
A    4
 C4 
A    5
 C5 
A    6
 C6 
A    7
 C7 
A    8
 C8 
A    9
 O1 
A   10
 N1 
A   11
 C9 
A   12
 C10
A   13
 C11
A   14
 C12
A   15
 N2 
A   16
 C13
A   17
 C14
A   18
 N3 
A   19
 N4 
A   20
 C15
A   21
 C16
A   22
 H1 
A   23
 H2 
A   24
 H3 
A   25
 H4 
A   26
 H5 
A   27
 H6 
A   28
 H7 
A   29
 H8 
A   30
 H9 
A   31
 H10
A   32
 H11
A   33
 H12
A   34
 H13
A   35
 H14
A   36
 H15
A   37
 H16
A   38
 H17
A   39
 H18
A   40
 H19
A   41
 H20
M  END
>  <ref_pdb>  (265) 
x0051_0B

>  <ref_mols>  (265) 
x0589_0B,x0969_1B

>  <original SMILES>  (265) 
[H]c1nn2c(c1C([H])([H])N([H])C(=O)c1c([H])c(C([H])([H])[H])c([H])c(C([H])([H])[H])c1[H])C([H])([H])N([H])C([H])([H])C2([H])[H]

>  <index>  (265) 
324

>  <∆∆G>  (265) 
-7.237126

>  <∆G_bound>  (265) 
-6.821553

>  <∆G_unbound>  (265) 
0.415573

>  <comRMSD>  (265) 
0.549176

>  <N_constrained_atoms>  (265) 
18.0

>  <N_unconstrained_atoms>  (265) 
3.0

>  <runtime>  (265) 
62.457753

>  <LE>  (265) 
0.344625

>  <percent_hybrid>  (265) 
45.0

>  <dist>  (265) 
4.0

>  <ecfp4>  (265) 
0.5

>  <daylight>  (265) 
0.538117

>  <topodist>  (265) 
1.0

>  <mces>  (265) 
22.0

>  <tdn>  (265) 
0.0

>  <tup>  (265) 
1.0

>  <rdn>  (265) 
0.0

>  <rup>  (265) 
0.0

>  <ldn>  (265) 
0.0

>  <lup>  (265) 
0.0

>  <mut>  (265) 
3.0

>  <maj>  (265) 
3.0

>  <min>  (265) 
0.0

>  <hyb>  (265) 
0.0

>  <sub>  (265) 
0.0

>  <query_index>  (265) 
379.0

>  <max_hit_Tanimoto>  (265) 
0.639077

>  <largest_ring>  (265) 
0

>  <N_interactions_kept>  (265) 
0.5

>  <N_interactions_lost>  (265) 
2.0

>  <interaction_uniqueness_metric>  (265) 
0.256596

>  <ad_hoc_penalty>  (265) 
-22.117771

>  <N_rotatable_bonds>  (265) 
5

>  <N_HA>  (265) 
21

>  <cluster>  (265) 
5924

>  <N_interactions>  (265) 
7

>  <Enamine>  (265) 
1

>  <Mcule>  (265) 
0

>  <N_PAINS>  (265) 
0

>  <UFF_Gibbs>  (265) 
156.756726

>  <strain_per_HA>  (265) 
7.464606

>  <saltbridge:HIS:51>  (265) 
0

>  <pistack:HIS:51>  (265) 
1

>  <hydroph_interaction:HIS:51>  (265) 
0

>  <hbond:ALA:132>  (265) 
0

>  <hbond:SER:135>  (265) 
0

>  <hydroph_interaction:TYR:150>  (265) 
1

>  <pistack:TYR:161>  (265) 
1

>  <hydroph_interaction:TYR:161>  (265) 
1

>  <hydroph_interaction:ASP:83>  (265) 
0

>  <hbond:TYR:130>  (265) 
0

>  <hydroph_interaction:ALA:132>  (265) 
1

>  <hbond:HIS:51>  (265) 
0

>  <hbond:ASP:129>  (265) 
0

>  <hbond:TYR:150>  (265) 
0

>  <hbond:GLY:151>  (265) 
0

>  <hbond:TYR:161>  (265) 
1

>  <hydroph_interaction:TYR:130>  (265) 
0

>  <hydroph_interaction:PRO:131>  (265) 
0

>  <hydroph_interaction:ASP:129>  (265) 
0

>  <saltbridge:ASP:75>  (265) 
0

>  <saltbridge:ASP:83>  (265) 
0

>  <hydroph_interaction:ASN:152>  (265) 
0

>  <halogenbond:TYR:150>  (265) 
0

>  <hbond:ASP:83>  (265) 
1

>  <hydroph_interaction:VAL:155>  (265) 
0

>  <pication:TYR:161>  (265) 
0

>  <hbond:PRO:131>  (265) 
0

>  <hbond:LEU:128>  (265) 
0

>  <saltbridge:ASP:129>  (265) 
0

>  <hbond:THR:134>  (265) 
0

>  <pication:HIS:51>  (265) 
0

>  <hbond:SER:81>  (265) 
0

>  <hbond:GLY:159>  (265) 
0

>  <hydroph_interaction:PRO:101>  (265) 
0

>  <hydroph_interaction:THR:134>  (265) 
0

>  <hbond:GLY:82>  (265) 
0

>  <hydroph_interaction:GLU:104>  (265) 
0

>  <hydroph_interaction:VAL:36>  (265) 
0

>  <hydroph_interaction:MET:49>  (265) 
0

>  <halogenbond:GLU:104>  (265) 
0

>  <hydroph_interaction:LYS:107>  (265) 
0

$$$$
PV-006888971551
     RDKit          3D

 52 55  0  0  0  0  0  0  0  0999 V2000
   -3.9750    5.0980  -18.4100 C   0  0  0  0  0  0  0  0  0  0  0  0
   -3.9180    5.3210  -19.8970 C   0  0  0  0  0  0  0  0  0  0  0  0
   -2.6630    5.4830  -20.5060 C   0  0  0  0  0  0  0  0  0  0  0  0
   -2.6240    5.7000  -21.9680 N   0  0  0  0  0  0  0  0  0  0  0  0
   -3.8630    5.7440  -22.7720 C   0  0  0  0  0  0  0  0  0  0  0  0
   -5.0270    5.5680  -22.0560 C   0  0  0  0  0  0  0  0  0  0  0  0
   -5.0760    5.3630  -20.6820 C   0  0  0  0  0  0  0  0  0  0  0  0
   -6.4170    5.1710  -19.9830 C   0  0  0  0  0  0  0  0  0  0  0  0
   -7.3060    4.5260  -20.5490 O   0  0  0  0  0  0  0  0  0  0  0  0
   -6.5890    5.7150  -18.7160 N   0  0  0  0  0  0  0  0  0  0  0  0
   -7.7800    5.3980  -17.9350 C   0  0  0  0  0  0  0  0  0  0  0  0
   -7.7660    5.6510  -16.5330 C   0  0  0  0  0  0  0  0  0  0  0  0
   -8.9320    5.3510  -15.7790 C   0  0  0  0  0  0  0  0  0  0  0  0
   -9.2310    5.5310  -14.3750 C   0  0  0  0  0  0  0  0  0  0  0  0
   -8.3860    5.0270  -13.2980 N   0  0  0  0  0  0  0  0  0  0  0  0
   -8.1060    5.9220  -12.2670 C   0  0  0  0  0  0  0  0  0  0  0  0
   -7.5410    6.9710  -12.5650 O   0  0  0  0  0  0  0  0  0  0  0  0
   -8.4460    5.7240  -10.7500 C   0  0  0  0  0  0  0  0  0  0  0  0
   -8.7210    4.4540   -9.9790 C   0  0  0  0  0  0  0  0  0  0  0  0
   -8.7530    3.0240  -10.4920 C   0  0  0  0  0  0  0  0  0  0  0  0
   -8.5670    2.1980   -9.2350 C   0  0  0  0  0  0  0  0  0  0  0  0
   -9.5490    2.6200   -8.1320 C   0  0  0  0  0  0  0  0  0  0  0  0
   -9.2140    3.8820   -7.5950 C   0  0  0  0  0  0  0  0  0  0  0  0
   -8.9330    4.8130   -8.6830 N   0  0  0  0  0  0  0  0  0  0  0  0
   -8.8510    6.1500   -8.4890 N   0  0  0  0  0  0  0  0  0  0  0  0
   -8.5660    6.6900   -9.7070 C   0  0  0  0  0  0  0  0  0  0  0  0
   -9.9880    4.8150  -16.4860 C   0  0  0  0  0  0  0  0  0  0  0  0
   -9.9890    4.5840  -17.8540 C   0  0  0  0  0  0  0  0  0  0  0  0
   -8.8800    4.8730  -18.5910 C   0  0  0  0  0  0  0  0  0  0  0  0
   -4.9370    4.6760  -18.1100 H   0  0  0  0  0  0  0  0  0  0  0  0
   -3.8260    6.0440  -17.8810 H   0  0  0  0  0  0  0  0  0  0  0  0
   -3.2020    4.3910  -18.0940 H   0  0  0  0  0  0  0  0  0  0  0  0
   -1.7200    5.4570  -19.9600 H   0  0  0  0  0  0  0  0  0  0  0  0
   -3.8060    5.9060  -23.8540 H   0  0  0  0  0  0  0  0  0  0  0  0
   -5.9170    5.6070  -22.6990 H   0  0  0  0  0  0  0  0  0  0  0  0
   -5.7530    5.9260  -18.1860 H   0  0  0  0  0  0  0  0  0  0  0  0
   -6.9000    6.0710  -16.0320 H   0  0  0  0  0  0  0  0  0  0  0  0
   -9.4030    6.6000  -14.2040 H   0  0  0  0  0  0  0  0  0  0  0  0
  -10.2050    5.0590  -14.1940 H   0  0  0  0  0  0  0  0  0  0  0  0
   -8.4230    4.0370  -13.1130 H   0  0  0  0  0  0  0  0  0  0  0  0
   -7.9300    2.8470  -11.1950 H   0  0  0  0  0  0  0  0  0  0  0  0
   -9.7070    2.7720  -10.9680 H   0  0  0  0  0  0  0  0  0  0  0  0
   -7.5480    2.3430   -8.8710 H   0  0  0  0  0  0  0  0  0  0  0  0
   -8.6650    1.1490   -9.4620 H   0  0  0  0  0  0  0  0  0  0  0  0
   -9.5420    1.8670   -7.3360 H   0  0  0  0  0  0  0  0  0  0  0  0
  -10.5670    2.6490   -8.5320 H   0  0  0  0  0  0  0  0  0  0  0  0
  -10.0630    4.2730   -7.0270 H   0  0  0  0  0  0  0  0  0  0  0  0
   -8.3410    3.9360   -6.9470 H   0  0  0  0  0  0  0  0  0  0  0  0
   -8.4510    7.7650   -9.7920 H   0  0  0  0  0  0  0  0  0  0  0  0
  -10.8620    4.5650  -15.9210 H   0  0  0  0  0  0  0  0  0  0  0  0
  -10.8770    4.1700  -18.3350 H   0  0  0  0  0  0  0  0  0  0  0  0
   -8.8880    4.6870  -19.6610 H   0  0  0  0  0  0  0  0  0  0  0  0
  1  2  1  0
  2  3  2  0
  3  4  1  0
  4  5  2  0
  5  6  1  0
  6  7  2  0
  7  8  1  0
  8  9  2  0
  8 10  1  0
 10 11  1  0
 11 12  2  0
 12 13  1  0
 13 14  1  0
 14 15  1  0
 15 16  1  0
 16 17  2  0
 16 18  1  0
 18 19  2  0
 19 20  1  0
 20 21  1  0
 21 22  1  0
 22 23  1  0
 23 24  1  0
 24 25  1  0
 25 26  2  0
 13 27  2  0
 27 28  1  0
 28 29  2  0
  7  2  1  0
 29 11  1  0
 26 18  1  0
 24 19  1  0
  1 30  1  0
  1 31  1  0
  1 32  1  0
  3 33  1  0
  5 34  1  0
  6 35  1  0
 10 36  1  0
 12 37  1  0
 14 38  1  0
 14 39  1  0
 15 40  1  0
 20 41  1  0
 20 42  1  0
 21 43  1  0
 21 44  1  0
 22 45  1  0
 22 46  1  0
 23 47  1  0
 23 48  1  0
 26 49  1  0
 27 50  1  0
 28 51  1  0
 29 52  1  0
A    1
 C1 
A    2
 C2 
A    3
 C3 
A    4
 N1 
A    5
 C4 
A    6
 C5 
A    7
 C6 
A    8
 C7 
A    9
 O1 
A   10
 N2 
A   11
 C8 
A   12
 C9 
A   13
 C10
A   14
 C11
A   15
 N3 
A   16
 C12
A   17
 O2 
A   18
 C13
A   19
 C14
A   20
 C15
A   21
 C16
A   22
 C17
A   23
 C18
A   24
 N4 
A   25
 N5 
A   26
 C19
A   27
 C20
A   28
 C21
A   29
 C22
A   30
 H1 
A   31
 H2 
A   32
 H3 
A   33
 H4 
A   34
 H5 
A   35
 H6 
A   36
 H7 
A   37
 H8 
A   38
 H9 
A   39
 H10
A   40
 H11
A   41
 H12
A   42
 H13
A   43
 H14
A   44
 H15
A   45
 H16
A   46
 H17
A   47
 H18
A   48
 H19
A   49
 H20
A   50
 H21
A   51
 H22
A   52
 H23
M  END
>  <ref_pdb>  (266) 
x0051_0B

>  <ref_mols>  (266) 
x0852_0B,x0969_1B

>  <original SMILES>  (266) 
[H]c1nc([H])c(C([H])([H])[H])c(C(=O)N([H])c2c([H])c([H])c([H])c(C([H])([H])N([H])C(=O)c3c([H])nn4c3C([H])([H])C([H])([H])C([H])([H])C4([H])[H])c2[H])c1[H]

>  <index>  (266) 
187

>  <∆∆G>  (266) 
-8.567987

>  <∆G_bound>  (266) 
-7.633201

>  <∆G_unbound>  (266) 
0.934786

>  <comRMSD>  (266) 
0.430471

>  <N_constrained_atoms>  (266) 
28.0

>  <N_unconstrained_atoms>  (266) 
3.0

>  <runtime>  (266) 
65.533433

>  <LE>  (266) 
0.276387

>  <percent_hybrid>  (266) 
36.0

>  <dist>  (266) 
8.0

>  <ecfp4>  (266) 
0.346535

>  <daylight>  (266) 
0.384615

>  <topodist>  (266) 
3.0

>  <mces>  (266) 
31.0

>  <tdn>  (266) 
2.0

>  <tup>  (266) 
1.0

>  <rdn>  (266) 
0.0

>  <rup>  (266) 
0.0

>  <ldn>  (266) 
0.0

>  <lup>  (266) 
0.0

>  <mut>  (266) 
4.0

>  <maj>  (266) 
4.0

>  <min>  (266) 
0.0

>  <hyb>  (266) 
1.0

>  <sub>  (266) 
2.0

>  <query_index>  (266) 
46.0

>  <max_hit_Tanimoto>  (266) 
0.34193

>  <largest_ring>  (266) 
0

>  <N_interactions_kept>  (266) 
2.5

>  <N_interactions_lost>  (266) 
3.5

>  <interaction_uniqueness_metric>  (266) 
0.27981

>  <ad_hoc_penalty>  (266) 
-22.061073

>  <N_rotatable_bonds>  (266) 
6

>  <N_HA>  (266) 
29

>  <cluster>  (266) 
6049

>  <N_interactions>  (266) 
10

>  <Enamine>  (266) 
1

>  <Mcule>  (266) 
0

>  <N_PAINS>  (266) 
0

>  <UFF_Gibbs>  (266) 
309.749683

>  <strain_per_HA>  (266) 
10.681024

>  <saltbridge:HIS:51>  (266) 
0

>  <pistack:HIS:51>  (266) 
1

>  <hydroph_interaction:HIS:51>  (266) 
0

>  <hbond:ALA:132>  (266) 
0

>  <hbond:SER:135>  (266) 
0

>  <hydroph_interaction:TYR:150>  (266) 
1

>  <pistack:TYR:161>  (266) 
1

>  <hydroph_interaction:TYR:161>  (266) 
2

>  <hydroph_interaction:ASP:83>  (266) 
1

>  <hbond:TYR:130>  (266) 
1

>  <hydroph_interaction:ALA:132>  (266) 
1

>  <hbond:HIS:51>  (266) 
0

>  <hbond:ASP:129>  (266) 
0

>  <hbond:TYR:150>  (266) 
0

>  <hbond:GLY:151>  (266) 
0

>  <hbond:TYR:161>  (266) 
1

>  <hydroph_interaction:TYR:130>  (266) 
0

>  <hydroph_interaction:PRO:131>  (266) 
0

>  <hydroph_interaction:ASP:129>  (266) 
1

>  <saltbridge:ASP:75>  (266) 
0

>  <saltbridge:ASP:83>  (266) 
0

>  <hydroph_interaction:ASN:152>  (266) 
0

>  <halogenbond:TYR:150>  (266) 
0

>  <hbond:ASP:83>  (266) 
0

>  <hydroph_interaction:VAL:155>  (266) 
0

>  <pication:TYR:161>  (266) 
0

>  <hbond:PRO:131>  (266) 
0

>  <hbond:LEU:128>  (266) 
0

>  <saltbridge:ASP:129>  (266) 
0

>  <hbond:THR:134>  (266) 
0

>  <pication:HIS:51>  (266) 
0

>  <hbond:SER:81>  (266) 
0

>  <hbond:GLY:159>  (266) 
0

>  <hydroph_interaction:PRO:101>  (266) 
0

>  <hydroph_interaction:THR:134>  (266) 
0

>  <hbond:GLY:82>  (266) 
0

>  <hydroph_interaction:GLU:104>  (266) 
0

>  <hydroph_interaction:VAL:36>  (266) 
0

>  <hydroph_interaction:MET:49>  (266) 
0

>  <halogenbond:GLU:104>  (266) 
0

>  <hydroph_interaction:LYS:107>  (266) 
0

$$$$
Z5578388557
     RDKit          3D

 40 43  0  0  0  0  0  0  0  0999 V2000
   -9.4570    4.7350  -18.5180 C   0  0  0  0  0  0  0  0  0  0  0  0
   -8.7230    5.1370  -17.3290 N   0  0  0  0  0  0  0  0  0  0  0  0
   -9.1830    5.1000  -16.0300 C   0  0  0  0  0  0  0  0  0  0  0  0
   -8.0960    5.5980  -15.1240 C   0  0  0  0  0  0  0  0  0  0  0  0
   -8.0400    5.7600  -13.6660 C   0  0  0  0  0  0  0  0  0  0  0  0
   -6.9390    6.4480  -13.2530 O   0  0  0  0  0  0  0  0  0  0  0  0
   -8.9810    5.2430  -12.7300 N   0  0  0  0  0  0  0  0  0  0  0  0
   -8.9370    5.4200  -11.2940 C   0  0  0  0  0  0  0  0  0  0  0  0
   -8.9890    4.3750  -10.3110 C   0  0  0  0  0  0  0  0  0  0  0  0
   -9.0820    3.0630  -10.3930 O   0  0  0  0  0  0  0  0  0  0  0  0
   -9.4180    2.3360   -9.1840 C   0  0  0  0  0  0  0  0  0  0  0  0
   -9.5100    2.9580   -7.9480 C   0  0  0  0  0  0  0  0  0  0  0  0
   -8.9470    4.2470   -7.8440 C   0  0  0  0  0  0  0  0  0  0  0  0
   -8.9230    4.9720   -9.0960 N   0  0  0  0  0  0  0  0  0  0  0  0
   -8.8290    6.3070   -9.1380 N   0  0  0  0  0  0  0  0  0  0  0  0
   -8.8400    6.5800  -10.4630 C   0  0  0  0  0  0  0  0  0  0  0  0
   -7.0550    5.9060  -16.0010 N   0  0  0  0  0  0  0  0  0  0  0  0
   -7.4050    5.6380  -17.2880 C   0  0  0  0  0  0  0  0  0  0  0  0
   -6.5160    5.8580  -18.3510 C   0  0  0  0  0  0  0  0  0  0  0  0
   -6.8630    6.5820  -19.4970 C   0  0  0  0  0  0  0  0  0  0  0  0
   -5.9250    6.7710  -20.5150 C   0  0  0  0  0  0  0  0  0  0  0  0
   -4.6550    6.2300  -20.3760 C   0  0  0  0  0  0  0  0  0  0  0  0
   -4.3830    5.5220  -19.2240 C   0  0  0  0  0  0  0  0  0  0  0  0
   -5.2740    5.3280  -18.2220 N   0  0  0  0  0  0  0  0  0  0  0  0
   -9.0250    5.1870  -19.4150 H   0  0  0  0  0  0  0  0  0  0  0  0
  -10.5030    5.0460  -18.4260 H   0  0  0  0  0  0  0  0  0  0  0  0
   -9.4240    3.6470  -18.6260 H   0  0  0  0  0  0  0  0  0  0  0  0
  -10.1410    4.7850  -15.6000 H   0  0  0  0  0  0  0  0  0  0  0  0
   -9.8150    4.7840  -13.0830 H   0  0  0  0  0  0  0  0  0  0  0  0
  -10.3830    1.8970   -9.3790 H   0  0  0  0  0  0  0  0  0  0  0  0
   -8.7040    1.5100   -9.1100 H   0  0  0  0  0  0  0  0  0  0  0  0
   -8.9870    2.3170   -7.2230 H   0  0  0  0  0  0  0  0  0  0  0  0
  -10.5540    2.9810   -7.6260 H   0  0  0  0  0  0  0  0  0  0  0  0
   -9.5180    4.8440   -7.1310 H   0  0  0  0  0  0  0  0  0  0  0  0
   -7.9080    4.1900   -7.5020 H   0  0  0  0  0  0  0  0  0  0  0  0
   -8.7770    7.6140  -10.7710 H   0  0  0  0  0  0  0  0  0  0  0  0
   -7.8470    6.9960  -19.6050 H   0  0  0  0  0  0  0  0  0  0  0  0
   -6.1950    7.3340  -21.4030 H   0  0  0  0  0  0  0  0  0  0  0  0
   -3.9030    6.3580  -21.1470 H   0  0  0  0  0  0  0  0  0  0  0  0
   -3.4050    5.0740  -19.0630 H   0  0  0  0  0  0  0  0  0  0  0  0
  1  2  1  0
  2  3  1  0
  3  4  2  0
  4  5  1  0
  5  6  2  0
  5  7  1  0
  7  8  1  0
  8  9  2  0
  9 10  1  0
 10 11  1  0
 11 12  1  0
 12 13  1  0
 13 14  1  0
 14 15  1  0
 15 16  2  0
  4 17  1  0
 17 18  2  0
 18 19  1  0
 19 20  2  0
 20 21  1  0
 21 22  2  0
 22 23  1  0
 23 24  2  0
 18  2  1  0
 16  8  1  0
 14  9  1  0
 24 19  1  0
  1 25  1  0
  1 26  1  0
  1 27  1  0
  3 28  1  0
  7 29  1  0
 11 30  1  0
 11 31  1  0
 12 32  1  0
 12 33  1  0
 13 34  1  0
 13 35  1  0
 16 36  1  0
 20 37  1  0
 21 38  1  0
 22 39  1  0
 23 40  1  0
A    1
 C1 
A    2
 N1 
A    3
 C2 
A    4
 C3 
A    5
 C4 
A    6
 O1 
A    7
 N2 
A    8
 C5 
A    9
 C6 
A   10
 O2 
A   11
 C7 
A   12
 C8 
A   13
 C9 
A   14
 N3 
A   15
 N4 
A   16
 C10
A   17
 N5 
A   18
 C11
A   19
 C12
A   20
 C13
A   21
 C14
A   22
 C15
A   23
 C16
A   24
 N6 
A   25
 H1 
A   26
 H2 
A   27
 H3 
A   28
 H4 
A   29
 H5 
A   30
 H6 
A   31
 H7 
A   32
 H8 
A   33
 H9 
A   34
 H10
A   35
 H11
A   36
 H12
A   37
 H13
A   38
 H14
A   39
 H15
A   40
 H16
M  END
>  <ref_pdb>  (267) 
x0051_0B

>  <ref_mols>  (267) 
x0969_1B,x0917_0B

>  <original SMILES>  (267) 
[H]c1nc(-c2nc(C(=O)N([H])c3c([H])nn4c3OC([H])([H])C([H])([H])C4([H])[H])c([H])n2C([H])([H])[H])c([H])c([H])c1[H]

>  <index>  (267) 
478

>  <∆∆G>  (267) 
-6.625252

>  <∆G_bound>  (267) 
-6.126651

>  <∆G_unbound>  (267) 
0.498601

>  <comRMSD>  (267) 
0.627309

>  <N_constrained_atoms>  (267) 
24.0

>  <N_unconstrained_atoms>  (267) 
0.0

>  <runtime>  (267) 
62.285563

>  <LE>  (267) 
0.276052

>  <percent_hybrid>  (267) 
40.0

>  <dist>  (267) 
12.0

>  <ecfp4>  (267) 
0.197917

>  <daylight>  (267) 
0.239808

>  <topodist>  (267) 
1.0

>  <mces>  (267) 
27.0

>  <tdn>  (267) 
1.0

>  <tup>  (267) 
0.0

>  <rdn>  (267) 
0.0

>  <rup>  (267) 
0.0

>  <ldn>  (267) 
0.0

>  <lup>  (267) 
0.0

>  <mut>  (267) 
6.0

>  <maj>  (267) 
6.0

>  <min>  (267) 
0.0

>  <hyb>  (267) 
5.0

>  <sub>  (267) 
0.0

>  <query_index>  (267) 
70.0

>  <max_hit_Tanimoto>  (267) 
0.263869

>  <largest_ring>  (267) 
0

>  <N_interactions_kept>  (267) 
2.5

>  <N_interactions_lost>  (267) 
1.5

>  <interaction_uniqueness_metric>  (267) 
0.138244

>  <ad_hoc_penalty>  (267) 
-22.009763

>  <N_rotatable_bonds>  (267) 
4

>  <N_HA>  (267) 
24

>  <cluster>  (267) 
5783

>  <N_interactions>  (267) 
5

>  <Enamine>  (267) 
1

>  <Mcule>  (267) 
0

>  <N_PAINS>  (267) 
0

>  <UFF_Gibbs>  (267) 
88.673646

>  <strain_per_HA>  (267) 
3.694735

>  <saltbridge:HIS:51>  (267) 
0

>  <pistack:HIS:51>  (267) 
1

>  <hydroph_interaction:HIS:51>  (267) 
1

>  <hbond:ALA:132>  (267) 
0

>  <hbond:SER:135>  (267) 
0

>  <hydroph_interaction:TYR:150>  (267) 
0

>  <pistack:TYR:161>  (267) 
1

>  <hydroph_interaction:TYR:161>  (267) 
0

>  <hydroph_interaction:ASP:83>  (267) 
0

>  <hbond:TYR:130>  (267) 
0

>  <hydroph_interaction:ALA:132>  (267) 
1

>  <hbond:HIS:51>  (267) 
0

>  <hbond:ASP:129>  (267) 
0

>  <hbond:TYR:150>  (267) 
0

>  <hbond:GLY:151>  (267) 
1

>  <hbond:TYR:161>  (267) 
0

>  <hydroph_interaction:TYR:130>  (267) 
0

>  <hydroph_interaction:PRO:131>  (267) 
0

>  <hydroph_interaction:ASP:129>  (267) 
0

>  <saltbridge:ASP:75>  (267) 
0

>  <saltbridge:ASP:83>  (267) 
0

>  <hydroph_interaction:ASN:152>  (267) 
0

>  <halogenbond:TYR:150>  (267) 
0

>  <hbond:ASP:83>  (267) 
0

>  <hydroph_interaction:VAL:155>  (267) 
0

>  <pication:TYR:161>  (267) 
0

>  <hbond:PRO:131>  (267) 
0

>  <hbond:LEU:128>  (267) 
0

>  <saltbridge:ASP:129>  (267) 
0

>  <hbond:THR:134>  (267) 
0

>  <pication:HIS:51>  (267) 
0

>  <hbond:SER:81>  (267) 
0

>  <hbond:GLY:159>  (267) 
0

>  <hydroph_interaction:PRO:101>  (267) 
0

>  <hydroph_interaction:THR:134>  (267) 
0

>  <hbond:GLY:82>  (267) 
0

>  <hydroph_interaction:GLU:104>  (267) 
0

>  <hydroph_interaction:VAL:36>  (267) 
0

>  <hydroph_interaction:MET:49>  (267) 
0

>  <halogenbond:GLU:104>  (267) 
0

>  <hydroph_interaction:LYS:107>  (267) 
0

$$$$
VRUSPTOTRNTVBE-UHFFFAOYSA-N
     RDKit          3D

 44 47  0  0  0  0  0  0  0  0999 V2000
   -8.3270    6.3310  -14.1940 C   0  0  0  0  0  0  0  0  0  0  0  0
   -8.0880    6.1970  -12.8400 N   0  0  0  0  0  0  0  0  0  0  0  0
   -8.7100    5.2600  -11.9880 C   0  0  0  0  0  0  0  0  0  0  0  0
   -8.7780    5.3480  -10.5930 C   0  0  0  0  0  0  0  0  0  0  0  0
   -8.9470    4.2800   -9.7760 C   0  0  0  0  0  0  0  0  0  0  0  0
   -8.9590    4.8620   -8.4630 N   0  0  0  0  0  0  0  0  0  0  0  0
   -9.1270    4.0040   -7.3820 C   0  0  0  0  0  0  0  0  0  0  0  0
   -9.3890    2.6780   -7.7420 C   0  0  0  0  0  0  0  0  0  0  0  0
   -8.6730    2.3100   -8.8870 C   0  0  0  0  0  0  0  0  0  0  0  0
   -9.0660    3.0960  -10.0220 O   0  0  0  0  0  0  0  0  0  0  0  0
   -8.8000    6.2180   -8.4820 N   0  0  0  0  0  0  0  0  0  0  0  0
   -8.6900    6.5250   -9.8180 C   0  0  0  0  0  0  0  0  0  0  0  0
   -8.9200    7.2700  -14.6700 O   0  0  0  0  0  0  0  0  0  0  0  0
   -7.7920    5.1810  -15.0660 C   0  0  0  0  0  0  0  0  0  0  0  0
   -8.4020    5.0850  -16.4820 C   0  0  0  0  0  0  0  0  0  0  0  0
   -7.3680    5.2940  -17.6020 C   0  0  0  0  0  0  0  0  0  0  0  0
   -7.9220    5.1910  -18.9830 C   0  0  0  0  0  0  0  0  0  0  0  0
   -9.3710    4.9080  -19.1930 C   0  0  0  0  0  0  0  0  0  0  0  0
  -10.2440    4.7360  -18.0080 C   0  0  0  0  0  0  0  0  0  0  0  0
   -9.7690    4.8220  -16.6900 C   0  0  0  0  0  0  0  0  0  0  0  0
   -5.9250    5.5770  -17.3410 C   0  0  0  0  0  0  0  0  0  0  0  0
   -5.7720    6.1000  -16.0690 C   0  0  0  0  0  0  0  0  0  0  0  0
   -6.2490    5.2300  -15.1030 C   0  0  0  0  0  0  0  0  0  0  0  0
   -7.2060    6.5520  -12.4840 H   0  0  0  0  0  0  0  0  0  0  0  0
   -9.7360    5.1210  -12.3480 H   0  0  0  0  0  0  0  0  0  0  0  0
   -8.1960    4.3150  -12.2030 H   0  0  0  0  0  0  0  0  0  0  0  0
   -8.2330    3.9140   -6.7560 H   0  0  0  0  0  0  0  0  0  0  0  0
   -9.8730    4.5110   -6.7630 H   0  0  0  0  0  0  0  0  0  0  0  0
   -9.1050    2.0960   -6.8700 H   0  0  0  0  0  0  0  0  0  0  0  0
  -10.4480    2.4410   -7.8070 H   0  0  0  0  0  0  0  0  0  0  0  0
   -7.5930    2.3970   -8.8560 H   0  0  0  0  0  0  0  0  0  0  0  0
   -8.8720    1.2770   -9.1240 H   0  0  0  0  0  0  0  0  0  0  0  0
   -8.5540    7.5630  -10.1410 H   0  0  0  0  0  0  0  0  0  0  0  0
   -8.0360    4.2660  -14.5110 H   0  0  0  0  0  0  0  0  0  0  0  0
   -7.2010    5.3340  -19.7940 H   0  0  0  0  0  0  0  0  0  0  0  0
   -9.7650    4.8360  -20.2100 H   0  0  0  0  0  0  0  0  0  0  0  0
  -11.2960    4.5350  -18.1760 H   0  0  0  0  0  0  0  0  0  0  0  0
  -10.4460    4.6850  -15.8440 H   0  0  0  0  0  0  0  0  0  0  0  0
   -5.3860    4.6810  -17.6210 H   0  0  0  0  0  0  0  0  0  0  0  0
   -5.5990    6.3530  -18.0440 H   0  0  0  0  0  0  0  0  0  0  0  0
   -4.7090    6.3080  -15.8880 H   0  0  0  0  0  0  0  0  0  0  0  0
   -6.2980    7.0610  -15.9940 H   0  0  0  0  0  0  0  0  0  0  0  0
   -5.8610    4.2280  -15.3130 H   0  0  0  0  0  0  0  0  0  0  0  0
   -5.8430    5.5160  -14.1270 H   0  0  0  0  0  0  0  0  0  0  0  0
  1  2  1  0
  2  3  1  0
  3  4  1  0
  4  5  2  0
  5  6  1  0
  6  7  1  0
  7  8  1  0
  8  9  1  0
  9 10  1  0
  6 11  1  0
 11 12  2  0
  1 13  2  0
  1 14  1  0
 14 15  1  0
 15 16  1  0
 16 17  2  0
 17 18  1  0
 18 19  2  0
 19 20  1  0
 16 21  1  0
 21 22  1  0
 22 23  1  0
 12  4  1  0
 10  5  1  0
 23 14  1  0
 20 15  2  0
  2 24  1  0
  3 25  1  0
  3 26  1  0
  7 27  1  0
  7 28  1  0
  8 29  1  0
  8 30  1  0
  9 31  1  0
  9 32  1  0
 12 33  1  0
 14 34  1  0
 17 35  1  0
 18 36  1  0
 19 37  1  0
 20 38  1  0
 21 39  1  0
 21 40  1  0
 22 41  1  0
 22 42  1  0
 23 43  1  0
 23 44  1  0
A    1
 C1 
A    2
 N1 
A    3
 C2 
A    4
 C3 
A    5
 C4 
A    6
 N2 
A    7
 C5 
A    8
 C6 
A    9
 C7 
A   10
 O1 
A   11
 N3 
A   12
 C8 
A   13
 O2 
A   14
 C9 
A   15
 C10
A   16
 C11
A   17
 C12
A   18
 C13
A   19
 C14
A   20
 C15
A   21
 C16
A   22
 C17
A   23
 C18
A   24
 H1 
A   25
 H2 
A   26
 H3 
A   27
 H4 
A   28
 H5 
A   29
 H6 
A   30
 H7 
A   31
 H8 
A   32
 H9 
A   33
 H10
A   34
 H11
A   35
 H12
A   36
 H13
A   37
 H14
A   38
 H15
A   39
 H16
A   40
 H17
A   41
 H18
A   42
 H19
A   43
 H20
A   44
 H21
M  END
>  <ref_pdb>  (268) 
x0051_0B

>  <ref_mols>  (268) 
x0969_1B,x0455_0B

>  <original SMILES>  (268) 
[H]c1nn2c(c1C([H])([H])N([H])C(=O)C1([H])c3c([H])c([H])c([H])c([H])c3C([H])([H])C([H])([H])C1([H])[H])OC([H])([H])C([H])([H])C2([H])[H]

>  <index>  (268) 
279

>  <∆∆G>  (268) 
-7.690037

>  <∆G_bound>  (268) 
-6.775607

>  <∆G_unbound>  (268) 
0.91443

>  <comRMSD>  (268) 
0.335952

>  <N_constrained_atoms>  (268) 
20.0

>  <N_unconstrained_atoms>  (268) 
3.0

>  <runtime>  (268) 
67.033165

>  <LE>  (268) 
0.334349

>  <percent_hybrid>  (268) 
50.0

>  <dist>  (268) 
7.0

>  <ecfp4>  (268) 
0.27381

>  <daylight>  (268) 
0.243316

>  <topodist>  (268) 
1.0

>  <mces>  (268) 
25.0

>  <tdn>  (268) 
0.0

>  <tup>  (268) 
1.0

>  <rdn>  (268) 
0.0

>  <rup>  (268) 
0.0

>  <ldn>  (268) 
0.0

>  <lup>  (268) 
0.0

>  <mut>  (268) 
5.0

>  <maj>  (268) 
5.0

>  <min>  (268) 
0.0

>  <hyb>  (268) 
1.0

>  <sub>  (268) 
0.0

>  <query_index>  (268) 
204.0

>  <max_hit_Tanimoto>  (268) 
0.248912

>  <largest_ring>  (268) 
0

>  <N_interactions_kept>  (268) 
1.0

>  <N_interactions_lost>  (268) 
1.5

>  <interaction_uniqueness_metric>  (268) 
0.094571

>  <ad_hoc_penalty>  (268) 
-21.983883

>  <N_rotatable_bonds>  (268) 
3

>  <N_HA>  (268) 
23

>  <cluster>  (268) 
5961

>  <N_interactions>  (268) 
5

>  <Enamine>  (268) 
0

>  <Mcule>  (268) 
1

>  <N_PAINS>  (268) 
0

>  <UFF_Gibbs>  (268) 
154.710689

>  <strain_per_HA>  (268) 
6.726552

>  <saltbridge:HIS:51>  (268) 
0

>  <pistack:HIS:51>  (268) 
1

>  <hydroph_interaction:HIS:51>  (268) 
1

>  <hbond:ALA:132>  (268) 
0

>  <hbond:SER:135>  (268) 
0

>  <hydroph_interaction:TYR:150>  (268) 
1

>  <pistack:TYR:161>  (268) 
0

>  <hydroph_interaction:TYR:161>  (268) 
2

>  <hydroph_interaction:ASP:83>  (268) 
0

>  <hbond:TYR:130>  (268) 
0

>  <hydroph_interaction:ALA:132>  (268) 
0

>  <hbond:HIS:51>  (268) 
0

>  <hbond:ASP:129>  (268) 
0

>  <hbond:TYR:150>  (268) 
0

>  <hbond:GLY:151>  (268) 
0

>  <hbond:TYR:161>  (268) 
0

>  <hydroph_interaction:TYR:130>  (268) 
0

>  <hydroph_interaction:PRO:131>  (268) 
0

>  <hydroph_interaction:ASP:129>  (268) 
0

>  <saltbridge:ASP:75>  (268) 
0

>  <saltbridge:ASP:83>  (268) 
0

>  <hydroph_interaction:ASN:152>  (268) 
0

>  <halogenbond:TYR:150>  (268) 
0

>  <hbond:ASP:83>  (268) 
0

>  <hydroph_interaction:VAL:155>  (268) 
0

>  <pication:TYR:161>  (268) 
0

>  <hbond:PRO:131>  (268) 
0

>  <hbond:LEU:128>  (268) 
0

>  <saltbridge:ASP:129>  (268) 
0

>  <hbond:THR:134>  (268) 
0

>  <pication:HIS:51>  (268) 
0

>  <hbond:SER:81>  (268) 
0

>  <hbond:GLY:159>  (268) 
0

>  <hydroph_interaction:PRO:101>  (268) 
0

>  <hydroph_interaction:THR:134>  (268) 
0

>  <hbond:GLY:82>  (268) 
0

>  <hydroph_interaction:GLU:104>  (268) 
0

>  <hydroph_interaction:VAL:36>  (268) 
0

>  <hydroph_interaction:MET:49>  (268) 
0

>  <halogenbond:GLU:104>  (268) 
0

>  <hydroph_interaction:LYS:107>  (268) 
0

$$$$
WSWSOBZSGXHFFP-UHFFFAOYSA-N
     RDKit          3D

 36 39  0  0  0  0  0  0  0  0999 V2000
   -8.9450    6.1610  -12.4040 C   0  0  0  0  0  0  0  0  0  0  0  0
   -8.6110    5.1870  -13.3690 N   0  0  0  0  0  0  0  0  0  0  0  0
   -7.8500    5.3480  -14.5920 C   0  0  0  0  0  0  0  0  0  0  0  0
   -8.3110    5.1750  -16.0120 C   0  0  0  0  0  0  0  0  0  0  0  0
   -7.2430    5.4130  -16.9890 C   0  0  0  0  0  0  0  0  0  0  0  0
   -7.4610    5.2880  -18.5350 C   0  0  0  0  0  0  0  0  0  0  0  0
   -8.7840    4.9260  -18.8770 C   0  0  0  0  0  0  0  0  0  0  0  0
   -9.8050    4.7030  -17.9580 C   0  0  0  0  0  0  0  0  0  0  0  0
   -9.5690    4.8340  -16.4370 C   0  0  0  0  0  0  0  0  0  0  0  0
   -6.2320    5.7140  -16.1620 N   0  0  0  0  0  0  0  0  0  0  0  0
   -6.5620    5.6830  -14.7490 N   0  0  0  0  0  0  0  0  0  0  0  0
   -9.2600    7.3100  -12.7050 O   0  0  0  0  0  0  0  0  0  0  0  0
   -8.9250    5.7990  -10.8660 C   0  0  0  0  0  0  0  0  0  0  0  0
   -8.9660    4.5820  -10.1760 C   0  0  0  0  0  0  0  0  0  0  0  0
   -8.9380    5.0120   -8.8610 N   0  0  0  0  0  0  0  0  0  0  0  0
   -8.9840    4.1380   -7.7040 C   0  0  0  0  0  0  0  0  0  0  0  0
   -9.4890    2.8720   -8.0170 C   0  0  0  0  0  0  0  0  0  0  0  0
   -9.4090    2.3620   -9.3300 C   0  0  0  0  0  0  0  0  0  0  0  0
   -9.0320    3.1260  -10.4570 C   0  0  0  0  0  0  0  0  0  0  0  0
   -8.8670    6.3560   -8.7000 N   0  0  0  0  0  0  0  0  0  0  0  0
   -8.8640    6.8390   -9.9540 C   0  0  0  0  0  0  0  0  0  0  0  0
   -8.7020    4.2290  -13.0270 H   0  0  0  0  0  0  0  0  0  0  0  0
   -6.6840    5.4580  -19.2740 H   0  0  0  0  0  0  0  0  0  0  0  0
   -9.0190    4.8170  -19.9340 H   0  0  0  0  0  0  0  0  0  0  0  0
  -10.7940    4.4310  -18.3220 H   0  0  0  0  0  0  0  0  0  0  0  0
  -10.3740    4.6570  -15.7320 H   0  0  0  0  0  0  0  0  0  0  0  0
   -5.2810    5.9540  -16.4170 H   0  0  0  0  0  0  0  0  0  0  0  0
   -7.9750    4.0640   -7.2920 H   0  0  0  0  0  0  0  0  0  0  0  0
   -9.6270    4.6340   -6.9680 H   0  0  0  0  0  0  0  0  0  0  0  0
  -10.5500    2.8550   -7.7370 H   0  0  0  0  0  0  0  0  0  0  0  0
   -9.0090    2.1490   -7.3470 H   0  0  0  0  0  0  0  0  0  0  0  0
   -8.7480    1.4910   -9.2910 H   0  0  0  0  0  0  0  0  0  0  0  0
  -10.3900    1.9710   -9.5430 H   0  0  0  0  0  0  0  0  0  0  0  0
   -8.0680    2.7500  -10.8090 H   0  0  0  0  0  0  0  0  0  0  0  0
   -9.7460    2.9680  -11.2780 H   0  0  0  0  0  0  0  0  0  0  0  0
   -8.8200    7.9070  -10.1350 H   0  0  0  0  0  0  0  0  0  0  0  0
  1  2  1  0
  2  3  1  0
  3  4  1  0
  4  5  1  0
  5  6  2  0
  6  7  1  0
  7  8  2  0
  8  9  1  0
  5 10  1  0
 10 11  1  0
  1 12  2  0
  1 13  1  0
 13 14  2  0
 14 15  1  0
 15 16  1  0
 16 17  1  0
 17 18  1  0
 18 19  1  0
 15 20  1  0
 20 21  2  0
  3 11  2  0
  9  4  2  0
 21 13  1  0
 19 14  1  0
  2 22  1  0
  6 23  1  0
  7 24  1  0
  8 25  1  0
  9 26  1  0
 10 27  1  0
 16 28  1  0
 16 29  1  0
 17 30  1  0
 17 31  1  0
 18 32  1  0
 18 33  1  0
 19 34  1  0
 19 35  1  0
 21 36  1  0
A    1
 C1 
A    2
 N1 
A    3
 C2 
A    4
 C3 
A    5
 C4 
A    6
 C5 
A    7
 C6 
A    8
 C7 
A    9
 C8 
A   10
 N2 
A   11
 N3 
A   12
 O1 
A   13
 C9 
A   14
 C10
A   15
 N4 
A   16
 C11
A   17
 C12
A   18
 C13
A   19
 C14
A   20
 N5 
A   21
 C15
A   22
 H1 
A   23
 H2 
A   24
 H3 
A   25
 H4 
A   26
 H5 
A   27
 H6 
A   28
 H7 
A   29
 H8 
A   30
 H9 
A   31
 H10
A   32
 H11
A   33
 H12
A   34
 H13
A   35
 H14
A   36
 H15
M  END
>  <ref_pdb>  (269) 
x0051_0B

>  <ref_mols>  (269) 
x0951_0B,x0969_1B

>  <original SMILES>  (269) 
[H]c1nn2c(c1C(=O)N([H])c1nn([H])c3c([H])c([H])c([H])c([H])c13)C([H])([H])C([H])([H])C([H])([H])C2([H])[H]

>  <index>  (269) 
274

>  <∆∆G>  (269) 
-6.334461

>  <∆G_bound>  (269) 
-5.718673

>  <∆G_unbound>  (269) 
0.615788

>  <comRMSD>  (269) 
0.427645

>  <N_constrained_atoms>  (269) 
20.0

>  <N_unconstrained_atoms>  (269) 
1.0

>  <runtime>  (269) 
53.242

>  <LE>  (269) 
0.301641

>  <percent_hybrid>  (269) 
48.0

>  <dist>  (269) 
6.0

>  <ecfp4>  (269) 
0.175

>  <daylight>  (269) 
0.253687

>  <topodist>  (269) 
0.0

>  <mces>  (269) 
24.0

>  <tdn>  (269) 
0.0

>  <tup>  (269) 
0.0

>  <rdn>  (269) 
0.0

>  <rup>  (269) 
0.0

>  <ldn>  (269) 
0.0

>  <lup>  (269) 
0.0

>  <mut>  (269) 
5.0

>  <maj>  (269) 
5.0

>  <min>  (269) 
0.0

>  <hyb>  (269) 
1.0

>  <sub>  (269) 
0.0

>  <query_index>  (269) 
201.0

>  <max_hit_Tanimoto>  (269) 
0.308642

>  <largest_ring>  (269) 
0

>  <N_interactions_kept>  (269) 
1.5

>  <N_interactions_lost>  (269) 
1.5

>  <interaction_uniqueness_metric>  (269) 
0.099864

>  <ad_hoc_penalty>  (269) 
-21.983269

>  <N_rotatable_bonds>  (269) 
2

>  <N_HA>  (269) 
21

>  <cluster>  (269) 
5966

>  <N_interactions>  (269) 
5

>  <Enamine>  (269) 
0

>  <Mcule>  (269) 
1

>  <N_PAINS>  (269) 
0

>  <UFF_Gibbs>  (269) 
143.346922

>  <strain_per_HA>  (269) 
6.826044

>  <saltbridge:HIS:51>  (269) 
0

>  <pistack:HIS:51>  (269) 
1

>  <hydroph_interaction:HIS:51>  (269) 
0

>  <hbond:ALA:132>  (269) 
0

>  <hbond:SER:135>  (269) 
0

>  <hydroph_interaction:TYR:150>  (269) 
1

>  <pistack:TYR:161>  (269) 
2

>  <hydroph_interaction:TYR:161>  (269) 
0

>  <hydroph_interaction:ASP:83>  (269) 
0

>  <hbond:TYR:130>  (269) 
0

>  <hydroph_interaction:ALA:132>  (269) 
0

>  <hbond:HIS:51>  (269) 
0

>  <hbond:ASP:129>  (269) 
0

>  <hbond:TYR:150>  (269) 
0

>  <hbond:GLY:151>  (269) 
1

>  <hbond:TYR:161>  (269) 
0

>  <hydroph_interaction:TYR:130>  (269) 
0

>  <hydroph_interaction:PRO:131>  (269) 
0

>  <hydroph_interaction:ASP:129>  (269) 
0

>  <saltbridge:ASP:75>  (269) 
0

>  <saltbridge:ASP:83>  (269) 
0

>  <hydroph_interaction:ASN:152>  (269) 
0

>  <halogenbond:TYR:150>  (269) 
0

>  <hbond:ASP:83>  (269) 
0

>  <hydroph_interaction:VAL:155>  (269) 
0

>  <pication:TYR:161>  (269) 
0

>  <hbond:PRO:131>  (269) 
0

>  <hbond:LEU:128>  (269) 
0

>  <saltbridge:ASP:129>  (269) 
0

>  <hbond:THR:134>  (269) 
0

>  <pication:HIS:51>  (269) 
0

>  <hbond:SER:81>  (269) 
0

>  <hbond:GLY:159>  (269) 
0

>  <hydroph_interaction:PRO:101>  (269) 
0

>  <hydroph_interaction:THR:134>  (269) 
0

>  <hbond:GLY:82>  (269) 
0

>  <hydroph_interaction:GLU:104>  (269) 
0

>  <hydroph_interaction:VAL:36>  (269) 
0

>  <hydroph_interaction:MET:49>  (269) 
0

>  <halogenbond:GLU:104>  (269) 
0

>  <hydroph_interaction:LYS:107>  (269) 
0

$$$$
JDMLZCCEHNQKOQ-UHFFFAOYSA-N
     RDKit          3D

 53 56  0  0  0  0  0  0  0  0999 V2000
   -5.5290    6.5650  -20.2440 O   0  0  0  0  0  0  0  0  0  0  0  0
   -5.1170    6.3940  -21.5080 C   0  0  0  0  0  0  0  0  0  0  0  0
   -4.5540    5.3910  -21.9440 O   0  0  0  0  0  0  0  0  0  0  0  0
   -5.4000    7.5510  -22.3400 C   0  0  0  0  0  0  0  0  0  0  0  0
   -6.1240    7.4090  -23.6420 C   0  0  0  0  0  0  0  0  0  0  0  0
   -6.3470    8.5270  -24.3940 C   0  0  0  0  0  0  0  0  0  0  0  0
   -5.9040    9.7740  -23.9520 C   0  0  0  0  0  0  0  0  0  0  0  0
   -6.1400   10.8580  -24.7800 C   0  0  0  0  0  0  0  0  0  0  0  0
   -5.7030   10.3910  -26.4820 S   0  0  0  0  0  0  0  0  0  0  0  0
   -7.2170    9.7160  -27.0240 C   0  0  0  0  0  0  0  0  0  0  0  0
   -8.5530   10.7770  -27.2040 S   0  0  0  0  0  0  0  0  0  0  0  0
   -9.5360    9.4700  -27.6650 C   0  0  0  0  0  0  0  0  0  0  0  0
   -8.6280    8.2870  -27.6450 C   0  0  0  0  0  0  0  0  0  0  0  0
   -9.1960    6.9210  -28.0290 C   0  0  0  0  0  0  0  0  0  0  0  0
  -10.6820    6.9960  -28.3750 C   0  0  0  0  0  0  0  0  0  0  0  0
  -11.4290    8.1770  -28.3450 C   0  0  0  0  0  0  0  0  0  0  0  0
  -10.8810    9.4100  -28.0000 C   0  0  0  0  0  0  0  0  0  0  0  0
   -7.3440    8.5620  -27.2660 N   0  0  0  0  0  0  0  0  0  0  0  0
   -5.2330    9.9200  -22.7240 C   0  0  0  0  0  0  0  0  0  0  0  0
   -4.9800    8.8130  -21.9160 C   0  0  0  0  0  0  0  0  0  0  0  0
   -5.3820    5.3550  -19.5080 C   0  0  0  0  0  0  0  0  0  0  0  0
   -5.9050    5.5390  -18.0940 C   0  0  0  0  0  0  0  0  0  0  0  0
   -7.3950    5.7000  -18.0950 C   0  0  0  0  0  0  0  0  0  0  0  0
   -8.1150    5.2040  -16.8470 C   0  0  0  0  0  0  0  0  0  0  0  0
   -9.6080    4.9960  -16.9960 C   0  0  0  0  0  0  0  0  0  0  0  0
  -10.0090    4.3630  -18.3270 C   0  0  0  0  0  0  0  0  0  0  0  0
   -9.3860    4.9570  -19.5490 C   0  0  0  0  0  0  0  0  0  0  0  0
   -7.8880    5.0910  -19.4060 C   0  0  0  0  0  0  0  0  0  0  0  0
   -6.4670    6.4430  -23.9980 H   0  0  0  0  0  0  0  0  0  0  0  0
   -6.8660    8.4390  -25.3410 H   0  0  0  0  0  0  0  0  0  0  0  0
   -5.5880   11.7480  -24.4530 H   0  0  0  0  0  0  0  0  0  0  0  0
   -7.1990   11.1290  -24.7540 H   0  0  0  0  0  0  0  0  0  0  0  0
   -8.6100    6.0100  -28.0460 H   0  0  0  0  0  0  0  0  0  0  0  0
  -11.1900    6.0740  -28.6600 H   0  0  0  0  0  0  0  0  0  0  0  0
  -12.4870    8.1350  -28.6030 H   0  0  0  0  0  0  0  0  0  0  0  0
  -11.4920   10.3030  -27.9900 H   0  0  0  0  0  0  0  0  0  0  0  0
   -4.8990   10.9030  -22.3970 H   0  0  0  0  0  0  0  0  0  0  0  0
   -4.4540    8.9380  -20.9690 H   0  0  0  0  0  0  0  0  0  0  0  0
   -4.3160    5.1000  -19.4630 H   0  0  0  0  0  0  0  0  0  0  0  0
   -5.9100    4.5480  -20.0180 H   0  0  0  0  0  0  0  0  0  0  0  0
   -5.6030    4.7050  -17.4640 H   0  0  0  0  0  0  0  0  0  0  0  0
   -5.4650    6.4500  -17.6630 H   0  0  0  0  0  0  0  0  0  0  0  0
   -7.5830    6.7640  -18.1750 H   0  0  0  0  0  0  0  0  0  0  0  0
   -7.9520    5.9150  -16.0280 H   0  0  0  0  0  0  0  0  0  0  0  0
   -7.6570    4.2610  -16.5340 H   0  0  0  0  0  0  0  0  0  0  0  0
   -9.9970    4.4090  -16.1680 H   0  0  0  0  0  0  0  0  0  0  0  0
  -10.0890    5.9720  -16.9090 H   0  0  0  0  0  0  0  0  0  0  0  0
  -11.1010    4.3770  -18.4290 H   0  0  0  0  0  0  0  0  0  0  0  0
   -9.6910    3.3210  -18.3280 H   0  0  0  0  0  0  0  0  0  0  0  0
   -9.5590    4.2960  -20.3920 H   0  0  0  0  0  0  0  0  0  0  0  0
   -9.8400    5.8980  -19.8310 H   0  0  0  0  0  0  0  0  0  0  0  0
   -7.4550    4.0910  -19.4880 H   0  0  0  0  0  0  0  0  0  0  0  0
   -7.4770    5.6410  -20.2530 H   0  0  0  0  0  0  0  0  0  0  0  0
  1  2  1  0
  2  3  2  0
  2  4  1  0
  4  5  2  0
  5  6  1  0
  6  7  2  0
  7  8  1  0
  8  9  1  0
  9 10  1  0
 10 11  1  0
 11 12  1  0
 12 13  2  0
 13 14  1  0
 14 15  2  0
 15 16  1  0
 16 17  2  0
 13 18  1  0
  7 19  1  0
 19 20  2  0
  1 21  1  0
 21 22  1  0
 22 23  1  0
 23 24  1  0
 24 25  1  0
 25 26  1  0
 26 27  1  0
 27 28  1  0
 20  4  1  0
 10 18  2  0
 17 12  1  0
 28 23  1  0
  5 29  1  0
  6 30  1  0
  8 31  1  0
  8 32  1  0
 14 33  1  0
 15 34  1  0
 16 35  1  0
 17 36  1  0
 19 37  1  0
 20 38  1  0
 21 39  1  0
 21 40  1  0
 22 41  1  0
 22 42  1  0
 23 43  1  0
 24 44  1  0
 24 45  1  0
 25 46  1  0
 25 47  1  0
 26 48  1  0
 26 49  1  0
 27 50  1  0
 27 51  1  0
 28 52  1  0
 28 53  1  0
A    1
 O1 
A    2
 C1 
A    3
 O2 
A    4
 C2 
A    5
 C3 
A    6
 C4 
A    7
 C5 
A    8
 C6 
A    9
 S1 
A   10
 C7 
A   11
 S2 
A   12
 C8 
A   13
 C9 
A   14
 C10
A   15
 C11
A   16
 C12
A   17
 C13
A   18
 N1 
A   19
 C14
A   20
 C15
A   21
 C16
A   22
 C17
A   23
 C18
A   24
 C19
A   25
 C20
A   26
 C21
A   27
 C22
A   28
 C23
A   29
 H1 
A   30
 H2 
A   31
 H3 
A   32
 H4 
A   33
 H5 
A   34
 H6 
A   35
 H7 
A   36
 H8 
A   37
 H9 
A   38
 H10
A   39
 H11
A   40
 H12
A   41
 H13
A   42
 H14
A   43
 H15
A   44
 H16
A   45
 H17
A   46
 H18
A   47
 H19
A   48
 H20
A   49
 H21
A   50
 H22
A   51
 H23
A   52
 H24
A   53
 H25
M  END
>  <ref_pdb>  (270) 
x0051_0B

>  <ref_mols>  (270) 
x0846_1B,x0382_0B

>  <original SMILES>  (270) 
[H]c1c([H])c(C([H])([H])Sc2nc3c([H])c([H])c([H])c([H])c3s2)c([H])c([H])c1C(=O)OC([H])([H])C([H])([H])C1([H])C([H])([H])C([H])([H])C([H])([H])C([H])([H])C1([H])[H]

>  <index>  (270) 
308

>  <∆∆G>  (270) 
-5.830781

>  <∆G_bound>  (270) 
-5.112178

>  <∆G_unbound>  (270) 
0.718603

>  <comRMSD>  (270) 
0.802396

>  <N_constrained_atoms>  (270) 
25.0

>  <N_unconstrained_atoms>  (270) 
3.0

>  <runtime>  (270) 
66.956436

>  <LE>  (270) 
0.208242

>  <percent_hybrid>  (270) 
28.0

>  <dist>  (270) 
9.0

>  <ecfp4>  (270) 
0.204545

>  <daylight>  (270) 
0.186567

>  <topodist>  (270) 
3.0

>  <mces>  (270) 
29.0

>  <tdn>  (270) 
1.0

>  <tup>  (270) 
1.0

>  <rdn>  (270) 
0.0

>  <rup>  (270) 
0.0

>  <ldn>  (270) 
0.0

>  <lup>  (270) 
1.0

>  <mut>  (270) 
6.0

>  <maj>  (270) 
6.0

>  <min>  (270) 
0.0

>  <hyb>  (270) 
0.0

>  <sub>  (270) 
1.0

>  <query_index>  (270) 
353.0

>  <max_hit_Tanimoto>  (270) 
0.193689

>  <largest_ring>  (270) 
0

>  <N_interactions_kept>  (270) 
0.0

>  <N_interactions_lost>  (270) 
1.5

>  <interaction_uniqueness_metric>  (270) 
0.197973

>  <ad_hoc_penalty>  (270) 
-21.96808

>  <N_rotatable_bonds>  (270) 
7

>  <N_HA>  (270) 
28

>  <cluster>  (270) 
5937

>  <N_interactions>  (270) 
8

>  <Enamine>  (270) 
0

>  <Mcule>  (270) 
1

>  <N_PAINS>  (270) 
0

>  <UFF_Gibbs>  (270) 
200.967543

>  <strain_per_HA>  (270) 
7.177412

>  <saltbridge:HIS:51>  (270) 
0

>  <pistack:HIS:51>  (270) 
0

>  <hydroph_interaction:HIS:51>  (270) 
0

>  <hbond:ALA:132>  (270) 
0

>  <hbond:SER:135>  (270) 
0

>  <hydroph_interaction:TYR:150>  (270) 
1

>  <pistack:TYR:161>  (270) 
0

>  <hydroph_interaction:TYR:161>  (270) 
3

>  <hydroph_interaction:ASP:83>  (270) 
0

>  <hbond:TYR:130>  (270) 
0

>  <hydroph_interaction:ALA:132>  (270) 
1

>  <hbond:HIS:51>  (270) 
0

>  <hbond:ASP:129>  (270) 
1

>  <hbond:TYR:150>  (270) 
0

>  <hbond:GLY:151>  (270) 
0

>  <hbond:TYR:161>  (270) 
0

>  <hydroph_interaction:TYR:130>  (270) 
1

>  <hydroph_interaction:PRO:131>  (270) 
1

>  <hydroph_interaction:ASP:129>  (270) 
0

>  <saltbridge:ASP:75>  (270) 
0

>  <saltbridge:ASP:83>  (270) 
0

>  <hydroph_interaction:ASN:152>  (270) 
0

>  <halogenbond:TYR:150>  (270) 
0

>  <hbond:ASP:83>  (270) 
0

>  <hydroph_interaction:VAL:155>  (270) 
0

>  <pication:TYR:161>  (270) 
0

>  <hbond:PRO:131>  (270) 
0

>  <hbond:LEU:128>  (270) 
0

>  <saltbridge:ASP:129>  (270) 
0

>  <hbond:THR:134>  (270) 
0

>  <pication:HIS:51>  (270) 
0

>  <hbond:SER:81>  (270) 
0

>  <hbond:GLY:159>  (270) 
0

>  <hydroph_interaction:PRO:101>  (270) 
0

>  <hydroph_interaction:THR:134>  (270) 
0

>  <hbond:GLY:82>  (270) 
0

>  <hydroph_interaction:GLU:104>  (270) 
0

>  <hydroph_interaction:VAL:36>  (270) 
0

>  <hydroph_interaction:MET:49>  (270) 
0

>  <halogenbond:GLU:104>  (270) 
0

>  <hydroph_interaction:LYS:107>  (270) 
0

$$$$
TZRPUSKZJLJLIS-UHFFFAOYSA-N
     RDKit          3D

 47 51  0  0  0  0  0  0  0  0999 V2000
   -5.4750    6.0810  -20.9070 C   0  0  0  0  0  0  0  0  0  0  0  0
   -5.9170    6.0270  -19.5620 N   0  0  0  0  0  0  0  0  0  0  0  0
   -5.0060    5.7680  -18.4920 C   0  0  0  0  0  0  0  0  0  0  0  0
   -5.3970    6.0370  -17.0270 C   0  0  0  0  0  0  0  0  0  0  0  0
   -6.8500    5.6420  -16.8920 C   0  0  0  0  0  0  0  0  0  0  0  0
   -7.4850    5.4640  -15.7320 N   0  0  0  0  0  0  0  0  0  0  0  0
   -8.7260    5.1390  -16.1130 N   0  0  0  0  0  0  0  0  0  0  0  0
   -8.8780    5.1120  -17.4620 C   0  0  0  0  0  0  0  0  0  0  0  0
  -10.1020    4.8170  -18.0610 C   0  0  0  0  0  0  0  0  0  0  0  0
  -11.1380    4.6730  -18.5020 N   0  0  0  0  0  0  0  0  0  0  0  0
   -7.6580    5.4320  -18.0230 C   0  0  0  0  0  0  0  0  0  0  0  0
   -7.2470    5.5510  -19.3620 C   0  0  0  0  0  0  0  0  0  0  0  0
   -4.9490    5.1170  -21.4430 O   0  0  0  0  0  0  0  0  0  0  0  0
   -5.5930    7.2890  -21.7970 C   0  0  0  0  0  0  0  0  0  0  0  0
   -6.0650    7.0790  -23.1090 C   0  0  0  0  0  0  0  0  0  0  0  0
   -6.2040    8.2200  -24.0380 C   0  0  0  0  0  0  0  0  0  0  0  0
   -5.8710    9.4750  -23.6190 C   0  0  0  0  0  0  0  0  0  0  0  0
   -6.0180   10.6090  -24.5820 C   0  0  0  0  0  0  0  0  0  0  0  0
   -5.5940   10.1090  -26.2790 S   0  0  0  0  0  0  0  0  0  0  0  0
   -7.1350    9.5700  -26.8910 C   0  0  0  0  0  0  0  0  0  0  0  0
   -8.3980   10.6760  -27.1560 S   0  0  0  0  0  0  0  0  0  0  0  0
   -9.4130    9.3890  -27.6530 C   0  0  0  0  0  0  0  0  0  0  0  0
   -8.6930    8.1940  -27.6030 C   0  0  0  0  0  0  0  0  0  0  0  0
   -9.3450    7.0020  -27.9830 C   0  0  0  0  0  0  0  0  0  0  0  0
  -10.6820    7.0400  -28.3860 C   0  0  0  0  0  0  0  0  0  0  0  0
  -11.3780    8.2430  -28.4170 C   0  0  0  0  0  0  0  0  0  0  0  0
  -10.7510    9.4360  -28.0520 C   0  0  0  0  0  0  0  0  0  0  0  0
   -7.3870    8.3120  -27.1670 N   0  0  0  0  0  0  0  0  0  0  0  0
   -5.3950    9.6720  -22.3000 C   0  0  0  0  0  0  0  0  0  0  0  0
   -5.2570    8.5970  -21.3950 C   0  0  0  0  0  0  0  0  0  0  0  0
   -4.1260    6.3890  -18.6940 H   0  0  0  0  0  0  0  0  0  0  0  0
   -4.7540    4.7070  -18.5530 H   0  0  0  0  0  0  0  0  0  0  0  0
   -5.2830    7.1010  -16.7940 H   0  0  0  0  0  0  0  0  0  0  0  0
   -4.7590    5.4580  -16.3520 H   0  0  0  0  0  0  0  0  0  0  0  0
   -9.4220    4.9500  -15.3940 H   0  0  0  0  0  0  0  0  0  0  0  0
   -7.3910    4.5890  -19.8570 H   0  0  0  0  0  0  0  0  0  0  0  0
   -7.8960    6.2820  -19.8480 H   0  0  0  0  0  0  0  0  0  0  0  0
   -6.3280    6.0780  -23.4370 H   0  0  0  0  0  0  0  0  0  0  0  0
   -6.5720    8.0460  -25.0470 H   0  0  0  0  0  0  0  0  0  0  0  0
   -5.4300   11.4770  -24.2660 H   0  0  0  0  0  0  0  0  0  0  0  0
   -7.0620   10.9430  -24.5730 H   0  0  0  0  0  0  0  0  0  0  0  0
   -8.8030    6.0630  -27.9560 H   0  0  0  0  0  0  0  0  0  0  0  0
  -11.1820    6.1170  -28.6770 H   0  0  0  0  0  0  0  0  0  0  0  0
  -12.4220    8.2610  -28.7300 H   0  0  0  0  0  0  0  0  0  0  0  0
  -11.2940   10.3750  -28.0800 H   0  0  0  0  0  0  0  0  0  0  0  0
   -5.1290   10.6740  -21.9680 H   0  0  0  0  0  0  0  0  0  0  0  0
   -4.8900    8.7860  -20.3900 H   0  0  0  0  0  0  0  0  0  0  0  0
  1  2  1  0
  2  3  1  0
  3  4  1  0
  4  5  1  0
  5  6  2  0
  6  7  1  0
  7  8  1  0
  8  9  1  0
  9 10  3  0
  8 11  2  0
 11 12  1  0
  1 13  2  0
  1 14  1  0
 14 15  2  0
 15 16  1  0
 16 17  2  0
 17 18  1  0
 18 19  1  0
 19 20  1  0
 20 21  1  0
 21 22  1  0
 22 23  2  0
 23 24  1  0
 24 25  2  0
 25 26  1  0
 26 27  2  0
 23 28  1  0
 17 29  1  0
 29 30  2  0
 12  2  1  0
 11  5  1  0
 30 14  1  0
 20 28  2  0
 27 22  1  0
  3 31  1  0
  3 32  1  0
  4 33  1  0
  4 34  1  0
  7 35  1  0
 12 36  1  0
 12 37  1  0
 15 38  1  0
 16 39  1  0
 18 40  1  0
 18 41  1  0
 24 42  1  0
 25 43  1  0
 26 44  1  0
 27 45  1  0
 29 46  1  0
 30 47  1  0
A    1
 C1 
A    2
 N1 
A    3
 C2 
A    4
 C3 
A    5
 C4 
A    6
 N2 
A    7
 N3 
A    8
 C5 
A    9
 C6 
A   10
 N4 
A   11
 C7 
A   12
 C8 
A   13
 O1 
A   14
 C9 
A   15
 C10
A   16
 C11
A   17
 C12
A   18
 C13
A   19
 S1 
A   20
 C14
A   21
 S2 
A   22
 C15
A   23
 C16
A   24
 C17
A   25
 C18
A   26
 C19
A   27
 C20
A   28
 N5 
A   29
 C21
A   30
 C22
A   31
 H1 
A   32
 H2 
A   33
 H3 
A   34
 H4 
A   35
 H5 
A   36
 H6 
A   37
 H7 
A   38
 H8 
A   39
 H9 
A   40
 H10
A   41
 H11
A   42
 H12
A   43
 H13
A   44
 H14
A   45
 H15
A   46
 H16
A   47
 H17
M  END
>  <ref_pdb>  (271) 
x0051_0B

>  <ref_mols>  (271) 
x0846_1B,x0969_0B

>  <original SMILES>  (271) 
[H]c1c([H])c(C([H])([H])Sc2nc3c([H])c([H])c([H])c([H])c3s2)c([H])c([H])c1C(=O)N1C([H])([H])c2c(nn([H])c2C#N)C([H])([H])C1([H])[H]

>  <index>  (271) 
639

>  <∆∆G>  (271) 
-7.641435

>  <∆G_bound>  (271) 
-7.292873

>  <∆G_unbound>  (271) 
0.348562

>  <comRMSD>  (271) 
0.776941

>  <N_constrained_atoms>  (271) 
28.0

>  <N_unconstrained_atoms>  (271) 
3.0

>  <runtime>  (271) 
43.133081

>  <LE>  (271) 
0.246498

>  <percent_hybrid>  (271) 
36.0

>  <dist>  (271) 
10.0

>  <ecfp4>  (271) 
0.158879

>  <daylight>  (271) 
0.257373

>  <topodist>  (271) 
5.0

>  <mces>  (271) 
31.0

>  <tdn>  (271) 
2.0

>  <tup>  (271) 
3.0

>  <rdn>  (271) 
0.0

>  <rup>  (271) 
0.0

>  <ldn>  (271) 
0.0

>  <lup>  (271) 
0.0

>  <mut>  (271) 
5.0

>  <maj>  (271) 
5.0

>  <min>  (271) 
0.0

>  <hyb>  (271) 
0.0

>  <sub>  (271) 
1.0

>  <query_index>  (271) 
45.0

>  <max_hit_Tanimoto>  (271) 
0.223821

>  <largest_ring>  (271) 
6

>  <N_interactions_kept>  (271) 
0.5

>  <N_interactions_lost>  (271) 
2.0

>  <interaction_uniqueness_metric>  (271) 
0.179263

>  <ad_hoc_penalty>  (271) 
-21.96275

>  <N_rotatable_bonds>  (271) 
4

>  <N_HA>  (271) 
30

>  <cluster>  (271) 
5634

>  <N_interactions>  (271) 
5

>  <Enamine>  (271) 
0

>  <Mcule>  (271) 
1

>  <N_PAINS>  (271) 
0

>  <UFF_Gibbs>  (271) 
56.119286

>  <strain_per_HA>  (271) 
1.870643

>  <saltbridge:HIS:51>  (271) 
0

>  <pistack:HIS:51>  (271) 
0

>  <hydroph_interaction:HIS:51>  (271) 
0

>  <hbond:ALA:132>  (271) 
0

>  <hbond:SER:135>  (271) 
0

>  <hydroph_interaction:TYR:150>  (271) 
0

>  <pistack:TYR:161>  (271) 
1

>  <hydroph_interaction:TYR:161>  (271) 
0

>  <hydroph_interaction:ASP:83>  (271) 
0

>  <hbond:TYR:130>  (271) 
0

>  <hydroph_interaction:ALA:132>  (271) 
1

>  <hbond:HIS:51>  (271) 
0

>  <hbond:ASP:129>  (271) 
1

>  <hbond:TYR:150>  (271) 
0

>  <hbond:GLY:151>  (271) 
0

>  <hbond:TYR:161>  (271) 
0

>  <hydroph_interaction:TYR:130>  (271) 
1

>  <hydroph_interaction:PRO:131>  (271) 
1

>  <hydroph_interaction:ASP:129>  (271) 
0

>  <saltbridge:ASP:75>  (271) 
0

>  <saltbridge:ASP:83>  (271) 
0

>  <hydroph_interaction:ASN:152>  (271) 
0

>  <halogenbond:TYR:150>  (271) 
0

>  <hbond:ASP:83>  (271) 
0

>  <hydroph_interaction:VAL:155>  (271) 
0

>  <pication:TYR:161>  (271) 
0

>  <hbond:PRO:131>  (271) 
0

>  <hbond:LEU:128>  (271) 
0

>  <saltbridge:ASP:129>  (271) 
0

>  <hbond:THR:134>  (271) 
0

>  <pication:HIS:51>  (271) 
0

>  <hbond:SER:81>  (271) 
0

>  <hbond:GLY:159>  (271) 
0

>  <hydroph_interaction:PRO:101>  (271) 
0

>  <hydroph_interaction:THR:134>  (271) 
0

>  <hbond:GLY:82>  (271) 
0

>  <hydroph_interaction:GLU:104>  (271) 
0

>  <hydroph_interaction:VAL:36>  (271) 
0

>  <hydroph_interaction:MET:49>  (271) 
0

>  <halogenbond:GLU:104>  (271) 
0

>  <hydroph_interaction:LYS:107>  (271) 
0

$$$$
MCULE-8781922235
     RDKit          3D

 18 19  0  0  0  0  0  0  0  0999 V2000
   -6.2670    5.3720  -20.0010 C   0  0  0  0  0  0  0  0  0  0  0  0
   -4.9920    5.4970  -20.5400 N   0  0  0  0  0  0  0  0  0  0  0  0
   -3.9520    5.4960  -19.5670 C   0  0  0  0  0  0  0  0  0  0  0  0
   -4.2570    5.3830  -18.2070 C   0  0  0  0  0  0  0  0  0  0  0  0
   -5.5100    5.2700  -17.7590 C   0  0  0  0  0  0  0  0  0  0  0  0
   -6.5700    5.2570  -18.6570 C   0  0  0  0  0  0  0  0  0  0  0  0
   -7.8820    5.1180  -18.1840 C   0  0  0  0  0  0  0  0  0  0  0  0
   -8.2670    5.1500  -16.8380 C   0  0  0  0  0  0  0  0  0  0  0  0
   -9.6630    4.9600  -16.7130 C   0  0  0  0  0  0  0  0  0  0  0  0
  -10.1740    4.8000  -18.1260 C   0  0  0  0  0  0  0  0  0  0  0  0
   -9.0480    4.9050  -18.9600 O   0  0  0  0  0  0  0  0  0  0  0  0
   -7.0840    5.3640  -20.7270 H   0  0  0  0  0  0  0  0  0  0  0  0
   -2.9580    5.5890  -19.9940 H   0  0  0  0  0  0  0  0  0  0  0  0
   -3.4430    5.3850  -17.4890 H   0  0  0  0  0  0  0  0  0  0  0  0
   -5.7000    5.1820  -16.6940 H   0  0  0  0  0  0  0  0  0  0  0  0
   -7.6530    5.2910  -15.9420 H   0  0  0  0  0  0  0  0  0  0  0  0
  -10.2470    4.9340  -15.7810 H   0  0  0  0  0  0  0  0  0  0  0  0
  -11.1350    4.6370  -18.5900 H   0  0  0  0  0  0  0  0  0  0  0  0
  1  2  2  0
  2  3  1  0
  3  4  2  0
  4  5  1  0
  5  6  2  0
  6  7  1  0
  7  8  2  0
  8  9  1  0
  9 10  2  0
 10 11  1  0
  6  1  1  0
 11  7  1  0
  1 12  1  0
  3 13  1  0
  4 14  1  0
  5 15  1  0
  8 16  1  0
  9 17  1  0
 10 18  1  0
A    1
 C1 
A    2
 N1 
A    3
 C2 
A    4
 C3 
A    5
 C4 
A    6
 C5 
A    7
 C6 
A    8
 C7 
A    9
 C8 
A   10
 C9 
A   11
 O1 
A   12
 H1 
A   13
 H2 
A   14
 H3 
A   15
 H4 
A   16
 H5 
A   17
 H6 
A   18
 H7 
M  END
>  <ref_pdb>  (272) 
x0051_0B

>  <ref_mols>  (272) 
x0680_0B,x0386_0B

>  <original SMILES>  (272) 
[H]c1nc([H])c(-c2oc([H])c([H])c2[H])c([H])c1[H]

>  <index>  (272) 
385

>  <∆∆G>  (272) 
-5.261297

>  <∆G_bound>  (272) 
-5.260823

>  <∆G_unbound>  (272) 
0.000473

>  <comRMSD>  (272) 
0.632776

>  <N_constrained_atoms>  (272) 
13.0

>  <N_unconstrained_atoms>  (272) 
0.0

>  <runtime>  (272) 
22.844367

>  <LE>  (272) 
0.404715

>  <percent_hybrid>  (272) 
25.0

>  <dist>  (272) 
3.0

>  <ecfp4>  (272) 
0.22449

>  <daylight>  (272) 
0.311594

>  <topodist>  (272) 
1.0

>  <mces>  (272) 
12.0

>  <tdn>  (272) 
1.0

>  <tup>  (272) 
0.0

>  <rdn>  (272) 
0.0

>  <rup>  (272) 
0.0

>  <ldn>  (272) 
0.0

>  <lup>  (272) 
0.0

>  <mut>  (272) 
2.0

>  <maj>  (272) 
2.0

>  <min>  (272) 
0.0

>  <hyb>  (272) 
0.0

>  <sub>  (272) 
1.0

>  <query_index>  (272) 
296.0

>  <max_hit_Tanimoto>  (272) 
0.115028

>  <largest_ring>  (272) 
0

>  <N_interactions_kept>  (272) 
3.5

>  <N_interactions_lost>  (272) 
0.5

>  <interaction_uniqueness_metric>  (272) 
0.016266

>  <ad_hoc_penalty>  (272) 
-21.898946

>  <N_rotatable_bonds>  (272) 
1

>  <N_HA>  (272) 
11

>  <cluster>  (272) 
5864

>  <N_interactions>  (272) 
3

>  <Enamine>  (272) 
0

>  <Mcule>  (272) 
1

>  <N_PAINS>  (272) 
0

>  <UFF_Gibbs>  (272) 
43.178154

>  <strain_per_HA>  (272) 
3.925287

>  <saltbridge:HIS:51>  (272) 
0

>  <pistack:HIS:51>  (272) 
0

>  <hydroph_interaction:HIS:51>  (272) 
0

>  <hbond:ALA:132>  (272) 
0

>  <hbond:SER:135>  (272) 
0

>  <hydroph_interaction:TYR:150>  (272) 
0

>  <pistack:TYR:161>  (272) 
0

>  <hydroph_interaction:TYR:161>  (272) 
3

>  <hydroph_interaction:ASP:83>  (272) 
0

>  <hbond:TYR:130>  (272) 
0

>  <hydroph_interaction:ALA:132>  (272) 
0

>  <hbond:HIS:51>  (272) 
0

>  <hbond:ASP:129>  (272) 
0

>  <hbond:TYR:150>  (272) 
0

>  <hbond:GLY:151>  (272) 
0

>  <hbond:TYR:161>  (272) 
0

>  <hydroph_interaction:TYR:130>  (272) 
0

>  <hydroph_interaction:PRO:131>  (272) 
0

>  <hydroph_interaction:ASP:129>  (272) 
0

>  <saltbridge:ASP:75>  (272) 
0

>  <saltbridge:ASP:83>  (272) 
0

>  <hydroph_interaction:ASN:152>  (272) 
0

>  <halogenbond:TYR:150>  (272) 
0

>  <hbond:ASP:83>  (272) 
0

>  <hydroph_interaction:VAL:155>  (272) 
0

>  <pication:TYR:161>  (272) 
0

>  <hbond:PRO:131>  (272) 
0

>  <hbond:LEU:128>  (272) 
0

>  <saltbridge:ASP:129>  (272) 
0

>  <hbond:THR:134>  (272) 
0

>  <pication:HIS:51>  (272) 
0

>  <hbond:SER:81>  (272) 
0

>  <hbond:GLY:159>  (272) 
0

>  <hydroph_interaction:PRO:101>  (272) 
0

>  <hydroph_interaction:THR:134>  (272) 
0

>  <hbond:GLY:82>  (272) 
0

>  <hydroph_interaction:GLU:104>  (272) 
0

>  <hydroph_interaction:VAL:36>  (272) 
0

>  <hydroph_interaction:MET:49>  (272) 
0

>  <halogenbond:GLU:104>  (272) 
0

>  <hydroph_interaction:LYS:107>  (272) 
0

$$$$
AVDAZNJYUDMOQD-UHFFFAOYSA-N
     RDKit          3D

 34 37  0  0  0  0  0  0  0  0999 V2000
   -8.8320    5.8080  -12.8260 C   0  0  0  0  0  0  0  0  0  0  0  0
   -7.9290    5.2110  -13.7340 N   0  0  0  0  0  0  0  0  0  0  0  0
   -8.2360    5.1450  -15.2260 C   0  0  0  0  0  0  0  0  0  0  0  0
   -7.1260    5.2450  -16.3460 C   0  0  0  0  0  0  0  0  0  0  0  0
   -7.4540    5.1700  -17.7020 C   0  0  0  0  0  0  0  0  0  0  0  0
   -6.4800    5.2620  -18.6220 N   0  0  0  0  0  0  0  0  0  0  0  0
   -5.3990    5.4090  -17.7550 O   0  0  0  0  0  0  0  0  0  0  0  0
   -5.7790    5.4000  -16.3810 N   0  0  0  0  0  0  0  0  0  0  0  0
   -8.7480    5.0000  -18.1910 C   0  0  0  0  0  0  0  0  0  0  0  0
   -9.7160    4.9200  -17.2200 C   0  0  0  0  0  0  0  0  0  0  0  0
   -9.5190    4.9860  -15.8210 C   0  0  0  0  0  0  0  0  0  0  0  0
   -9.7140    6.5130  -13.3030 O   0  0  0  0  0  0  0  0  0  0  0  0
   -8.7920    5.6800  -11.2470 C   0  0  0  0  0  0  0  0  0  0  0  0
   -8.8740    4.4080  -10.3800 C   0  0  0  0  0  0  0  0  0  0  0  0
   -8.8300    4.9150   -9.0790 N   0  0  0  0  0  0  0  0  0  0  0  0
   -8.8990    4.1400   -7.8410 C   0  0  0  0  0  0  0  0  0  0  0  0
   -9.1950    2.7000   -8.1990 C   0  0  0  0  0  0  0  0  0  0  0  0
   -8.6040    2.2860   -9.3800 C   0  0  0  0  0  0  0  0  0  0  0  0
   -8.9840    2.9260  -10.5640 C   0  0  0  0  0  0  0  0  0  0  0  0
   -8.7200    6.2500   -8.9950 N   0  0  0  0  0  0  0  0  0  0  0  0
   -8.6980    6.7050  -10.2620 C   0  0  0  0  0  0  0  0  0  0  0  0
   -6.9590    5.4230  -13.5150 H   0  0  0  0  0  0  0  0  0  0  0  0
   -8.9690    4.9400  -19.2490 H   0  0  0  0  0  0  0  0  0  0  0  0
  -10.7430    4.7900  -17.5860 H   0  0  0  0  0  0  0  0  0  0  0  0
  -10.3550    4.9100  -15.1360 H   0  0  0  0  0  0  0  0  0  0  0  0
   -7.8940    4.1980   -7.4120 H   0  0  0  0  0  0  0  0  0  0  0  0
   -9.5660    4.6800   -7.1770 H   0  0  0  0  0  0  0  0  0  0  0  0
   -8.8460    2.0500   -7.3870 H   0  0  0  0  0  0  0  0  0  0  0  0
  -10.2790    2.5620   -8.2650 H   0  0  0  0  0  0  0  0  0  0  0  0
   -8.7440    1.2200   -9.4810 H   0  0  0  0  0  0  0  0  0  0  0  0
   -7.5260    2.4190   -9.2750 H   0  0  0  0  0  0  0  0  0  0  0  0
  -10.0200    2.6660  -10.8130 H   0  0  0  0  0  0  0  0  0  0  0  0
   -8.3490    2.5610  -11.3750 H   0  0  0  0  0  0  0  0  0  0  0  0
   -8.6200    7.7720  -10.4290 H   0  0  0  0  0  0  0  0  0  0  0  0
  1  2  1  0
  2  3  1  0
  3  4  1  0
  4  5  1  0
  5  6  2  0
  6  7  1  0
  7  8  1  0
  5  9  1  0
  9 10  2  0
 10 11  1  0
  1 12  2  0
  1 13  1  0
 13 14  2  0
 14 15  1  0
 15 16  1  0
 16 17  1  0
 17 18  1  0
 18 19  1  0
 15 20  1  0
 20 21  2  0
  3 11  2  0
  4  8  2  0
 21 13  1  0
 19 14  1  0
  2 22  1  0
  9 23  1  0
 10 24  1  0
 11 25  1  0
 16 26  1  0
 16 27  1  0
 17 28  1  0
 17 29  1  0
 18 30  1  0
 18 31  1  0
 19 32  1  0
 19 33  1  0
 21 34  1  0
A    1
 C1 
A    2
 N1 
A    3
 C2 
A    4
 C3 
A    5
 C4 
A    6
 N2 
A    7
 O1 
A    8
 N3 
A    9
 C5 
A   10
 C6 
A   11
 C7 
A   12
 O2 
A   13
 C8 
A   14
 C9 
A   15
 N4 
A   16
 C10
A   17
 C11
A   18
 C12
A   19
 C13
A   20
 N5 
A   21
 C14
A   22
 H1 
A   23
 H2 
A   24
 H3 
A   25
 H4 
A   26
 H5 
A   27
 H6 
A   28
 H7 
A   29
 H8 
A   30
 H9 
A   31
 H10
A   32
 H11
A   33
 H12
A   34
 H13
M  END
>  <ref_pdb>  (273) 
x0051_0B

>  <ref_mols>  (273) 
x0435_0B,x0969_1B

>  <original SMILES>  (273) 
[H]c1nn2c(c1C(=O)N([H])c1c([H])c([H])c([H])c3nonc13)C([H])([H])C([H])([H])C([H])([H])C2([H])[H]

>  <index>  (273) 
317

>  <∆∆G>  (273) 
-6.137647

>  <∆G_bound>  (273) 
-5.319702

>  <∆G_unbound>  (273) 
0.817945

>  <comRMSD>  (273) 
0.688664

>  <N_constrained_atoms>  (273) 
19.0

>  <N_unconstrained_atoms>  (273) 
2.0

>  <runtime>  (273) 
34.738822

>  <LE>  (273) 
0.292269

>  <percent_hybrid>  (273) 
48.0

>  <dist>  (273) 
9.0

>  <ecfp4>  (273) 
0.190476

>  <daylight>  (273) 
0.254902

>  <topodist>  (273) 
3.0

>  <mces>  (273) 
23.0

>  <tdn>  (273) 
1.0

>  <tup>  (273) 
1.0

>  <rdn>  (273) 
0.0

>  <rup>  (273) 
0.0

>  <ldn>  (273) 
1.0

>  <lup>  (273) 
0.0

>  <mut>  (273) 
5.0

>  <maj>  (273) 
5.0

>  <min>  (273) 
0.0

>  <hyb>  (273) 
1.0

>  <sub>  (273) 
0.0

>  <query_index>  (273) 
311.0

>  <max_hit_Tanimoto>  (273) 
0.304498

>  <largest_ring>  (273) 
0

>  <N_interactions_kept>  (273) 
2.5

>  <N_interactions_lost>  (273) 
1.0

>  <interaction_uniqueness_metric>  (273) 
0.135106

>  <ad_hoc_penalty>  (273) 
-21.893006

>  <N_rotatable_bonds>  (273) 
2

>  <N_HA>  (273) 
21

>  <cluster>  (273) 
5930

>  <N_interactions>  (273) 
4

>  <Enamine>  (273) 
0

>  <Mcule>  (273) 
1

>  <N_PAINS>  (273) 
0

>  <UFF_Gibbs>  (273) 
132.857671

>  <strain_per_HA>  (273) 
6.326556

>  <saltbridge:HIS:51>  (273) 
0

>  <pistack:HIS:51>  (273) 
1

>  <hydroph_interaction:HIS:51>  (273) 
0

>  <hbond:ALA:132>  (273) 
0

>  <hbond:SER:135>  (273) 
0

>  <hydroph_interaction:TYR:150>  (273) 
0

>  <pistack:TYR:161>  (273) 
1

>  <hydroph_interaction:TYR:161>  (273) 
1

>  <hydroph_interaction:ASP:83>  (273) 
1

>  <hbond:TYR:130>  (273) 
0

>  <hydroph_interaction:ALA:132>  (273) 
0

>  <hbond:HIS:51>  (273) 
0

>  <hbond:ASP:129>  (273) 
0

>  <hbond:TYR:150>  (273) 
0

>  <hbond:GLY:151>  (273) 
0

>  <hbond:TYR:161>  (273) 
0

>  <hydroph_interaction:TYR:130>  (273) 
0

>  <hydroph_interaction:PRO:131>  (273) 
0

>  <hydroph_interaction:ASP:129>  (273) 
0

>  <saltbridge:ASP:75>  (273) 
0

>  <saltbridge:ASP:83>  (273) 
0

>  <hydroph_interaction:ASN:152>  (273) 
0

>  <halogenbond:TYR:150>  (273) 
0

>  <hbond:ASP:83>  (273) 
0

>  <hydroph_interaction:VAL:155>  (273) 
0

>  <pication:TYR:161>  (273) 
0

>  <hbond:PRO:131>  (273) 
0

>  <hbond:LEU:128>  (273) 
0

>  <saltbridge:ASP:129>  (273) 
0

>  <hbond:THR:134>  (273) 
0

>  <pication:HIS:51>  (273) 
0

>  <hbond:SER:81>  (273) 
0

>  <hbond:GLY:159>  (273) 
0

>  <hydroph_interaction:PRO:101>  (273) 
0

>  <hydroph_interaction:THR:134>  (273) 
0

>  <hbond:GLY:82>  (273) 
0

>  <hydroph_interaction:GLU:104>  (273) 
0

>  <hydroph_interaction:VAL:36>  (273) 
0

>  <hydroph_interaction:MET:49>  (273) 
0

>  <halogenbond:GLU:104>  (273) 
0

>  <hydroph_interaction:LYS:107>  (273) 
0

$$$$
CSSB00025760048
     RDKit          3D

 39 39  0  0  0  0  0  0  0  0999 V2000
   -0.2740    3.4210  -13.8080 C   0  0  0  0  0  0  0  0  0  0  0  0
   -0.9580    4.7010  -14.2660 C   0  0  0  0  0  0  0  0  0  0  0  0
   -2.4940    4.6510  -14.1670 C   0  0  0  0  0  0  0  0  0  0  0  0
   -3.1940    4.4800  -15.5170 C   0  0  0  0  0  0  0  0  0  0  0  0
   -2.6470    5.4040  -16.6310 C   0  0  0  0  0  0  0  0  0  0  0  0
   -3.7030    5.3150  -17.6740 C   0  0  0  0  0  0  0  0  0  0  0  0
   -5.0440    5.3690  -17.3880 C   0  0  0  0  0  0  0  0  0  0  0  0
   -5.9570    5.3990  -18.4260 C   0  0  0  0  0  0  0  0  0  0  0  0
   -7.3830    5.2400  -18.0260 C   0  0  0  0  0  0  0  0  0  0  0  0
   -7.8210    5.1920  -16.7130 C   0  0  0  0  0  0  0  0  0  0  0  0
   -7.0190    5.2740  -15.4590 C   0  0  0  0  0  0  0  0  0  0  0  0
   -9.5080    5.0240  -16.6050 S   0  0  0  0  0  0  0  0  0  0  0  0
   -9.6790    5.0170  -18.2950 C   0  0  0  0  0  0  0  0  0  0  0  0
  -11.0200    4.9400  -18.8850 C   0  0  0  0  0  0  0  0  0  0  0  0
   -8.4720    5.1270  -18.9390 C   0  0  0  0  0  0  0  0  0  0  0  0
    0.5750    3.1920  -14.4550 H   0  0  0  0  0  0  0  0  0  0  0  0
    0.0800    3.5520  -12.7840 H   0  0  0  0  0  0  0  0  0  0  0  0
   -0.9710    2.5770  -13.8360 H   0  0  0  0  0  0  0  0  0  0  0  0
   -0.6850    4.8860  -15.3110 H   0  0  0  0  0  0  0  0  0  0  0  0
   -0.5760    5.5460  -13.6850 H   0  0  0  0  0  0  0  0  0  0  0  0
   -2.8340    5.5790  -13.6960 H   0  0  0  0  0  0  0  0  0  0  0  0
   -2.7860    3.8330  -13.4990 H   0  0  0  0  0  0  0  0  0  0  0  0
   -3.1360    3.4350  -15.8200 H   0  0  0  0  0  0  0  0  0  0  0  0
   -4.2570    4.7080  -15.3960 H   0  0  0  0  0  0  0  0  0  0  0  0
   -2.4610    6.4220  -16.2770 H   0  0  0  0  0  0  0  0  0  0  0  0
   -1.7040    5.0000  -17.0130 H   0  0  0  0  0  0  0  0  0  0  0  0
   -3.5090    6.0920  -18.4220 H   0  0  0  0  0  0  0  0  0  0  0  0
   -3.5490    4.3680  -18.2020 H   0  0  0  0  0  0  0  0  0  0  0  0
   -5.2700    4.4930  -16.7730 H   0  0  0  0  0  0  0  0  0  0  0  0
   -5.2210    6.2330  -16.7340 H   0  0  0  0  0  0  0  0  0  0  0  0
   -5.8590    6.3530  -18.9560 H   0  0  0  0  0  0  0  0  0  0  0  0
   -5.7100    4.6310  -19.1670 H   0  0  0  0  0  0  0  0  0  0  0  0
   -6.2340    4.5120  -15.4460 H   0  0  0  0  0  0  0  0  0  0  0  0
   -7.6690    5.1030  -14.5950 H   0  0  0  0  0  0  0  0  0  0  0  0
   -6.5350    6.2480  -15.3360 H   0  0  0  0  0  0  0  0  0  0  0  0
  -10.9850    5.1040  -19.9660 H   0  0  0  0  0  0  0  0  0  0  0  0
  -11.5190    4.0020  -18.6700 H   0  0  0  0  0  0  0  0  0  0  0  0
  -11.6200    5.7390  -18.4840 H   0  0  0  0  0  0  0  0  0  0  0  0
   -8.3710    5.1420  -20.0170 H   0  0  0  0  0  0  0  0  0  0  0  0
  1  2  1  0
  2  3  1  0
  3  4  1  0
  4  5  1  0
  5  6  1  0
  6  7  1  0
  7  8  1  0
  8  9  1  0
  9 10  2  0
 10 11  1  0
 10 12  1  0
 12 13  1  0
 13 14  1  0
 13 15  2  0
 15  9  1  0
  1 16  1  0
  1 17  1  0
  1 18  1  0
  2 19  1  0
  2 20  1  0
  3 21  1  0
  3 22  1  0
  4 23  1  0
  4 24  1  0
  5 25  1  0
  5 26  1  0
  6 27  1  0
  6 28  1  0
  7 29  1  0
  7 30  1  0
  8 31  1  0
  8 32  1  0
 11 33  1  0
 11 34  1  0
 11 35  1  0
 14 36  1  0
 14 37  1  0
 14 38  1  0
 15 39  1  0
A    1
 C1 
A    2
 C2 
A    3
 C3 
A    4
 C4 
A    5
 C5 
A    6
 C6 
A    7
 C7 
A    8
 C8 
A    9
 C9 
A   10
 C10
A   11
 C11
A   12
 S1 
A   13
 C12
A   14
 C13
A   15
 C14
A   16
 H1 
A   17
 H2 
A   18
 H3 
A   19
 H4 
A   20
 H5 
A   21
 H6 
A   22
 H7 
A   23
 H8 
A   24
 H9 
A   25
 H10
A   26
 H11
A   27
 H12
A   28
 H13
A   29
 H14
A   30
 H15
A   31
 H16
A   32
 H17
A   33
 H18
A   34
 H19
A   35
 H20
A   36
 H21
A   37
 H22
A   38
 H23
A   39
 H24
M  END
>  <ref_pdb>  (274) 
x0051_0B

>  <ref_mols>  (274) 
x0472_0B,x0945_0B

>  <original SMILES>  (274) 
[H]c1c(C([H])([H])[H])sc(C([H])([H])[H])c1C([H])([H])C([H])([H])C([H])([H])C([H])([H])C([H])([H])C([H])([H])C([H])([H])C([H])([H])[H]

>  <index>  (274) 
171

>  <∆∆G>  (274) 
-9.167341

>  <∆G_bound>  (274) 
-9.221079

>  <∆G_unbound>  (274) 
-0.053738

>  <comRMSD>  (274) 
0.887759

>  <N_constrained_atoms>  (274) 
17.0

>  <N_unconstrained_atoms>  (274) 
3.0

>  <runtime>  (274) 
40.94637

>  <LE>  (274) 
0.458367

>  <percent_hybrid>  (274) 
50.0

>  <dist>  (274) 
6.0

>  <ecfp4>  (274) 
0.2

>  <daylight>  (274) 
0.346939

>  <topodist>  (274) 
4.0

>  <mces>  (274) 
15.0

>  <tdn>  (274) 
2.0

>  <tup>  (274) 
0.0

>  <rdn>  (274) 
2.0

>  <rup>  (274) 
0.0

>  <ldn>  (274) 
0.0

>  <lup>  (274) 
0.0

>  <mut>  (274) 
2.0

>  <maj>  (274) 
2.0

>  <min>  (274) 
0.0

>  <hyb>  (274) 
0.0

>  <sub>  (274) 
4.0

>  <query_index>  (274) 
124.0

>  <max_hit_Tanimoto>  (274) 
0.238022

>  <largest_ring>  (274) 
0

>  <N_interactions_kept>  (274) 
2.0

>  <N_interactions_lost>  (274) 
0.5

>  <interaction_uniqueness_metric>  (274) 
0.081212

>  <ad_hoc_penalty>  (274) 
-21.880148

>  <N_rotatable_bonds>  (274) 
10

>  <N_HA>  (274) 
15

>  <cluster>  (274) 
6064

>  <N_interactions>  (274) 
7

>  <Enamine>  (274) 
1

>  <Mcule>  (274) 
0

>  <N_PAINS>  (274) 
0

>  <UFF_Gibbs>  (274) 
140.761887

>  <strain_per_HA>  (274) 
9.384126

>  <saltbridge:HIS:51>  (274) 
0

>  <pistack:HIS:51>  (274) 
0

>  <hydroph_interaction:HIS:51>  (274) 
0

>  <hbond:ALA:132>  (274) 
0

>  <hbond:SER:135>  (274) 
0

>  <hydroph_interaction:TYR:150>  (274) 
1

>  <pistack:TYR:161>  (274) 
0

>  <hydroph_interaction:TYR:161>  (274) 
4

>  <hydroph_interaction:ASP:83>  (274) 
0

>  <hbond:TYR:130>  (274) 
0

>  <hydroph_interaction:ALA:132>  (274) 
0

>  <hbond:HIS:51>  (274) 
0

>  <hbond:ASP:129>  (274) 
0

>  <hbond:TYR:150>  (274) 
0

>  <hbond:GLY:151>  (274) 
0

>  <hbond:TYR:161>  (274) 
0

>  <hydroph_interaction:TYR:130>  (274) 
0

>  <hydroph_interaction:PRO:131>  (274) 
0

>  <hydroph_interaction:ASP:129>  (274) 
0

>  <saltbridge:ASP:75>  (274) 
0

>  <saltbridge:ASP:83>  (274) 
0

>  <hydroph_interaction:ASN:152>  (274) 
0

>  <halogenbond:TYR:150>  (274) 
0

>  <hbond:ASP:83>  (274) 
0

>  <hydroph_interaction:VAL:155>  (274) 
2

>  <pication:TYR:161>  (274) 
0

>  <hbond:PRO:131>  (274) 
0

>  <hbond:LEU:128>  (274) 
0

>  <saltbridge:ASP:129>  (274) 
0

>  <hbond:THR:134>  (274) 
0

>  <pication:HIS:51>  (274) 
0

>  <hbond:SER:81>  (274) 
0

>  <hbond:GLY:159>  (274) 
0

>  <hydroph_interaction:PRO:101>  (274) 
0

>  <hydroph_interaction:THR:134>  (274) 
0

>  <hbond:GLY:82>  (274) 
0

>  <hydroph_interaction:GLU:104>  (274) 
0

>  <hydroph_interaction:VAL:36>  (274) 
0

>  <hydroph_interaction:MET:49>  (274) 
0

>  <halogenbond:GLU:104>  (274) 
0

>  <hydroph_interaction:LYS:107>  (274) 
0

$$$$
MCULE-2533887065
     RDKit          3D

 38 40  0  0  0  0  0  0  0  0999 V2000
   -8.7160    7.3250  -13.9040 C   0  0  0  0  0  0  0  0  0  0  0  0
   -9.0430    6.6230  -15.0230 N   0  0  0  0  0  0  0  0  0  0  0  0
   -8.2210    5.5420  -15.5510 C   0  0  0  0  0  0  0  0  0  0  0  0
   -8.7330    5.2110  -16.8070 C   0  0  0  0  0  0  0  0  0  0  0  0
   -8.0700    5.1280  -18.0110 C   0  0  0  0  0  0  0  0  0  0  0  0
   -8.9800    4.7710  -19.0180 C   0  0  0  0  0  0  0  0  0  0  0  0
  -10.1840    4.6540  -18.3420 C   0  0  0  0  0  0  0  0  0  0  0  0
  -10.0410    4.9140  -17.0040 O   0  0  0  0  0  0  0  0  0  0  0  0
   -8.3890    8.4860  -13.9780 O   0  0  0  0  0  0  0  0  0  0  0  0
   -8.7740    6.5720  -12.6100 C   0  0  0  0  0  0  0  0  0  0  0  0
   -8.7310    7.2240  -11.3890 C   0  0  0  0  0  0  0  0  0  0  0  0
   -8.7870    6.4550  -10.2280 C   0  0  0  0  0  0  0  0  0  0  0  0
   -8.8870    5.0560  -10.2850 C   0  0  0  0  0  0  0  0  0  0  0  0
   -8.9420    4.3240   -9.0980 N   0  0  0  0  0  0  0  0  0  0  0  0
   -9.0210    2.8440   -9.2210 C   0  0  0  0  0  0  0  0  0  0  0  0
   -9.5750    2.3650   -8.0310 C   0  0  0  0  0  0  0  0  0  0  0  0
   -8.7360    2.6480   -6.9030 O   0  0  0  0  0  0  0  0  0  0  0  0
   -8.7370    4.0590   -6.6720 C   0  0  0  0  0  0  0  0  0  0  0  0
   -8.2040    4.7940   -7.9070 C   0  0  0  0  0  0  0  0  0  0  0  0
   -8.9240    4.5160  -11.5710 C   0  0  0  0  0  0  0  0  0  0  0  0
   -8.8710    5.2280  -12.7210 N   0  0  0  0  0  0  0  0  0  0  0  0
   -9.9730    6.7170  -15.4150 H   0  0  0  0  0  0  0  0  0  0  0  0
   -8.2270    4.6760  -14.8830 H   0  0  0  0  0  0  0  0  0  0  0  0
   -7.1940    5.9130  -15.6270 H   0  0  0  0  0  0  0  0  0  0  0  0
   -7.0120    5.3150  -18.1370 H   0  0  0  0  0  0  0  0  0  0  0  0
   -8.8010    4.6210  -20.0710 H   0  0  0  0  0  0  0  0  0  0  0  0
  -11.1890    4.4090  -18.6400 H   0  0  0  0  0  0  0  0  0  0  0  0
   -8.6570    8.3040  -11.3230 H   0  0  0  0  0  0  0  0  0  0  0  0
   -8.7530    6.9590   -9.2670 H   0  0  0  0  0  0  0  0  0  0  0  0
   -7.9930    2.4590   -9.2860 H   0  0  0  0  0  0  0  0  0  0  0  0
   -9.5080    2.5730  -10.1560 H   0  0  0  0  0  0  0  0  0  0  0  0
  -10.5400    2.8390   -7.8550 H   0  0  0  0  0  0  0  0  0  0  0  0
   -9.7580    1.2940   -8.0820 H   0  0  0  0  0  0  0  0  0  0  0  0
   -9.7560    4.3820   -6.4180 H   0  0  0  0  0  0  0  0  0  0  0  0
   -8.0940    4.2510   -5.8080 H   0  0  0  0  0  0  0  0  0  0  0  0
   -7.1320    4.5840   -8.0040 H   0  0  0  0  0  0  0  0  0  0  0  0
   -8.3520    5.8760   -7.7780 H   0  0  0  0  0  0  0  0  0  0  0  0
   -8.9990    3.4460  -11.7400 H   0  0  0  0  0  0  0  0  0  0  0  0
  1  2  1  0
  2  3  1  0
  3  4  1  0
  4  5  2  0
  5  6  1  0
  6  7  2  0
  7  8  1  0
  1  9  2  0
  1 10  1  0
 10 11  2  0
 11 12  1  0
 12 13  2  0
 13 14  1  0
 14 15  1  0
 15 16  1  0
 16 17  1  0
 17 18  1  0
 18 19  1  0
 13 20  1  0
 20 21  2  0
  8  4  1  0
 10 21  1  0
 19 14  1  0
  2 22  1  0
  3 23  1  0
  3 24  1  0
  5 25  1  0
  6 26  1  0
  7 27  1  0
 11 28  1  0
 12 29  1  0
 15 30  1  0
 15 31  1  0
 16 32  1  0
 16 33  1  0
 18 34  1  0
 18 35  1  0
 19 36  1  0
 19 37  1  0
 20 38  1  0
A    1
 C1 
A    2
 N1 
A    3
 C2 
A    4
 C3 
A    5
 C4 
A    6
 C5 
A    7
 C6 
A    8
 O1 
A    9
 O2 
A   10
 C7 
A   11
 C8 
A   12
 C9 
A   13
 C10
A   14
 N2 
A   15
 C11
A   16
 C12
A   17
 O3 
A   18
 C13
A   19
 C14
A   20
 C15
A   21
 N3 
A   22
 H1 
A   23
 H2 
A   24
 H3 
A   25
 H4 
A   26
 H5 
A   27
 H6 
A   28
 H7 
A   29
 H8 
A   30
 H9 
A   31
 H10
A   32
 H11
A   33
 H12
A   34
 H13
A   35
 H14
A   36
 H15
A   37
 H16
A   38
 H17
M  END
>  <ref_pdb>  (275) 
x0051_0B

>  <ref_mols>  (275) 
x0386_0B,x0404_0B

>  <original SMILES>  (275) 
[H]c1nc(C(=O)N([H])C([H])([H])c2oc([H])c([H])c2[H])c([H])c([H])c1N1C([H])([H])C([H])([H])OC([H])([H])C1([H])[H]

>  <index>  (275) 
539

>  <∆∆G>  (275) 
-5.014742

>  <∆G_bound>  (275) 
-4.471328

>  <∆G_unbound>  (275) 
0.543414

>  <comRMSD>  (275) 
0.786032

>  <N_constrained_atoms>  (275) 
21.0

>  <N_unconstrained_atoms>  (275) 
1.0

>  <runtime>  (275) 
53.756634

>  <LE>  (275) 
0.227943

>  <percent_hybrid>  (275) 
29.0

>  <dist>  (275) 
9.0

>  <ecfp4>  (275) 
0.195122

>  <daylight>  (275) 
0.182143

>  <topodist>  (275) 
3.0

>  <mces>  (275) 
23.0

>  <tdn>  (275) 
3.0

>  <tup>  (275) 
0.0

>  <rdn>  (275) 
0.0

>  <rup>  (275) 
0.0

>  <ldn>  (275) 
0.0

>  <lup>  (275) 
0.0

>  <mut>  (275) 
5.0

>  <maj>  (275) 
5.0

>  <min>  (275) 
0.0

>  <hyb>  (275) 
1.0

>  <sub>  (275) 
1.0

>  <query_index>  (275) 
109.0

>  <max_hit_Tanimoto>  (275) 
0.179707

>  <largest_ring>  (275) 
6

>  <N_interactions_kept>  (275) 
2.0

>  <N_interactions_lost>  (275) 
1.5

>  <interaction_uniqueness_metric>  (275) 
0.153806

>  <ad_hoc_penalty>  (275) 
-21.873491

>  <N_rotatable_bonds>  (275) 
4

>  <N_HA>  (275) 
21

>  <cluster>  (275) 
5725

>  <N_interactions>  (275) 
6

>  <Enamine>  (275) 
0

>  <Mcule>  (275) 
1

>  <N_PAINS>  (275) 
0

>  <UFF_Gibbs>  (275) 
65.657562

>  <strain_per_HA>  (275) 
3.126551

>  <saltbridge:HIS:51>  (275) 
0

>  <pistack:HIS:51>  (275) 
1

>  <hydroph_interaction:HIS:51>  (275) 
1

>  <hbond:ALA:132>  (275) 
1

>  <hbond:SER:135>  (275) 
0

>  <hydroph_interaction:TYR:150>  (275) 
1

>  <pistack:TYR:161>  (275) 
0

>  <hydroph_interaction:TYR:161>  (275) 
2

>  <hydroph_interaction:ASP:83>  (275) 
0

>  <hbond:TYR:130>  (275) 
0

>  <hydroph_interaction:ALA:132>  (275) 
0

>  <hbond:HIS:51>  (275) 
0

>  <hbond:ASP:129>  (275) 
0

>  <hbond:TYR:150>  (275) 
0

>  <hbond:GLY:151>  (275) 
0

>  <hbond:TYR:161>  (275) 
0

>  <hydroph_interaction:TYR:130>  (275) 
0

>  <hydroph_interaction:PRO:131>  (275) 
0

>  <hydroph_interaction:ASP:129>  (275) 
0

>  <saltbridge:ASP:75>  (275) 
0

>  <saltbridge:ASP:83>  (275) 
0

>  <hydroph_interaction:ASN:152>  (275) 
0

>  <halogenbond:TYR:150>  (275) 
0

>  <hbond:ASP:83>  (275) 
0

>  <hydroph_interaction:VAL:155>  (275) 
0

>  <pication:TYR:161>  (275) 
0

>  <hbond:PRO:131>  (275) 
0

>  <hbond:LEU:128>  (275) 
0

>  <saltbridge:ASP:129>  (275) 
0

>  <hbond:THR:134>  (275) 
0

>  <pication:HIS:51>  (275) 
0

>  <hbond:SER:81>  (275) 
0

>  <hbond:GLY:159>  (275) 
0

>  <hydroph_interaction:PRO:101>  (275) 
0

>  <hydroph_interaction:THR:134>  (275) 
0

>  <hbond:GLY:82>  (275) 
0

>  <hydroph_interaction:GLU:104>  (275) 
0

>  <hydroph_interaction:VAL:36>  (275) 
0

>  <hydroph_interaction:MET:49>  (275) 
0

>  <halogenbond:GLU:104>  (275) 
0

>  <hydroph_interaction:LYS:107>  (275) 
0

$$$$
OZRKQBALZJUOGT-UHFFFAOYSA-N
     RDKit          3D

 51 55  0  0  0  0  0  0  0  0999 V2000
   -5.5360    6.0390  -21.0620 C   0  0  0  0  0  0  0  0  0  0  0  0
   -5.9120    6.1070  -19.7120 N   0  0  0  0  0  0  0  0  0  0  0  0
   -5.0080    6.0320  -18.6170 C   0  0  0  0  0  0  0  0  0  0  0  0
   -5.4340    6.2060  -17.2990 C   0  0  0  0  0  0  0  0  0  0  0  0
   -6.7230    5.8000  -16.9700 C   0  0  0  0  0  0  0  0  0  0  0  0
   -7.6140    5.4490  -17.9800 C   0  0  0  0  0  0  0  0  0  0  0  0
   -9.0070    5.0120  -17.5390 C   0  0  0  0  0  0  0  0  0  0  0  0
   -9.2530    5.0140  -16.1830 C   0  0  0  0  0  0  0  0  0  0  0  0
   -8.3650    5.3650  -15.2300 N   0  0  0  0  0  0  0  0  0  0  0  0
   -7.1350    5.7410  -15.6430 C   0  0  0  0  0  0  0  0  0  0  0  0
   -7.2240    5.5070  -19.4290 C   0  0  0  0  0  0  0  0  0  0  0  0
   -5.1720    5.0230  -21.6310 O   0  0  0  0  0  0  0  0  0  0  0  0
   -5.5730    7.2730  -21.9360 C   0  0  0  0  0  0  0  0  0  0  0  0
   -6.0720    7.0860  -23.2350 C   0  0  0  0  0  0  0  0  0  0  0  0
   -6.1450    8.1380  -24.1240 C   0  0  0  0  0  0  0  0  0  0  0  0
   -5.7240    9.4120  -23.7570 C   0  0  0  0  0  0  0  0  0  0  0  0
   -5.7680   10.4790  -24.6100 O   0  0  0  0  0  0  0  0  0  0  0  0
   -5.7950   10.1100  -26.0060 C   0  0  0  0  0  0  0  0  0  0  0  0
   -7.1570    9.8280  -26.6640 C   0  0  0  0  0  0  0  0  0  0  0  0
   -7.4450    8.4200  -27.0240 N   0  0  0  0  0  0  0  0  0  0  0  0
   -8.7840    8.2910  -27.5870 C   0  0  0  0  0  0  0  0  0  0  0  0
   -9.6560    9.3830  -27.7620 C   0  0  0  0  0  0  0  0  0  0  0  0
  -10.9300    9.2020  -28.2770 C   0  0  0  0  0  0  0  0  0  0  0  0
  -11.3850    7.9570  -28.6380 C   0  0  0  0  0  0  0  0  0  0  0  0
  -10.5330    6.8610  -28.4840 C   0  0  0  0  0  0  0  0  0  0  0  0
   -9.2520    7.0380  -27.9660 C   0  0  0  0  0  0  0  0  0  0  0  0
   -9.2580   10.6670  -27.4130 C   0  0  0  0  0  0  0  0  0  0  0  0
   -8.0170   10.8830  -26.8650 C   0  0  0  0  0  0  0  0  0  0  0  0
   -5.2220    9.6240  -22.4540 C   0  0  0  0  0  0  0  0  0  0  0  0
   -5.1440    8.5560  -21.5350 C   0  0  0  0  0  0  0  0  0  0  0  0
   -4.5370    5.0470  -18.6880 H   0  0  0  0  0  0  0  0  0  0  0  0
   -4.2360    6.7830  -18.8260 H   0  0  0  0  0  0  0  0  0  0  0  0
   -4.7280    5.6640  -16.6630 H   0  0  0  0  0  0  0  0  0  0  0  0
   -5.3520    7.2700  -17.0610 H   0  0  0  0  0  0  0  0  0  0  0  0
   -9.7810    4.7140  -18.2600 H   0  0  0  0  0  0  0  0  0  0  0  0
  -10.2650    4.6980  -15.9060 H   0  0  0  0  0  0  0  0  0  0  0  0
   -6.4530    6.0110  -14.8310 H   0  0  0  0  0  0  0  0  0  0  0  0
   -7.2180    4.4990  -19.8520 H   0  0  0  0  0  0  0  0  0  0  0  0
   -7.9810    6.1010  -19.9340 H   0  0  0  0  0  0  0  0  0  0  0  0
   -6.4030    6.0970  -23.5410 H   0  0  0  0  0  0  0  0  0  0  0  0
   -6.5360    7.9670  -25.1250 H   0  0  0  0  0  0  0  0  0  0  0  0
   -5.1860    9.2120  -26.1460 H   0  0  0  0  0  0  0  0  0  0  0  0
   -5.3450   10.9190  -26.5940 H   0  0  0  0  0  0  0  0  0  0  0  0
  -11.5870   10.0530  -28.3980 H   0  0  0  0  0  0  0  0  0  0  0  0
  -12.3900    7.8340  -29.0370 H   0  0  0  0  0  0  0  0  0  0  0  0
  -10.8640    5.8630  -28.7660 H   0  0  0  0  0  0  0  0  0  0  0  0
   -8.6000    6.1790  -27.8460 H   0  0  0  0  0  0  0  0  0  0  0  0
   -9.9270   11.5080  -27.5580 H   0  0  0  0  0  0  0  0  0  0  0  0
   -7.7220   11.8880  -26.5830 H   0  0  0  0  0  0  0  0  0  0  0  0
   -4.8930   10.6170  -22.1600 H   0  0  0  0  0  0  0  0  0  0  0  0
   -4.7570    8.7220  -20.5340 H   0  0  0  0  0  0  0  0  0  0  0  0
  1  2  1  0
  2  3  1  0
  3  4  1  0
  4  5  1  0
  5  6  2  0
  6  7  1  0
  7  8  2  0
  8  9  1  0
  9 10  2  0
  6 11  1  0
  1 12  2  0
  1 13  1  0
 13 14  2  0
 14 15  1  0
 15 16  2  0
 16 17  1  0
 17 18  1  0
 18 19  1  0
 19 20  2  0
 20 21  1  0
 21 22  2  0
 22 23  1  0
 23 24  2  0
 24 25  1  0
 25 26  2  0
 22 27  1  0
 27 28  2  0
 16 29  1  0
 29 30  2  0
 11  2  1  0
 10  5  1  0
 30 13  1  0
 28 19  1  0
 26 21  1  0
  3 31  1  0
  3 32  1  0
  4 33  1  0
  4 34  1  0
  7 35  1  0
  8 36  1  0
 10 37  1  0
 11 38  1  0
 11 39  1  0
 14 40  1  0
 15 41  1  0
 18 42  1  0
 18 43  1  0
 23 44  1  0
 24 45  1  0
 25 46  1  0
 26 47  1  0
 27 48  1  0
 28 49  1  0
 29 50  1  0
 30 51  1  0
A    1
 C1 
A    2
 N1 
A    3
 C2 
A    4
 C3 
A    5
 C4 
A    6
 C5 
A    7
 C6 
A    8
 C7 
A    9
 N2 
A   10
 C8 
A   11
 C9 
A   12
 O1 
A   13
 C10
A   14
 C11
A   15
 C12
A   16
 C13
A   17
 O2 
A   18
 C14
A   19
 C15
A   20
 N3 
A   21
 C16
A   22
 C17
A   23
 C18
A   24
 C19
A   25
 C20
A   26
 C21
A   27
 C22
A   28
 C23
A   29
 C24
A   30
 C25
A   31
 H1 
A   32
 H2 
A   33
 H3 
A   34
 H4 
A   35
 H5 
A   36
 H6 
A   37
 H7 
A   38
 H8 
A   39
 H9 
A   40
 H10
A   41
 H11
A   42
 H12
A   43
 H13
A   44
 H14
A   45
 H15
A   46
 H16
A   47
 H17
A   48
 H18
A   49
 H19
A   50
 H20
A   51
 H21
M  END
>  <ref_pdb>  (276) 
x0051_0B

>  <ref_mols>  (276) 
x0846_1B,x0969_0B

>  <original SMILES>  (276) 
[H]c1nc([H])c2c(c1[H])C([H])([H])N(C(=O)c1c([H])c([H])c(OC([H])([H])c3nc4c([H])c([H])c([H])c([H])c4c([H])c3[H])c([H])c1[H])C([H])([H])C2([H])[H]

>  <index>  (276) 
528

>  <∆∆G>  (276) 
-8.309393

>  <∆G_bound>  (276) 
-8.104047

>  <∆G_unbound>  (276) 
0.205345

>  <comRMSD>  (276) 
0.812258

>  <N_constrained_atoms>  (276) 
28.0

>  <N_unconstrained_atoms>  (276) 
4.0

>  <runtime>  (276) 
58.062785

>  <LE>  (276) 
0.259669

>  <percent_hybrid>  (276) 
36.0

>  <dist>  (276) 
10.0

>  <ecfp4>  (276) 
0.127451

>  <daylight>  (276) 
0.259939

>  <topodist>  (276) 
5.0

>  <mces>  (276) 
31.0

>  <tdn>  (276) 
2.0

>  <tup>  (276) 
1.0

>  <rdn>  (276) 
0.0

>  <rup>  (276) 
0.0

>  <ldn>  (276) 
0.0

>  <lup>  (276) 
2.0

>  <mut>  (276) 
5.0

>  <maj>  (276) 
5.0

>  <min>  (276) 
0.0

>  <hyb>  (276) 
0.0

>  <sub>  (276) 
2.0

>  <query_index>  (276) 
45.0

>  <max_hit_Tanimoto>  (276) 
0.232161

>  <largest_ring>  (276) 
6

>  <N_interactions_kept>  (276) 
0.5

>  <N_interactions_lost>  (276) 
2.0

>  <interaction_uniqueness_metric>  (276) 
0.179263

>  <ad_hoc_penalty>  (276) 
-21.839725

>  <N_rotatable_bonds>  (276) 
4

>  <N_HA>  (276) 
30

>  <cluster>  (276) 
5736

>  <N_interactions>  (276) 
5

>  <Enamine>  (276) 
0

>  <Mcule>  (276) 
1

>  <N_PAINS>  (276) 
0

>  <UFF_Gibbs>  (276) 
105.176365

>  <strain_per_HA>  (276) 
3.505879

>  <saltbridge:HIS:51>  (276) 
0

>  <pistack:HIS:51>  (276) 
0

>  <hydroph_interaction:HIS:51>  (276) 
0

>  <hbond:ALA:132>  (276) 
0

>  <hbond:SER:135>  (276) 
0

>  <hydroph_interaction:TYR:150>  (276) 
0

>  <pistack:TYR:161>  (276) 
1

>  <hydroph_interaction:TYR:161>  (276) 
0

>  <hydroph_interaction:ASP:83>  (276) 
0

>  <hbond:TYR:130>  (276) 
0

>  <hydroph_interaction:ALA:132>  (276) 
1

>  <hbond:HIS:51>  (276) 
0

>  <hbond:ASP:129>  (276) 
1

>  <hbond:TYR:150>  (276) 
0

>  <hbond:GLY:151>  (276) 
0

>  <hbond:TYR:161>  (276) 
0

>  <hydroph_interaction:TYR:130>  (276) 
1

>  <hydroph_interaction:PRO:131>  (276) 
1

>  <hydroph_interaction:ASP:129>  (276) 
0

>  <saltbridge:ASP:75>  (276) 
0

>  <saltbridge:ASP:83>  (276) 
0

>  <hydroph_interaction:ASN:152>  (276) 
0

>  <halogenbond:TYR:150>  (276) 
0

>  <hbond:ASP:83>  (276) 
0

>  <hydroph_interaction:VAL:155>  (276) 
0

>  <pication:TYR:161>  (276) 
0

>  <hbond:PRO:131>  (276) 
0

>  <hbond:LEU:128>  (276) 
0

>  <saltbridge:ASP:129>  (276) 
0

>  <hbond:THR:134>  (276) 
0

>  <pication:HIS:51>  (276) 
0

>  <hbond:SER:81>  (276) 
0

>  <hbond:GLY:159>  (276) 
0

>  <hydroph_interaction:PRO:101>  (276) 
0

>  <hydroph_interaction:THR:134>  (276) 
0

>  <hbond:GLY:82>  (276) 
0

>  <hydroph_interaction:GLU:104>  (276) 
0

>  <hydroph_interaction:VAL:36>  (276) 
0

>  <hydroph_interaction:MET:49>  (276) 
0

>  <halogenbond:GLU:104>  (276) 
0

>  <hydroph_interaction:LYS:107>  (276) 
0

$$$$
CSSS00000018849
     RDKit          3D

 21 22  0  0  0  0  0  0  0  0999 V2000
   -6.1920    5.2680  -20.1850 C   0  0  0  0  0  0  0  0  0  0  0  0
   -6.4400    5.8580  -18.8090 C   0  0  0  0  0  0  0  0  0  0  0  0
   -5.3910    5.5730  -17.7990 N   0  0  0  0  0  0  0  0  0  0  0  0
   -5.6480    6.1990  -16.4750 C   0  0  0  0  0  0  0  0  0  0  0  0
   -6.9920    5.8860  -15.9120 C   0  0  0  0  0  0  0  0  0  0  0  0
   -8.0110    5.4670  -16.9100 C   0  0  0  0  0  0  0  0  0  0  0  0
   -7.7660    5.4390  -18.2740 C   0  0  0  0  0  0  0  0  0  0  0  0
   -8.8900    4.9920  -18.9790 C   0  0  0  0  0  0  0  0  0  0  0  0
   -9.9870    4.6900  -18.1940 C   0  0  0  0  0  0  0  0  0  0  0  0
   -9.5920    4.9720  -16.5430 S   0  0  0  0  0  0  0  0  0  0  0  0
   -6.8900    4.4490  -20.3960 H   0  0  0  0  0  0  0  0  0  0  0  0
   -6.3540    6.0330  -20.9480 H   0  0  0  0  0  0  0  0  0  0  0  0
   -5.1550    4.9310  -20.2770 H   0  0  0  0  0  0  0  0  0  0  0  0
   -6.4670    6.9500  -18.9210 H   0  0  0  0  0  0  0  0  0  0  0  0
   -4.4930    5.8960  -18.1530 H   0  0  0  0  0  0  0  0  0  0  0  0
   -5.5100    7.2840  -16.5420 H   0  0  0  0  0  0  0  0  0  0  0  0
   -4.8880    5.8490  -15.7680 H   0  0  0  0  0  0  0  0  0  0  0  0
   -7.3440    6.7620  -15.3560 H   0  0  0  0  0  0  0  0  0  0  0  0
   -6.8810    5.0690  -15.1870 H   0  0  0  0  0  0  0  0  0  0  0  0
   -8.8820    4.9000  -20.0630 H   0  0  0  0  0  0  0  0  0  0  0  0
  -10.9620    4.3360  -18.4890 H   0  0  0  0  0  0  0  0  0  0  0  0
  1  2  1  0
  2  3  1  0
  3  4  1  0
  4  5  1  0
  5  6  1  0
  6  7  2  0
  7  8  1  0
  8  9  2  0
  9 10  1  0
  7  2  1  0
 10  6  1  0
  1 11  1  0
  1 12  1  0
  1 13  1  0
  2 14  1  0
  3 15  1  0
  4 16  1  0
  4 17  1  0
  5 18  1  0
  5 19  1  0
  8 20  1  0
  9 21  1  0
A    1
 C1 
A    2
 C2 
A    3
 N1 
A    4
 C3 
A    5
 C4 
A    6
 C5 
A    7
 C6 
A    8
 C7 
A    9
 C8 
A   10
 S1 
A   11
 H1 
A   12
 H2 
A   13
 H3 
A   14
 H4 
A   15
 H5 
A   16
 H6 
A   17
 H7 
A   18
 H8 
A   19
 H9 
A   20
 H10
A   21
 H11
M  END
>  <ref_pdb>  (277) 
x0051_0B

>  <ref_mols>  (277) 
x0472_0B,x0386_0B

>  <original SMILES>  (277) 
[H]c1sc2c(c1[H])C([H])(C([H])([H])[H])N([H])C([H])([H])C2([H])[H]

>  <index>  (277) 
564

>  <∆∆G>  (277) 
-5.955018

>  <∆G_bound>  (277) 
-5.950368

>  <∆G_unbound>  (277) 
0.00465

>  <comRMSD>  (277) 
0.485991

>  <N_constrained_atoms>  (277) 
11.0

>  <N_unconstrained_atoms>  (277) 
0.0

>  <runtime>  (277) 
20.639339

>  <LE>  (277) 
0.541365

>  <percent_hybrid>  (277) 
20.0

>  <dist>  (277) 
5.0

>  <ecfp4>  (277) 
0.369565

>  <daylight>  (277) 
0.735537

>  <topodist>  (277) 
4.0

>  <mces>  (277) 
11.0

>  <tdn>  (277) 
4.0

>  <tup>  (277) 
0.0

>  <rdn>  (277) 
0.0

>  <rup>  (277) 
0.0

>  <ldn>  (277) 
0.0

>  <lup>  (277) 
0.0

>  <mut>  (277) 
1.0

>  <maj>  (277) 
1.0

>  <min>  (277) 
0.0

>  <hyb>  (277) 
0.0

>  <sub>  (277) 
1.0

>  <query_index>  (277) 
75.0

>  <max_hit_Tanimoto>  (277) 
0.59799

>  <largest_ring>  (277) 
6

>  <N_interactions_kept>  (277) 
2.0

>  <N_interactions_lost>  (277) 
1.0

>  <interaction_uniqueness_metric>  (277) 
0.044444

>  <ad_hoc_penalty>  (277) 
-21.838671

>  <N_rotatable_bonds>  (277) 
1

>  <N_HA>  (277) 
10

>  <cluster>  (277) 
5702

>  <N_interactions>  (277) 
3

>  <Enamine>  (277) 
1

>  <Mcule>  (277) 
0

>  <N_PAINS>  (277) 
0

>  <UFF_Gibbs>  (277) 
17.13251

>  <strain_per_HA>  (277) 
1.713251

>  <saltbridge:HIS:51>  (277) 
0

>  <pistack:HIS:51>  (277) 
0

>  <hydroph_interaction:HIS:51>  (277) 
0

>  <hbond:ALA:132>  (277) 
0

>  <hbond:SER:135>  (277) 
0

>  <hydroph_interaction:TYR:150>  (277) 
0

>  <pistack:TYR:161>  (277) 
1

>  <hydroph_interaction:TYR:161>  (277) 
1

>  <hydroph_interaction:ASP:83>  (277) 
0

>  <hbond:TYR:130>  (277) 
0

>  <hydroph_interaction:ALA:132>  (277) 
1

>  <hbond:HIS:51>  (277) 
0

>  <hbond:ASP:129>  (277) 
0

>  <hbond:TYR:150>  (277) 
0

>  <hbond:GLY:151>  (277) 
0

>  <hbond:TYR:161>  (277) 
0

>  <hydroph_interaction:TYR:130>  (277) 
0

>  <hydroph_interaction:PRO:131>  (277) 
0

>  <hydroph_interaction:ASP:129>  (277) 
0

>  <saltbridge:ASP:75>  (277) 
0

>  <saltbridge:ASP:83>  (277) 
0

>  <hydroph_interaction:ASN:152>  (277) 
0

>  <halogenbond:TYR:150>  (277) 
0

>  <hbond:ASP:83>  (277) 
0

>  <hydroph_interaction:VAL:155>  (277) 
0

>  <pication:TYR:161>  (277) 
0

>  <hbond:PRO:131>  (277) 
0

>  <hbond:LEU:128>  (277) 
0

>  <saltbridge:ASP:129>  (277) 
0

>  <hbond:THR:134>  (277) 
0

>  <pication:HIS:51>  (277) 
0

>  <hbond:SER:81>  (277) 
0

>  <hbond:GLY:159>  (277) 
0

>  <hydroph_interaction:PRO:101>  (277) 
0

>  <hydroph_interaction:THR:134>  (277) 
0

>  <hbond:GLY:82>  (277) 
0

>  <hydroph_interaction:GLU:104>  (277) 
0

>  <hydroph_interaction:VAL:36>  (277) 
0

>  <hydroph_interaction:MET:49>  (277) 
0

>  <halogenbond:GLU:104>  (277) 
0

>  <hydroph_interaction:LYS:107>  (277) 
0

$$$$
Z2883671635
     RDKit          3D

 44 47  0  0  0  0  0  0  0  0999 V2000
   -8.1210    7.3730  -13.3690 O   0  0  0  0  0  0  0  0  0  0  0  0
   -8.3930    6.2160  -13.6750 C   0  0  0  0  0  0  0  0  0  0  0  0
   -8.7700    5.2260  -12.6960 N   0  0  0  0  0  0  0  0  0  0  0  0
   -8.8160    5.3730  -11.2560 C   0  0  0  0  0  0  0  0  0  0  0  0
   -8.9520    4.3140  -10.3310 C   0  0  0  0  0  0  0  0  0  0  0  0
   -9.0810    2.8530  -10.4640 C   0  0  0  0  0  0  0  0  0  0  0  0
   -9.4030    2.0800   -9.3340 C   0  0  0  0  0  0  0  0  0  0  0  0
   -9.6210    2.8840   -7.9740 C   0  0  0  0  0  0  0  0  0  0  0  0
   -9.0650    4.1630   -7.8660 C   0  0  0  0  0  0  0  0  0  0  0  0
   -8.9530    4.8680   -9.0770 N   0  0  0  0  0  0  0  0  0  0  0  0
   -8.8330    6.2030   -9.0800 N   0  0  0  0  0  0  0  0  0  0  0  0
   -8.7520    6.5100  -10.3910 C   0  0  0  0  0  0  0  0  0  0  0  0
   -8.3370    5.8440  -15.1510 C   0  0  0  0  0  0  0  0  0  0  0  0
   -9.2690    5.1140  -15.8660 C   0  0  0  0  0  0  0  0  0  0  0  0
   -8.8080    4.9400  -17.5100 S   0  0  0  0  0  0  0  0  0  0  0  0
   -7.3620    5.8610  -17.2520 C   0  0  0  0  0  0  0  0  0  0  0  0
   -6.4320    6.1530  -18.2560 N   0  0  0  0  0  0  0  0  0  0  0  0
   -6.7530    6.9720  -19.4290 C   0  0  0  0  0  0  0  0  0  0  0  0
   -5.8370    6.6860  -20.6200 C   0  0  0  0  0  0  0  0  0  0  0  0
   -4.3660    6.6590  -20.2280 C   0  0  0  0  0  0  0  0  0  0  0  0
   -4.1250    5.7490  -19.0340 C   0  0  0  0  0  0  0  0  0  0  0  0
   -5.4230    5.1420  -18.5110 C   0  0  0  0  0  0  0  0  0  0  0  0
   -7.2580    6.2540  -15.9780 N   0  0  0  0  0  0  0  0  0  0  0  0
   -9.1280    4.3480  -13.0390 H   0  0  0  0  0  0  0  0  0  0  0  0
   -9.8470    2.6640  -11.2250 H   0  0  0  0  0  0  0  0  0  0  0  0
   -8.1470    2.4520  -10.8780 H   0  0  0  0  0  0  0  0  0  0  0  0
  -10.2690    1.4370   -9.4140 H   0  0  0  0  0  0  0  0  0  0  0  0
   -8.5830    1.3840   -9.1820 H   0  0  0  0  0  0  0  0  0  0  0  0
   -9.1950    2.2690   -7.1710 H   0  0  0  0  0  0  0  0  0  0  0  0
  -10.6910    2.9360   -7.7580 H   0  0  0  0  0  0  0  0  0  0  0  0
   -9.6420    4.8060   -7.1940 H   0  0  0  0  0  0  0  0  0  0  0  0
   -8.0610    4.1020   -7.4360 H   0  0  0  0  0  0  0  0  0  0  0  0
   -8.6490    7.5510  -10.6650 H   0  0  0  0  0  0  0  0  0  0  0  0
  -10.1920    4.6740  -15.5190 H   0  0  0  0  0  0  0  0  0  0  0  0
   -7.7880    6.7870  -19.7250 H   0  0  0  0  0  0  0  0  0  0  0  0
   -6.6380    8.0370  -19.2230 H   0  0  0  0  0  0  0  0  0  0  0  0
   -6.1140    5.7350  -21.0900 H   0  0  0  0  0  0  0  0  0  0  0  0
   -5.9940    7.4650  -21.3790 H   0  0  0  0  0  0  0  0  0  0  0  0
   -3.7570    6.3110  -21.0720 H   0  0  0  0  0  0  0  0  0  0  0  0
   -4.0350    7.6810  -20.0060 H   0  0  0  0  0  0  0  0  0  0  0  0
   -3.6190    6.3080  -18.2390 H   0  0  0  0  0  0  0  0  0  0  0  0
   -3.4450    4.9430  -19.3300 H   0  0  0  0  0  0  0  0  0  0  0  0
   -5.1850    4.5840  -17.6020 H   0  0  0  0  0  0  0  0  0  0  0  0
   -5.8270    4.4470  -19.2490 H   0  0  0  0  0  0  0  0  0  0  0  0
  1  2  2  0
  2  3  1  0
  3  4  1  0
  4  5  2  0
  5  6  1  0
  6  7  1  0
  7  8  1  0
  8  9  1  0
  9 10  1  0
 10 11  1  0
 11 12  2  0
  2 13  1  0
 13 14  2  0
 14 15  1  0
 15 16  1  0
 16 17  1  0
 17 18  1  0
 18 19  1  0
 19 20  1  0
 20 21  1  0
 21 22  1  0
 16 23  2  0
 12  4  1  0
 10  5  1  0
 23 13  1  0
 22 17  1  0
  3 24  1  0
  6 25  1  0
  6 26  1  0
  7 27  1  0
  7 28  1  0
  8 29  1  0
  8 30  1  0
  9 31  1  0
  9 32  1  0
 12 33  1  0
 14 34  1  0
 18 35  1  0
 18 36  1  0
 19 37  1  0
 19 38  1  0
 20 39  1  0
 20 40  1  0
 21 41  1  0
 21 42  1  0
 22 43  1  0
 22 44  1  0
A    1
 O1 
A    2
 C1 
A    3
 N1 
A    4
 C2 
A    5
 C3 
A    6
 C4 
A    7
 C5 
A    8
 C6 
A    9
 C7 
A   10
 N2 
A   11
 N3 
A   12
 C8 
A   13
 C9 
A   14
 C10
A   15
 S1 
A   16
 C11
A   17
 N4 
A   18
 C12
A   19
 C13
A   20
 C14
A   21
 C15
A   22
 C16
A   23
 N5 
A   24
 H1 
A   25
 H2 
A   26
 H3 
A   27
 H4 
A   28
 H5 
A   29
 H6 
A   30
 H7 
A   31
 H8 
A   32
 H9 
A   33
 H10
A   34
 H11
A   35
 H12
A   36
 H13
A   37
 H14
A   38
 H15
A   39
 H16
A   40
 H17
A   41
 H18
A   42
 H19
A   43
 H20
A   44
 H21
M  END
>  <ref_pdb>  (278) 
x0051_0B

>  <ref_mols>  (278) 
x0917_1B,x0969_1B

>  <original SMILES>  (278) 
[H]c1nn2c(c1N([H])C(=O)c1nc(N3C([H])([H])C([H])([H])C([H])([H])C([H])([H])C3([H])[H])sc1[H])C([H])([H])C([H])([H])C([H])([H])C2([H])[H]

>  <index>  (278) 
508

>  <∆∆G>  (278) 
-5.612805

>  <∆G_bound>  (278) 
-4.977679

>  <∆G_unbound>  (278) 
0.635125

>  <comRMSD>  (278) 
0.628245

>  <N_constrained_atoms>  (278) 
24.0

>  <N_unconstrained_atoms>  (278) 
0.0

>  <runtime>  (278) 
64.778451

>  <LE>  (278) 
0.233867

>  <percent_hybrid>  (278) 
40.0

>  <dist>  (278) 
9.0

>  <ecfp4>  (278) 
0.186047

>  <daylight>  (278) 
0.283544

>  <topodist>  (278) 
2.0

>  <mces>  (278) 
26.0

>  <tdn>  (278) 
2.0

>  <tup>  (278) 
0.0

>  <rdn>  (278) 
0.0

>  <rup>  (278) 
0.0

>  <ldn>  (278) 
0.0

>  <lup>  (278) 
0.0

>  <mut>  (278) 
6.0

>  <maj>  (278) 
6.0

>  <min>  (278) 
0.0

>  <hyb>  (278) 
1.0

>  <sub>  (278) 
0.0

>  <query_index>  (278) 
298.0

>  <max_hit_Tanimoto>  (278) 
0.261014

>  <largest_ring>  (278) 
6

>  <N_interactions_kept>  (278) 
2.5

>  <N_interactions_lost>  (278) 
0.5

>  <interaction_uniqueness_metric>  (278) 
0.103191

>  <ad_hoc_penalty>  (278) 
-21.834034

>  <N_rotatable_bonds>  (278) 
3

>  <N_HA>  (278) 
23

>  <cluster>  (278) 
5755

>  <N_interactions>  (278) 
3

>  <Enamine>  (278) 
1

>  <Mcule>  (278) 
0

>  <N_PAINS>  (278) 
0

>  <UFF_Gibbs>  (278) 
71.971811

>  <strain_per_HA>  (278) 
3.129209

>  <saltbridge:HIS:51>  (278) 
0

>  <pistack:HIS:51>  (278) 
1

>  <hydroph_interaction:HIS:51>  (278) 
1

>  <hbond:ALA:132>  (278) 
0

>  <hbond:SER:135>  (278) 
0

>  <hydroph_interaction:TYR:150>  (278) 
0

>  <pistack:TYR:161>  (278) 
0

>  <hydroph_interaction:TYR:161>  (278) 
0

>  <hydroph_interaction:ASP:83>  (278) 
0

>  <hbond:TYR:130>  (278) 
0

>  <hydroph_interaction:ALA:132>  (278) 
0

>  <hbond:HIS:51>  (278) 
0

>  <hbond:ASP:129>  (278) 
0

>  <hbond:TYR:150>  (278) 
0

>  <hbond:GLY:151>  (278) 
1

>  <hbond:TYR:161>  (278) 
0

>  <hydroph_interaction:TYR:130>  (278) 
0

>  <hydroph_interaction:PRO:131>  (278) 
0

>  <hydroph_interaction:ASP:129>  (278) 
0

>  <saltbridge:ASP:75>  (278) 
0

>  <saltbridge:ASP:83>  (278) 
0

>  <hydroph_interaction:ASN:152>  (278) 
0

>  <halogenbond:TYR:150>  (278) 
0

>  <hbond:ASP:83>  (278) 
0

>  <hydroph_interaction:VAL:155>  (278) 
0

>  <pication:TYR:161>  (278) 
0

>  <hbond:PRO:131>  (278) 
0

>  <hbond:LEU:128>  (278) 
0

>  <saltbridge:ASP:129>  (278) 
0

>  <hbond:THR:134>  (278) 
0

>  <pication:HIS:51>  (278) 
0

>  <hbond:SER:81>  (278) 
0

>  <hbond:GLY:159>  (278) 
0

>  <hydroph_interaction:PRO:101>  (278) 
0

>  <hydroph_interaction:THR:134>  (278) 
0

>  <hbond:GLY:82>  (278) 
0

>  <hydroph_interaction:GLU:104>  (278) 
0

>  <hydroph_interaction:VAL:36>  (278) 
0

>  <hydroph_interaction:MET:49>  (278) 
0

>  <halogenbond:GLU:104>  (278) 
0

>  <hydroph_interaction:LYS:107>  (278) 
0

$$$$
CSSS00000015475
     RDKit          3D

 24 25  0  0  0  0  0  0  0  0999 V2000
  -10.1530    4.7570  -18.5610 C   0  0  0  0  0  0  0  0  0  0  0  0
   -9.0320    5.0540  -17.5490 C   0  0  0  0  0  0  0  0  0  0  0  0
   -9.3090    5.1500  -16.1550 C   0  0  0  0  0  0  0  0  0  0  0  0
   -8.2480    5.4140  -15.2340 C   0  0  0  0  0  0  0  0  0  0  0  0
   -8.4540    5.8920  -14.1230 O   0  0  0  0  0  0  0  0  0  0  0  0
   -7.0050    5.0990  -15.6930 N   0  0  0  0  0  0  0  0  0  0  0  0
   -6.6120    5.2430  -17.0380 C   0  0  0  0  0  0  0  0  0  0  0  0
   -5.2600    5.3890  -17.4360 C   0  0  0  0  0  0  0  0  0  0  0  0
   -4.3400    5.3710  -16.4200 C   0  0  0  0  0  0  0  0  0  0  0  0
   -4.9530    5.5320  -18.7910 C   0  0  0  0  0  0  0  0  0  0  0  0
   -3.3310    5.7190  -19.3600 Cl  0  0  0  0  0  0  0  0  0  0  0  0
   -5.9690    5.5280  -19.7560 C   0  0  0  0  0  0  0  0  0  0  0  0
   -7.3110    5.3740  -19.3480 C   0  0  0  0  0  0  0  0  0  0  0  0
   -7.6400    5.2300  -18.0020 C   0  0  0  0  0  0  0  0  0  0  0  0
  -10.0860    3.7050  -18.8280 H   0  0  0  0  0  0  0  0  0  0  0  0
  -10.0050    5.3560  -19.4650 H   0  0  0  0  0  0  0  0  0  0  0  0
  -11.1360    4.9820  -18.1490 H   0  0  0  0  0  0  0  0  0  0  0  0
  -10.2840    5.0310  -15.7160 H   0  0  0  0  0  0  0  0  0  0  0  0
   -6.3940    4.6710  -15.0040 H   0  0  0  0  0  0  0  0  0  0  0  0
   -3.4420    4.8330  -16.7380 H   0  0  0  0  0  0  0  0  0  0  0  0
   -4.7390    4.9070  -15.5110 H   0  0  0  0  0  0  0  0  0  0  0  0
   -4.0330    6.3910  -16.1600 H   0  0  0  0  0  0  0  0  0  0  0  0
   -5.7360    5.6400  -20.8180 H   0  0  0  0  0  0  0  0  0  0  0  0
   -8.0790    5.3670  -20.1150 H   0  0  0  0  0  0  0  0  0  0  0  0
  1  2  1  0
  2  3  2  0
  3  4  1  0
  4  5  2  0
  4  6  1  0
  6  7  1  0
  7  8  2  0
  8  9  1  0
  8 10  1  0
 10 11  1  0
 10 12  2  0
 12 13  1  0
 13 14  2  0
 14  2  1  0
 14  7  1  0
  1 15  1  0
  1 16  1  0
  1 17  1  0
  3 18  1  0
  6 19  1  0
  9 20  1  0
  9 21  1  0
  9 22  1  0
 12 23  1  0
 13 24  1  0
A    1
 C1 
A    2
 C2 
A    3
 C3 
A    4
 C4 
A    5
 O1 
A    6
 N1 
A    7
 C5 
A    8
 C6 
A    9
 C7 
A   10
 C8 
A   11
CL1 
A   12
 C9 
A   13
 C10
A   14
 C11
A   15
 H1 
A   16
 H2 
A   17
 H3 
A   18
 H4 
A   19
 H5 
A   20
 H6 
A   21
 H7 
A   22
 H8 
A   23
 H9 
A   24
 H10
M  END
>  <ref_pdb>  (279) 
x0051_0B

>  <ref_mols>  (279) 
x0425_0B,x0435_0B

>  <original SMILES>  (279) 
[H]c1c(Cl)c(C([H])([H])[H])c2c(c1[H])c(C([H])([H])[H])c([H])c(=O)n2[H]

>  <index>  (279) 
421

>  <∆∆G>  (279) 
-8.013758

>  <∆G_bound>  (279) 
-8.031411

>  <∆G_unbound>  (279) 
-0.017653

>  <comRMSD>  (279) 
0.903182

>  <N_constrained_atoms>  (279) 
13.0

>  <N_unconstrained_atoms>  (279) 
3.0

>  <runtime>  (279) 
18.537195

>  <LE>  (279) 
0.50086

>  <percent_hybrid>  (279) 
40.0

>  <dist>  (279) 
4.0

>  <ecfp4>  (279) 
0.083333

>  <daylight>  (279) 
0.106918

>  <topodist>  (279) 
3.0

>  <mces>  (279) 
13.0

>  <tdn>  (279) 
1.0

>  <tup>  (279) 
2.0

>  <rdn>  (279) 
0.0

>  <rup>  (279) 
0.0

>  <ldn>  (279) 
0.0

>  <lup>  (279) 
0.0

>  <mut>  (279) 
0.0

>  <maj>  (279) 
0.0

>  <min>  (279) 
0.0

>  <hyb>  (279) 
1.0

>  <sub>  (279) 
3.0

>  <query_index>  (279) 
107.0

>  <max_hit_Tanimoto>  (279) 
0.161332

>  <largest_ring>  (279) 
0

>  <N_interactions_kept>  (279) 
1.0

>  <N_interactions_lost>  (279) 
2.5

>  <interaction_uniqueness_metric>  (279) 
0.08952

>  <ad_hoc_penalty>  (279) 
-21.827116

>  <N_rotatable_bonds>  (279) 
2

>  <N_HA>  (279) 
14

>  <cluster>  (279) 
5836

>  <N_interactions>  (279) 
6

>  <Enamine>  (279) 
1

>  <Mcule>  (279) 
0

>  <N_PAINS>  (279) 
0

>  <UFF_Gibbs>  (279) 
59.722539

>  <strain_per_HA>  (279) 
4.265896

>  <saltbridge:HIS:51>  (279) 
0

>  <pistack:HIS:51>  (279) 
0

>  <hydroph_interaction:HIS:51>  (279) 
0

>  <hbond:ALA:132>  (279) 
0

>  <hbond:SER:135>  (279) 
0

>  <hydroph_interaction:TYR:150>  (279) 
1

>  <pistack:TYR:161>  (279) 
2

>  <hydroph_interaction:TYR:161>  (279) 
2

>  <hydroph_interaction:ASP:83>  (279) 
0

>  <hbond:TYR:130>  (279) 
0

>  <hydroph_interaction:ALA:132>  (279) 
0

>  <hbond:HIS:51>  (279) 
0

>  <hbond:ASP:129>  (279) 
0

>  <hbond:TYR:150>  (279) 
0

>  <hbond:GLY:151>  (279) 
0

>  <hbond:TYR:161>  (279) 
1

>  <hydroph_interaction:TYR:130>  (279) 
0

>  <hydroph_interaction:PRO:131>  (279) 
0

>  <hydroph_interaction:ASP:129>  (279) 
0

>  <saltbridge:ASP:75>  (279) 
0

>  <saltbridge:ASP:83>  (279) 
0

>  <hydroph_interaction:ASN:152>  (279) 
0

>  <halogenbond:TYR:150>  (279) 
0

>  <hbond:ASP:83>  (279) 
0

>  <hydroph_interaction:VAL:155>  (279) 
0

>  <pication:TYR:161>  (279) 
0

>  <hbond:PRO:131>  (279) 
0

>  <hbond:LEU:128>  (279) 
0

>  <saltbridge:ASP:129>  (279) 
0

>  <hbond:THR:134>  (279) 
0

>  <pication:HIS:51>  (279) 
0

>  <hbond:SER:81>  (279) 
0

>  <hbond:GLY:159>  (279) 
0

>  <hydroph_interaction:PRO:101>  (279) 
0

>  <hydroph_interaction:THR:134>  (279) 
0

>  <hbond:GLY:82>  (279) 
0

>  <hydroph_interaction:GLU:104>  (279) 
0

>  <hydroph_interaction:VAL:36>  (279) 
0

>  <hydroph_interaction:MET:49>  (279) 
0

>  <halogenbond:GLU:104>  (279) 
0

>  <hydroph_interaction:LYS:107>  (279) 
0

$$$$
Z2438105595
     RDKit          3D

 26 28  0  0  0  0  0  0  0  0999 V2000
  -10.1960    4.7090  -18.1740 C   0  0  0  0  0  0  0  0  0  0  0  0
   -9.7340    4.9530  -16.7190 C   0  0  0  0  0  0  0  0  0  0  0  0
   -8.2900    5.3750  -16.5690 C   0  0  0  0  0  0  0  0  0  0  0  0
   -7.4620    5.5070  -17.8340 C   0  0  0  0  0  0  0  0  0  0  0  0
   -8.0570    5.2210  -19.2010 C   0  0  0  0  0  0  0  0  0  0  0  0
   -9.3890    4.8410  -19.3210 C   0  0  0  0  0  0  0  0  0  0  0  0
   -7.0780    5.4140  -20.1250 N   0  0  0  0  0  0  0  0  0  0  0  0
   -5.9660    5.7870  -19.4870 N   0  0  0  0  0  0  0  0  0  0  0  0
   -6.2010    5.8450  -18.1520 N   0  0  0  0  0  0  0  0  0  0  0  0
   -5.1680    6.2350  -17.2460 C   0  0  0  0  0  0  0  0  0  0  0  0
   -4.1810    5.2910  -17.1840 C   0  0  0  0  0  0  0  0  0  0  0  0
   -2.9490    5.4210  -17.8750 C   0  0  0  0  0  0  0  0  0  0  0  0
   -2.3110    4.7470  -16.7160 N   0  0  0  0  0  0  0  0  0  0  0  0
   -3.3420    5.3470  -15.8970 C   0  0  0  0  0  0  0  0  0  0  0  0
  -11.2460    4.4120  -18.2670 H   0  0  0  0  0  0  0  0  0  0  0  0
  -10.3860    4.8350  -15.8590 H   0  0  0  0  0  0  0  0  0  0  0  0
   -7.8720    5.5730  -15.5910 H   0  0  0  0  0  0  0  0  0  0  0  0
   -9.7780    4.6560  -20.3100 H   0  0  0  0  0  0  0  0  0  0  0  0
   -4.7870    7.2110  -17.5740 H   0  0  0  0  0  0  0  0  0  0  0  0
   -5.6290    6.3810  -16.2610 H   0  0  0  0  0  0  0  0  0  0  0  0
   -4.6060    4.2960  -17.3370 H   0  0  0  0  0  0  0  0  0  0  0  0
   -2.8760    4.8480  -18.8090 H   0  0  0  0  0  0  0  0  0  0  0  0
   -2.6100    6.4450  -18.0550 H   0  0  0  0  0  0  0  0  0  0  0  0
   -2.3360    3.7300  -16.7420 H   0  0  0  0  0  0  0  0  0  0  0  0
   -3.0920    6.3510  -15.5300 H   0  0  0  0  0  0  0  0  0  0  0  0
   -3.6880    4.7280  -15.0730 H   0  0  0  0  0  0  0  0  0  0  0  0
  1  2  2  0
  2  3  1  0
  3  4  2  0
  4  5  1  0
  5  6  2  0
  5  7  1  0
  7  8  2  0
  8  9  1  0
  9 10  1  0
 10 11  1  0
 11 12  1  0
 12 13  1  0
 13 14  1  0
  6  1  1  0
  9  4  1  0
 14 11  1  0
  1 15  1  0
  2 16  1  0
  3 17  1  0
  6 18  1  0
 10 19  1  0
 10 20  1  0
 11 21  1  0
 12 22  1  0
 12 23  1  0
 13 24  1  0
 14 25  1  0
 14 26  1  0
A    1
 C1 
A    2
 C2 
A    3
 C3 
A    4
 C4 
A    5
 C5 
A    6
 C6 
A    7
 N1 
A    8
 N2 
A    9
 N3 
A   10
 C7 
A   11
 C8 
A   12
 C9 
A   13
 N4 
A   14
 C10
A   15
 H1 
A   16
 H2 
A   17
 H3 
A   18
 H4 
A   19
 H5 
A   20
 H6 
A   21
 H7 
A   22
 H8 
A   23
 H9 
A   24
 H10
A   25
 H11
A   26
 H12
M  END
>  <ref_pdb>  (280) 
x0051_0B

>  <ref_mols>  (280) 
x0490_0B,x0472_0B

>  <original SMILES>  (280) 
[H]c1c([H])c([H])c2c(nnn2C([H])([H])C2([H])C([H])([H])N([H])C2([H])[H])c1[H]

>  <index>  (280) 
234

>  <∆∆G>  (280) 
-5.243187

>  <∆G_bound>  (280) 
-4.848372

>  <∆G_unbound>  (280) 
0.394814

>  <comRMSD>  (280) 
0.840416

>  <N_constrained_atoms>  (280) 
16.0

>  <N_unconstrained_atoms>  (280) 
0.0

>  <runtime>  (280) 
23.399281

>  <LE>  (280) 
0.327699

>  <percent_hybrid>  (280) 
38.0

>  <dist>  (280) 
2.0

>  <ecfp4>  (280) 
0.28

>  <daylight>  (280) 
0.365217

>  <topodist>  (280) 
1.0

>  <mces>  (280) 
15.0

>  <tdn>  (280) 
0.0

>  <tup>  (280) 
0.0

>  <rdn>  (280) 
0.0

>  <rup>  (280) 
1.0

>  <ldn>  (280) 
0.0

>  <lup>  (280) 
0.0

>  <mut>  (280) 
1.0

>  <maj>  (280) 
1.0

>  <min>  (280) 
0.0

>  <hyb>  (280) 
0.0

>  <sub>  (280) 
2.0

>  <query_index>  (280) 
228.0

>  <max_hit_Tanimoto>  (280) 
0.272109

>  <largest_ring>  (280) 
0

>  <N_interactions_kept>  (280) 
3.0

>  <N_interactions_lost>  (280) 
1.0

>  <interaction_uniqueness_metric>  (280) 
0.053763

>  <ad_hoc_penalty>  (280) 
-21.822595

>  <N_rotatable_bonds>  (280) 
2

>  <N_HA>  (280) 
14

>  <cluster>  (280) 
6006

>  <N_interactions>  (280) 
5

>  <Enamine>  (280) 
1

>  <Mcule>  (280) 
0

>  <N_PAINS>  (280) 
0

>  <UFF_Gibbs>  (280) 
104.360608

>  <strain_per_HA>  (280) 
7.454329

>  <saltbridge:HIS:51>  (280) 
0

>  <pistack:HIS:51>  (280) 
0

>  <hydroph_interaction:HIS:51>  (280) 
0

>  <hbond:ALA:132>  (280) 
0

>  <hbond:SER:135>  (280) 
0

>  <hydroph_interaction:TYR:150>  (280) 
1

>  <pistack:TYR:161>  (280) 
0

>  <hydroph_interaction:TYR:161>  (280) 
3

>  <hydroph_interaction:ASP:83>  (280) 
0

>  <hbond:TYR:130>  (280) 
0

>  <hydroph_interaction:ALA:132>  (280) 
1

>  <hbond:HIS:51>  (280) 
0

>  <hbond:ASP:129>  (280) 
0

>  <hbond:TYR:150>  (280) 
0

>  <hbond:GLY:151>  (280) 
0

>  <hbond:TYR:161>  (280) 
0

>  <hydroph_interaction:TYR:130>  (280) 
0

>  <hydroph_interaction:PRO:131>  (280) 
0

>  <hydroph_interaction:ASP:129>  (280) 
0

>  <saltbridge:ASP:75>  (280) 
0

>  <saltbridge:ASP:83>  (280) 
0

>  <hydroph_interaction:ASN:152>  (280) 
0

>  <halogenbond:TYR:150>  (280) 
0

>  <hbond:ASP:83>  (280) 
0

>  <hydroph_interaction:VAL:155>  (280) 
0

>  <pication:TYR:161>  (280) 
0

>  <hbond:PRO:131>  (280) 
0

>  <hbond:LEU:128>  (280) 
0

>  <saltbridge:ASP:129>  (280) 
0

>  <hbond:THR:134>  (280) 
0

>  <pication:HIS:51>  (280) 
0

>  <hbond:SER:81>  (280) 
0

>  <hbond:GLY:159>  (280) 
0

>  <hydroph_interaction:PRO:101>  (280) 
0

>  <hydroph_interaction:THR:134>  (280) 
0

>  <hbond:GLY:82>  (280) 
0

>  <hydroph_interaction:GLU:104>  (280) 
0

>  <hydroph_interaction:VAL:36>  (280) 
0

>  <hydroph_interaction:MET:49>  (280) 
0

>  <halogenbond:GLU:104>  (280) 
0

>  <hydroph_interaction:LYS:107>  (280) 
0

$$$$
Z1256048809
     RDKit          3D

 56 60  0  0  0  0  0  0  0  0999 V2000
   -4.5710    5.3250  -22.0830 O   0  0  0  0  0  0  0  0  0  0  0  0
   -5.2680    6.1700  -21.5380 C   0  0  0  0  0  0  0  0  0  0  0  0
   -5.8450    6.0710  -20.2920 N   0  0  0  0  0  0  0  0  0  0  0  0
   -5.1870    5.6120  -19.1360 C   0  0  0  0  0  0  0  0  0  0  0  0
   -3.7290    5.3420  -19.1450 C   0  0  0  0  0  0  0  0  0  0  0  0
   -3.1030    4.8830  -17.9340 C   0  0  0  0  0  0  0  0  0  0  0  0
   -3.8730    4.7030  -16.7910 C   0  0  0  0  0  0  0  0  0  0  0  0
   -5.2530    4.9570  -16.7910 C   0  0  0  0  0  0  0  0  0  0  0  0
   -5.9360    5.4080  -17.9390 C   0  0  0  0  0  0  0  0  0  0  0  0
   -7.3360    5.6570  -17.9150 N   0  0  0  0  0  0  0  0  0  0  0  0
   -7.9960    5.2990  -19.1920 C   0  0  0  0  0  0  0  0  0  0  0  0
   -9.4310    4.7880  -19.0560 C   0  0  0  0  0  0  0  0  0  0  0  0
  -10.1440    5.1070  -17.8490 O   0  0  0  0  0  0  0  0  0  0  0  0
   -9.4060    5.3730  -16.6340 C   0  0  0  0  0  0  0  0  0  0  0  0
   -8.0010    5.2740  -16.6400 C   0  0  0  0  0  0  0  0  0  0  0  0
   -5.5060    7.4200  -22.2730 C   0  0  0  0  0  0  0  0  0  0  0  0
   -6.1730    7.2620  -23.6230 C   0  0  0  0  0  0  0  0  0  0  0  0
   -6.4090    8.5290  -24.3610 C   0  0  0  0  0  0  0  0  0  0  0  0
   -6.0230    9.7410  -23.8100 C   0  0  0  0  0  0  0  0  0  0  0  0
   -6.3450   11.1800  -24.7840 S   0  0  0  0  0  0  0  0  0  0  0  0
   -6.0680   10.3930  -26.4210 C   0  0  0  0  0  0  0  0  0  0  0  0
   -7.2750    9.6730  -26.9280 C   0  0  0  0  0  0  0  0  0  0  0  0
   -7.3610    8.3980  -27.2700 N   0  0  0  0  0  0  0  0  0  0  0  0
   -8.6650    8.2030  -27.6560 C   0  0  0  0  0  0  0  0  0  0  0  0
   -9.3120    7.0420  -28.1010 C   0  0  0  0  0  0  0  0  0  0  0  0
  -10.6760    7.1150  -28.4260 C   0  0  0  0  0  0  0  0  0  0  0  0
  -11.3750    8.3170  -28.3100 C   0  0  0  0  0  0  0  0  0  0  0  0
  -10.7440    9.4860  -27.8730 C   0  0  0  0  0  0  0  0  0  0  0  0
   -9.3860    9.3860  -27.5540 C   0  0  0  0  0  0  0  0  0  0  0  0
   -8.4820   10.3010  -27.0970 N   0  0  0  0  0  0  0  0  0  0  0  0
   -5.4030    9.8340  -22.5480 C   0  0  0  0  0  0  0  0  0  0  0  0
   -5.1450    8.6880  -21.7820 C   0  0  0  0  0  0  0  0  0  0  0  0
   -6.6150    6.6910  -20.0520 H   0  0  0  0  0  0  0  0  0  0  0  0
   -3.1240    5.4830  -20.0360 H   0  0  0  0  0  0  0  0  0  0  0  0
   -2.0360    4.6800  -17.9180 H   0  0  0  0  0  0  0  0  0  0  0  0
   -3.3960    4.3550  -15.8780 H   0  0  0  0  0  0  0  0  0  0  0  0
   -5.7980    4.7950  -15.8670 H   0  0  0  0  0  0  0  0  0  0  0  0
   -7.4090    4.5850  -19.7800 H   0  0  0  0  0  0  0  0  0  0  0  0
   -8.0200    6.2250  -19.7740 H   0  0  0  0  0  0  0  0  0  0  0  0
  -10.0320    5.1850  -19.8840 H   0  0  0  0  0  0  0  0  0  0  0  0
   -9.4390    3.6980  -19.1510 H   0  0  0  0  0  0  0  0  0  0  0  0
   -9.7020    6.3720  -16.2980 H   0  0  0  0  0  0  0  0  0  0  0  0
   -9.8070    4.6800  -15.8900 H   0  0  0  0  0  0  0  0  0  0  0  0
   -7.7360    4.2700  -16.3240 H   0  0  0  0  0  0  0  0  0  0  0  0
   -7.6230    5.9500  -15.8630 H   0  0  0  0  0  0  0  0  0  0  0  0
   -6.4610    6.2880  -24.0200 H   0  0  0  0  0  0  0  0  0  0  0  0
   -6.8860    8.4830  -25.3310 H   0  0  0  0  0  0  0  0  0  0  0  0
   -5.2370    9.6870  -26.3160 H   0  0  0  0  0  0  0  0  0  0  0  0
   -5.7530   11.1550  -27.1410 H   0  0  0  0  0  0  0  0  0  0  0  0
   -8.7660    6.1090  -28.1860 H   0  0  0  0  0  0  0  0  0  0  0  0
  -11.1890    6.2190  -28.7700 H   0  0  0  0  0  0  0  0  0  0  0  0
  -12.4360    8.3490  -28.5680 H   0  0  0  0  0  0  0  0  0  0  0  0
  -11.2900   10.4190  -27.7880 H   0  0  0  0  0  0  0  0  0  0  0  0
   -8.6680   11.2760  -26.9090 H   0  0  0  0  0  0  0  0  0  0  0  0
   -5.1130   10.8040  -22.1500 H   0  0  0  0  0  0  0  0  0  0  0  0
   -4.6670    8.7970  -20.8120 H   0  0  0  0  0  0  0  0  0  0  0  0
  1  2  2  0
  2  3  1  0
  3  4  1  0
  4  5  2  0
  5  6  1  0
  6  7  2  0
  7  8  1  0
  8  9  2  0
  9 10  1  0
 10 11  1  0
 11 12  1  0
 12 13  1  0
 13 14  1  0
 14 15  1  0
  2 16  1  0
 16 17  2  0
 17 18  1  0
 18 19  2  0
 19 20  1  0
 20 21  1  0
 21 22  1  0
 22 23  2  0
 23 24  1  0
 24 25  2  0
 25 26  1  0
 26 27  2  0
 27 28  1  0
 28 29  2  0
 29 30  1  0
 19 31  1  0
 31 32  2  0
  9  4  1  0
 15 10  1  0
 32 16  1  0
 30 22  1  0
 29 24  1  0
  3 33  1  0
  5 34  1  0
  6 35  1  0
  7 36  1  0
  8 37  1  0
 11 38  1  0
 11 39  1  0
 12 40  1  0
 12 41  1  0
 14 42  1  0
 14 43  1  0
 15 44  1  0
 15 45  1  0
 17 46  1  0
 18 47  1  0
 21 48  1  0
 21 49  1  0
 25 50  1  0
 26 51  1  0
 27 52  1  0
 28 53  1  0
 30 54  1  0
 31 55  1  0
 32 56  1  0
A    1
 O1 
A    2
 C1 
A    3
 N1 
A    4
 C2 
A    5
 C3 
A    6
 C4 
A    7
 C5 
A    8
 C6 
A    9
 C7 
A   10
 N2 
A   11
 C8 
A   12
 C9 
A   13
 O2 
A   14
 C10
A   15
 C11
A   16
 C12
A   17
 C13
A   18
 C14
A   19
 C15
A   20
 S1 
A   21
 C16
A   22
 C17
A   23
 N3 
A   24
 C18
A   25
 C19
A   26
 C20
A   27
 C21
A   28
 C22
A   29
 C23
A   30
 N4 
A   31
 C24
A   32
 C25
A   33
 H1 
A   34
 H2 
A   35
 H3 
A   36
 H4 
A   37
 H5 
A   38
 H6 
A   39
 H7 
A   40
 H8 
A   41
 H9 
A   42
 H10
A   43
 H11
A   44
 H12
A   45
 H13
A   46
 H14
A   47
 H15
A   48
 H16
A   49
 H17
A   50
 H18
A   51
 H19
A   52
 H20
A   53
 H21
A   54
 H22
A   55
 H23
A   56
 H24
M  END
>  <ref_pdb>  (281) 
x0051_0B

>  <ref_mols>  (281) 
x0465_0B,x0846_1B

>  <original SMILES>  (281) 
[H]c1c([H])c([H])c(N2C([H])([H])C([H])([H])OC([H])([H])C2([H])[H])c(N([H])C(=O)c2c([H])c([H])c(SC([H])([H])c3nc4c([H])c([H])c([H])c([H])c4n3[H])c([H])c2[H])c1[H]

>  <index>  (281) 
290

>  <∆∆G>  (281) 
-9.135278

>  <∆G_bound>  (281) 
-7.478973

>  <∆G_unbound>  (281) 
1.656305

>  <comRMSD>  (281) 
0.635951

>  <N_constrained_atoms>  (281) 
30.0

>  <N_unconstrained_atoms>  (281) 
2.0

>  <runtime>  (281) 
49.305494

>  <LE>  (281) 
0.285477

>  <percent_hybrid>  (281) 
40.0

>  <dist>  (281) 
8.0

>  <ecfp4>  (281) 
0.301205

>  <daylight>  (281) 
0.35865

>  <topodist>  (281) 
3.0

>  <mces>  (281) 
35.0

>  <tdn>  (281) 
2.0

>  <tup>  (281) 
1.0

>  <rdn>  (281) 
0.0

>  <rup>  (281) 
0.0

>  <ldn>  (281) 
0.0

>  <lup>  (281) 
0.0

>  <mut>  (281) 
4.0

>  <maj>  (281) 
4.0

>  <min>  (281) 
0.0

>  <hyb>  (281) 
1.0

>  <sub>  (281) 
1.0

>  <query_index>  (281) 
127.0

>  <max_hit_Tanimoto>  (281) 
0.290828

>  <largest_ring>  (281) 
0

>  <N_interactions_kept>  (281) 
1.0

>  <N_interactions_lost>  (281) 
3.0

>  <interaction_uniqueness_metric>  (281) 
0.272101

>  <ad_hoc_penalty>  (281) 
-21.724058

>  <N_rotatable_bonds>  (281) 
6

>  <N_HA>  (281) 
32

>  <cluster>  (281) 
5952

>  <N_interactions>  (281) 
8

>  <Enamine>  (281) 
1

>  <Mcule>  (281) 
0

>  <N_PAINS>  (281) 
0

>  <UFF_Gibbs>  (281) 
269.267788

>  <strain_per_HA>  (281) 
8.414618

>  <saltbridge:HIS:51>  (281) 
0

>  <pistack:HIS:51>  (281) 
0

>  <hydroph_interaction:HIS:51>  (281) 
0

>  <hbond:ALA:132>  (281) 
0

>  <hbond:SER:135>  (281) 
1

>  <hydroph_interaction:TYR:150>  (281) 
0

>  <pistack:TYR:161>  (281) 
1

>  <hydroph_interaction:TYR:161>  (281) 
1

>  <hydroph_interaction:ASP:83>  (281) 
0

>  <hbond:TYR:130>  (281) 
1

>  <hydroph_interaction:ALA:132>  (281) 
0

>  <hbond:HIS:51>  (281) 
0

>  <hbond:ASP:129>  (281) 
1

>  <hbond:TYR:150>  (281) 
0

>  <hbond:GLY:151>  (281) 
0

>  <hbond:TYR:161>  (281) 
0

>  <hydroph_interaction:TYR:130>  (281) 
1

>  <hydroph_interaction:PRO:131>  (281) 
1

>  <hydroph_interaction:ASP:129>  (281) 
0

>  <saltbridge:ASP:75>  (281) 
0

>  <saltbridge:ASP:83>  (281) 
0

>  <hydroph_interaction:ASN:152>  (281) 
0

>  <halogenbond:TYR:150>  (281) 
0

>  <hbond:ASP:83>  (281) 
0

>  <hydroph_interaction:VAL:155>  (281) 
1

>  <pication:TYR:161>  (281) 
0

>  <hbond:PRO:131>  (281) 
0

>  <hbond:LEU:128>  (281) 
0

>  <saltbridge:ASP:129>  (281) 
0

>  <hbond:THR:134>  (281) 
0

>  <pication:HIS:51>  (281) 
0

>  <hbond:SER:81>  (281) 
0

>  <hbond:GLY:159>  (281) 
0

>  <hydroph_interaction:PRO:101>  (281) 
0

>  <hydroph_interaction:THR:134>  (281) 
0

>  <hbond:GLY:82>  (281) 
0

>  <hydroph_interaction:GLU:104>  (281) 
0

>  <hydroph_interaction:VAL:36>  (281) 
0

>  <hydroph_interaction:MET:49>  (281) 
0

>  <halogenbond:GLU:104>  (281) 
0

>  <hydroph_interaction:LYS:107>  (281) 
0

$$$$
Z928927188
     RDKit          3D

 48 51  0  0  0  0  0  0  0  0999 V2000
   -8.9500    8.8120  -13.6910 O   0  0  0  0  0  0  0  0  0  0  0  0
   -9.0880    7.4970  -13.7180 C   0  0  0  0  0  0  0  0  0  0  0  0
   -9.2930    6.7950  -14.7840 N   0  0  0  0  0  0  0  0  0  0  0  0
   -8.2650    5.8220  -15.1450 C   0  0  0  0  0  0  0  0  0  0  0  0
   -8.4690    5.4490  -16.4410 C   0  0  0  0  0  0  0  0  0  0  0  0
   -9.6900    5.0680  -16.7760 C   0  0  0  0  0  0  0  0  0  0  0  0
   -9.9950    4.7110  -18.0270 C   0  0  0  0  0  0  0  0  0  0  0  0
   -8.9930    4.7260  -19.0510 C   0  0  0  0  0  0  0  0  0  0  0  0
   -7.7430    5.0930  -18.7480 C   0  0  0  0  0  0  0  0  0  0  0  0
   -6.7950    5.0880  -19.7610 C   0  0  0  0  0  0  0  0  0  0  0  0
   -5.3740    5.4800  -19.4800 C   0  0  0  0  0  0  0  0  0  0  0  0
   -4.9890    5.8540  -18.2090 C   0  0  0  0  0  0  0  0  0  0  0  0
   -6.0010    5.8730  -17.0860 C   0  0  0  0  0  0  0  0  0  0  0  0
   -7.4280    5.4700  -17.4120 C   0  0  0  0  0  0  0  0  0  0  0  0
   -8.9920    6.7470  -12.5600 C   0  0  0  0  0  0  0  0  0  0  0  0
   -8.7720    7.4020  -11.2080 C   0  0  0  0  0  0  0  0  0  0  0  0
   -8.6880    6.4760  -10.0040 C   0  0  0  0  0  0  0  0  0  0  0  0
   -8.8170    5.0910  -10.2170 C   0  0  0  0  0  0  0  0  0  0  0  0
   -8.7430    4.2730   -9.0940 N   0  0  0  0  0  0  0  0  0  0  0  0
   -9.0120    2.8220   -9.2490 C   0  0  0  0  0  0  0  0  0  0  0  0
   -9.6790    2.3340   -7.9590 C   0  0  0  0  0  0  0  0  0  0  0  0
   -8.8450    2.6140   -6.8240 O   0  0  0  0  0  0  0  0  0  0  0  0
   -8.7500    4.0290   -6.6470 C   0  0  0  0  0  0  0  0  0  0  0  0
   -8.0550    4.6790   -7.8500 C   0  0  0  0  0  0  0  0  0  0  0  0
   -9.0160    4.5680  -11.5060 C   0  0  0  0  0  0  0  0  0  0  0  0
   -9.1030    5.3640  -12.6450 C   0  0  0  0  0  0  0  0  0  0  0  0
  -10.2330    6.6430  -15.1350 H   0  0  0  0  0  0  0  0  0  0  0  0
   -8.1390    4.9330  -14.5480 H   0  0  0  0  0  0  0  0  0  0  0  0
   -7.3180    6.3390  -14.9970 H   0  0  0  0  0  0  0  0  0  0  0  0
  -10.4510    5.0470  -16.0250 H   0  0  0  0  0  0  0  0  0  0  0  0
  -11.0140    4.4140  -18.2480 H   0  0  0  0  0  0  0  0  0  0  0  0
   -9.2760    4.4340  -20.0570 H   0  0  0  0  0  0  0  0  0  0  0  0
   -7.0810    4.7940  -20.7680 H   0  0  0  0  0  0  0  0  0  0  0  0
   -4.6380    5.4700  -20.2800 H   0  0  0  0  0  0  0  0  0  0  0  0
   -3.9560    6.1360  -18.0130 H   0  0  0  0  0  0  0  0  0  0  0  0
   -5.6900    6.1700  -16.0860 H   0  0  0  0  0  0  0  0  0  0  0  0
   -8.6780    8.4750  -11.0820 H   0  0  0  0  0  0  0  0  0  0  0  0
   -8.5350    6.8880   -9.0130 H   0  0  0  0  0  0  0  0  0  0  0  0
   -8.0620    2.2870   -9.4000 H   0  0  0  0  0  0  0  0  0  0  0  0
   -9.6780    2.6010  -10.0910 H   0  0  0  0  0  0  0  0  0  0  0  0
   -9.8390    1.2590   -8.0030 H   0  0  0  0  0  0  0  0  0  0  0  0
  -10.6590    2.8050   -7.8070 H   0  0  0  0  0  0  0  0  0  0  0  0
   -9.7570    4.4410   -6.4910 H   0  0  0  0  0  0  0  0  0  0  0  0
   -8.1700    4.2070   -5.7350 H   0  0  0  0  0  0  0  0  0  0  0  0
   -7.0090    4.3500   -7.8570 H   0  0  0  0  0  0  0  0  0  0  0  0
   -8.0900    5.7720   -7.7340 H   0  0  0  0  0  0  0  0  0  0  0  0
   -9.1150    3.4970  -11.6570 H   0  0  0  0  0  0  0  0  0  0  0  0
   -9.2640    4.8810  -13.6110 H   0  0  0  0  0  0  0  0  0  0  0  0
  1  2  2  0
  2  3  1  0
  3  4  1  0
  4  5  1  0
  5  6  2  0
  6  7  1  0
  7  8  2  0
  8  9  1  0
  9 10  2  0
 10 11  1  0
 11 12  2  0
 12 13  1  0
 13 14  2  0
  2 15  1  0
 15 16  2  0
 16 17  1  0
 17 18  2  0
 18 19  1  0
 19 20  1  0
 20 21  1  0
 21 22  1  0
 22 23  1  0
 23 24  1  0
 18 25  1  0
 25 26  2  0
 14  5  1  0
 14  9  1  0
 26 15  1  0
 24 19  1  0
  3 27  1  0
  4 28  1  0
  4 29  1  0
  6 30  1  0
  7 31  1  0
  8 32  1  0
 10 33  1  0
 11 34  1  0
 12 35  1  0
 13 36  1  0
 16 37  1  0
 17 38  1  0
 20 39  1  0
 20 40  1  0
 21 41  1  0
 21 42  1  0
 23 43  1  0
 23 44  1  0
 24 45  1  0
 24 46  1  0
 25 47  1  0
 26 48  1  0
A    1
 O1 
A    2
 C1 
A    3
 N1 
A    4
 C2 
A    5
 C3 
A    6
 C4 
A    7
 C5 
A    8
 C6 
A    9
 C7 
A   10
 C8 
A   11
 C9 
A   12
 C10
A   13
 C11
A   14
 C12
A   15
 C13
A   16
 C14
A   17
 C15
A   18
 C16
A   19
 N2 
A   20
 C17
A   21
 C18
A   22
 O2 
A   23
 C19
A   24
 C20
A   25
 C21
A   26
 C22
A   27
 H1 
A   28
 H2 
A   29
 H3 
A   30
 H4 
A   31
 H5 
A   32
 H6 
A   33
 H7 
A   34
 H8 
A   35
 H9 
A   36
 H10
A   37
 H11
A   38
 H12
A   39
 H13
A   40
 H14
A   41
 H15
A   42
 H16
A   43
 H17
A   44
 H18
A   45
 H19
A   46
 H20
A   47
 H21
A   48
 H22
M  END
>  <ref_pdb>  (282) 
x0051_0B

>  <ref_mols>  (282) 
x0727_0B,x0404_0B

>  <original SMILES>  (282) 
[H]c1c([H])c(N2C([H])([H])C([H])([H])OC([H])([H])C2([H])[H])c([H])c([H])c1C(=O)N([H])C([H])([H])c1c([H])c([H])c([H])c2c([H])c([H])c([H])c([H])c12

>  <index>  (282) 
142

>  <∆∆G>  (282) 
-8.776467

>  <∆G_bound>  (282) 
-8.455695

>  <∆G_unbound>  (282) 
0.320772

>  <comRMSD>  (282) 
0.576933

>  <N_constrained_atoms>  (282) 
27.0

>  <N_unconstrained_atoms>  (282) 
0.0

>  <runtime>  (282) 
62.2425

>  <LE>  (282) 
0.325054

>  <percent_hybrid>  (282) 
41.0

>  <dist>  (282) 
8.0

>  <ecfp4>  (282) 
0.225

>  <daylight>  (282) 
0.177885

>  <topodist>  (282) 
3.0

>  <mces>  (282) 
29.0

>  <tdn>  (282) 
3.0

>  <tup>  (282) 
0.0

>  <rdn>  (282) 
0.0

>  <rup>  (282) 
0.0

>  <ldn>  (282) 
0.0

>  <lup>  (282) 
0.0

>  <mut>  (282) 
4.0

>  <maj>  (282) 
4.0

>  <min>  (282) 
0.0

>  <hyb>  (282) 
1.0

>  <sub>  (282) 
1.0

>  <query_index>  (282) 
0.0

>  <max_hit_Tanimoto>  (282) 
0.2384

>  <largest_ring>  (282) 
0

>  <N_interactions_kept>  (282) 
1.0

>  <N_interactions_lost>  (282) 
3.5

>  <interaction_uniqueness_metric>  (282) 
0.191843

>  <ad_hoc_penalty>  (282) 
-21.677796

>  <N_rotatable_bonds>  (282) 
4

>  <N_HA>  (282) 
26

>  <cluster>  (282) 
534

>  <N_interactions>  (282) 
9

>  <Enamine>  (282) 
1

>  <Mcule>  (282) 
0

>  <N_PAINS>  (282) 
0

>  <UFF_Gibbs>  (282) 
315.298642

>  <strain_per_HA>  (282) 
12.126871

>  <saltbridge:HIS:51>  (282) 
0

>  <pistack:HIS:51>  (282) 
1

>  <hydroph_interaction:HIS:51>  (282) 
1

>  <hbond:ALA:132>  (282) 
1

>  <hbond:SER:135>  (282) 
0

>  <hydroph_interaction:TYR:150>  (282) 
1

>  <pistack:TYR:161>  (282) 
1

>  <hydroph_interaction:TYR:161>  (282) 
3

>  <hydroph_interaction:ASP:83>  (282) 
0

>  <hbond:TYR:130>  (282) 
0

>  <hydroph_interaction:ALA:132>  (282) 
1

>  <hbond:HIS:51>  (282) 
0

>  <hbond:ASP:129>  (282) 
0

>  <hbond:TYR:150>  (282) 
0

>  <hbond:GLY:151>  (282) 
0

>  <hbond:TYR:161>  (282) 
0

>  <hydroph_interaction:TYR:130>  (282) 
0

>  <hydroph_interaction:PRO:131>  (282) 
0

>  <hydroph_interaction:ASP:129>  (282) 
0

>  <saltbridge:ASP:75>  (282) 
0

>  <saltbridge:ASP:83>  (282) 
0

>  <hydroph_interaction:ASN:152>  (282) 
0

>  <halogenbond:TYR:150>  (282) 
0

>  <hbond:ASP:83>  (282) 
0

>  <hydroph_interaction:VAL:155>  (282) 
0

>  <pication:TYR:161>  (282) 
0

>  <hbond:PRO:131>  (282) 
0

>  <hbond:LEU:128>  (282) 
0

>  <saltbridge:ASP:129>  (282) 
0

>  <hbond:THR:134>  (282) 
0

>  <pication:HIS:51>  (282) 
0

>  <hbond:SER:81>  (282) 
0

>  <hbond:GLY:159>  (282) 
0

>  <hydroph_interaction:PRO:101>  (282) 
0

>  <hydroph_interaction:THR:134>  (282) 
0

>  <hbond:GLY:82>  (282) 
0

>  <hydroph_interaction:GLU:104>  (282) 
0

>  <hydroph_interaction:VAL:36>  (282) 
0

>  <hydroph_interaction:MET:49>  (282) 
0

>  <halogenbond:GLU:104>  (282) 
0

>  <hydroph_interaction:LYS:107>  (282) 
0

$$$$
MCULE-9116469262
     RDKit          3D

 56 59  0  0  0  0  0  0  0  0999 V2000
   -5.6090    5.3310  -17.6460 C   0  0  0  0  0  0  0  0  0  0  0  0
   -4.7380    5.0930  -16.5850 C   0  0  0  0  0  0  0  0  0  0  0  0
   -3.3680    4.9950  -16.7800 C   0  0  0  0  0  0  0  0  0  0  0  0
   -2.8070    5.1330  -18.0540 C   0  0  0  0  0  0  0  0  0  0  0  0
   -3.6180    5.3780  -19.1750 C   0  0  0  0  0  0  0  0  0  0  0  0
   -5.1060    5.4810  -18.9430 C   0  0  0  0  0  0  0  0  0  0  0  0
   -6.9730    5.3950  -17.4470 C   0  0  0  0  0  0  0  0  0  0  0  0
   -7.6580    5.8760  -16.3200 C   0  0  0  0  0  0  0  0  0  0  0  0
   -9.0870    5.8360  -16.2860 C   0  0  0  0  0  0  0  0  0  0  0  0
   -9.8000    6.3630  -15.1320 N   0  0  0  0  0  0  0  0  0  0  0  0
   -9.2210    7.1070  -14.0770 C   0  0  0  0  0  0  0  0  0  0  0  0
   -9.1420    6.4430  -12.8530 C   0  0  0  0  0  0  0  0  0  0  0  0
   -9.0290    7.1380  -11.6700 C   0  0  0  0  0  0  0  0  0  0  0  0
   -8.9670    6.4730  -10.4400 C   0  0  0  0  0  0  0  0  0  0  0  0
   -9.0160    5.0930  -10.3760 C   0  0  0  0  0  0  0  0  0  0  0  0
   -8.9760    4.4260   -9.1500 N   0  0  0  0  0  0  0  0  0  0  0  0
   -9.3490    2.9940   -9.1400 C   0  0  0  0  0  0  0  0  0  0  0  0
   -9.6420    2.4590   -7.7160 C   0  0  0  0  0  0  0  0  0  0  0  0
   -9.6950    3.3900   -6.5560 N   0  0  0  0  0  0  0  0  0  0  0  0
  -11.0270    3.6270   -5.9720 C   0  0  0  0  0  0  0  0  0  0  0  0
   -8.8500    4.5980   -6.6520 C   0  0  0  0  0  0  0  0  0  0  0  0
   -8.2100    4.9560   -8.0130 C   0  0  0  0  0  0  0  0  0  0  0  0
   -9.1190    4.3920  -11.5920 C   0  0  0  0  0  0  0  0  0  0  0  0
   -9.1810    5.0570  -12.8210 C   0  0  0  0  0  0  0  0  0  0  0  0
   -8.7830    8.2620  -14.0940 O   0  0  0  0  0  0  0  0  0  0  0  0
   -9.6800    5.2470  -17.4900 C   0  0  0  0  0  0  0  0  0  0  0  0
  -10.9910    4.9450  -18.0160 C   0  0  0  0  0  0  0  0  0  0  0  0
   -8.9440    4.8210  -18.5330 C   0  0  0  0  0  0  0  0  0  0  0  0
   -7.6360    4.9010  -18.5160 C   0  0  0  0  0  0  0  0  0  0  0  0
   -5.1390    4.9740  -15.5770 H   0  0  0  0  0  0  0  0  0  0  0  0
   -2.7180    4.8060  -15.9310 H   0  0  0  0  0  0  0  0  0  0  0  0
   -1.7330    5.0530  -18.1900 H   0  0  0  0  0  0  0  0  0  0  0  0
   -3.1900    5.4870  -20.1680 H   0  0  0  0  0  0  0  0  0  0  0  0
   -5.7700    5.6660  -19.7840 H   0  0  0  0  0  0  0  0  0  0  0  0
   -7.1050    6.2800  -15.4740 H   0  0  0  0  0  0  0  0  0  0  0  0
  -10.7670    6.5950  -15.3110 H   0  0  0  0  0  0  0  0  0  0  0  0
   -8.9960    8.2210  -11.7170 H   0  0  0  0  0  0  0  0  0  0  0  0
   -8.8840    7.0640   -9.5310 H   0  0  0  0  0  0  0  0  0  0  0  0
  -10.2300    2.8440   -9.7640 H   0  0  0  0  0  0  0  0  0  0  0  0
   -8.5700    2.3610   -9.5690 H   0  0  0  0  0  0  0  0  0  0  0  0
   -8.9180    1.6800   -7.4940 H   0  0  0  0  0  0  0  0  0  0  0  0
  -10.6040    1.9400   -7.7470 H   0  0  0  0  0  0  0  0  0  0  0  0
  -11.0500    3.3470   -4.9170 H   0  0  0  0  0  0  0  0  0  0  0  0
  -11.7820    3.0050   -6.4700 H   0  0  0  0  0  0  0  0  0  0  0  0
  -11.3460    4.6640   -6.0250 H   0  0  0  0  0  0  0  0  0  0  0  0
   -9.4730    5.4460   -6.3440 H   0  0  0  0  0  0  0  0  0  0  0  0
   -8.0490    4.5440   -5.9030 H   0  0  0  0  0  0  0  0  0  0  0  0
   -8.1320    6.0470   -8.0920 H   0  0  0  0  0  0  0  0  0  0  0  0
   -7.2040    4.5560   -8.0210 H   0  0  0  0  0  0  0  0  0  0  0  0
   -9.1590    3.3040  -11.6140 H   0  0  0  0  0  0  0  0  0  0  0  0
   -9.2670    4.4810  -13.7420 H   0  0  0  0  0  0  0  0  0  0  0  0
  -11.5620    4.3250  -17.3760 H   0  0  0  0  0  0  0  0  0  0  0  0
  -10.8220    4.3660  -18.8950 H   0  0  0  0  0  0  0  0  0  0  0  0
  -11.5360    5.8210  -18.2970 H   0  0  0  0  0  0  0  0  0  0  0  0
   -9.4210    4.4020  -19.4160 H   0  0  0  0  0  0  0  0  0  0  0  0
   -7.0850    4.5490  -19.3840 H   0  0  0  0  0  0  0  0  0  0  0  0
  1  2  2  0
  2  3  1  0
  3  4  2  0
  4  5  1  0
  5  6  2  0
  1  7  1  0
  7  8  2  0
  8  9  1  0
  9 10  1  0
 10 11  1  0
 11 12  1  0
 12 13  2  0
 13 14  1  0
 14 15  2  0
 15 16  1  0
 16 17  1  0
 17 18  1  0
 18 19  1  0
 19 20  1  0
 19 21  1  0
 21 22  1  0
 15 23  1  0
 23 24  2  0
 11 25  2  0
  9 26  2  0
 26 27  1  0
 26 28  1  0
 28 29  2  0
  6  1  1  0
  7 29  1  0
 12 24  1  0
 22 16  1  0
  2 30  1  0
  3 31  1  0
  4 32  1  0
  5 33  1  0
  6 34  1  0
  8 35  1  0
 10 36  1  0
 13 37  1  0
 14 38  1  0
 17 39  1  0
 17 40  1  0
 18 41  1  0
 18 42  1  0
 20 43  1  0
 20 44  1  0
 20 45  1  0
 21 46  1  0
 21 47  1  0
 22 48  1  0
 22 49  1  0
 23 50  1  0
 24 51  1  0
 27 52  1  0
 27 53  1  0
 27 54  1  0
 28 55  1  0
 29 56  1  0
A    1
 C1 
A    2
 C2 
A    3
 C3 
A    4
 C4 
A    5
 C5 
A    6
 C6 
A    7
 C7 
A    8
 C8 
A    9
 C9 
A   10
 N1 
A   11
 C10
A   12
 C11
A   13
 C12
A   14
 C13
A   15
 C14
A   16
 N2 
A   17
 C15
A   18
 C16
A   19
 N3 
A   20
 C17
A   21
 C18
A   22
 C19
A   23
 C20
A   24
 C21
A   25
 O1 
A   26
 C22
A   27
 C23
A   28
 C24
A   29
 C25
A   30
 H1 
A   31
 H2 
A   32
 H3 
A   33
 H4 
A   34
 H5 
A   35
 H6 
A   36
 H7 
A   37
 H8 
A   38
 H9 
A   39
 H10
A   40
 H11
A   41
 H12
A   42
 H13
A   43
 H14
A   44
 H15
A   45
 H16
A   46
 H17
A   47
 H18
A   48
 H19
A   49
 H20
A   50
 H21
A   51
 H22
A   52
 H23
A   53
 H24
A   54
 H25
A   55
 H26
A   56
 H27
M  END
>  <ref_pdb>  (283) 
x0051_0B

>  <ref_mols>  (283) 
x0465_0B,x0404_0B

>  <original SMILES>  (283) 
[H]c1c([H])c([H])c(-c2c([H])c([H])c(C([H])([H])[H])c(N([H])C(=O)c3c([H])c([H])c(N4C([H])([H])C([H])([H])N(C([H])([H])[H])C([H])([H])C4([H])[H])c([H])c3[H])c2[H])c([H])c1[H]

>  <index>  (283) 
312

>  <∆∆G>  (283) 
-7.11898

>  <∆G_bound>  (283) 
-7.142008

>  <∆G_unbound>  (283) 
-0.023028

>  <comRMSD>  (283) 
0.999879

>  <N_constrained_atoms>  (283) 
28.0

>  <N_unconstrained_atoms>  (283) 
3.0

>  <runtime>  (283) 
373.349276

>  <LE>  (283) 
0.229645

>  <percent_hybrid>  (283) 
43.0

>  <dist>  (283) 
12.0

>  <ecfp4>  (283) 
0.204545

>  <daylight>  (283) 
0.208163

>  <topodist>  (283) 
3.0

>  <mces>  (283) 
31.0

>  <tdn>  (283) 
1.0

>  <tup>  (283) 
1.0

>  <rdn>  (283) 
0.0

>  <rup>  (283) 
0.0

>  <ldn>  (283) 
1.0

>  <lup>  (283) 
0.0

>  <mut>  (283) 
4.0

>  <maj>  (283) 
4.0

>  <min>  (283) 
0.0

>  <hyb>  (283) 
5.0

>  <sub>  (283) 
1.0

>  <query_index>  (283) 
89.0

>  <max_hit_Tanimoto>  (283) 
0.280438

>  <largest_ring>  (283) 
0

>  <N_interactions_kept>  (283) 
1.5

>  <N_interactions_lost>  (283) 
4.0

>  <interaction_uniqueness_metric>  (283) 
0.445448

>  <ad_hoc_penalty>  (283) 
-21.631142

>  <N_rotatable_bonds>  (283) 
6

>  <N_HA>  (283) 
29

>  <cluster>  (283) 
497

>  <N_interactions>  (283) 
11

>  <Enamine>  (283) 
0

>  <Mcule>  (283) 
1

>  <N_PAINS>  (283) 
0

>  <UFF_Gibbs>  (283) 
290.440672

>  <strain_per_HA>  (283) 
10.015196

>  <saltbridge:HIS:51>  (283) 
0

>  <pistack:HIS:51>  (283) 
1

>  <hydroph_interaction:HIS:51>  (283) 
1

>  <hbond:ALA:132>  (283) 
0

>  <hbond:SER:135>  (283) 
2

>  <hydroph_interaction:TYR:150>  (283) 
1

>  <pistack:TYR:161>  (283) 
1

>  <hydroph_interaction:TYR:161>  (283) 
2

>  <hydroph_interaction:ASP:83>  (283) 
0

>  <hbond:TYR:130>  (283) 
0

>  <hydroph_interaction:ALA:132>  (283) 
0

>  <hbond:HIS:51>  (283) 
0

>  <hbond:ASP:129>  (283) 
0

>  <hbond:TYR:150>  (283) 
0

>  <hbond:GLY:151>  (283) 
0

>  <hbond:TYR:161>  (283) 
0

>  <hydroph_interaction:TYR:130>  (283) 
0

>  <hydroph_interaction:PRO:131>  (283) 
0

>  <hydroph_interaction:ASP:129>  (283) 
0

>  <saltbridge:ASP:75>  (283) 
1

>  <saltbridge:ASP:83>  (283) 
1

>  <hydroph_interaction:ASN:152>  (283) 
0

>  <halogenbond:TYR:150>  (283) 
0

>  <hbond:ASP:83>  (283) 
0

>  <hydroph_interaction:VAL:155>  (283) 
1

>  <pication:TYR:161>  (283) 
0

>  <hbond:PRO:131>  (283) 
0

>  <hbond:LEU:128>  (283) 
0

>  <saltbridge:ASP:129>  (283) 
0

>  <hbond:THR:134>  (283) 
0

>  <pication:HIS:51>  (283) 
0

>  <hbond:SER:81>  (283) 
0

>  <hbond:GLY:159>  (283) 
0

>  <hydroph_interaction:PRO:101>  (283) 
0

>  <hydroph_interaction:THR:134>  (283) 
0

>  <hbond:GLY:82>  (283) 
0

>  <hydroph_interaction:GLU:104>  (283) 
0

>  <hydroph_interaction:VAL:36>  (283) 
0

>  <hydroph_interaction:MET:49>  (283) 
0

>  <halogenbond:GLU:104>  (283) 
0

>  <hydroph_interaction:LYS:107>  (283) 
0

$$$$
MCULE-8737097771
     RDKit          3D

 23 24  0  0  0  0  0  0  0  0999 V2000
   -3.2830    4.7880  -16.8770 O   0  0  0  0  0  0  0  0  0  0  0  0
   -4.1160    5.0870  -17.7260 C   0  0  0  0  0  0  0  0  0  0  0  0
   -5.3430    5.6520  -17.4330 N   0  0  0  0  0  0  0  0  0  0  0  0
   -6.2300    6.1090  -18.5000 C   0  0  0  0  0  0  0  0  0  0  0  0
   -5.8350    5.7600  -19.7550 C   0  0  0  0  0  0  0  0  0  0  0  0
   -7.5770    5.6020  -18.1290 C   0  0  0  0  0  0  0  0  0  0  0  0
   -8.6920    5.0970  -19.0260 C   0  0  0  0  0  0  0  0  0  0  0  0
   -9.9060    4.6980  -18.2050 C   0  0  0  0  0  0  0  0  0  0  0  0
   -9.5550    4.9640  -16.5520 S   0  0  0  0  0  0  0  0  0  0  0  0
   -7.9660    5.5440  -16.8060 C   0  0  0  0  0  0  0  0  0  0  0  0
   -7.0720    5.9600  -15.6230 C   0  0  0  0  0  0  0  0  0  0  0  0
   -5.6150    6.1900  -16.0940 C   0  0  0  0  0  0  0  0  0  0  0  0
   -3.8980    4.8990  -18.7680 H   0  0  0  0  0  0  0  0  0  0  0  0
   -6.2510    7.2040  -18.4600 H   0  0  0  0  0  0  0  0  0  0  0  0
   -5.9490    4.6860  -19.9300 H   0  0  0  0  0  0  0  0  0  0  0  0
   -4.7870    6.0170  -19.9240 H   0  0  0  0  0  0  0  0  0  0  0  0
   -6.4360    6.2820  -20.5080 H   0  0  0  0  0  0  0  0  0  0  0  0
   -8.4950    5.0890  -20.1010 H   0  0  0  0  0  0  0  0  0  0  0  0
  -10.8730    4.3040  -18.5340 H   0  0  0  0  0  0  0  0  0  0  0  0
   -7.0350    5.0750  -14.9740 H   0  0  0  0  0  0  0  0  0  0  0  0
   -7.4720    6.7420  -14.9830 H   0  0  0  0  0  0  0  0  0  0  0  0
   -4.8210    5.7760  -15.4760 H   0  0  0  0  0  0  0  0  0  0  0  0
   -5.4310    7.2680  -16.1130 H   0  0  0  0  0  0  0  0  0  0  0  0
  1  2  2  0
  2  3  1  0
  3  4  1  0
  4  5  1  0
  4  6  1  0
  6  7  1  0
  7  8  2  0
  8  9  1  0
  9 10  1  0
 10 11  1  0
 11 12  1  0
 12  3  1  0
  6 10  2  0
  2 13  1  0
  4 14  1  0
  5 15  1  0
  5 16  1  0
  5 17  1  0
  7 18  1  0
  8 19  1  0
 11 20  1  0
 11 21  1  0
 12 22  1  0
 12 23  1  0
A    1
 O1 
A    2
 C1 
A    3
 N1 
A    4
 C2 
A    5
 C3 
A    6
 C4 
A    7
 C5 
A    8
 C6 
A    9
 S1 
A   10
 C7 
A   11
 C8 
A   12
 C9 
A   13
 H1 
A   14
 H2 
A   15
 H3 
A   16
 H4 
A   17
 H5 
A   18
 H6 
A   19
 H7 
A   20
 H8 
A   21
 H9 
A   22
 H10
A   23
 H11
M  END
>  <ref_pdb>  (284) 
x0051_0B

>  <ref_mols>  (284) 
x0472_0B,x0227_0B

>  <original SMILES>  (284) 
[H]C(=O)N1C([H])([H])C([H])([H])c2sc([H])c([H])c2C1([H])C([H])([H])[H]

>  <index>  (284) 
323

>  <∆∆G>  (284) 
-6.836303

>  <∆G_bound>  (284) 
-6.808417

>  <∆G_unbound>  (284) 
0.027886

>  <comRMSD>  (284) 
0.763479

>  <N_constrained_atoms>  (284) 
17.0

>  <N_unconstrained_atoms>  (284) 
0.0

>  <runtime>  (284) 
21.143204

>  <LE>  (284) 
0.402135

>  <percent_hybrid>  (284) 
45.0

>  <dist>  (284) 
5.0

>  <ecfp4>  (284) 
0.425532

>  <daylight>  (284) 
0.757576

>  <topodist>  (284) 
3.0

>  <mces>  (284) 
13.0

>  <tdn>  (284) 
3.0

>  <tup>  (284) 
0.0

>  <rdn>  (284) 
0.0

>  <rup>  (284) 
0.0

>  <ldn>  (284) 
0.0

>  <lup>  (284) 
0.0

>  <mut>  (284) 
1.0

>  <maj>  (284) 
1.0

>  <min>  (284) 
0.0

>  <hyb>  (284) 
1.0

>  <sub>  (284) 
1.0

>  <query_index>  (284) 
78.0

>  <max_hit_Tanimoto>  (284) 
0.614599

>  <largest_ring>  (284) 
0

>  <N_interactions_kept>  (284) 
4.5

>  <N_interactions_lost>  (284) 
0.5

>  <interaction_uniqueness_metric>  (284) 
0.031365

>  <ad_hoc_penalty>  (284) 
-21.627506

>  <N_rotatable_bonds>  (284) 
1

>  <N_HA>  (284) 
12

>  <cluster>  (284) 
5925

>  <N_interactions>  (284) 
2

>  <Enamine>  (284) 
0

>  <Mcule>  (284) 
1

>  <N_PAINS>  (284) 
0

>  <UFF_Gibbs>  (284) 
66.279628

>  <strain_per_HA>  (284) 
5.523302

>  <saltbridge:HIS:51>  (284) 
0

>  <pistack:HIS:51>  (284) 
0

>  <hydroph_interaction:HIS:51>  (284) 
0

>  <hbond:ALA:132>  (284) 
0

>  <hbond:SER:135>  (284) 
0

>  <hydroph_interaction:TYR:150>  (284) 
0

>  <pistack:TYR:161>  (284) 
0

>  <hydroph_interaction:TYR:161>  (284) 
1

>  <hydroph_interaction:ASP:83>  (284) 
0

>  <hbond:TYR:130>  (284) 
0

>  <hydroph_interaction:ALA:132>  (284) 
1

>  <hbond:HIS:51>  (284) 
0

>  <hbond:ASP:129>  (284) 
0

>  <hbond:TYR:150>  (284) 
0

>  <hbond:GLY:151>  (284) 
0

>  <hbond:TYR:161>  (284) 
0

>  <hydroph_interaction:TYR:130>  (284) 
0

>  <hydroph_interaction:PRO:131>  (284) 
0

>  <hydroph_interaction:ASP:129>  (284) 
0

>  <saltbridge:ASP:75>  (284) 
0

>  <saltbridge:ASP:83>  (284) 
0

>  <hydroph_interaction:ASN:152>  (284) 
0

>  <halogenbond:TYR:150>  (284) 
0

>  <hbond:ASP:83>  (284) 
0

>  <hydroph_interaction:VAL:155>  (284) 
0

>  <pication:TYR:161>  (284) 
0

>  <hbond:PRO:131>  (284) 
0

>  <hbond:LEU:128>  (284) 
0

>  <saltbridge:ASP:129>  (284) 
0

>  <hbond:THR:134>  (284) 
0

>  <pication:HIS:51>  (284) 
0

>  <hbond:SER:81>  (284) 
0

>  <hbond:GLY:159>  (284) 
0

>  <hydroph_interaction:PRO:101>  (284) 
0

>  <hydroph_interaction:THR:134>  (284) 
0

>  <hbond:GLY:82>  (284) 
0

>  <hydroph_interaction:GLU:104>  (284) 
0

>  <hydroph_interaction:VAL:36>  (284) 
0

>  <hydroph_interaction:MET:49>  (284) 
0

>  <halogenbond:GLU:104>  (284) 
0

>  <hydroph_interaction:LYS:107>  (284) 
0

$$$$
Z373770284
     RDKit          3D

 46 49  0  0  0  0  0  0  0  0999 V2000
   -6.1080    3.9680  -15.3710 C   0  0  0  0  0  0  0  0  0  0  0  0
   -6.4110    5.3730  -15.8720 C   0  0  0  0  0  0  0  0  0  0  0  0
   -6.8100    5.3700  -17.2640 N   0  0  0  0  0  0  0  0  0  0  0  0
   -6.0720    5.7360  -18.3350 C   0  0  0  0  0  0  0  0  0  0  0  0
   -6.9080    5.5490  -19.5840 C   0  0  0  0  0  0  0  0  0  0  0  0
   -6.6610    5.7630  -20.9430 N   0  0  0  0  0  0  0  0  0  0  0  0
   -5.5630    6.3010  -21.6310 C   0  0  0  0  0  0  0  0  0  0  0  0
   -4.5150    5.7870  -21.8790 O   0  0  0  0  0  0  0  0  0  0  0  0
   -5.6720    7.6500  -22.2410 C   0  0  0  0  0  0  0  0  0  0  0  0
   -6.2230    7.4610  -23.6190 C   0  0  0  0  0  0  0  0  0  0  0  0
   -6.3930    8.5830  -24.3660 C   0  0  0  0  0  0  0  0  0  0  0  0
   -6.0580    9.8430  -23.8480 C   0  0  0  0  0  0  0  0  0  0  0  0
   -6.2530   10.9400  -24.6760 C   0  0  0  0  0  0  0  0  0  0  0  0
   -5.8640   10.4900  -26.4000 S   0  0  0  0  0  0  0  0  0  0  0  0
   -7.2660    9.6490  -26.9600 C   0  0  0  0  0  0  0  0  0  0  0  0
   -7.3590    8.3810  -27.2810 N   0  0  0  0  0  0  0  0  0  0  0  0
   -8.6700    8.2060  -27.6580 C   0  0  0  0  0  0  0  0  0  0  0  0
   -9.3370    7.0510  -28.0910 C   0  0  0  0  0  0  0  0  0  0  0  0
  -10.6990    7.1390  -28.4100 C   0  0  0  0  0  0  0  0  0  0  0  0
  -11.3790    8.3510  -28.3010 C   0  0  0  0  0  0  0  0  0  0  0  0
  -10.7340    9.5180  -27.8750 C   0  0  0  0  0  0  0  0  0  0  0  0
   -9.3760    9.4030  -27.5620 C   0  0  0  0  0  0  0  0  0  0  0  0
   -8.4450   10.3090  -27.1150 N   0  0  0  0  0  0  0  0  0  0  0  0
   -5.5360    9.9980  -22.5340 C   0  0  0  0  0  0  0  0  0  0  0  0
   -5.3370    8.8890  -21.7090 C   0  0  0  0  0  0  0  0  0  0  0  0
   -8.1100    5.0650  -18.9820 C   0  0  0  0  0  0  0  0  0  0  0  0
   -8.0540    4.9610  -17.6250 N   0  0  0  0  0  0  0  0  0  0  0  0
   -5.0460    3.8740  -15.1240 H   0  0  0  0  0  0  0  0  0  0  0  0
   -6.6890    3.7340  -14.4720 H   0  0  0  0  0  0  0  0  0  0  0  0
   -6.3460    3.2200  -16.1350 H   0  0  0  0  0  0  0  0  0  0  0  0
   -5.5250    6.0090  -15.7640 H   0  0  0  0  0  0  0  0  0  0  0  0
   -7.2210    5.8090  -15.2780 H   0  0  0  0  0  0  0  0  0  0  0  0
   -5.0460    6.1140  -18.4280 H   0  0  0  0  0  0  0  0  0  0  0  0
   -7.5130    5.7830  -21.4630 H   0  0  0  0  0  0  0  0  0  0  0  0
   -6.4790    6.4850  -24.0220 H   0  0  0  0  0  0  0  0  0  0  0  0
   -6.7920    8.4910  -25.3720 H   0  0  0  0  0  0  0  0  0  0  0  0
   -5.6020   11.7580  -24.3510 H   0  0  0  0  0  0  0  0  0  0  0  0
   -7.2810   11.2990  -24.5980 H   0  0  0  0  0  0  0  0  0  0  0  0
   -8.8040    6.1110  -28.1720 H   0  0  0  0  0  0  0  0  0  0  0  0
  -11.2270    6.2490  -28.7440 H   0  0  0  0  0  0  0  0  0  0  0  0
  -12.4390    8.3940  -28.5540 H   0  0  0  0  0  0  0  0  0  0  0  0
  -11.2710   10.4570  -27.7930 H   0  0  0  0  0  0  0  0  0  0  0  0
   -8.5950   11.2890  -26.9270 H   0  0  0  0  0  0  0  0  0  0  0  0
   -5.2840   10.9900  -22.1580 H   0  0  0  0  0  0  0  0  0  0  0  0
   -4.9370    8.9900  -20.7020 H   0  0  0  0  0  0  0  0  0  0  0  0
   -9.0300    4.7840  -19.4770 H   0  0  0  0  0  0  0  0  0  0  0  0
  1  2  1  0
  2  3  1  0
  3  4  1  0
  4  5  2  0
  5  6  1  0
  6  7  1  0
  7  8  2  0
  7  9  1  0
  9 10  2  0
 10 11  1  0
 11 12  2  0
 12 13  1  0
 13 14  1  0
 14 15  1  0
 15 16  2  0
 16 17  1  0
 17 18  2  0
 18 19  1  0
 19 20  2  0
 20 21  1  0
 21 22  2  0
 22 23  1  0
 12 24  1  0
 24 25  2  0
  5 26  1  0
 26 27  2  0
 27  3  1  0
 25  9  1  0
 23 15  1  0
 22 17  1  0
  1 28  1  0
  1 29  1  0
  1 30  1  0
  2 31  1  0
  2 32  1  0
  4 33  1  0
  6 34  1  0
 10 35  1  0
 11 36  1  0
 13 37  1  0
 13 38  1  0
 18 39  1  0
 19 40  1  0
 20 41  1  0
 21 42  1  0
 23 43  1  0
 24 44  1  0
 25 45  1  0
 26 46  1  0
A    1
 C1 
A    2
 C2 
A    3
 N1 
A    4
 C3 
A    5
 C4 
A    6
 N2 
A    7
 C5 
A    8
 O1 
A    9
 C6 
A   10
 C7 
A   11
 C8 
A   12
 C9 
A   13
 C10
A   14
 S1 
A   15
 C11
A   16
 N3 
A   17
 C12
A   18
 C13
A   19
 C14
A   20
 C15
A   21
 C16
A   22
 C17
A   23
 N4 
A   24
 C18
A   25
 C19
A   26
 C20
A   27
 N5 
A   28
 H1 
A   29
 H2 
A   30
 H3 
A   31
 H4 
A   32
 H5 
A   33
 H6 
A   34
 H7 
A   35
 H8 
A   36
 H9 
A   37
 H10
A   38
 H11
A   39
 H12
A   40
 H13
A   41
 H14
A   42
 H15
A   43
 H16
A   44
 H17
A   45
 H18
A   46
 H19
M  END
>  <ref_pdb>  (285) 
x0051_0B

>  <ref_mols>  (285) 
x0846_1B,x0559_0B

>  <original SMILES>  (285) 
[H]c1nn(C([H])([H])C([H])([H])[H])c([H])c1N([H])C(=O)c1c([H])c([H])c(C([H])([H])Sc2nc3c([H])c([H])c([H])c([H])c3n2[H])c([H])c1[H]

>  <index>  (285) 
430

>  <∆∆G>  (285) 
-7.019278

>  <∆G_bound>  (285) 
-6.666591

>  <∆G_unbound>  (285) 
0.352687

>  <comRMSD>  (285) 
0.694287

>  <N_constrained_atoms>  (285) 
24.0

>  <N_unconstrained_atoms>  (285) 
4.0

>  <runtime>  (285) 
64.875875

>  <LE>  (285) 
0.250688

>  <percent_hybrid>  (285) 
25.0

>  <dist>  (285) 
9.0

>  <ecfp4>  (285) 
0.210526

>  <daylight>  (285) 
0.256

>  <topodist>  (285) 
2.0

>  <mces>  (285) 
29.0

>  <tdn>  (285) 
1.0

>  <tup>  (285) 
1.0

>  <rdn>  (285) 
0.0

>  <rup>  (285) 
0.0

>  <ldn>  (285) 
0.0

>  <lup>  (285) 
0.0

>  <mut>  (285) 
5.0

>  <maj>  (285) 
5.0

>  <min>  (285) 
0.0

>  <hyb>  (285) 
2.0

>  <sub>  (285) 
1.0

>  <query_index>  (285) 
233.0

>  <max_hit_Tanimoto>  (285) 
0.308657

>  <largest_ring>  (285) 
0

>  <N_interactions_kept>  (285) 
2.5

>  <N_interactions_lost>  (285) 
1.0

>  <interaction_uniqueness_metric>  (285) 
0.188053

>  <ad_hoc_penalty>  (285) 
-21.605141

>  <N_rotatable_bonds>  (285) 
7

>  <N_HA>  (285) 
27

>  <cluster>  (285) 
5828

>  <N_interactions>  (285) 
6

>  <Enamine>  (285) 
1

>  <Mcule>  (285) 
0

>  <N_PAINS>  (285) 
0

>  <UFF_Gibbs>  (285) 
143.705281

>  <strain_per_HA>  (285) 
5.322418

>  <saltbridge:HIS:51>  (285) 
0

>  <pistack:HIS:51>  (285) 
0

>  <hydroph_interaction:HIS:51>  (285) 
0

>  <hbond:ALA:132>  (285) 
0

>  <hbond:SER:135>  (285) 
0

>  <hydroph_interaction:TYR:150>  (285) 
0

>  <pistack:TYR:161>  (285) 
0

>  <hydroph_interaction:TYR:161>  (285) 
1

>  <hydroph_interaction:ASP:83>  (285) 
0

>  <hbond:TYR:130>  (285) 
2

>  <hydroph_interaction:ALA:132>  (285) 
0

>  <hbond:HIS:51>  (285) 
0

>  <hbond:ASP:129>  (285) 
1

>  <hbond:TYR:150>  (285) 
0

>  <hbond:GLY:151>  (285) 
0

>  <hbond:TYR:161>  (285) 
0

>  <hydroph_interaction:TYR:130>  (285) 
1

>  <hydroph_interaction:PRO:131>  (285) 
1

>  <hydroph_interaction:ASP:129>  (285) 
0

>  <saltbridge:ASP:75>  (285) 
0

>  <saltbridge:ASP:83>  (285) 
0

>  <hydroph_interaction:ASN:152>  (285) 
0

>  <halogenbond:TYR:150>  (285) 
0

>  <hbond:ASP:83>  (285) 
0

>  <hydroph_interaction:VAL:155>  (285) 
0

>  <pication:TYR:161>  (285) 
0

>  <hbond:PRO:131>  (285) 
0

>  <hbond:LEU:128>  (285) 
0

>  <saltbridge:ASP:129>  (285) 
0

>  <hbond:THR:134>  (285) 
0

>  <pication:HIS:51>  (285) 
0

>  <hbond:SER:81>  (285) 
0

>  <hbond:GLY:159>  (285) 
0

>  <hydroph_interaction:PRO:101>  (285) 
0

>  <hydroph_interaction:THR:134>  (285) 
0

>  <hbond:GLY:82>  (285) 
0

>  <hydroph_interaction:GLU:104>  (285) 
0

>  <hydroph_interaction:VAL:36>  (285) 
0

>  <hydroph_interaction:MET:49>  (285) 
0

>  <halogenbond:GLU:104>  (285) 
0

>  <hydroph_interaction:LYS:107>  (285) 
0

$$$$
Z2879272396
     RDKit          3D

 43 45  0  0  0  0  0  0  0  0999 V2000
   -8.5020    4.5580   -8.8670 C   0  0  0  0  0  0  0  0  0  0  0  0
   -8.6390    5.0480  -10.2710 C   0  0  0  0  0  0  0  0  0  0  0  0
   -8.8090    6.3580  -10.4910 N   0  0  0  0  0  0  0  0  0  0  0  0
   -8.9380    6.6070  -12.1300 S   0  0  0  0  0  0  0  0  0  0  0  0
   -8.7610    4.9790  -12.5600 C   0  0  0  0  0  0  0  0  0  0  0  0
   -8.8030    4.7270  -13.8920 N   0  0  0  0  0  0  0  0  0  0  0  0
   -8.2620    5.6560  -14.7500 C   0  0  0  0  0  0  0  0  0  0  0  0
   -7.6930    6.6980  -14.4640 O   0  0  0  0  0  0  0  0  0  0  0  0
   -8.4150    5.3240  -16.0810 C   0  0  0  0  0  0  0  0  0  0  0  0
   -9.6360    4.8890  -16.5570 C   0  0  0  0  0  0  0  0  0  0  0  0
   -9.7840    4.5350  -17.9860 C   0  0  0  0  0  0  0  0  0  0  0  0
   -8.6730    4.6470  -18.7990 C   0  0  0  0  0  0  0  0  0  0  0  0
   -8.6020    4.3570  -20.1270 N   0  0  0  0  0  0  0  0  0  0  0  0
   -7.3130    4.6410  -20.5350 C   0  0  0  0  0  0  0  0  0  0  0  0
   -6.9190    4.5010  -21.8750 O   0  0  0  0  0  0  0  0  0  0  0  0
   -6.5640    5.0690  -19.4510 N   0  0  0  0  0  0  0  0  0  0  0  0
   -5.2390    5.6120  -19.6210 C   0  0  0  0  0  0  0  0  0  0  0  0
   -4.8880    5.4520  -21.1070 C   0  0  0  0  0  0  0  0  0  0  0  0
   -3.5300    5.8410  -21.5640 N   0  0  0  0  0  0  0  0  0  0  0  0
   -3.5840    5.7700  -23.0260 C   0  0  0  0  0  0  0  0  0  0  0  0
   -2.4870    4.9100  -21.1250 C   0  0  0  0  0  0  0  0  0  0  0  0
   -7.3990    5.0780  -18.4180 C   0  0  0  0  0  0  0  0  0  0  0  0
   -7.1650    5.4660  -16.9670 C   0  0  0  0  0  0  0  0  0  0  0  0
   -8.6060    4.2150  -11.4350 C   0  0  0  0  0  0  0  0  0  0  0  0
   -7.4760    4.6880   -8.5040 H   0  0  0  0  0  0  0  0  0  0  0  0
   -9.1580    5.1170   -8.1920 H   0  0  0  0  0  0  0  0  0  0  0  0
   -8.7650    3.4950   -8.8160 H   0  0  0  0  0  0  0  0  0  0  0  0
   -9.2620    3.9130  -14.3130 H   0  0  0  0  0  0  0  0  0  0  0  0
  -10.4880    4.7990  -15.9040 H   0  0  0  0  0  0  0  0  0  0  0  0
  -10.7250    4.1920  -18.3950 H   0  0  0  0  0  0  0  0  0  0  0  0
   -9.1280    3.6520  -20.6190 H   0  0  0  0  0  0  0  0  0  0  0  0
   -5.3140    6.6910  -19.4190 H   0  0  0  0  0  0  0  0  0  0  0  0
   -4.6000    5.1980  -18.8460 H   0  0  0  0  0  0  0  0  0  0  0  0
   -5.0100    4.3960  -21.3550 H   0  0  0  0  0  0  0  0  0  0  0  0
   -5.5790    5.9750  -21.7670 H   0  0  0  0  0  0  0  0  0  0  0  0
   -3.4080    4.7400  -23.3590 H   0  0  0  0  0  0  0  0  0  0  0  0
   -2.8240    6.4280  -23.4640 H   0  0  0  0  0  0  0  0  0  0  0  0
   -4.5600    6.0970  -23.4190 H   0  0  0  0  0  0  0  0  0  0  0  0
   -2.5500    4.7340  -20.0560 H   0  0  0  0  0  0  0  0  0  0  0  0
   -2.5570    3.9330  -21.6210 H   0  0  0  0  0  0  0  0  0  0  0  0
   -1.4830    5.3030  -21.3250 H   0  0  0  0  0  0  0  0  0  0  0  0
   -6.1970    5.8100  -16.5940 H   0  0  0  0  0  0  0  0  0  0  0  0
   -8.4750    3.1240  -11.4260 H   0  0  0  0  0  0  0  0  0  0  0  0
  1  2  1  0
  2  3  2  0
  3  4  1  0
  4  5  1  0
  5  6  1  0
  6  7  1  0
  7  8  2  0
  7  9  1  0
  9 10  2  0
 10 11  1  0
 11 12  2  0
 12 13  1  0
 13 14  1  0
 14 15  2  0
 14 16  1  0
 16 17  1  0
 17 18  1  0
 18 19  1  0
 19 20  1  0
 19 21  1  0
 16 22  1  0
 22 23  2  0
  5 24  2  0
 24  2  1  0
 23  9  1  0
 22 12  1  0
  1 25  1  0
  1 26  1  0
  1 27  1  0
  6 28  1  0
 10 29  1  0
 11 30  1  0
 13 31  1  0
 17 32  1  0
 17 33  1  0
 18 34  1  0
 18 35  1  0
 20 36  1  0
 20 37  1  0
 20 38  1  0
 21 39  1  0
 21 40  1  0
 21 41  1  0
 23 42  1  0
 24 43  1  0
A    1
 C1 
A    2
 C2 
A    3
 N1 
A    4
 S1 
A    5
 C3 
A    6
 N2 
A    7
 C4 
A    8
 O1 
A    9
 C5 
A   10
 C6 
A   11
 C7 
A   12
 C8 
A   13
 N3 
A   14
 C9 
A   15
 O2 
A   16
 N4 
A   17
 C10
A   18
 C11
A   19
 N5 
A   20
 C12
A   21
 C13
A   22
 C14
A   23
 C15
A   24
 C16
A   25
 H1 
A   26
 H2 
A   27
 H3 
A   28
 H4 
A   29
 H5 
A   30
 H6 
A   31
 H7 
A   32
 H8 
A   33
 H9 
A   34
 H10
A   35
 H11
A   36
 H12
A   37
 H13
A   38
 H14
A   39
 H15
A   40
 H16
A   41
 H17
A   42
 H18
A   43
 H19
M  END
>  <ref_pdb>  (286) 
x0051_0B

>  <ref_mols>  (286) 
x0904_0B,x1098_0B

>  <original SMILES>  (286) 
[H]c1c(C([H])([H])[H])nsc1N([H])C(=O)c1c([H])c([H])c2c(c1[H])n(C([H])([H])C([H])([H])N(C([H])([H])[H])C([H])([H])[H])c(=O)n2[H]

>  <index>  (286) 
466

>  <∆∆G>  (286) 
-8.493186

>  <∆G_bound>  (286) 
-7.815104

>  <∆G_unbound>  (286) 
0.678082

>  <comRMSD>  (286) 
0.940284

>  <N_constrained_atoms>  (286) 
24.0

>  <N_unconstrained_atoms>  (286) 
2.0

>  <runtime>  (286) 
66.244028

>  <LE>  (286) 
0.326661

>  <percent_hybrid>  (286) 
42.0

>  <dist>  (286) 
8.0

>  <ecfp4>  (286) 
0.227273

>  <daylight>  (286) 
0.358079

>  <topodist>  (286) 
2.0

>  <mces>  (286) 
25.0

>  <tdn>  (286) 
1.0

>  <tup>  (286) 
0.0

>  <rdn>  (286) 
0.0

>  <rup>  (286) 
1.0

>  <ldn>  (286) 
0.0

>  <lup>  (286) 
0.0

>  <mut>  (286) 
4.0

>  <maj>  (286) 
4.0

>  <min>  (286) 
0.0

>  <hyb>  (286) 
2.0

>  <sub>  (286) 
1.0

>  <query_index>  (286) 
34.0

>  <max_hit_Tanimoto>  (286) 
0.28446

>  <largest_ring>  (286) 
0

>  <N_interactions_kept>  (286) 
3.0

>  <N_interactions_lost>  (286) 
3.0

>  <interaction_uniqueness_metric>  (286) 
0.395893

>  <ad_hoc_penalty>  (286) 
-21.567125

>  <N_rotatable_bonds>  (286) 
8

>  <N_HA>  (286) 
24

>  <cluster>  (286) 
511

>  <N_interactions>  (286) 
9

>  <Enamine>  (286) 
1

>  <Mcule>  (286) 
0

>  <N_PAINS>  (286) 
0

>  <UFF_Gibbs>  (286) 
165.953999

>  <strain_per_HA>  (286) 
6.91475

>  <saltbridge:HIS:51>  (286) 
0

>  <pistack:HIS:51>  (286) 
1

>  <hydroph_interaction:HIS:51>  (286) 
1

>  <hbond:ALA:132>  (286) 
0

>  <hbond:SER:135>  (286) 
0

>  <hydroph_interaction:TYR:150>  (286) 
0

>  <pistack:TYR:161>  (286) 
2

>  <hydroph_interaction:TYR:161>  (286) 
0

>  <hydroph_interaction:ASP:83>  (286) 
0

>  <hbond:TYR:130>  (286) 
1

>  <hydroph_interaction:ALA:132>  (286) 
0

>  <hbond:HIS:51>  (286) 
0

>  <hbond:ASP:129>  (286) 
1

>  <hbond:TYR:150>  (286) 
1

>  <hbond:GLY:151>  (286) 
1

>  <hbond:TYR:161>  (286) 
0

>  <hydroph_interaction:TYR:130>  (286) 
0

>  <hydroph_interaction:PRO:131>  (286) 
0

>  <hydroph_interaction:ASP:129>  (286) 
0

>  <saltbridge:ASP:75>  (286) 
0

>  <saltbridge:ASP:83>  (286) 
0

>  <hydroph_interaction:ASN:152>  (286) 
0

>  <halogenbond:TYR:150>  (286) 
0

>  <hbond:ASP:83>  (286) 
0

>  <hydroph_interaction:VAL:155>  (286) 
0

>  <pication:TYR:161>  (286) 
0

>  <hbond:PRO:131>  (286) 
0

>  <hbond:LEU:128>  (286) 
0

>  <saltbridge:ASP:129>  (286) 
1

>  <hbond:THR:134>  (286) 
0

>  <pication:HIS:51>  (286) 
0

>  <hbond:SER:81>  (286) 
0

>  <hbond:GLY:159>  (286) 
0

>  <hydroph_interaction:PRO:101>  (286) 
0

>  <hydroph_interaction:THR:134>  (286) 
0

>  <hbond:GLY:82>  (286) 
0

>  <hydroph_interaction:GLU:104>  (286) 
0

>  <hydroph_interaction:VAL:36>  (286) 
0

>  <hydroph_interaction:MET:49>  (286) 
0

>  <halogenbond:GLU:104>  (286) 
0

>  <hydroph_interaction:LYS:107>  (286) 
0

$$$$
CSSB00000766330
     RDKit          3D

 27 28  0  0  0  0  0  0  0  0999 V2000
  -11.1550    5.0000  -18.6390 C   0  0  0  0  0  0  0  0  0  0  0  0
   -9.8060    4.9950  -18.1450 C   0  0  0  0  0  0  0  0  0  0  0  0
   -8.7970    4.9990  -19.2260 C   0  0  0  0  0  0  0  0  0  0  0  0
   -7.4060    5.0660  -18.8730 C   0  0  0  0  0  0  0  0  0  0  0  0
   -6.4500    5.0860  -20.0550 C   0  0  0  0  0  0  0  0  0  0  0  0
   -7.0540    5.1180  -17.5060 C   0  0  0  0  0  0  0  0  0  0  0  0
   -5.7210    5.2040  -17.1490 N   0  0  0  0  0  0  0  0  0  0  0  0
   -5.5340    5.7820  -15.9610 C   0  0  0  0  0  0  0  0  0  0  0  0
   -6.2130    5.1050  -14.9270 C   0  0  0  0  0  0  0  0  0  0  0  0
   -7.5990    5.1510  -15.1440 C   0  0  0  0  0  0  0  0  0  0  0  0
   -8.0110    5.0950  -16.4730 C   0  0  0  0  0  0  0  0  0  0  0  0
   -9.3770    5.0300  -16.7530 C   0  0  0  0  0  0  0  0  0  0  0  0
  -11.6860    5.7550  -18.1390 H   0  0  0  0  0  0  0  0  0  0  0  0
  -11.6840    4.0690  -18.4900 H   0  0  0  0  0  0  0  0  0  0  0  0
  -11.1600    5.3330  -19.6740 H   0  0  0  0  0  0  0  0  0  0  0  0
   -9.1390    4.9650  -20.2630 H   0  0  0  0  0  0  0  0  0  0  0  0
   -6.4490    6.0460  -20.5810 H   0  0  0  0  0  0  0  0  0  0  0  0
   -6.7110    4.2960  -20.7740 H   0  0  0  0  0  0  0  0  0  0  0  0
   -5.4350    4.8820  -19.6900 H   0  0  0  0  0  0  0  0  0  0  0  0
   -5.2070    5.6610  -17.8980 H   0  0  0  0  0  0  0  0  0  0  0  0
   -4.4570    5.8140  -15.7490 H   0  0  0  0  0  0  0  0  0  0  0  0
   -5.8770    6.8190  -16.0160 H   0  0  0  0  0  0  0  0  0  0  0  0
   -6.0110    5.6350  -13.9920 H   0  0  0  0  0  0  0  0  0  0  0  0
   -5.9300    4.0690  -14.7240 H   0  0  0  0  0  0  0  0  0  0  0  0
   -8.0900    5.9310  -14.5690 H   0  0  0  0  0  0  0  0  0  0  0  0
   -7.9850    4.2330  -14.6910 H   0  0  0  0  0  0  0  0  0  0  0  0
  -10.1060    5.0240  -15.9460 H   0  0  0  0  0  0  0  0  0  0  0  0
  1  2  1  0
  2  3  2  0
  3  4  1  0
  4  5  1  0
  4  6  2  0
  6  7  1  0
  7  8  1  0
  8  9  1  0
  9 10  1  0
 10 11  1  0
 11 12  2  0
 12  2  1  0
 11  6  1  0
  1 13  1  0
  1 14  1  0
  1 15  1  0
  3 16  1  0
  5 17  1  0
  5 18  1  0
  5 19  1  0
  7 20  1  0
  8 21  1  0
  8 22  1  0
  9 23  1  0
  9 24  1  0
 10 25  1  0
 10 26  1  0
 12 27  1  0
A    1
 C1 
A    2
 C2 
A    3
 C3 
A    4
 C4 
A    5
 C5 
A    6
 C6 
A    7
 N1 
A    8
 C7 
A    9
 C8 
A   10
 C9 
A   11
 C10
A   12
 C11
A   13
 H1 
A   14
 H2 
A   15
 H3 
A   16
 H4 
A   17
 H5 
A   18
 H6 
A   19
 H7 
A   20
 H8 
A   21
 H9 
A   22
 H10
A   23
 H11
A   24
 H12
A   25
 H13
A   26
 H14
A   27
 H15
M  END
>  <ref_pdb>  (287) 
x0051_0B

>  <ref_mols>  (287) 
x0455_0B,x0382_0B

>  <original SMILES>  (287) 
[H]c1c(C([H])([H])[H])c([H])c2c(c1C([H])([H])[H])N([H])C([H])([H])C([H])([H])C2([H])[H]

>  <index>  (287) 
303

>  <∆∆G>  (287) 
-6.944669

>  <∆G_bound>  (287) 
-7.043639

>  <∆G_unbound>  (287) 
-0.09897

>  <comRMSD>  (287) 
0.604247

>  <N_constrained_atoms>  (287) 
11.0

>  <N_unconstrained_atoms>  (287) 
1.0

>  <runtime>  (287) 
25.884196

>  <LE>  (287) 
0.578722

>  <percent_hybrid>  (287) 
20.0

>  <dist>  (287) 
3.0

>  <ecfp4>  (287) 
0.295455

>  <daylight>  (287) 
0.405594

>  <topodist>  (287) 
2.0

>  <mces>  (287) 
12.0

>  <tdn>  (287) 
1.0

>  <tup>  (287) 
1.0

>  <rdn>  (287) 
0.0

>  <rup>  (287) 
0.0

>  <ldn>  (287) 
0.0

>  <lup>  (287) 
0.0

>  <mut>  (287) 
1.0

>  <maj>  (287) 
1.0

>  <min>  (287) 
0.0

>  <hyb>  (287) 
0.0

>  <sub>  (287) 
2.0

>  <query_index>  (287) 
293.0

>  <max_hit_Tanimoto>  (287) 
0.341818

>  <largest_ring>  (287) 
0

>  <N_interactions_kept>  (287) 
0.0

>  <N_interactions_lost>  (287) 
1.5

>  <interaction_uniqueness_metric>  (287) 
0.034305

>  <ad_hoc_penalty>  (287) 
-21.535872

>  <N_rotatable_bonds>  (287) 
2

>  <N_HA>  (287) 
12

>  <cluster>  (287) 
5941

>  <N_interactions>  (287) 
5

>  <Enamine>  (287) 
1

>  <Mcule>  (287) 
0

>  <N_PAINS>  (287) 
0

>  <UFF_Gibbs>  (287) 
72.31263

>  <strain_per_HA>  (287) 
6.026052

>  <saltbridge:HIS:51>  (287) 
0

>  <pistack:HIS:51>  (287) 
0

>  <hydroph_interaction:HIS:51>  (287) 
0

>  <hbond:ALA:132>  (287) 
0

>  <hbond:SER:135>  (287) 
0

>  <hydroph_interaction:TYR:150>  (287) 
1

>  <pistack:TYR:161>  (287) 
0

>  <hydroph_interaction:TYR:161>  (287) 
4

>  <hydroph_interaction:ASP:83>  (287) 
0

>  <hbond:TYR:130>  (287) 
0

>  <hydroph_interaction:ALA:132>  (287) 
0

>  <hbond:HIS:51>  (287) 
0

>  <hbond:ASP:129>  (287) 
0

>  <hbond:TYR:150>  (287) 
0

>  <hbond:GLY:151>  (287) 
0

>  <hbond:TYR:161>  (287) 
0

>  <hydroph_interaction:TYR:130>  (287) 
0

>  <hydroph_interaction:PRO:131>  (287) 
0

>  <hydroph_interaction:ASP:129>  (287) 
0

>  <saltbridge:ASP:75>  (287) 
0

>  <saltbridge:ASP:83>  (287) 
0

>  <hydroph_interaction:ASN:152>  (287) 
0

>  <halogenbond:TYR:150>  (287) 
0

>  <hbond:ASP:83>  (287) 
0

>  <hydroph_interaction:VAL:155>  (287) 
0

>  <pication:TYR:161>  (287) 
0

>  <hbond:PRO:131>  (287) 
0

>  <hbond:LEU:128>  (287) 
0

>  <saltbridge:ASP:129>  (287) 
0

>  <hbond:THR:134>  (287) 
0

>  <pication:HIS:51>  (287) 
0

>  <hbond:SER:81>  (287) 
0

>  <hbond:GLY:159>  (287) 
0

>  <hydroph_interaction:PRO:101>  (287) 
0

>  <hydroph_interaction:THR:134>  (287) 
0

>  <hbond:GLY:82>  (287) 
0

>  <hydroph_interaction:GLU:104>  (287) 
0

>  <hydroph_interaction:VAL:36>  (287) 
0

>  <hydroph_interaction:MET:49>  (287) 
0

>  <halogenbond:GLU:104>  (287) 
0

>  <hydroph_interaction:LYS:107>  (287) 
0

$$$$
Z2916345007
     RDKit          3D

 41 43  0  0  0  0  0  0  0  0999 V2000
   -8.4950    4.6610   -9.1340 C   0  0  0  0  0  0  0  0  0  0  0  0
   -8.5680    4.9350  -10.4800 N   0  0  0  0  0  0  0  0  0  0  0  0
   -8.8680    6.1790  -11.0630 C   0  0  0  0  0  0  0  0  0  0  0  0
   -8.8970    6.2720  -12.3420 N   0  0  0  0  0  0  0  0  0  0  0  0
   -8.5900    4.9610  -12.6960 C   0  0  0  0  0  0  0  0  0  0  0  0
   -8.4840    4.5020  -13.9690 N   0  0  0  0  0  0  0  0  0  0  0  0
   -8.2440    5.4560  -14.8950 C   0  0  0  0  0  0  0  0  0  0  0  0
   -7.7990    6.5640  -14.6200 O   0  0  0  0  0  0  0  0  0  0  0  0
   -8.5100    5.2490  -16.3880 C   0  0  0  0  0  0  0  0  0  0  0  0
   -9.8880    4.7830  -16.7390 C   0  0  0  0  0  0  0  0  0  0  0  0
  -10.1740    4.5920  -18.1830 C   0  0  0  0  0  0  0  0  0  0  0  0
   -9.2370    4.8140  -19.0870 C   0  0  0  0  0  0  0  0  0  0  0  0
   -7.9330    5.2430  -18.7940 C   0  0  0  0  0  0  0  0  0  0  0  0
   -7.6020    5.4530  -17.4310 C   0  0  0  0  0  0  0  0  0  0  0  0
   -6.2730    5.8870  -17.2150 O   0  0  0  0  0  0  0  0  0  0  0  0
   -5.3780    5.3310  -18.1650 C   0  0  0  0  0  0  0  0  0  0  0  0
   -4.8360    6.4310  -19.0470 C   0  0  0  0  0  0  0  0  0  0  0  0
   -5.8750    7.5050  -19.3510 C   0  0  0  0  0  0  0  0  0  0  0  0
   -5.6430    7.8990  -20.7920 C   0  0  0  0  0  0  0  0  0  0  0  0
   -4.5590    6.9580  -21.3250 C   0  0  0  0  0  0  0  0  0  0  0  0
   -4.4250    5.9130  -20.3340 O   0  0  0  0  0  0  0  0  0  0  0  0
   -8.3910    4.1290  -11.5700 C   0  0  0  0  0  0  0  0  0  0  0  0
   -7.4490    4.6850   -8.8130 H   0  0  0  0  0  0  0  0  0  0  0  0
   -9.0610    5.4070   -8.5760 H   0  0  0  0  0  0  0  0  0  0  0  0
   -8.9160    3.6730   -8.9200 H   0  0  0  0  0  0  0  0  0  0  0  0
   -9.0470    6.9600  -10.3160 H   0  0  0  0  0  0  0  0  0  0  0  0
   -8.0100    3.5990  -14.0810 H   0  0  0  0  0  0  0  0  0  0  0  0
  -10.6170    4.5990  -15.9520 H   0  0  0  0  0  0  0  0  0  0  0  0
  -11.1410    4.2650  -18.5820 H   0  0  0  0  0  0  0  0  0  0  0  0
   -9.4940    4.6540  -20.1380 H   0  0  0  0  0  0  0  0  0  0  0  0
   -7.2240    5.4020  -19.5990 H   0  0  0  0  0  0  0  0  0  0  0  0
   -5.8700    4.5950  -18.7950 H   0  0  0  0  0  0  0  0  0  0  0  0
   -4.5590    4.8190  -17.6400 H   0  0  0  0  0  0  0  0  0  0  0  0
   -3.9540    6.8870  -18.5930 H   0  0  0  0  0  0  0  0  0  0  0  0
   -5.7590    8.3720  -18.6910 H   0  0  0  0  0  0  0  0  0  0  0  0
   -6.8910    7.1180  -19.2210 H   0  0  0  0  0  0  0  0  0  0  0  0
   -6.5850    7.7030  -21.3140 H   0  0  0  0  0  0  0  0  0  0  0  0
   -5.4830    8.9820  -20.8270 H   0  0  0  0  0  0  0  0  0  0  0  0
   -4.8720    6.5020  -22.2740 H   0  0  0  0  0  0  0  0  0  0  0  0
   -3.5570    7.3730  -21.4820 H   0  0  0  0  0  0  0  0  0  0  0  0
   -8.1390    3.0660  -11.4850 H   0  0  0  0  0  0  0  0  0  0  0  0
  1  2  1  0
  2  3  1  0
  3  4  2  0
  4  5  1  0
  5  6  1  0
  6  7  1  0
  7  8  2  0
  7  9  1  0
  9 10  2  0
 10 11  1  0
 11 12  2  0
 12 13  1  0
 13 14  2  0
 14 15  1  0
 15 16  1  0
 16 17  1  0
 17 18  1  0
 18 19  1  0
 19 20  1  0
 20 21  1  0
  5 22  2  0
 22  2  1  0
 14  9  1  0
 21 17  1  0
  1 23  1  0
  1 24  1  0
  1 25  1  0
  3 26  1  0
  6 27  1  0
 10 28  1  0
 11 29  1  0
 12 30  1  0
 13 31  1  0
 16 32  1  0
 16 33  1  0
 17 34  1  0
 18 35  1  0
 18 36  1  0
 19 37  1  0
 19 38  1  0
 20 39  1  0
 20 40  1  0
 22 41  1  0
A    1
 C1 
A    2
 N1 
A    3
 C2 
A    4
 N2 
A    5
 C3 
A    6
 N3 
A    7
 C4 
A    8
 O1 
A    9
 C5 
A   10
 C6 
A   11
 C7 
A   12
 C8 
A   13
 C9 
A   14
 C10
A   15
 O2 
A   16
 C11
A   17
 C12
A   18
 C13
A   19
 C14
A   20
 C15
A   21
 O3 
A   22
 C16
A   23
 H1 
A   24
 H2 
A   25
 H3 
A   26
 H4 
A   27
 H5 
A   28
 H6 
A   29
 H7 
A   30
 H8 
A   31
 H9 
A   32
 H10
A   33
 H11
A   34
 H12
A   35
 H13
A   36
 H14
A   37
 H15
A   38
 H16
A   39
 H17
A   40
 H18
A   41
 H19
M  END
>  <ref_pdb>  (288) 
x0051_0B

>  <ref_mols>  (288) 
x1098_0B,x0229_0B

>  <original SMILES>  (288) 
[H]c1c([H])c([H])c(C(=O)N([H])c2nc([H])n(C([H])([H])[H])c2[H])c(OC([H])([H])C2([H])OC([H])([H])C([H])([H])C2([H])[H])c1[H]

>  <index>  (288) 
554

>  <∆∆G>  (288) 
-8.917257

>  <∆G_bound>  (288) 
-6.159106

>  <∆G_unbound>  (288) 
2.758151

>  <comRMSD>  (288) 
0.638841

>  <N_constrained_atoms>  (288) 
26.0

>  <N_unconstrained_atoms>  (288) 
0.0

>  <runtime>  (288) 
46.720654

>  <LE>  (288) 
0.342971

>  <percent_hybrid>  (288) 
43.0

>  <dist>  (288) 
7.0

>  <ecfp4>  (288) 
0.247191

>  <daylight>  (288) 
0.254072

>  <topodist>  (288) 
3.0

>  <mces>  (288) 
24.0

>  <tdn>  (288) 
2.0

>  <tup>  (288) 
0.0

>  <rdn>  (288) 
1.0

>  <rup>  (288) 
0.0

>  <ldn>  (288) 
0.0

>  <lup>  (288) 
0.0

>  <mut>  (288) 
4.0

>  <maj>  (288) 
4.0

>  <min>  (288) 
0.0

>  <hyb>  (288) 
0.0

>  <sub>  (288) 
2.0

>  <query_index>  (288) 
28.0

>  <max_hit_Tanimoto>  (288) 
0.322176

>  <largest_ring>  (288) 
6

>  <N_interactions_kept>  (288) 
2.0

>  <N_interactions_lost>  (288) 
3.5

>  <interaction_uniqueness_metric>  (288) 
0.431659

>  <ad_hoc_penalty>  (288) 
-21.509973

>  <N_rotatable_bonds>  (288) 
6

>  <N_HA>  (288) 
22

>  <cluster>  (288) 
461

>  <N_interactions>  (288) 
8

>  <Enamine>  (288) 
1

>  <Mcule>  (288) 
0

>  <N_PAINS>  (288) 
0

>  <UFF_Gibbs>  (288) 
140.7374

>  <strain_per_HA>  (288) 
6.397155

>  <saltbridge:HIS:51>  (288) 
0

>  <pistack:HIS:51>  (288) 
1

>  <hydroph_interaction:HIS:51>  (288) 
0

>  <hbond:ALA:132>  (288) 
0

>  <hbond:SER:135>  (288) 
0

>  <hydroph_interaction:TYR:150>  (288) 
1

>  <pistack:TYR:161>  (288) 
1

>  <hydroph_interaction:TYR:161>  (288) 
0

>  <hydroph_interaction:ASP:83>  (288) 
0

>  <hbond:TYR:130>  (288) 
0

>  <hydroph_interaction:ALA:132>  (288) 
1

>  <hbond:HIS:51>  (288) 
0

>  <hbond:ASP:129>  (288) 
0

>  <hbond:TYR:150>  (288) 
0

>  <hbond:GLY:151>  (288) 
0

>  <hbond:TYR:161>  (288) 
2

>  <hydroph_interaction:TYR:130>  (288) 
0

>  <hydroph_interaction:PRO:131>  (288) 
0

>  <hydroph_interaction:ASP:129>  (288) 
0

>  <saltbridge:ASP:75>  (288) 
0

>  <saltbridge:ASP:83>  (288) 
1

>  <hydroph_interaction:ASN:152>  (288) 
0

>  <halogenbond:TYR:150>  (288) 
0

>  <hbond:ASP:83>  (288) 
0

>  <hydroph_interaction:VAL:155>  (288) 
0

>  <pication:TYR:161>  (288) 
0

>  <hbond:PRO:131>  (288) 
0

>  <hbond:LEU:128>  (288) 
0

>  <saltbridge:ASP:129>  (288) 
0

>  <hbond:THR:134>  (288) 
0

>  <pication:HIS:51>  (288) 
1

>  <hbond:SER:81>  (288) 
0

>  <hbond:GLY:159>  (288) 
0

>  <hydroph_interaction:PRO:101>  (288) 
0

>  <hydroph_interaction:THR:134>  (288) 
0

>  <hbond:GLY:82>  (288) 
0

>  <hydroph_interaction:GLU:104>  (288) 
0

>  <hydroph_interaction:VAL:36>  (288) 
0

>  <hydroph_interaction:MET:49>  (288) 
0

>  <halogenbond:GLU:104>  (288) 
0

>  <hydroph_interaction:LYS:107>  (288) 
0

$$$$
PSCIAGYOKVUDGR-UHFFFAOYSA-N
     RDKit          3D

 41 43  0  0  0  0  0  0  0  0999 V2000
   -8.5940    6.5040  -14.4690 C   0  0  0  0  0  0  0  0  0  0  0  0
   -7.7230    5.9550  -15.4770 N   0  0  0  0  0  0  0  0  0  0  0  0
   -8.3750    5.4520  -16.7220 C   0  0  0  0  0  0  0  0  0  0  0  0
   -7.8560    5.3490  -18.1560 C   0  0  0  0  0  0  0  0  0  0  0  0
   -6.4810    5.7570  -18.6060 C   0  0  0  0  0  0  0  0  0  0  0  0
   -5.5100    6.0380  -19.1560 N   0  0  0  0  0  0  0  0  0  0  0  0
   -8.8560    4.8210  -19.0260 C   0  0  0  0  0  0  0  0  0  0  0  0
  -10.1000    4.5290  -18.2740 C   0  0  0  0  0  0  0  0  0  0  0  0
   -9.9460    4.9020  -16.6080 S   0  0  0  0  0  0  0  0  0  0  0  0
   -9.5310    7.5290  -14.6710 O   0  0  0  0  0  0  0  0  0  0  0  0
   -8.6250    6.0060  -13.0820 C   0  0  0  0  0  0  0  0  0  0  0  0
   -8.5220    6.9160  -11.8750 C   0  0  0  0  0  0  0  0  0  0  0  0
   -8.5770    6.3050  -10.5280 C   0  0  0  0  0  0  0  0  0  0  0  0
   -8.7220    4.9200  -10.4010 C   0  0  0  0  0  0  0  0  0  0  0  0
   -8.7740    4.3180   -9.1700 N   0  0  0  0  0  0  0  0  0  0  0  0
   -8.8730    2.8520   -9.0810 C   0  0  0  0  0  0  0  0  0  0  0  0
   -9.7480    2.4650   -7.9020 C   0  0  0  0  0  0  0  0  0  0  0  0
   -9.3960    3.1300   -6.6310 N   0  0  0  0  0  0  0  0  0  0  0  0
  -10.5720    3.7390   -6.0130 C   0  0  0  0  0  0  0  0  0  0  0  0
   -8.2820    4.0780   -6.7590 C   0  0  0  0  0  0  0  0  0  0  0  0
   -8.3220    5.0130   -7.9600 C   0  0  0  0  0  0  0  0  0  0  0  0
   -8.8140    4.1320  -11.5680 C   0  0  0  0  0  0  0  0  0  0  0  0
   -8.7680    4.6530  -12.8660 C   0  0  0  0  0  0  0  0  0  0  0  0
   -6.9040    5.4440  -15.1750 H   0  0  0  0  0  0  0  0  0  0  0  0
   -8.7370    4.6540  -20.0920 H   0  0  0  0  0  0  0  0  0  0  0  0
  -11.0260    4.1290  -18.6600 H   0  0  0  0  0  0  0  0  0  0  0  0
   -8.4110    7.9910  -11.9670 H   0  0  0  0  0  0  0  0  0  0  0  0
   -8.5040    6.9510   -9.6570 H   0  0  0  0  0  0  0  0  0  0  0  0
   -9.2960    2.4500  -10.0060 H   0  0  0  0  0  0  0  0  0  0  0  0
   -7.8870    2.3990   -8.9220 H   0  0  0  0  0  0  0  0  0  0  0  0
   -9.6900    1.3800   -7.7930 H   0  0  0  0  0  0  0  0  0  0  0  0
  -10.7890    2.6980   -8.1380 H   0  0  0  0  0  0  0  0  0  0  0  0
  -10.6620    4.7890   -6.3040 H   0  0  0  0  0  0  0  0  0  0  0  0
  -10.4820    3.7330   -4.9230 H   0  0  0  0  0  0  0  0  0  0  0  0
  -11.4960    3.2150   -6.2870 H   0  0  0  0  0  0  0  0  0  0  0  0
   -8.1540    4.6620   -5.8400 H   0  0  0  0  0  0  0  0  0  0  0  0
   -7.3720    3.4670   -6.8420 H   0  0  0  0  0  0  0  0  0  0  0  0
   -8.9910    5.8580   -7.7540 H   0  0  0  0  0  0  0  0  0  0  0  0
   -7.3070    5.4070   -8.0970 H   0  0  0  0  0  0  0  0  0  0  0  0
   -8.9280    3.0540  -11.4890 H   0  0  0  0  0  0  0  0  0  0  0  0
   -8.8470    3.9730  -13.7090 H   0  0  0  0  0  0  0  0  0  0  0  0
  1  2  1  0
  2  3  1  0
  3  4  2  0
  4  5  1  0
  5  6  3  0
  4  7  1  0
  7  8  2  0
  8  9  1  0
  1 10  2  0
  1 11  1  0
 11 12  2  0
 12 13  1  0
 13 14  2  0
 14 15  1  0
 15 16  1  0
 16 17  1  0
 17 18  1  0
 18 19  1  0
 18 20  1  0
 20 21  1  0
 14 22  1  0
 22 23  2  0
  9  3  1  0
 23 11  1  0
 21 15  1  0
  2 24  1  0
  7 25  1  0
  8 26  1  0
 12 27  1  0
 13 28  1  0
 16 29  1  0
 16 30  1  0
 17 31  1  0
 17 32  1  0
 19 33  1  0
 19 34  1  0
 19 35  1  0
 20 36  1  0
 20 37  1  0
 21 38  1  0
 21 39  1  0
 22 40  1  0
 23 41  1  0
A    1
 C1 
A    2
 N1 
A    3
 C2 
A    4
 C3 
A    5
 C4 
A    6
 N2 
A    7
 C5 
A    8
 C6 
A    9
 S1 
A   10
 O1 
A   11
 C7 
A   12
 C8 
A   13
 C9 
A   14
 C10
A   15
 N3 
A   16
 C11
A   17
 C12
A   18
 N4 
A   19
 C13
A   20
 C14
A   21
 C15
A   22
 C16
A   23
 C17
A   24
 H1 
A   25
 H2 
A   26
 H3 
A   27
 H4 
A   28
 H5 
A   29
 H6 
A   30
 H7 
A   31
 H8 
A   32
 H9 
A   33
 H10
A   34
 H11
A   35
 H12
A   36
 H13
A   37
 H14
A   38
 H15
A   39
 H16
A   40
 H17
A   41
 H18
M  END
>  <ref_pdb>  (289) 
x0051_0B

>  <ref_mols>  (289) 
x0386_0B,x0404_0B

>  <original SMILES>  (289) 
[H]c1sc(N([H])C(=O)c2c([H])c([H])c(N3C([H])([H])C([H])([H])N(C([H])([H])[H])C([H])([H])C3([H])[H])c([H])c2[H])c(C#N)c1[H]

>  <index>  (289) 
402

>  <∆∆G>  (289) 
-7.487581

>  <∆G_bound>  (289) 
-6.486993

>  <∆G_unbound>  (289) 
1.000587

>  <comRMSD>  (289) 
0.70241

>  <N_constrained_atoms>  (289) 
21.0

>  <N_unconstrained_atoms>  (289) 
2.0

>  <runtime>  (289) 
81.474783

>  <LE>  (289) 
0.325547

>  <percent_hybrid>  (289) 
34.0

>  <dist>  (289) 
9.0

>  <ecfp4>  (289) 
0.204819

>  <daylight>  (289) 
0.189189

>  <topodist>  (289) 
3.0

>  <mces>  (289) 
24.0

>  <tdn>  (289) 
1.0

>  <tup>  (289) 
1.0

>  <rdn>  (289) 
0.0

>  <rup>  (289) 
0.0

>  <ldn>  (289) 
1.0

>  <lup>  (289) 
0.0

>  <mut>  (289) 
3.0

>  <maj>  (289) 
2.0

>  <min>  (289) 
1.0

>  <hyb>  (289) 
3.0

>  <sub>  (289) 
1.0

>  <query_index>  (289) 
109.0

>  <max_hit_Tanimoto>  (289) 
0.286676

>  <largest_ring>  (289) 
0

>  <N_interactions_kept>  (289) 
2.5

>  <N_interactions_lost>  (289) 
1.0

>  <interaction_uniqueness_metric>  (289) 
0.143764

>  <ad_hoc_penalty>  (289) 
-21.466205

>  <N_rotatable_bonds>  (289) 
4

>  <N_HA>  (289) 
23

>  <cluster>  (289) 
5852

>  <N_interactions>  (289) 
4

>  <Enamine>  (289) 
0

>  <Mcule>  (289) 
1

>  <N_PAINS>  (289) 
0

>  <UFF_Gibbs>  (289) 
123.245328

>  <strain_per_HA>  (289) 
5.358493

>  <saltbridge:HIS:51>  (289) 
0

>  <pistack:HIS:51>  (289) 
1

>  <hydroph_interaction:HIS:51>  (289) 
0

>  <hbond:ALA:132>  (289) 
0

>  <hbond:SER:135>  (289) 
0

>  <hydroph_interaction:TYR:150>  (289) 
0

>  <pistack:TYR:161>  (289) 
0

>  <hydroph_interaction:TYR:161>  (289) 
2

>  <hydroph_interaction:ASP:83>  (289) 
0

>  <hbond:TYR:130>  (289) 
0

>  <hydroph_interaction:ALA:132>  (289) 
0

>  <hbond:HIS:51>  (289) 
0

>  <hbond:ASP:129>  (289) 
0

>  <hbond:TYR:150>  (289) 
0

>  <hbond:GLY:151>  (289) 
0

>  <hbond:TYR:161>  (289) 
0

>  <hydroph_interaction:TYR:130>  (289) 
0

>  <hydroph_interaction:PRO:131>  (289) 
0

>  <hydroph_interaction:ASP:129>  (289) 
0

>  <saltbridge:ASP:75>  (289) 
1

>  <saltbridge:ASP:83>  (289) 
0

>  <hydroph_interaction:ASN:152>  (289) 
0

>  <halogenbond:TYR:150>  (289) 
0

>  <hbond:ASP:83>  (289) 
0

>  <hydroph_interaction:VAL:155>  (289) 
0

>  <pication:TYR:161>  (289) 
0

>  <hbond:PRO:131>  (289) 
0

>  <hbond:LEU:128>  (289) 
0

>  <saltbridge:ASP:129>  (289) 
0

>  <hbond:THR:134>  (289) 
0

>  <pication:HIS:51>  (289) 
0

>  <hbond:SER:81>  (289) 
0

>  <hbond:GLY:159>  (289) 
0

>  <hydroph_interaction:PRO:101>  (289) 
0

>  <hydroph_interaction:THR:134>  (289) 
0

>  <hbond:GLY:82>  (289) 
0

>  <hydroph_interaction:GLU:104>  (289) 
0

>  <hydroph_interaction:VAL:36>  (289) 
0

>  <hydroph_interaction:MET:49>  (289) 
0

>  <halogenbond:GLU:104>  (289) 
0

>  <hydroph_interaction:LYS:107>  (289) 
0

$$$$
CSSB00104407922
     RDKit          3D

 35 37  0  0  0  0  0  0  0  0999 V2000
  -11.0210    7.1780  -14.3640 O   0  0  0  0  0  0  0  0  0  0  0  0
  -10.1550    7.6390  -13.6410 C   0  0  0  0  0  0  0  0  0  0  0  0
  -10.2230    8.9000  -13.0750 C   0  0  0  0  0  0  0  0  0  0  0  0
  -11.3730    9.3150  -13.1750 O   0  0  0  0  0  0  0  0  0  0  0  0
  -11.5740   10.6040  -13.6150 C   0  0  0  0  0  0  0  0  0  0  0  0
  -11.4370   10.7910  -15.0040 C   0  0  0  0  0  0  0  0  0  0  0  0
  -11.6070   12.0440  -15.6080 C   0  0  0  0  0  0  0  0  0  0  0  0
  -11.9260   13.1810  -14.8540 C   0  0  0  0  0  0  0  0  0  0  0  0
  -12.0900   13.1090  -13.4530 C   0  0  0  0  0  0  0  0  0  0  0  0
  -11.8930   11.7180  -12.8400 C   0  0  0  0  0  0  0  0  0  0  0  0
   -8.9430    6.8800  -13.2980 N   0  0  0  0  0  0  0  0  0  0  0  0
   -8.7580    5.5110  -13.7540 C   0  0  0  0  0  0  0  0  0  0  0  0
   -7.9060    5.5650  -15.0040 C   0  0  0  0  0  0  0  0  0  0  0  0
   -6.6360    5.9300  -15.0760 N   0  0  0  0  0  0  0  0  0  0  0  0
   -6.2370    5.8640  -16.2730 N   0  0  0  0  0  0  0  0  0  0  0  0
   -7.2340    5.4530  -17.0300 C   0  0  0  0  0  0  0  0  0  0  0  0
   -8.3230    5.2440  -16.2700 N   0  0  0  0  0  0  0  0  0  0  0  0
   -9.5150    4.8060  -16.8050 C   0  0  0  0  0  0  0  0  0  0  0  0
   -9.6130    4.6440  -18.1810 C   0  0  0  0  0  0  0  0  0  0  0  0
   -8.5240    4.9280  -18.9750 N   0  0  0  0  0  0  0  0  0  0  0  0
   -7.2590    5.2290  -18.4610 C   0  0  0  0  0  0  0  0  0  0  0  0
   -6.2870    5.2830  -19.2090 O   0  0  0  0  0  0  0  0  0  0  0  0
   -9.9190    9.0060  -12.0370 H   0  0  0  0  0  0  0  0  0  0  0  0
   -9.5730    9.5280  -13.6970 H   0  0  0  0  0  0  0  0  0  0  0  0
  -11.1910    9.9330  -15.6130 H   0  0  0  0  0  0  0  0  0  0  0  0
  -11.4840   12.1150  -16.6870 H   0  0  0  0  0  0  0  0  0  0  0  0
  -12.0510   14.1390  -15.3590 H   0  0  0  0  0  0  0  0  0  0  0  0
  -12.3390   13.9370  -12.7740 H   0  0  0  0  0  0  0  0  0  0  0  0
  -12.0320   11.7240  -11.7500 H   0  0  0  0  0  0  0  0  0  0  0  0
   -8.1040    7.3850  -13.0350 H   0  0  0  0  0  0  0  0  0  0  0  0
   -9.7600    5.1370  -14.0000 H   0  0  0  0  0  0  0  0  0  0  0  0
   -8.4340    4.9020  -12.9150 H   0  0  0  0  0  0  0  0  0  0  0  0
  -10.3320    4.6010  -16.1320 H   0  0  0  0  0  0  0  0  0  0  0  0
  -10.5160    4.3040  -18.6680 H   0  0  0  0  0  0  0  0  0  0  0  0
   -8.6670    5.2380  -19.9360 H   0  0  0  0  0  0  0  0  0  0  0  0
  1  2  2  0
  2  3  1  0
  3  4  1  0
  4  5  1  0
  5  6  2  0
  6  7  1  0
  7  8  2  0
  8  9  1  0
  9 10  2  0
  2 11  1  0
 11 12  1  0
 12 13  1  0
 13 14  2  0
 14 15  1  0
 15 16  2  0
 16 17  1  0
 17 18  1  0
 18 19  2  0
 19 20  1  0
 20 21  1  0
 21 22  2  0
 10  5  1  0
 17 13  1  0
 21 16  1  0
  3 23  1  0
  3 24  1  0
  6 25  1  0
  7 26  1  0
  8 27  1  0
  9 28  1  0
 10 29  1  0
 11 30  1  0
 12 31  1  0
 12 32  1  0
 18 33  1  0
 19 34  1  0
 20 35  1  0
A    1
 O1 
A    2
 C1 
A    3
 C2 
A    4
 O2 
A    5
 C3 
A    6
 C4 
A    7
 C5 
A    8
 C6 
A    9
 C7 
A   10
 C8 
A   11
 N1 
A   12
 C9 
A   13
 C10
A   14
 N2 
A   15
 N3 
A   16
 C11
A   17
 N4 
A   18
 C12
A   19
 C13
A   20
 N5 
A   21
 C14
A   22
 O3 
A   23
 H1 
A   24
 H2 
A   25
 H3 
A   26
 H4 
A   27
 H5 
A   28
 H6 
A   29
 H7 
A   30
 H8 
A   31
 H9 
A   32
 H10
A   33
 H11
A   34
 H12
A   35
 H13
M  END
>  <ref_pdb>  (290) 
x0051_0B

>  <ref_mols>  (290) 
x0951_0B,x0969_1B

>  <original SMILES>  (290) 
[H]c1c([H])c([H])c(OC([H])([H])C(=O)N([H])C([H])([H])c2nnc3c(=O)n([H])c([H])c([H])n23)c([H])c1[H]

>  <index>  (290) 
605

>  <∆∆G>  (290) 
-5.39297

>  <∆G_bound>  (290) 
-4.001887

>  <∆G_unbound>  (290) 
1.391083

>  <comRMSD>  (290) 
0.426705

>  <N_constrained_atoms>  (290) 
13.0

>  <N_unconstrained_atoms>  (290) 
10.0

>  <runtime>  (290) 
65.636361

>  <LE>  (290) 
0.234477

>  <percent_hybrid>  (290) 
8.0

>  <dist>  (290) 
12.0

>  <ecfp4>  (290) 
0.146341

>  <daylight>  (290) 
0.214286

>  <topodist>  (290) 
4.0

>  <mces>  (290) 
22.0

>  <tdn>  (290) 
1.0

>  <tup>  (290) 
2.0

>  <rdn>  (290) 
1.0

>  <rup>  (290) 
0.0

>  <ldn>  (290) 
0.0

>  <lup>  (290) 
0.0

>  <mut>  (290) 
4.0

>  <maj>  (290) 
4.0

>  <min>  (290) 
0.0

>  <hyb>  (290) 
4.0

>  <sub>  (290) 
3.0

>  <query_index>  (290) 
201.0

>  <max_hit_Tanimoto>  (290) 
0.417767

>  <largest_ring>  (290) 
6

>  <N_interactions_kept>  (290) 
3.0

>  <N_interactions_lost>  (290) 
0.0

>  <interaction_uniqueness_metric>  (290) 
0.569865

>  <ad_hoc_penalty>  (290) 
-21.461507

>  <N_rotatable_bonds>  (290) 
5

>  <N_HA>  (290) 
22

>  <cluster>  (290) 
5665

>  <N_interactions>  (290) 
3

>  <Enamine>  (290) 
1

>  <Mcule>  (290) 
0

>  <N_PAINS>  (290) 
0

>  <UFF_Gibbs>  (290) 
90.914501

>  <strain_per_HA>  (290) 
4.132477

>  <saltbridge:HIS:51>  (290) 
0

>  <pistack:HIS:51>  (290) 
0

>  <hydroph_interaction:HIS:51>  (290) 
0

>  <hbond:ALA:132>  (290) 
0

>  <hbond:SER:135>  (290) 
1

>  <hydroph_interaction:TYR:150>  (290) 
0

>  <pistack:TYR:161>  (290) 
0

>  <hydroph_interaction:TYR:161>  (290) 
0

>  <hydroph_interaction:ASP:83>  (290) 
0

>  <hbond:TYR:130>  (290) 
0

>  <hydroph_interaction:ALA:132>  (290) 
1

>  <hbond:HIS:51>  (290) 
0

>  <hbond:ASP:129>  (290) 
0

>  <hbond:TYR:150>  (290) 
0

>  <hbond:GLY:151>  (290) 
0

>  <hbond:TYR:161>  (290) 
0

>  <hydroph_interaction:TYR:130>  (290) 
0

>  <hydroph_interaction:PRO:131>  (290) 
0

>  <hydroph_interaction:ASP:129>  (290) 
0

>  <saltbridge:ASP:75>  (290) 
0

>  <saltbridge:ASP:83>  (290) 
0

>  <hydroph_interaction:ASN:152>  (290) 
0

>  <halogenbond:TYR:150>  (290) 
0

>  <hbond:ASP:83>  (290) 
0

>  <hydroph_interaction:VAL:155>  (290) 
0

>  <pication:TYR:161>  (290) 
0

>  <hbond:PRO:131>  (290) 
0

>  <hbond:LEU:128>  (290) 
0

>  <saltbridge:ASP:129>  (290) 
0

>  <hbond:THR:134>  (290) 
0

>  <pication:HIS:51>  (290) 
0

>  <hbond:SER:81>  (290) 
0

>  <hbond:GLY:159>  (290) 
0

>  <hydroph_interaction:PRO:101>  (290) 
0

>  <hydroph_interaction:THR:134>  (290) 
0

>  <hbond:GLY:82>  (290) 
0

>  <hydroph_interaction:GLU:104>  (290) 
0

>  <hydroph_interaction:VAL:36>  (290) 
1

>  <hydroph_interaction:MET:49>  (290) 
0

>  <halogenbond:GLU:104>  (290) 
0

>  <hydroph_interaction:LYS:107>  (290) 
0

$$$$
Z2060771916
     RDKit          3D

 43 47  0  0  0  0  0  0  0  0999 V2000
   -6.0440    4.8960  -21.3620 O   0  0  0  0  0  0  0  0  0  0  0  0
   -6.0630    5.9470  -20.7300 C   0  0  0  0  0  0  0  0  0  0  0  0
   -5.9210    7.2240  -21.6150 C   0  0  0  0  0  0  0  0  0  0  0  0
   -6.1620    7.0770  -23.0210 C   0  0  0  0  0  0  0  0  0  0  0  0
   -6.0960    8.1620  -23.8910 C   0  0  0  0  0  0  0  0  0  0  0  0
   -5.7830    9.4080  -23.3840 C   0  0  0  0  0  0  0  0  0  0  0  0
   -5.7960   10.4250  -24.5180 C   0  0  0  0  0  0  0  0  0  0  0  0
   -5.4230    9.7710  -26.1740 S   0  0  0  0  0  0  0  0  0  0  0  0
   -7.0160    9.4460  -26.8110 C   0  0  0  0  0  0  0  0  0  0  0  0
   -7.4600    8.1830  -27.1610 N   0  0  0  0  0  0  0  0  0  0  0  0
   -8.7390    8.1600  -27.6050 C   0  0  0  0  0  0  0  0  0  0  0  0
   -9.3730    6.9800  -27.9900 C   0  0  0  0  0  0  0  0  0  0  0  0
  -10.6980    7.0660  -28.4110 C   0  0  0  0  0  0  0  0  0  0  0  0
  -11.3470    8.3100  -28.4380 C   0  0  0  0  0  0  0  0  0  0  0  0
  -10.6890    9.4940  -28.0530 C   0  0  0  0  0  0  0  0  0  0  0  0
   -9.3580    9.3960  -27.6320 C   0  0  0  0  0  0  0  0  0  0  0  0
   -8.2350   10.6170  -27.0860 S   0  0  0  0  0  0  0  0  0  0  0  0
   -5.5140    9.6090  -22.0180 C   0  0  0  0  0  0  0  0  0  0  0  0
   -5.5840    8.5110  -21.1230 C   0  0  0  0  0  0  0  0  0  0  0  0
   -6.1870    5.9920  -19.3070 N   0  0  0  0  0  0  0  0  0  0  0  0
   -5.0470    6.0310  -18.3460 C   0  0  0  0  0  0  0  0  0  0  0  0
   -5.6940    6.3490  -16.9850 C   0  0  0  0  0  0  0  0  0  0  0  0
   -6.9960    5.7680  -17.2030 N   0  0  0  0  0  0  0  0  0  0  0  0
   -7.9210    5.4220  -16.3090 N   0  0  0  0  0  0  0  0  0  0  0  0
   -8.8870    4.9390  -17.1110 C   0  0  0  0  0  0  0  0  0  0  0  0
   -8.5470    4.9930  -18.5080 C   0  0  0  0  0  0  0  0  0  0  0  0
   -7.2880    5.5530  -18.5200 C   0  0  0  0  0  0  0  0  0  0  0  0
   -6.4120    6.0950  -23.4150 H   0  0  0  0  0  0  0  0  0  0  0  0
   -6.2970    8.0120  -24.9510 H   0  0  0  0  0  0  0  0  0  0  0  0
   -6.7920   10.8820  -24.5550 H   0  0  0  0  0  0  0  0  0  0  0  0
   -5.1020   11.2460  -24.2980 H   0  0  0  0  0  0  0  0  0  0  0  0
   -8.8440    6.0330  -27.9550 H   0  0  0  0  0  0  0  0  0  0  0  0
  -11.2290    6.1660  -28.7170 H   0  0  0  0  0  0  0  0  0  0  0  0
  -12.3820    8.3670  -28.7660 H   0  0  0  0  0  0  0  0  0  0  0  0
  -11.2010   10.4500  -28.0820 H   0  0  0  0  0  0  0  0  0  0  0  0
   -5.2620   10.5990  -21.6430 H   0  0  0  0  0  0  0  0  0  0  0  0
   -5.3850    8.6680  -20.0670 H   0  0  0  0  0  0  0  0  0  0  0  0
   -4.5330    5.0660  -18.3470 H   0  0  0  0  0  0  0  0  0  0  0  0
   -4.3440    6.8180  -18.6450 H   0  0  0  0  0  0  0  0  0  0  0  0
   -5.2090    5.8390  -16.1490 H   0  0  0  0  0  0  0  0  0  0  0  0
   -5.8080    7.4210  -16.8070 H   0  0  0  0  0  0  0  0  0  0  0  0
   -9.7980    4.5660  -16.6620 H   0  0  0  0  0  0  0  0  0  0  0  0
   -9.1350    4.6720  -19.3590 H   0  0  0  0  0  0  0  0  0  0  0  0
  1  2  2  0
  2  3  1  0
  3  4  2  0
  4  5  1  0
  5  6  2  0
  6  7  1  0
  7  8  1  0
  8  9  1  0
  9 10  2  0
 10 11  1  0
 11 12  2  0
 12 13  1  0
 13 14  2  0
 14 15  1  0
 15 16  2  0
 16 17  1  0
  6 18  1  0
 18 19  2  0
  2 20  1  0
 20 21  1  0
 21 22  1  0
 22 23  1  0
 23 24  1  0
 24 25  2  0
 25 26  1  0
 26 27  2  0
 19  3  1  0
 17  9  1  0
 16 11  1  0
 27 20  1  0
 27 23  1  0
  4 28  1  0
  5 29  1  0
  7 30  1  0
  7 31  1  0
 12 32  1  0
 13 33  1  0
 14 34  1  0
 15 35  1  0
 18 36  1  0
 19 37  1  0
 21 38  1  0
 21 39  1  0
 22 40  1  0
 22 41  1  0
 25 42  1  0
 26 43  1  0
A    1
 O1 
A    2
 C1 
A    3
 C2 
A    4
 C3 
A    5
 C4 
A    6
 C5 
A    7
 C6 
A    8
 S1 
A    9
 C7 
A   10
 N1 
A   11
 C8 
A   12
 C9 
A   13
 C10
A   14
 C11
A   15
 C12
A   16
 C13
A   17
 S2 
A   18
 C14
A   19
 C15
A   20
 N2 
A   21
 C16
A   22
 C17
A   23
 N3 
A   24
 N4 
A   25
 C18
A   26
 C19
A   27
 C20
A   28
 H1 
A   29
 H2 
A   30
 H3 
A   31
 H4 
A   32
 H5 
A   33
 H6 
A   34
 H7 
A   35
 H8 
A   36
 H9 
A   37
 H10
A   38
 H11
A   39
 H12
A   40
 H13
A   41
 H14
A   42
 H15
A   43
 H16
M  END
>  <ref_pdb>  (291) 
x0051_0B

>  <ref_mols>  (291) 
x0846_1B,x0969_0B

>  <original SMILES>  (291) 
[H]c1nn2c(c1[H])N(C(=O)c1c([H])c([H])c(C([H])([H])Sc3nc4c([H])c([H])c([H])c([H])c4s3)c([H])c1[H])C([H])([H])C2([H])[H]

>  <index>  (291) 
615

>  <∆∆G>  (291) 
-7.537102

>  <∆G_bound>  (291) 
-6.931471

>  <∆G_unbound>  (291) 
0.605631

>  <comRMSD>  (291) 
0.984482

>  <N_constrained_atoms>  (291) 
28.0

>  <N_unconstrained_atoms>  (291) 
2.0

>  <runtime>  (291) 
40.340442

>  <LE>  (291) 
0.251237

>  <percent_hybrid>  (291) 
36.0

>  <dist>  (291) 
7.0

>  <ecfp4>  (291) 
0.197917

>  <daylight>  (291) 
0.320334

>  <topodist>  (291) 
4.0

>  <mces>  (291) 
30.0

>  <tdn>  (291) 
2.0

>  <tup>  (291) 
1.0

>  <rdn>  (291) 
0.0

>  <rup>  (291) 
0.0

>  <ldn>  (291) 
1.0

>  <lup>  (291) 
0.0

>  <mut>  (291) 
3.0

>  <maj>  (291) 
3.0

>  <min>  (291) 
0.0

>  <hyb>  (291) 
0.0

>  <sub>  (291) 
2.0

>  <query_index>  (291) 
45.0

>  <max_hit_Tanimoto>  (291) 
0.24805

>  <largest_ring>  (291) 
6

>  <N_interactions_kept>  (291) 
0.5

>  <N_interactions_lost>  (291) 
2.0

>  <interaction_uniqueness_metric>  (291) 
0.18165

>  <ad_hoc_penalty>  (291) 
-21.438542

>  <N_rotatable_bonds>  (291) 
4

>  <N_HA>  (291) 
27

>  <cluster>  (291) 
5656

>  <N_interactions>  (291) 
5

>  <Enamine>  (291) 
1

>  <Mcule>  (291) 
0

>  <N_PAINS>  (291) 
0

>  <UFF_Gibbs>  (291) 
71.653253

>  <strain_per_HA>  (291) 
2.653824

>  <saltbridge:HIS:51>  (291) 
0

>  <pistack:HIS:51>  (291) 
0

>  <hydroph_interaction:HIS:51>  (291) 
0

>  <hbond:ALA:132>  (291) 
0

>  <hbond:SER:135>  (291) 
0

>  <hydroph_interaction:TYR:150>  (291) 
0

>  <pistack:TYR:161>  (291) 
1

>  <hydroph_interaction:TYR:161>  (291) 
0

>  <hydroph_interaction:ASP:83>  (291) 
0

>  <hbond:TYR:130>  (291) 
1

>  <hydroph_interaction:ALA:132>  (291) 
0

>  <hbond:HIS:51>  (291) 
0

>  <hbond:ASP:129>  (291) 
1

>  <hbond:TYR:150>  (291) 
0

>  <hbond:GLY:151>  (291) 
0

>  <hbond:TYR:161>  (291) 
0

>  <hydroph_interaction:TYR:130>  (291) 
1

>  <hydroph_interaction:PRO:131>  (291) 
1

>  <hydroph_interaction:ASP:129>  (291) 
0

>  <saltbridge:ASP:75>  (291) 
0

>  <saltbridge:ASP:83>  (291) 
0

>  <hydroph_interaction:ASN:152>  (291) 
0

>  <halogenbond:TYR:150>  (291) 
0

>  <hbond:ASP:83>  (291) 
0

>  <hydroph_interaction:VAL:155>  (291) 
0

>  <pication:TYR:161>  (291) 
0

>  <hbond:PRO:131>  (291) 
0

>  <hbond:LEU:128>  (291) 
0

>  <saltbridge:ASP:129>  (291) 
0

>  <hbond:THR:134>  (291) 
0

>  <pication:HIS:51>  (291) 
0

>  <hbond:SER:81>  (291) 
0

>  <hbond:GLY:159>  (291) 
0

>  <hydroph_interaction:PRO:101>  (291) 
0

>  <hydroph_interaction:THR:134>  (291) 
0

>  <hbond:GLY:82>  (291) 
0

>  <hydroph_interaction:GLU:104>  (291) 
0

>  <hydroph_interaction:VAL:36>  (291) 
0

>  <hydroph_interaction:MET:49>  (291) 
0

>  <halogenbond:GLU:104>  (291) 
0

>  <hydroph_interaction:LYS:107>  (291) 
0

$$$$
Z2782231880
     RDKit          3D

 41 43  0  0  0  0  0  0  0  0999 V2000
  -10.5870    4.6630  -18.4310 C   0  0  0  0  0  0  0  0  0  0  0  0
   -9.2830    4.9360  -17.8110 C   0  0  0  0  0  0  0  0  0  0  0  0
   -8.1670    5.1680  -18.6270 C   0  0  0  0  0  0  0  0  0  0  0  0
   -6.9130    5.4290  -18.1030 C   0  0  0  0  0  0  0  0  0  0  0  0
   -5.8340    5.6520  -18.9460 C   0  0  0  0  0  0  0  0  0  0  0  0
   -6.7840    5.4520  -16.6690 C   0  0  0  0  0  0  0  0  0  0  0  0
   -7.8740    5.2230  -15.8460 C   0  0  0  0  0  0  0  0  0  0  0  0
   -7.4760    5.2840  -14.4390 O   0  0  0  0  0  0  0  0  0  0  0  0
   -8.1720    6.0020  -13.4830 C   0  0  0  0  0  0  0  0  0  0  0  0
   -8.1550    7.2270  -13.3920 O   0  0  0  0  0  0  0  0  0  0  0  0
   -8.9600    5.0810  -12.5230 C   0  0  0  0  0  0  0  0  0  0  0  0
   -8.9030    5.3300  -10.9810 C   0  0  0  0  0  0  0  0  0  0  0  0
   -8.9820    4.3560   -9.9990 C   0  0  0  0  0  0  0  0  0  0  0  0
   -9.1280    2.8770  -10.1010 C   0  0  0  0  0  0  0  0  0  0  0  0
   -9.4190    2.2310   -8.7930 C   0  0  0  0  0  0  0  0  0  0  0  0
   -9.4730    2.9310   -7.5410 C   0  0  0  0  0  0  0  0  0  0  0  0
   -8.9550    4.3640   -7.4790 C   0  0  0  0  0  0  0  0  0  0  0  0
   -8.9050    4.9950   -8.7870 N   0  0  0  0  0  0  0  0  0  0  0  0
   -8.7740    6.3300   -8.9020 N   0  0  0  0  0  0  0  0  0  0  0  0
   -8.7730    6.5360  -10.2320 C   0  0  0  0  0  0  0  0  0  0  0  0
   -9.1430    4.9640  -16.3940 C   0  0  0  0  0  0  0  0  0  0  0  0
  -10.8970    5.4850  -19.0830 H   0  0  0  0  0  0  0  0  0  0  0  0
  -11.3400    4.5070  -17.6820 H   0  0  0  0  0  0  0  0  0  0  0  0
  -10.4800    3.7700  -19.0210 H   0  0  0  0  0  0  0  0  0  0  0  0
   -8.2790    5.1460  -19.7110 H   0  0  0  0  0  0  0  0  0  0  0  0
   -5.7860    6.7250  -19.1620 H   0  0  0  0  0  0  0  0  0  0  0  0
   -4.8460    5.3580  -18.5960 H   0  0  0  0  0  0  0  0  0  0  0  0
   -5.9520    5.1580  -19.9140 H   0  0  0  0  0  0  0  0  0  0  0  0
   -5.8520    5.6410  -16.1220 H   0  0  0  0  0  0  0  0  0  0  0  0
   -8.6280    4.0540  -12.7250 H   0  0  0  0  0  0  0  0  0  0  0  0
  -10.0030    5.1000  -12.8420 H   0  0  0  0  0  0  0  0  0  0  0  0
   -9.9330    2.6290  -10.8030 H   0  0  0  0  0  0  0  0  0  0  0  0
   -8.2080    2.4550  -10.5220 H   0  0  0  0  0  0  0  0  0  0  0  0
   -8.7240    1.4030   -8.6800 H   0  0  0  0  0  0  0  0  0  0  0  0
  -10.3840    1.7640   -8.8700 H   0  0  0  0  0  0  0  0  0  0  0  0
  -10.5150    2.9240   -7.1980 H   0  0  0  0  0  0  0  0  0  0  0  0
   -8.9230    2.3520   -6.8110 H   0  0  0  0  0  0  0  0  0  0  0  0
   -9.6120    4.9790   -6.8580 H   0  0  0  0  0  0  0  0  0  0  0  0
   -7.9440    4.3840   -7.0550 H   0  0  0  0  0  0  0  0  0  0  0  0
   -8.6810    7.5630  -10.6060 H   0  0  0  0  0  0  0  0  0  0  0  0
   -9.9970    4.7850  -15.7450 H   0  0  0  0  0  0  0  0  0  0  0  0
  1  2  1  0
  2  3  2  0
  3  4  1  0
  4  5  1  0
  4  6  2  0
  6  7  1  0
  7  8  1  0
  8  9  1  0
  9 10  2  0
  9 11  1  0
 11 12  1  0
 12 13  2  0
 13 14  1  0
 14 15  1  0
 15 16  1  0
 16 17  1  0
 17 18  1  0
 18 19  1  0
 19 20  2  0
  7 21  2  0
 21  2  1  0
 20 12  1  0
 18 13  1  0
  1 22  1  0
  1 23  1  0
  1 24  1  0
  3 25  1  0
  5 26  1  0
  5 27  1  0
  5 28  1  0
  6 29  1  0
 11 30  1  0
 11 31  1  0
 14 32  1  0
 14 33  1  0
 15 34  1  0
 15 35  1  0
 16 36  1  0
 16 37  1  0
 17 38  1  0
 17 39  1  0
 20 40  1  0
 21 41  1  0
A    1
 C1 
A    2
 C2 
A    3
 C3 
A    4
 C4 
A    5
 C5 
A    6
 C6 
A    7
 C7 
A    8
 O1 
A    9
 C8 
A   10
 O2 
A   11
 C9 
A   12
 C10
A   13
 C11
A   14
 C12
A   15
 C13
A   16
 C14
A   17
 C15
A   18
 N1 
A   19
 N2 
A   20
 C16
A   21
 C17
A   22
 H1 
A   23
 H2 
A   24
 H3 
A   25
 H4 
A   26
 H5 
A   27
 H6 
A   28
 H7 
A   29
 H8 
A   30
 H9 
A   31
 H10
A   32
 H11
A   33
 H12
A   34
 H13
A   35
 H14
A   36
 H15
A   37
 H16
A   38
 H17
A   39
 H18
A   40
 H19
A   41
 H20
M  END
>  <ref_pdb>  (292) 
x0051_0B

>  <ref_mols>  (292) 
x0589_0B,x0969_1B

>  <original SMILES>  (292) 
[H]c1nn2c(c1C([H])([H])C(=O)Oc1c([H])c(C([H])([H])[H])c([H])c(C([H])([H])[H])c1[H])C([H])([H])C([H])([H])C([H])([H])C2([H])[H]

>  <index>  (292) 
488

>  <∆∆G>  (292) 
-8.696989

>  <∆G_bound>  (292) 
-7.719679

>  <∆G_unbound>  (292) 
0.97731

>  <comRMSD>  (292) 
0.528835

>  <N_constrained_atoms>  (292) 
18.0

>  <N_unconstrained_atoms>  (292) 
3.0

>  <runtime>  (292) 
51.337618

>  <LE>  (292) 
0.414142

>  <percent_hybrid>  (292) 
45.0

>  <dist>  (292) 
4.0

>  <ecfp4>  (292) 
0.393939

>  <daylight>  (292) 
0.476

>  <topodist>  (292) 
1.0

>  <mces>  (292) 
22.0

>  <tdn>  (292) 
0.0

>  <tup>  (292) 
1.0

>  <rdn>  (292) 
0.0

>  <rup>  (292) 
0.0

>  <ldn>  (292) 
0.0

>  <lup>  (292) 
0.0

>  <mut>  (292) 
2.0

>  <maj>  (292) 
2.0

>  <min>  (292) 
0.0

>  <hyb>  (292) 
1.0

>  <sub>  (292) 
0.0

>  <query_index>  (292) 
379.0

>  <max_hit_Tanimoto>  (292) 
0.308247

>  <largest_ring>  (292) 
0

>  <N_interactions_kept>  (292) 
1.5

>  <N_interactions_lost>  (292) 
1.0

>  <interaction_uniqueness_metric>  (292) 
0.066414

>  <ad_hoc_penalty>  (292) 
-21.429825

>  <N_rotatable_bonds>  (292) 
5

>  <N_HA>  (292) 
21

>  <cluster>  (292) 
5773

>  <N_interactions>  (292) 
4

>  <Enamine>  (292) 
1

>  <Mcule>  (292) 
0

>  <N_PAINS>  (292) 
0

>  <UFF_Gibbs>  (292) 
71.351022

>  <strain_per_HA>  (292) 
3.397668

>  <saltbridge:HIS:51>  (292) 
0

>  <pistack:HIS:51>  (292) 
1

>  <hydroph_interaction:HIS:51>  (292) 
0

>  <hbond:ALA:132>  (292) 
0

>  <hbond:SER:135>  (292) 
0

>  <hydroph_interaction:TYR:150>  (292) 
1

>  <pistack:TYR:161>  (292) 
1

>  <hydroph_interaction:TYR:161>  (292) 
1

>  <hydroph_interaction:ASP:83>  (292) 
0

>  <hbond:TYR:130>  (292) 
0

>  <hydroph_interaction:ALA:132>  (292) 
0

>  <hbond:HIS:51>  (292) 
0

>  <hbond:ASP:129>  (292) 
0

>  <hbond:TYR:150>  (292) 
0

>  <hbond:GLY:151>  (292) 
0

>  <hbond:TYR:161>  (292) 
0

>  <hydroph_interaction:TYR:130>  (292) 
0

>  <hydroph_interaction:PRO:131>  (292) 
0

>  <hydroph_interaction:ASP:129>  (292) 
0

>  <saltbridge:ASP:75>  (292) 
0

>  <saltbridge:ASP:83>  (292) 
0

>  <hydroph_interaction:ASN:152>  (292) 
0

>  <halogenbond:TYR:150>  (292) 
0

>  <hbond:ASP:83>  (292) 
0

>  <hydroph_interaction:VAL:155>  (292) 
0

>  <pication:TYR:161>  (292) 
0

>  <hbond:PRO:131>  (292) 
0

>  <hbond:LEU:128>  (292) 
0

>  <saltbridge:ASP:129>  (292) 
0

>  <hbond:THR:134>  (292) 
0

>  <pication:HIS:51>  (292) 
0

>  <hbond:SER:81>  (292) 
0

>  <hbond:GLY:159>  (292) 
0

>  <hydroph_interaction:PRO:101>  (292) 
0

>  <hydroph_interaction:THR:134>  (292) 
0

>  <hbond:GLY:82>  (292) 
0

>  <hydroph_interaction:GLU:104>  (292) 
0

>  <hydroph_interaction:VAL:36>  (292) 
0

>  <hydroph_interaction:MET:49>  (292) 
0

>  <halogenbond:GLU:104>  (292) 
0

>  <hydroph_interaction:LYS:107>  (292) 
0

$$$$
PV-006953689538
     RDKit          3D

 47 50  0  0  0  0  0  0  0  0999 V2000
   -7.3590    4.4030  -20.7390 O   0  0  0  0  0  0  0  0  0  0  0  0
   -6.5130    5.0210  -20.0960 C   0  0  0  0  0  0  0  0  0  0  0  0
   -6.6420    5.5030  -18.8190 N   0  0  0  0  0  0  0  0  0  0  0  0
   -7.7280    5.3870  -17.9430 C   0  0  0  0  0  0  0  0  0  0  0  0
   -7.5110    5.8870  -16.6520 C   0  0  0  0  0  0  0  0  0  0  0  0
   -8.5160    5.8500  -15.6750 C   0  0  0  0  0  0  0  0  0  0  0  0
   -8.3090    6.4040  -14.3600 C   0  0  0  0  0  0  0  0  0  0  0  0
   -7.8970    5.5370  -13.2640 N   0  0  0  0  0  0  0  0  0  0  0  0
   -8.8010    4.9320  -12.4020 C   0  0  0  0  0  0  0  0  0  0  0  0
   -9.6010    4.1180  -12.8320 O   0  0  0  0  0  0  0  0  0  0  0  0
   -8.8030    5.2350  -10.9170 C   0  0  0  0  0  0  0  0  0  0  0  0
   -8.9430    4.3070   -9.9070 C   0  0  0  0  0  0  0  0  0  0  0  0
   -9.0960    2.9950   -9.9740 O   0  0  0  0  0  0  0  0  0  0  0  0
   -9.5210    2.2640   -8.8060 C   0  0  0  0  0  0  0  0  0  0  0  0
   -9.5190    2.8980   -7.6150 C   0  0  0  0  0  0  0  0  0  0  0  0
   -9.0160    4.3280   -7.4560 C   0  0  0  0  0  0  0  0  0  0  0  0
   -8.8990    4.9820   -8.7340 N   0  0  0  0  0  0  0  0  0  0  0  0
   -8.7370    6.3070   -8.8630 N   0  0  0  0  0  0  0  0  0  0  0  0
   -8.6800    6.4650  -10.2030 C   0  0  0  0  0  0  0  0  0  0  0  0
   -9.7320    5.2820  -16.0400 C   0  0  0  0  0  0  0  0  0  0  0  0
   -9.9530    4.7840  -17.3360 C   0  0  0  0  0  0  0  0  0  0  0  0
   -8.9520    4.8330  -18.2950 C   0  0  0  0  0  0  0  0  0  0  0  0
   -5.1880    5.2870  -20.7150 C   0  0  0  0  0  0  0  0  0  0  0  0
   -5.0910    5.5350  -22.1970 C   0  0  0  0  0  0  0  0  0  0  0  0
   -3.8300    5.7670  -22.7180 C   0  0  0  0  0  0  0  0  0  0  0  0
   -2.7030    5.7850  -21.9680 N   0  0  0  0  0  0  0  0  0  0  0  0
   -2.8200    5.5630  -20.6340 C   0  0  0  0  0  0  0  0  0  0  0  0
   -4.0100    5.3200  -19.9800 C   0  0  0  0  0  0  0  0  0  0  0  0
   -3.9970    5.1150  -18.6540 F   0  0  0  0  0  0  0  0  0  0  0  0
   -5.9130    6.1270  -18.4930 H   0  0  0  0  0  0  0  0  0  0  0  0
   -6.5500    6.3250  -16.3900 H   0  0  0  0  0  0  0  0  0  0  0  0
   -9.2290    6.9260  -14.0690 H   0  0  0  0  0  0  0  0  0  0  0  0
   -7.5410    7.1800  -14.4260 H   0  0  0  0  0  0  0  0  0  0  0  0
   -6.9580    5.1550  -13.2880 H   0  0  0  0  0  0  0  0  0  0  0  0
  -10.4380    1.8420   -9.1310 H   0  0  0  0  0  0  0  0  0  0  0  0
   -8.8400    1.4150   -8.7290 H   0  0  0  0  0  0  0  0  0  0  0  0
   -8.9620    2.2760   -6.9080 H   0  0  0  0  0  0  0  0  0  0  0  0
  -10.5570    2.8880   -7.2590 H   0  0  0  0  0  0  0  0  0  0  0  0
   -9.6960    4.9120   -6.8290 H   0  0  0  0  0  0  0  0  0  0  0  0
   -8.0160    4.3370   -7.0060 H   0  0  0  0  0  0  0  0  0  0  0  0
   -8.5530    7.4590  -10.6140 H   0  0  0  0  0  0  0  0  0  0  0  0
  -10.5240    5.2330  -15.3040 H   0  0  0  0  0  0  0  0  0  0  0  0
  -10.9100    4.3620  -17.5990 H   0  0  0  0  0  0  0  0  0  0  0  0
   -9.1570    4.4400  -19.2860 H   0  0  0  0  0  0  0  0  0  0  0  0
   -5.9690    5.5290  -22.8370 H   0  0  0  0  0  0  0  0  0  0  0  0
   -3.6880    5.9500  -23.7800 H   0  0  0  0  0  0  0  0  0  0  0  0
   -1.8870    5.5880  -20.0780 H   0  0  0  0  0  0  0  0  0  0  0  0
  1  2  2  0
  2  3  1  0
  3  4  1  0
  4  5  2  0
  5  6  1  0
  6  7  1  0
  7  8  1  0
  8  9  1  0
  9 10  2  0
  9 11  1  0
 11 12  2  0
 12 13  1  0
 13 14  1  0
 14 15  1  0
 15 16  1  0
 16 17  1  0
 17 18  1  0
 18 19  2  0
  6 20  2  0
 20 21  1  0
 21 22  2  0
  2 23  1  0
 23 24  2  0
 24 25  1  0
 25 26  2  0
 26 27  1  0
 27 28  2  0
 28 29  1  0
 22  4  1  0
 19 11  1  0
 17 12  1  0
 28 23  1  0
  3 30  1  0
  5 31  1  0
  7 32  1  0
  7 33  1  0
  8 34  1  0
 14 35  1  0
 14 36  1  0
 15 37  1  0
 15 38  1  0
 16 39  1  0
 16 40  1  0
 19 41  1  0
 20 42  1  0
 21 43  1  0
 22 44  1  0
 24 45  1  0
 25 46  1  0
 27 47  1  0
A    1
 O1 
A    2
 C1 
A    3
 N1 
A    4
 C2 
A    5
 C3 
A    6
 C4 
A    7
 C5 
A    8
 N2 
A    9
 C6 
A   10
 O2 
A   11
 C7 
A   12
 C8 
A   13
 O3 
A   14
 C9 
A   15
 C10
A   16
 C11
A   17
 N3 
A   18
 N4 
A   19
 C12
A   20
 C13
A   21
 C14
A   22
 C15
A   23
 C16
A   24
 C17
A   25
 C18
A   26
 N5 
A   27
 C19
A   28
 C20
A   29
 F1 
A   30
 H1 
A   31
 H2 
A   32
 H3 
A   33
 H4 
A   34
 H5 
A   35
 H6 
A   36
 H7 
A   37
 H8 
A   38
 H9 
A   39
 H10
A   40
 H11
A   41
 H12
A   42
 H13
A   43
 H14
A   44
 H15
A   45
 H16
A   46
 H17
A   47
 H18
M  END
>  <ref_pdb>  (293) 
x0051_0B

>  <ref_mols>  (293) 
x0852_0B,x0969_1B

>  <original SMILES>  (293) 
[H]c1nc([H])c(F)c(C(=O)N([H])c2c([H])c([H])c([H])c(C([H])([H])N([H])C(=O)c3c([H])nn4c3OC([H])([H])C([H])([H])C4([H])[H])c2[H])c1[H]

>  <index>  (293) 
585

>  <∆∆G>  (293) 
-5.52656

>  <∆G_bound>  (293) 
-3.968529

>  <∆G_unbound>  (293) 
1.558031

>  <comRMSD>  (293) 
0.544373

>  <N_constrained_atoms>  (293) 
28.0

>  <N_unconstrained_atoms>  (293) 
3.0

>  <runtime>  (293) 
65.387179

>  <LE>  (293) 
0.178276

>  <percent_hybrid>  (293) 
36.0

>  <dist>  (293) 
8.0

>  <ecfp4>  (293) 
0.393939

>  <daylight>  (293) 
0.422414

>  <topodist>  (293) 
3.0

>  <mces>  (293) 
31.0

>  <tdn>  (293) 
2.0

>  <tup>  (293) 
1.0

>  <rdn>  (293) 
0.0

>  <rup>  (293) 
0.0

>  <ldn>  (293) 
0.0

>  <lup>  (293) 
0.0

>  <mut>  (293) 
4.0

>  <maj>  (293) 
4.0

>  <min>  (293) 
0.0

>  <hyb>  (293) 
1.0

>  <sub>  (293) 
2.0

>  <query_index>  (293) 
46.0

>  <max_hit_Tanimoto>  (293) 
0.4277

>  <largest_ring>  (293) 
6

>  <N_interactions_kept>  (293) 
4.0

>  <N_interactions_lost>  (293) 
2.0

>  <interaction_uniqueness_metric>  (293) 
0.166993

>  <ad_hoc_penalty>  (293) 
-21.426094

>  <N_rotatable_bonds>  (293) 
5

>  <N_HA>  (293) 
29

>  <cluster>  (293) 
5683

>  <N_interactions>  (293) 
7

>  <Enamine>  (293) 
1

>  <Mcule>  (293) 
0

>  <N_PAINS>  (293) 
0

>  <UFF_Gibbs>  (293) 
87.613328

>  <strain_per_HA>  (293) 
3.021149

>  <saltbridge:HIS:51>  (293) 
0

>  <pistack:HIS:51>  (293) 
1

>  <hydroph_interaction:HIS:51>  (293) 
0

>  <hbond:ALA:132>  (293) 
0

>  <hbond:SER:135>  (293) 
0

>  <hydroph_interaction:TYR:150>  (293) 
0

>  <pistack:TYR:161>  (293) 
0

>  <hydroph_interaction:TYR:161>  (293) 
2

>  <hydroph_interaction:ASP:83>  (293) 
0

>  <hbond:TYR:130>  (293) 
1

>  <hydroph_interaction:ALA:132>  (293) 
1

>  <hbond:HIS:51>  (293) 
0

>  <hbond:ASP:129>  (293) 
0

>  <hbond:TYR:150>  (293) 
0

>  <hbond:GLY:151>  (293) 
0

>  <hbond:TYR:161>  (293) 
1

>  <hydroph_interaction:TYR:130>  (293) 
0

>  <hydroph_interaction:PRO:131>  (293) 
0

>  <hydroph_interaction:ASP:129>  (293) 
1

>  <saltbridge:ASP:75>  (293) 
0

>  <saltbridge:ASP:83>  (293) 
0

>  <hydroph_interaction:ASN:152>  (293) 
0

>  <halogenbond:TYR:150>  (293) 
0

>  <hbond:ASP:83>  (293) 
0

>  <hydroph_interaction:VAL:155>  (293) 
0

>  <pication:TYR:161>  (293) 
0

>  <hbond:PRO:131>  (293) 
0

>  <hbond:LEU:128>  (293) 
0

>  <saltbridge:ASP:129>  (293) 
0

>  <hbond:THR:134>  (293) 
0

>  <pication:HIS:51>  (293) 
0

>  <hbond:SER:81>  (293) 
0

>  <hbond:GLY:159>  (293) 
0

>  <hydroph_interaction:PRO:101>  (293) 
0

>  <hydroph_interaction:THR:134>  (293) 
0

>  <hbond:GLY:82>  (293) 
0

>  <hydroph_interaction:GLU:104>  (293) 
0

>  <hydroph_interaction:VAL:36>  (293) 
0

>  <hydroph_interaction:MET:49>  (293) 
0

>  <halogenbond:GLU:104>  (293) 
0

>  <hydroph_interaction:LYS:107>  (293) 
0

$$$$
MCULE-7998470722
     RDKit          3D

 46 50  0  0  0  0  0  0  0  0999 V2000
   -5.8110    6.0640  -19.2040 N   0  0  0  0  0  0  0  0  0  0  0  0
   -4.7510    6.6730  -20.0360 C   0  0  0  0  0  0  0  0  0  0  0  0
   -5.1020    7.5050  -21.1960 C   0  0  0  0  0  0  0  0  0  0  0  0
   -5.7610    7.0690  -22.3930 C   0  0  0  0  0  0  0  0  0  0  0  0
   -6.0210    7.9640  -23.4510 C   0  0  0  0  0  0  0  0  0  0  0  0
   -5.6340    9.3070  -23.3520 C   0  0  0  0  0  0  0  0  0  0  0  0
   -5.0010    9.7510  -22.1950 C   0  0  0  0  0  0  0  0  0  0  0  0
   -4.7400    8.8680  -21.1400 C   0  0  0  0  0  0  0  0  0  0  0  0
   -5.9010   10.5080  -24.6460 S   0  0  0  0  0  6  0  0  0  0  0  0
   -4.7000   11.3230  -24.6610 O   0  0  0  0  0  0  0  0  0  0  0  0
   -7.1690   11.1670  -24.4620 O   0  0  0  0  0  0  0  0  0  0  0  0
   -5.8350    9.6690  -26.1110 N   0  0  0  0  0  0  0  0  0  0  0  0
   -7.1050    9.3600  -26.7200 C   0  0  0  0  0  0  0  0  0  0  0  0
   -8.2470   10.5680  -27.0630 S   0  0  0  0  0  0  0  0  0  0  0  0
   -9.3330    9.3620  -27.6370 C   0  0  0  0  0  0  0  0  0  0  0  0
   -8.7090    8.1140  -27.5510 C   0  0  0  0  0  0  0  0  0  0  0  0
   -9.4130    6.9680  -27.9790 C   0  0  0  0  0  0  0  0  0  0  0  0
  -10.7140    7.0920  -28.4640 C   0  0  0  0  0  0  0  0  0  0  0  0
  -11.3220    8.3530  -28.5300 C   0  0  0  0  0  0  0  0  0  0  0  0
  -10.6390    9.5030  -28.1220 C   0  0  0  0  0  0  0  0  0  0  0  0
   -7.4280    8.1340  -27.0270 N   0  0  0  0  0  0  0  0  0  0  0  0
   -5.8100    5.7760  -17.8270 C   0  0  0  0  0  0  0  0  0  0  0  0
   -4.9250    5.7820  -16.9820 O   0  0  0  0  0  0  0  0  0  0  0  0
   -7.2110    5.4270  -17.5430 C   0  0  0  0  0  0  0  0  0  0  0  0
   -7.7700    5.0960  -18.7620 C   0  0  0  0  0  0  0  0  0  0  0  0
   -9.0880    4.7270  -18.9210 C   0  0  0  0  0  0  0  0  0  0  0  0
   -9.8740    4.6920  -17.7740 C   0  0  0  0  0  0  0  0  0  0  0  0
   -9.2860    5.0330  -16.4580 C   0  0  0  0  0  0  0  0  0  0  0  0
   -7.9390    5.4000  -16.3630 C   0  0  0  0  0  0  0  0  0  0  0  0
   -6.7080    5.2250  -19.7440 C   0  0  0  0  0  0  0  0  0  0  0  0
   -6.6870    4.6590  -20.8030 O   0  0  0  0  0  0  0  0  0  0  0  0
   -4.1170    7.2710  -19.3730 H   0  0  0  0  0  0  0  0  0  0  0  0
   -4.1170    5.8540  -20.3950 H   0  0  0  0  0  0  0  0  0  0  0  0
   -6.0700    6.0270  -22.5010 H   0  0  0  0  0  0  0  0  0  0  0  0
   -6.5210    7.5990  -24.3450 H   0  0  0  0  0  0  0  0  0  0  0  0
   -4.6970   10.7910  -22.1010 H   0  0  0  0  0  0  0  0  0  0  0  0
   -4.2380    9.2530  -20.2540 H   0  0  0  0  0  0  0  0  0  0  0  0
   -5.1080   10.0250  -26.7220 H   0  0  0  0  0  0  0  0  0  0  0  0
   -8.9310    5.9830  -27.9210 H   0  0  0  0  0  0  0  0  0  0  0  0
  -11.2550    6.2060  -28.7890 H   0  0  0  0  0  0  0  0  0  0  0  0
  -12.3410    8.4440  -28.9070 H   0  0  0  0  0  0  0  0  0  0  0  0
  -11.1150   10.4780  -28.1790 H   0  0  0  0  0  0  0  0  0  0  0  0
   -9.4880    4.4790  -19.8950 H   0  0  0  0  0  0  0  0  0  0  0  0
  -10.9220    4.4150  -17.8440 H   0  0  0  0  0  0  0  0  0  0  0  0
   -9.9060    5.0000  -15.5600 H   0  0  0  0  0  0  0  0  0  0  0  0
   -7.4870    5.6570  -15.4130 H   0  0  0  0  0  0  0  0  0  0  0  0
  1  2  1  0
  2  3  1  0
  3  4  2  0
  4  5  1  0
  5  6  2  0
  6  7  1  0
  7  8  2  0
  6  9  1  0
  9 10  2  0
  9 11  2  0
  9 12  1  0
 12 13  1  0
 13 14  1  0
 14 15  1  0
 15 16  2  0
 16 17  1  0
 17 18  2  0
 18 19  1  0
 19 20  2  0
 16 21  1  0
  1 22  1  0
 22 23  2  0
 22 24  1  0
 24 25  2  0
 25 26  1  0
 26 27  2  0
 27 28  1  0
 28 29  2  0
 25 30  1  0
 30 31  2  0
 30  1  1  0
  8  3  1  0
 13 21  2  0
 15 20  1  0
 24 29  1  0
  2 32  1  0
  2 33  1  0
  4 34  1  0
  5 35  1  0
  7 36  1  0
  8 37  1  0
 12 38  1  0
 17 39  1  0
 18 40  1  0
 19 41  1  0
 20 42  1  0
 26 43  1  0
 27 44  1  0
 28 45  1  0
 29 46  1  0
A    1
 N1 
A    2
 C1 
A    3
 C2 
A    4
 C3 
A    5
 C4 
A    6
 C5 
A    7
 C6 
A    8
 C7 
A    9
 S1 
A   10
 O1 
A   11
 O2 
A   12
 N2 
A   13
 C8 
A   14
 S2 
A   15
 C9 
A   16
 C10
A   17
 C11
A   18
 C12
A   19
 C13
A   20
 C14
A   21
 N3 
A   22
 C15
A   23
 O3 
A   24
 C16
A   25
 C17
A   26
 C18
A   27
 C19
A   28
 C20
A   29
 C21
A   30
 C22
A   31
 O4 
A   32
 H1 
A   33
 H2 
A   34
 H3 
A   35
 H4 
A   36
 H5 
A   37
 H6 
A   38
 H7 
A   39
 H8 
A   40
 H9 
A   41
 H10
A   42
 H11
A   43
 H12
A   44
 H13
A   45
 H14
A   46
 H15
M  END
>  <ref_pdb>  (294) 
x0051_0B

>  <ref_mols>  (294) 
x0727_0B,x0846_1B

>  <original SMILES>  (294) 
[H]c1c([H])c([H])c2c(c1[H])C(=O)N(C([H])([H])c1c([H])c([H])c(S(=O)(=O)N([H])c3nc4c([H])c([H])c([H])c([H])c4s3)c([H])c1[H])C2=O

>  <index>  (294) 
597

>  <∆∆G>  (294) 
-10.480295

>  <∆G_bound>  (294) 
-9.34476

>  <∆G_unbound>  (294) 
1.135535

>  <comRMSD>  (294) 
0.871013

>  <N_constrained_atoms>  (294) 
29.0

>  <N_unconstrained_atoms>  (294) 
3.0

>  <runtime>  (294) 
54.55994

>  <LE>  (294) 
0.327509

>  <percent_hybrid>  (294) 
38.0

>  <dist>  (294) 
11.0

>  <ecfp4>  (294) 
0.148936

>  <daylight>  (294) 
0.187919

>  <topodist>  (294) 
7.0

>  <mces>  (294) 
32.0

>  <tdn>  (294) 
2.0

>  <tup>  (294) 
3.0

>  <rdn>  (294) 
0.0

>  <rup>  (294) 
0.0

>  <ldn>  (294) 
2.0

>  <lup>  (294) 
0.0

>  <mut>  (294) 
4.0

>  <maj>  (294) 
4.0

>  <min>  (294) 
0.0

>  <hyb>  (294) 
0.0

>  <sub>  (294) 
2.0

>  <query_index>  (294) 
15.0

>  <max_hit_Tanimoto>  (294) 
0.229417

>  <largest_ring>  (294) 
6

>  <N_interactions_kept>  (294) 
0.5

>  <N_interactions_lost>  (294) 
2.5

>  <interaction_uniqueness_metric>  (294) 
0.1581

>  <ad_hoc_penalty>  (294) 
-21.330674

>  <N_rotatable_bonds>  (294) 
5

>  <N_HA>  (294) 
31

>  <cluster>  (294) 
5672

>  <N_interactions>  (294) 
5

>  <Enamine>  (294) 
0

>  <Mcule>  (294) 
1

>  <N_PAINS>  (294) 
0

>  <UFF_Gibbs>  (294) 
86.850691

>  <strain_per_HA>  (294) 
2.801635

>  <saltbridge:HIS:51>  (294) 
0

>  <pistack:HIS:51>  (294) 
0

>  <hydroph_interaction:HIS:51>  (294) 
0

>  <hbond:ALA:132>  (294) 
0

>  <hbond:SER:135>  (294) 
0

>  <hydroph_interaction:TYR:150>  (294) 
1

>  <pistack:TYR:161>  (294) 
1

>  <hydroph_interaction:TYR:161>  (294) 
0

>  <hydroph_interaction:ASP:83>  (294) 
0

>  <hbond:TYR:130>  (294) 
1

>  <hydroph_interaction:ALA:132>  (294) 
0

>  <hbond:HIS:51>  (294) 
0

>  <hbond:ASP:129>  (294) 
0

>  <hbond:TYR:150>  (294) 
0

>  <hbond:GLY:151>  (294) 
0

>  <hbond:TYR:161>  (294) 
0

>  <hydroph_interaction:TYR:130>  (294) 
1

>  <hydroph_interaction:PRO:131>  (294) 
1

>  <hydroph_interaction:ASP:129>  (294) 
0

>  <saltbridge:ASP:75>  (294) 
0

>  <saltbridge:ASP:83>  (294) 
0

>  <hydroph_interaction:ASN:152>  (294) 
0

>  <halogenbond:TYR:150>  (294) 
0

>  <hbond:ASP:83>  (294) 
0

>  <hydroph_interaction:VAL:155>  (294) 
0

>  <pication:TYR:161>  (294) 
0

>  <hbond:PRO:131>  (294) 
0

>  <hbond:LEU:128>  (294) 
0

>  <saltbridge:ASP:129>  (294) 
0

>  <hbond:THR:134>  (294) 
0

>  <pication:HIS:51>  (294) 
0

>  <hbond:SER:81>  (294) 
0

>  <hbond:GLY:159>  (294) 
0

>  <hydroph_interaction:PRO:101>  (294) 
0

>  <hydroph_interaction:THR:134>  (294) 
0

>  <hbond:GLY:82>  (294) 
0

>  <hydroph_interaction:GLU:104>  (294) 
0

>  <hydroph_interaction:VAL:36>  (294) 
0

>  <hydroph_interaction:MET:49>  (294) 
0

>  <halogenbond:GLU:104>  (294) 
0

>  <hydroph_interaction:LYS:107>  (294) 
0

$$$$
MCULE-2587865064
     RDKit          3D

 29 31  0  0  0  0  0  0  0  0999 V2000
   -7.2910    5.5920  -17.6240 C   0  0  0  0  0  0  0  0  0  0  0  0
   -8.0990    5.4880  -16.3560 C   0  0  0  0  0  0  0  0  0  0  0  0
   -9.5030    5.0390  -16.6130 C   0  0  0  0  0  0  0  0  0  0  0  0
  -10.1900    4.9660  -15.4170 O   0  0  0  0  0  0  0  0  0  0  0  0
  -10.0110    4.7450  -17.8770 C   0  0  0  0  0  0  0  0  0  0  0  0
   -9.1860    4.8630  -19.0010 C   0  0  0  0  0  0  0  0  0  0  0  0
   -7.8620    5.2780  -18.8690 C   0  0  0  0  0  0  0  0  0  0  0  0
   -7.0580    5.4020  -19.9320 N   0  0  0  0  0  0  0  0  0  0  0  0
   -5.9960    6.2880  -19.3750 C   0  0  0  0  0  0  0  0  0  0  0  0
   -5.8760    6.0040  -17.8470 C   0  0  0  0  0  0  0  0  0  0  0  0
   -4.8100    5.0520  -17.3600 C   0  0  0  0  0  0  0  0  0  0  0  0
   -3.8800    5.6750  -16.4080 C   0  0  0  0  0  0  0  0  0  0  0  0
   -4.7050    6.8540  -15.9130 C   0  0  0  0  0  0  0  0  0  0  0  0
   -5.5500    7.2490  -16.9820 C   0  0  0  0  0  0  0  0  0  0  0  0
   -7.7280    5.7110  -15.3650 H   0  0  0  0  0  0  0  0  0  0  0  0
  -10.1490    4.0380  -15.1390 H   0  0  0  0  0  0  0  0  0  0  0  0
  -11.0380    4.4250  -18.0150 H   0  0  0  0  0  0  0  0  0  0  0  0
   -9.5740    4.6360  -19.9860 H   0  0  0  0  0  0  0  0  0  0  0  0
   -7.6020    5.8700  -20.6690 H   0  0  0  0  0  0  0  0  0  0  0  0
   -5.0950    6.1760  -19.9850 H   0  0  0  0  0  0  0  0  0  0  0  0
   -6.3560    7.3090  -19.5190 H   0  0  0  0  0  0  0  0  0  0  0  0
   -4.2200    4.6900  -18.2110 H   0  0  0  0  0  0  0  0  0  0  0  0
   -5.2500    4.1800  -16.8930 H   0  0  0  0  0  0  0  0  0  0  0  0
   -2.9570    5.9940  -16.9070 H   0  0  0  0  0  0  0  0  0  0  0  0
   -3.6120    4.9980  -15.5910 H   0  0  0  0  0  0  0  0  0  0  0  0
   -4.0380    7.6780  -15.6350 H   0  0  0  0  0  0  0  0  0  0  0  0
   -5.2820    6.5960  -15.0200 H   0  0  0  0  0  0  0  0  0  0  0  0
   -6.4680    7.6330  -16.5290 H   0  0  0  0  0  0  0  0  0  0  0  0
   -5.1030    8.0690  -17.5540 H   0  0  0  0  0  0  0  0  0  0  0  0
  1  2  2  0
  2  3  1  0
  3  4  1  0
  3  5  2  0
  5  6  1  0
  6  7  2  0
  7  8  1  0
  8  9  1  0
  9 10  1  0
 10 11  1  0
 11 12  1  0
 12 13  1  0
 13 14  1  0
  1  7  1  0
 10  1  1  0
 14 10  1  0
  2 15  1  0
  4 16  1  0
  5 17  1  0
  6 18  1  0
  8 19  1  0
  9 20  1  0
  9 21  1  0
 11 22  1  0
 11 23  1  0
 12 24  1  0
 12 25  1  0
 13 26  1  0
 13 27  1  0
 14 28  1  0
 14 29  1  0
A    1
 C1 
A    2
 C2 
A    3
 C3 
A    4
 O1 
A    5
 C4 
A    6
 C5 
A    7
 C6 
A    8
 N1 
A    9
 C7 
A   10
 C8 
A   11
 C9 
A   12
 C10
A   13
 C11
A   14
 C12
A   15
 H1 
A   16
 H2 
A   17
 H3 
A   18
 H4 
A   19
 H5 
A   20
 H6 
A   21
 H7 
A   22
 H8 
A   23
 H9 
A   24
 H10
A   25
 H11
A   26
 H12
A   27
 H13
A   28
 H14
A   29
 H15
M  END
>  <ref_pdb>  (295) 
x0051_0B

>  <ref_mols>  (295) 
x0490_0B,x0227_0B

>  <original SMILES>  (295) 
[H]Oc1c([H])c([H])c2c(c1[H])C1(C([H])([H])N2[H])C([H])([H])C([H])([H])C([H])([H])C1([H])[H]

>  <index>  (295) 
414

>  <∆∆G>  (295) 
-6.418719

>  <∆G_bound>  (295) 
-6.243496

>  <∆G_unbound>  (295) 
0.175223

>  <comRMSD>  (295) 
0.631804

>  <N_constrained_atoms>  (295) 
15.0

>  <N_unconstrained_atoms>  (295) 
1.0

>  <runtime>  (295) 
19.409048

>  <LE>  (295) 
0.40117

>  <percent_hybrid>  (295) 
34.0

>  <dist>  (295) 
2.0

>  <ecfp4>  (295) 
0.326087

>  <daylight>  (295) 
0.81

>  <topodist>  (295) 
2.0

>  <mces>  (295) 
15.0

>  <tdn>  (295) 
1.0

>  <tup>  (295) 
1.0

>  <rdn>  (295) 
0.0

>  <rup>  (295) 
0.0

>  <ldn>  (295) 
0.0

>  <lup>  (295) 
0.0

>  <mut>  (295) 
0.0

>  <maj>  (295) 
0.0

>  <min>  (295) 
0.0

>  <hyb>  (295) 
0.0

>  <sub>  (295) 
2.0

>  <query_index>  (295) 
171.0

>  <max_hit_Tanimoto>  (295) 
0.31901

>  <largest_ring>  (295) 
0

>  <N_interactions_kept>  (295) 
2.0

>  <N_interactions_lost>  (295) 
3.0

>  <interaction_uniqueness_metric>  (295) 
0.126015

>  <ad_hoc_penalty>  (295) 
-21.303528

>  <N_rotatable_bonds>  (295) 
1

>  <N_HA>  (295) 
14

>  <cluster>  (295) 
5841

>  <N_interactions>  (295) 
7

>  <Enamine>  (295) 
0

>  <Mcule>  (295) 
1

>  <N_PAINS>  (295) 
0

>  <UFF_Gibbs>  (295) 
74.087254

>  <strain_per_HA>  (295) 
5.291947

>  <saltbridge:HIS:51>  (295) 
0

>  <pistack:HIS:51>  (295) 
0

>  <hydroph_interaction:HIS:51>  (295) 
0

>  <hbond:ALA:132>  (295) 
0

>  <hbond:SER:135>  (295) 
1

>  <hydroph_interaction:TYR:150>  (295) 
1

>  <pistack:TYR:161>  (295) 
0

>  <hydroph_interaction:TYR:161>  (295) 
3

>  <hydroph_interaction:ASP:83>  (295) 
0

>  <hbond:TYR:130>  (295) 
1

>  <hydroph_interaction:ALA:132>  (295) 
1

>  <hbond:HIS:51>  (295) 
0

>  <hbond:ASP:129>  (295) 
0

>  <hbond:TYR:150>  (295) 
0

>  <hbond:GLY:151>  (295) 
0

>  <hbond:TYR:161>  (295) 
0

>  <hydroph_interaction:TYR:130>  (295) 
0

>  <hydroph_interaction:PRO:131>  (295) 
0

>  <hydroph_interaction:ASP:129>  (295) 
0

>  <saltbridge:ASP:75>  (295) 
0

>  <saltbridge:ASP:83>  (295) 
0

>  <hydroph_interaction:ASN:152>  (295) 
0

>  <halogenbond:TYR:150>  (295) 
0

>  <hbond:ASP:83>  (295) 
0

>  <hydroph_interaction:VAL:155>  (295) 
0

>  <pication:TYR:161>  (295) 
0

>  <hbond:PRO:131>  (295) 
0

>  <hbond:LEU:128>  (295) 
0

>  <saltbridge:ASP:129>  (295) 
0

>  <hbond:THR:134>  (295) 
0

>  <pication:HIS:51>  (295) 
0

>  <hbond:SER:81>  (295) 
0

>  <hbond:GLY:159>  (295) 
0

>  <hydroph_interaction:PRO:101>  (295) 
0

>  <hydroph_interaction:THR:134>  (295) 
0

>  <hbond:GLY:82>  (295) 
0

>  <hydroph_interaction:GLU:104>  (295) 
0

>  <hydroph_interaction:VAL:36>  (295) 
0

>  <hydroph_interaction:MET:49>  (295) 
0

>  <halogenbond:GLU:104>  (295) 
0

>  <hydroph_interaction:LYS:107>  (295) 
0

$$$$
MCULE-5325814666
     RDKit          3D

 27 28  0  0  0  0  0  0  0  0999 V2000
   -5.8360    5.8310  -19.3490 N   0  0  0  0  0  0  0  0  0  0  0  0
   -6.9510    5.4540  -20.0760 N   0  0  0  0  0  0  0  0  0  0  0  0
   -7.9670    5.2590  -19.1850 C   0  0  0  0  0  0  0  0  0  0  0  0
   -7.4970    5.5000  -17.9060 C   0  0  0  0  0  0  0  0  0  0  0  0
   -8.2840    5.3790  -16.7710 C   0  0  0  0  0  0  0  0  0  0  0  0
   -9.6090    5.0140  -16.8330 C   0  0  0  0  0  0  0  0  0  0  0  0
  -10.2720    4.7260  -18.1770 C   0  0  0  0  0  0  0  0  0  0  0  0
   -9.3550    4.8680  -19.3990 C   0  0  0  0  0  0  0  0  0  0  0  0
   -6.1950    5.8540  -18.0510 N   0  0  0  0  0  0  0  0  0  0  0  0
   -5.2630    6.2280  -16.9980 C   0  0  0  0  0  0  0  0  0  0  0  0
   -3.9630    5.7630  -17.1560 C   0  0  0  0  0  0  0  0  0  0  0  0
   -3.5450    5.1540  -18.3490 C   0  0  0  0  0  0  0  0  0  0  0  0
   -3.6140    4.9380  -15.9310 C   0  0  0  0  0  0  0  0  0  0  0  0
   -2.3530    4.5240  -15.7580 N   0  0  0  0  0  0  0  0  0  0  0  0
   -4.7430    4.5460  -14.7690 S   0  0  0  0  0  0  0  0  0  0  0  0
   -7.8450    5.5820  -15.7850 H   0  0  0  0  0  0  0  0  0  0  0  0
  -10.1850    4.9330  -15.9150 H   0  0  0  0  0  0  0  0  0  0  0  0
  -11.3150    4.4410  -18.2650 H   0  0  0  0  0  0  0  0  0  0  0  0
   -9.7910    4.6700  -20.3770 H   0  0  0  0  0  0  0  0  0  0  0  0
   -5.3800    7.3070  -16.9420 H   0  0  0  0  0  0  0  0  0  0  0  0
   -5.7590    5.8840  -16.0940 H   0  0  0  0  0  0  0  0  0  0  0  0
   -3.3450    6.6710  -17.1060 H   0  0  0  0  0  0  0  0  0  0  0  0
   -3.1690    5.8630  -19.0890 H   0  0  0  0  0  0  0  0  0  0  0  0
   -4.3830    4.6330  -18.8050 H   0  0  0  0  0  0  0  0  0  0  0  0
   -2.7550    4.4250  -18.1450 H   0  0  0  0  0  0  0  0  0  0  0  0
   -1.6230    4.9000  -16.3550 H   0  0  0  0  0  0  0  0  0  0  0  0
   -2.0470    3.9700  -14.9620 H   0  0  0  0  0  0  0  0  0  0  0  0
  1  2  2  0
  2  3  1  0
  3  4  2  0
  4  5  1  0
  5  6  2  0
  6  7  1  0
  7  8  2  0
  4  9  1  0
  9 10  1  0
 10 11  1  0
 11 12  1  0
 11 13  1  0
 13 14  1  0
 13 15  2  0
  9  1  1  0
  3  8  1  0
  5 16  1  0
  6 17  1  0
  7 18  1  0
  8 19  1  0
 10 20  1  0
 10 21  1  0
 11 22  1  0
 12 23  1  0
 12 24  1  0
 12 25  1  0
 14 26  1  0
 14 27  1  0
A    1
 N1 
A    2
 N2 
A    3
 C1 
A    4
 C2 
A    5
 C3 
A    6
 C4 
A    7
 C5 
A    8
 C6 
A    9
 N3 
A   10
 C7 
A   11
 C8 
A   12
 C9 
A   13
 C10
A   14
 N4 
A   15
 S1 
A   16
 H1 
A   17
 H2 
A   18
 H3 
A   19
 H4 
A   20
 H5 
A   21
 H6 
A   22
 H7 
A   23
 H8 
A   24
 H9 
A   25
 H10
A   26
 H11
A   27
 H12
M  END
>  <ref_pdb>  (296) 
x0051_0B

>  <ref_mols>  (296) 
x0490_0B,x0472_0B

>  <original SMILES>  (296) 
[H]c1c([H])c([H])c2c(nnn2C([H])([H])C([H])(C(=S)N([H])[H])C([H])([H])[H])c1[H]

>  <index>  (296) 
210

>  <∆∆G>  (296) 
-7.633509

>  <∆G_bound>  (296) 
-6.562515

>  <∆G_unbound>  (296) 
1.070994

>  <comRMSD>  (296) 
0.732755

>  <N_constrained_atoms>  (296) 
16.0

>  <N_unconstrained_atoms>  (296) 
1.0

>  <runtime>  (296) 
22.824455

>  <LE>  (296) 
0.44903

>  <percent_hybrid>  (296) 
38.0

>  <dist>  (296) 
3.0

>  <ecfp4>  (296) 
0.314815

>  <daylight>  (296) 
0.352941

>  <topodist>  (296) 
1.0

>  <mces>  (296) 
15.0

>  <tdn>  (296) 
0.0

>  <tup>  (296) 
1.0

>  <rdn>  (296) 
0.0

>  <rup>  (296) 
0.0

>  <ldn>  (296) 
0.0

>  <lup>  (296) 
0.0

>  <mut>  (296) 
1.0

>  <maj>  (296) 
1.0

>  <min>  (296) 
0.0

>  <hyb>  (296) 
1.0

>  <sub>  (296) 
0.0

>  <query_index>  (296) 
228.0

>  <max_hit_Tanimoto>  (296) 
0.262987

>  <largest_ring>  (296) 
0

>  <N_interactions_kept>  (296) 
3.0

>  <N_interactions_lost>  (296) 
1.0

>  <interaction_uniqueness_metric>  (296) 
0.053763

>  <ad_hoc_penalty>  (296) 
-21.282458

>  <N_rotatable_bonds>  (296) 
4

>  <N_HA>  (296) 
15

>  <cluster>  (296) 
6027

>  <N_interactions>  (296) 
5

>  <Enamine>  (296) 
0

>  <Mcule>  (296) 
1

>  <N_PAINS>  (296) 
0

>  <UFF_Gibbs>  (296) 
129.844691

>  <strain_per_HA>  (296) 
8.656313

>  <saltbridge:HIS:51>  (296) 
0

>  <pistack:HIS:51>  (296) 
0

>  <hydroph_interaction:HIS:51>  (296) 
0

>  <hbond:ALA:132>  (296) 
0

>  <hbond:SER:135>  (296) 
0

>  <hydroph_interaction:TYR:150>  (296) 
1

>  <pistack:TYR:161>  (296) 
0

>  <hydroph_interaction:TYR:161>  (296) 
3

>  <hydroph_interaction:ASP:83>  (296) 
0

>  <hbond:TYR:130>  (296) 
0

>  <hydroph_interaction:ALA:132>  (296) 
1

>  <hbond:HIS:51>  (296) 
0

>  <hbond:ASP:129>  (296) 
0

>  <hbond:TYR:150>  (296) 
0

>  <hbond:GLY:151>  (296) 
0

>  <hbond:TYR:161>  (296) 
0

>  <hydroph_interaction:TYR:130>  (296) 
0

>  <hydroph_interaction:PRO:131>  (296) 
0

>  <hydroph_interaction:ASP:129>  (296) 
0

>  <saltbridge:ASP:75>  (296) 
0

>  <saltbridge:ASP:83>  (296) 
0

>  <hydroph_interaction:ASN:152>  (296) 
0

>  <halogenbond:TYR:150>  (296) 
0

>  <hbond:ASP:83>  (296) 
0

>  <hydroph_interaction:VAL:155>  (296) 
0

>  <pication:TYR:161>  (296) 
0

>  <hbond:PRO:131>  (296) 
0

>  <hbond:LEU:128>  (296) 
0

>  <saltbridge:ASP:129>  (296) 
0

>  <hbond:THR:134>  (296) 
0

>  <pication:HIS:51>  (296) 
0

>  <hbond:SER:81>  (296) 
0

>  <hbond:GLY:159>  (296) 
0

>  <hydroph_interaction:PRO:101>  (296) 
0

>  <hydroph_interaction:THR:134>  (296) 
0

>  <hbond:GLY:82>  (296) 
0

>  <hydroph_interaction:GLU:104>  (296) 
0

>  <hydroph_interaction:VAL:36>  (296) 
0

>  <hydroph_interaction:MET:49>  (296) 
0

>  <halogenbond:GLU:104>  (296) 
0

>  <hydroph_interaction:LYS:107>  (296) 
0

$$$$
CSSB00000755405
     RDKit          3D

 20 21  0  0  0  0  0  0  0  0999 V2000
  -10.4930    4.8140  -18.0880 C   0  0  0  0  0  0  0  0  0  0  0  0
   -9.7180    4.8310  -16.8050 C   0  0  0  0  0  0  0  0  0  0  0  0
   -8.2050    4.9770  -16.9000 C   0  0  0  0  0  0  0  0  0  0  0  0
   -7.7210    5.0780  -18.1860 C   0  0  0  0  0  0  0  0  0  0  0  0
   -8.4820    5.0520  -19.2970 N   0  0  0  0  0  0  0  0  0  0  0  0
   -9.8280    4.9280  -19.2480 C   0  0  0  0  0  0  0  0  0  0  0  0
   -6.3130    5.2220  -18.5400 C   0  0  0  0  0  0  0  0  0  0  0  0
   -5.3440    5.2820  -17.5560 C   0  0  0  0  0  0  0  0  0  0  0  0
   -3.8990    5.4180  -18.0040 C   0  0  0  0  0  0  0  0  0  0  0  0
   -3.6380    5.4790  -19.4790 C   0  0  0  0  0  0  0  0  0  0  0  0
   -4.6480    5.4210  -20.3970 N   0  0  0  0  0  0  0  0  0  0  0  0
   -5.9180    5.2970  -19.8960 C   0  0  0  0  0  0  0  0  0  0  0  0
  -11.5680    4.7090  -17.9970 H   0  0  0  0  0  0  0  0  0  0  0  0
  -10.2970    4.7370  -15.8830 H   0  0  0  0  0  0  0  0  0  0  0  0
   -7.5630    4.9990  -16.0290 H   0  0  0  0  0  0  0  0  0  0  0  0
  -10.3100    4.9370  -20.2030 H   0  0  0  0  0  0  0  0  0  0  0  0
   -5.6110    5.2300  -16.4920 H   0  0  0  0  0  0  0  0  0  0  0  0
   -3.0850    5.4700  -17.2660 H   0  0  0  0  0  0  0  0  0  0  0  0
   -2.5870    5.5740  -19.7820 H   0  0  0  0  0  0  0  0  0  0  0  0
   -6.6510    5.2550  -20.6970 H   0  0  0  0  0  0  0  0  0  0  0  0
  1  2  2  0
  2  3  1  0
  3  4  2  0
  4  5  1  0
  5  6  2  0
  4  7  1  0
  7  8  2  0
  8  9  1  0
  9 10  2  0
 10 11  1  0
 11 12  2  0
  6  1  1  0
 12  7  1  0
  1 13  1  0
  2 14  1  0
  3 15  1  0
  6 16  1  0
  8 17  1  0
  9 18  1  0
 10 19  1  0
 12 20  1  0
A    1
 C1 
A    2
 C2 
A    3
 C3 
A    4
 C4 
A    5
 N1 
A    6
 C5 
A    7
 C6 
A    8
 C7 
A    9
 C8 
A   10
 C9 
A   11
 N2 
A   12
 C10
A   13
 H1 
A   14
 H2 
A   15
 H3 
A   16
 H4 
A   17
 H5 
A   18
 H6 
A   19
 H7 
A   20
 H8 
M  END
>  <ref_pdb>  (297) 
x0051_0B

>  <ref_mols>  (297) 
x0680_0B,x0386_0B

>  <original SMILES>  (297) 
[H]c1nc(-c2c([H])nc([H])c([H])c2[H])c([H])c([H])c1[H]

>  <index>  (297) 
428

>  <∆∆G>  (297) 
-5.247886

>  <∆G_bound>  (297) 
-5.209771

>  <∆G_unbound>  (297) 
0.038115

>  <comRMSD>  (297) 
0.60883

>  <N_constrained_atoms>  (297) 
12.0

>  <N_unconstrained_atoms>  (297) 
1.0

>  <runtime>  (297) 
31.526274

>  <LE>  (297) 
0.403684

>  <percent_hybrid>  (297) 
17.0

>  <dist>  (297) 
3.0

>  <ecfp4>  (297) 
0.195652

>  <daylight>  (297) 
0.438017

>  <topodist>  (297) 
2.0

>  <mces>  (297) 
12.0

>  <tdn>  (297) 
1.0

>  <tup>  (297) 
0.0

>  <rdn>  (297) 
0.0

>  <rup>  (297) 
0.0

>  <ldn>  (297) 
0.0

>  <lup>  (297) 
1.0

>  <mut>  (297) 
1.0

>  <maj>  (297) 
1.0

>  <min>  (297) 
0.0

>  <hyb>  (297) 
0.0

>  <sub>  (297) 
1.0

>  <query_index>  (297) 
296.0

>  <max_hit_Tanimoto>  (297) 
0.12115

>  <largest_ring>  (297) 
0

>  <N_interactions_kept>  (297) 
3.0

>  <N_interactions_lost>  (297) 
1.0

>  <interaction_uniqueness_metric>  (297) 
0.031789

>  <ad_hoc_penalty>  (297) 
-21.281254

>  <N_rotatable_bonds>  (297) 
1

>  <N_HA>  (297) 
12

>  <cluster>  (297) 
5830

>  <N_interactions>  (297) 
4

>  <Enamine>  (297) 
1

>  <Mcule>  (297) 
0

>  <N_PAINS>  (297) 
0

>  <UFF_Gibbs>  (297) 
49.431927

>  <strain_per_HA>  (297) 
4.119327

>  <saltbridge:HIS:51>  (297) 
0

>  <pistack:HIS:51>  (297) 
0

>  <hydroph_interaction:HIS:51>  (297) 
0

>  <hbond:ALA:132>  (297) 
0

>  <hbond:SER:135>  (297) 
0

>  <hydroph_interaction:TYR:150>  (297) 
1

>  <pistack:TYR:161>  (297) 
0

>  <hydroph_interaction:TYR:161>  (297) 
3

>  <hydroph_interaction:ASP:83>  (297) 
0

>  <hbond:TYR:130>  (297) 
0

>  <hydroph_interaction:ALA:132>  (297) 
0

>  <hbond:HIS:51>  (297) 
0

>  <hbond:ASP:129>  (297) 
0

>  <hbond:TYR:150>  (297) 
0

>  <hbond:GLY:151>  (297) 
0

>  <hbond:TYR:161>  (297) 
0

>  <hydroph_interaction:TYR:130>  (297) 
0

>  <hydroph_interaction:PRO:131>  (297) 
0

>  <hydroph_interaction:ASP:129>  (297) 
0

>  <saltbridge:ASP:75>  (297) 
0

>  <saltbridge:ASP:83>  (297) 
0

>  <hydroph_interaction:ASN:152>  (297) 
0

>  <halogenbond:TYR:150>  (297) 
0

>  <hbond:ASP:83>  (297) 
0

>  <hydroph_interaction:VAL:155>  (297) 
0

>  <pication:TYR:161>  (297) 
0

>  <hbond:PRO:131>  (297) 
0

>  <hbond:LEU:128>  (297) 
0

>  <saltbridge:ASP:129>  (297) 
0

>  <hbond:THR:134>  (297) 
0

>  <pication:HIS:51>  (297) 
0

>  <hbond:SER:81>  (297) 
0

>  <hbond:GLY:159>  (297) 
0

>  <hydroph_interaction:PRO:101>  (297) 
0

>  <hydroph_interaction:THR:134>  (297) 
0

>  <hbond:GLY:82>  (297) 
0

>  <hydroph_interaction:GLU:104>  (297) 
0

>  <hydroph_interaction:VAL:36>  (297) 
0

>  <hydroph_interaction:MET:49>  (297) 
0

>  <halogenbond:GLU:104>  (297) 
0

>  <hydroph_interaction:LYS:107>  (297) 
0

$$$$
MCULE-9672868885
     RDKit          3D

 21 22  0  0  0  0  0  0  0  0999 V2000
   -7.8360    5.0700  -18.1990 C   0  0  0  0  0  0  0  0  0  0  0  0
   -8.2600    5.1180  -16.9120 C   0  0  0  0  0  0  0  0  0  0  0  0
   -9.7070    4.8740  -16.8150 C   0  0  0  0  0  0  0  0  0  0  0  0
  -10.1440    4.6860  -18.0910 O   0  0  0  0  0  0  0  0  0  0  0  0
   -9.0010    4.8050  -18.9330 C   0  0  0  0  0  0  0  0  0  0  0  0
   -6.4910    5.2300  -18.6890 C   0  0  0  0  0  0  0  0  0  0  0  0
   -5.4560    5.2390  -17.7420 C   0  0  0  0  0  0  0  0  0  0  0  0
   -4.1480    5.3560  -18.1480 C   0  0  0  0  0  0  0  0  0  0  0  0
   -3.9080    5.4760  -19.6390 C   0  0  0  0  0  0  0  0  0  0  0  0
   -2.4400    5.5890  -20.0620 C   0  0  0  0  0  0  0  0  0  0  0  0
   -4.9080    5.4790  -20.5420 N   0  0  0  0  0  0  0  0  0  0  0  0
   -6.1730    5.3550  -20.0450 C   0  0  0  0  0  0  0  0  0  0  0  0
   -7.5860    5.3050  -16.0830 H   0  0  0  0  0  0  0  0  0  0  0  0
  -10.4180    4.8180  -16.0110 H   0  0  0  0  0  0  0  0  0  0  0  0
   -9.2080    4.6710  -19.9870 H   0  0  0  0  0  0  0  0  0  0  0  0
   -5.6680    5.1450  -16.6800 H   0  0  0  0  0  0  0  0  0  0  0  0
   -3.3320    5.3590  -17.4340 H   0  0  0  0  0  0  0  0  0  0  0  0
   -2.3690    5.7200  -21.1480 H   0  0  0  0  0  0  0  0  0  0  0  0
   -1.9730    6.4520  -19.5750 H   0  0  0  0  0  0  0  0  0  0  0  0
   -1.8950    4.6790  -19.7910 H   0  0  0  0  0  0  0  0  0  0  0  0
   -6.9400    5.3550  -20.8130 H   0  0  0  0  0  0  0  0  0  0  0  0
  1  2  1  0
  2  3  2  0
  3  4  1  0
  4  5  1  0
  1  6  1  0
  6  7  2  0
  7  8  1  0
  8  9  2  0
  9 10  1  0
  9 11  1  0
 11 12  2  0
  1  5  2  0
 12  6  1  0
  2 13  1  0
  3 14  1  0
  5 15  1  0
  7 16  1  0
  8 17  1  0
 10 18  1  0
 10 19  1  0
 10 20  1  0
 12 21  1  0
A    1
 C1 
A    2
 C2 
A    3
 C3 
A    4
 O1 
A    5
 C4 
A    6
 C5 
A    7
 C6 
A    8
 C7 
A    9
 C8 
A   10
 C9 
A   11
 N1 
A   12
 C10
A   13
 H1 
A   14
 H2 
A   15
 H3 
A   16
 H4 
A   17
 H5 
A   18
 H6 
A   19
 H7 
A   20
 H8 
A   21
 H9 
M  END
>  <ref_pdb>  (298) 
x0051_0B

>  <ref_mols>  (298) 
x0680_0B,x0386_0B

>  <original SMILES>  (298) 
[H]c1nc(C([H])([H])[H])c([H])c([H])c1-c1c([H])oc([H])c1[H]

>  <index>  (298) 
475

>  <∆∆G>  (298) 
-5.947115

>  <∆G_bound>  (298) 
-5.996049

>  <∆G_unbound>  (298) 
-0.048934

>  <comRMSD>  (298) 
0.610429

>  <N_constrained_atoms>  (298) 
13.0

>  <N_unconstrained_atoms>  (298) 
1.0

>  <runtime>  (298) 
22.335048

>  <LE>  (298) 
0.424794

>  <percent_hybrid>  (298) 
25.0

>  <dist>  (298) 
3.0

>  <ecfp4>  (298) 
0.265306

>  <daylight>  (298) 
0.410448

>  <topodist>  (298) 
2.0

>  <mces>  (298) 
12.0

>  <tdn>  (298) 
1.0

>  <tup>  (298) 
1.0

>  <rdn>  (298) 
0.0

>  <rup>  (298) 
0.0

>  <ldn>  (298) 
0.0

>  <lup>  (298) 
0.0

>  <mut>  (298) 
1.0

>  <maj>  (298) 
1.0

>  <min>  (298) 
0.0

>  <hyb>  (298) 
0.0

>  <sub>  (298) 
2.0

>  <query_index>  (298) 
296.0

>  <max_hit_Tanimoto>  (298) 
0.145522

>  <largest_ring>  (298) 
0

>  <N_interactions_kept>  (298) 
3.5

>  <N_interactions_lost>  (298) 
0.5

>  <interaction_uniqueness_metric>  (298) 
0.016266

>  <ad_hoc_penalty>  (298) 
-21.272173

>  <N_rotatable_bonds>  (298) 
2

>  <N_HA>  (298) 
12

>  <cluster>  (298) 
5786

>  <N_interactions>  (298) 
3

>  <Enamine>  (298) 
0

>  <Mcule>  (298) 
1

>  <N_PAINS>  (298) 
0

>  <UFF_Gibbs>  (298) 
37.6801

>  <strain_per_HA>  (298) 
3.140008

>  <saltbridge:HIS:51>  (298) 
0

>  <pistack:HIS:51>  (298) 
0

>  <hydroph_interaction:HIS:51>  (298) 
0

>  <hbond:ALA:132>  (298) 
0

>  <hbond:SER:135>  (298) 
0

>  <hydroph_interaction:TYR:150>  (298) 
0

>  <pistack:TYR:161>  (298) 
0

>  <hydroph_interaction:TYR:161>  (298) 
3

>  <hydroph_interaction:ASP:83>  (298) 
0

>  <hbond:TYR:130>  (298) 
0

>  <hydroph_interaction:ALA:132>  (298) 
0

>  <hbond:HIS:51>  (298) 
0

>  <hbond:ASP:129>  (298) 
0

>  <hbond:TYR:150>  (298) 
0

>  <hbond:GLY:151>  (298) 
0

>  <hbond:TYR:161>  (298) 
0

>  <hydroph_interaction:TYR:130>  (298) 
0

>  <hydroph_interaction:PRO:131>  (298) 
0

>  <hydroph_interaction:ASP:129>  (298) 
0

>  <saltbridge:ASP:75>  (298) 
0

>  <saltbridge:ASP:83>  (298) 
0

>  <hydroph_interaction:ASN:152>  (298) 
0

>  <halogenbond:TYR:150>  (298) 
0

>  <hbond:ASP:83>  (298) 
0

>  <hydroph_interaction:VAL:155>  (298) 
0

>  <pication:TYR:161>  (298) 
0

>  <hbond:PRO:131>  (298) 
0

>  <hbond:LEU:128>  (298) 
0

>  <saltbridge:ASP:129>  (298) 
0

>  <hbond:THR:134>  (298) 
0

>  <pication:HIS:51>  (298) 
0

>  <hbond:SER:81>  (298) 
0

>  <hbond:GLY:159>  (298) 
0

>  <hydroph_interaction:PRO:101>  (298) 
0

>  <hydroph_interaction:THR:134>  (298) 
0

>  <hbond:GLY:82>  (298) 
0

>  <hydroph_interaction:GLU:104>  (298) 
0

>  <hydroph_interaction:VAL:36>  (298) 
0

>  <hydroph_interaction:MET:49>  (298) 
0

>  <halogenbond:GLU:104>  (298) 
0

>  <hydroph_interaction:LYS:107>  (298) 
0

$$$$
Z2852288100
     RDKit          3D

 37 39  0  0  0  0  0  0  0  0999 V2000
  -11.4850    4.8340  -18.5920 N   0  0  0  0  0  0  0  0  0  0  0  0
  -10.4420    4.8660  -18.1750 C   0  0  0  0  0  0  0  0  0  0  0  0
   -9.1430    4.9630  -17.6530 C   0  0  0  0  0  0  0  0  0  0  0  0
   -8.0960    5.1820  -18.5260 C   0  0  0  0  0  0  0  0  0  0  0  0
   -6.8480    5.2790  -17.9690 C   0  0  0  0  0  0  0  0  0  0  0  0
   -6.6120    5.1650  -16.6400 N   0  0  0  0  0  0  0  0  0  0  0  0
   -7.6450    4.9410  -15.7930 C   0  0  0  0  0  0  0  0  0  0  0  0
   -7.3000    4.8030  -14.4300 N   0  0  0  0  0  0  0  0  0  0  0  0
   -7.7050    5.7290  -13.3310 C   0  0  0  0  0  0  0  0  0  0  0  0
   -8.9110    5.2640  -12.4760 C   0  0  0  0  0  0  0  0  0  0  0  0
   -8.8620    5.3790  -10.9580 C   0  0  0  0  0  0  0  0  0  0  0  0
   -8.9760    4.3500  -10.0420 C   0  0  0  0  0  0  0  0  0  0  0  0
   -9.1560    2.8890  -10.2040 C   0  0  0  0  0  0  0  0  0  0  0  0
   -8.6870    2.1940   -8.9450 C   0  0  0  0  0  0  0  0  0  0  0  0
   -9.4090    2.7460   -7.7300 C   0  0  0  0  0  0  0  0  0  0  0  0
   -8.9820    4.1930   -7.5210 C   0  0  0  0  0  0  0  0  0  0  0  0
   -8.8940    4.9120   -8.7860 N   0  0  0  0  0  0  0  0  0  0  0  0
   -8.7220    6.2380   -8.8140 N   0  0  0  0  0  0  0  0  0  0  0  0
   -8.7050    6.5280  -10.1270 C   0  0  0  0  0  0  0  0  0  0  0  0
   -8.9370    4.8420  -16.2860 C   0  0  0  0  0  0  0  0  0  0  0  0
   -8.2420    5.2770  -19.5980 H   0  0  0  0  0  0  0  0  0  0  0  0
   -5.9700    5.4530  -18.5850 H   0  0  0  0  0  0  0  0  0  0  0  0
   -7.4160    3.7930  -14.2220 H   0  0  0  0  0  0  0  0  0  0  0  0
   -7.9490    6.6900  -13.8010 H   0  0  0  0  0  0  0  0  0  0  0  0
   -6.8560    5.9390  -12.6710 H   0  0  0  0  0  0  0  0  0  0  0  0
   -9.1580    4.2260  -12.7440 H   0  0  0  0  0  0  0  0  0  0  0  0
   -9.7750    5.8540  -12.8070 H   0  0  0  0  0  0  0  0  0  0  0  0
   -8.5650    2.5460  -11.0600 H   0  0  0  0  0  0  0  0  0  0  0  0
  -10.2000    2.6310  -10.4060 H   0  0  0  0  0  0  0  0  0  0  0  0
   -7.6080    2.3370   -8.8340 H   0  0  0  0  0  0  0  0  0  0  0  0
   -8.8600    1.1300   -9.0070 H   0  0  0  0  0  0  0  0  0  0  0  0
   -9.1400    2.1510   -6.8560 H   0  0  0  0  0  0  0  0  0  0  0  0
  -10.4970    2.6760   -7.8520 H   0  0  0  0  0  0  0  0  0  0  0  0
   -7.9860    4.2400   -7.0640 H   0  0  0  0  0  0  0  0  0  0  0  0
   -9.6940    4.7180   -6.8780 H   0  0  0  0  0  0  0  0  0  0  0  0
   -8.5810    7.5600  -10.4270 H   0  0  0  0  0  0  0  0  0  0  0  0
   -9.7720    4.6690  -15.6160 H   0  0  0  0  0  0  0  0  0  0  0  0
  1  2  3  0
  2  3  1  0
  3  4  2  0
  4  5  1  0
  5  6  2  0
  6  7  1  0
  7  8  1  0
  8  9  1  0
  9 10  1  0
 10 11  1  0
 11 12  2  0
 12 13  1  0
 13 14  1  0
 14 15  1  0
 15 16  1  0
 16 17  1  0
 17 18  1  0
 18 19  2  0
  7 20  2  0
 20  3  1  0
 19 11  1  0
 17 12  1  0
  4 21  1  0
  5 22  1  0
  8 23  1  0
  9 24  1  0
  9 25  1  0
 10 26  1  0
 10 27  1  0
 13 28  1  0
 13 29  1  0
 14 30  1  0
 14 31  1  0
 15 32  1  0
 15 33  1  0
 16 34  1  0
 16 35  1  0
 19 36  1  0
 20 37  1  0
A    1
 N1 
A    2
 C1 
A    3
 C2 
A    4
 C3 
A    5
 C4 
A    6
 N2 
A    7
 C5 
A    8
 N3 
A    9
 C6 
A   10
 C7 
A   11
 C8 
A   12
 C9 
A   13
 C10
A   14
 C11
A   15
 C12
A   16
 C13
A   17
 N4 
A   18
 N5 
A   19
 C14
A   20
 C15
A   21
 H1 
A   22
 H2 
A   23
 H3 
A   24
 H4 
A   25
 H5 
A   26
 H6 
A   27
 H7 
A   28
 H8 
A   29
 H9 
A   30
 H10
A   31
 H11
A   32
 H12
A   33
 H13
A   34
 H14
A   35
 H15
A   36
 H16
A   37
 H17
M  END
>  <ref_pdb>  (299) 
x0051_0B

>  <ref_mols>  (299) 
x0553_0B,x0969_1B

>  <original SMILES>  (299) 
[H]c1nc(N([H])C([H])([H])C([H])([H])c2c([H])nn3c2C([H])([H])C([H])([H])C([H])([H])C3([H])[H])c([H])c(C#N)c1[H]

>  <index>  (299) 
677

>  <∆∆G>  (299) 
-6.300853

>  <∆G_bound>  (299) 
-4.968113

>  <∆G_unbound>  (299) 
1.332739

>  <comRMSD>  (299) 
0.52153

>  <N_constrained_atoms>  (299) 
18.0

>  <N_unconstrained_atoms>  (299) 
2.0

>  <runtime>  (299) 
56.498035

>  <LE>  (299) 
0.315043

>  <percent_hybrid>  (299) 
45.0

>  <dist>  (299) 
4.0

>  <ecfp4>  (299) 
0.416667

>  <daylight>  (299) 
0.282828

>  <topodist>  (299) 
1.0

>  <mces>  (299) 
22.0

>  <tdn>  (299) 
1.0

>  <tup>  (299) 
0.0

>  <rdn>  (299) 
0.0

>  <rup>  (299) 
0.0

>  <ldn>  (299) 
0.0

>  <lup>  (299) 
0.0

>  <mut>  (299) 
3.0

>  <maj>  (299) 
3.0

>  <min>  (299) 
0.0

>  <hyb>  (299) 
0.0

>  <sub>  (299) 
0.0

>  <query_index>  (299) 
375.0

>  <max_hit_Tanimoto>  (299) 
0.332978

>  <largest_ring>  (299) 
6

>  <N_interactions_kept>  (299) 
1.5

>  <N_interactions_lost>  (299) 
1.0

>  <interaction_uniqueness_metric>  (299) 
0.167935

>  <ad_hoc_penalty>  (299) 
-21.256108

>  <N_rotatable_bonds>  (299) 
4

>  <N_HA>  (299) 
20

>  <cluster>  (299) 
5597

>  <N_interactions>  (299) 
4

>  <Enamine>  (299) 
1

>  <Mcule>  (299) 
0

>  <N_PAINS>  (299) 
0

>  <UFF_Gibbs>  (299) 
38.762619

>  <strain_per_HA>  (299) 
1.938131

>  <saltbridge:HIS:51>  (299) 
0

>  <pistack:HIS:51>  (299) 
1

>  <hydroph_interaction:HIS:51>  (299) 
0

>  <hbond:ALA:132>  (299) 
0

>  <hbond:SER:135>  (299) 
0

>  <hydroph_interaction:TYR:150>  (299) 
0

>  <pistack:TYR:161>  (299) 
1

>  <hydroph_interaction:TYR:161>  (299) 
0

>  <hydroph_interaction:ASP:83>  (299) 
1

>  <hbond:TYR:130>  (299) 
0

>  <hydroph_interaction:ALA:132>  (299) 
0

>  <hbond:HIS:51>  (299) 
0

>  <hbond:ASP:129>  (299) 
0

>  <hbond:TYR:150>  (299) 
0

>  <hbond:GLY:151>  (299) 
0

>  <hbond:TYR:161>  (299) 
1

>  <hydroph_interaction:TYR:130>  (299) 
0

>  <hydroph_interaction:PRO:131>  (299) 
0

>  <hydroph_interaction:ASP:129>  (299) 
0

>  <saltbridge:ASP:75>  (299) 
0

>  <saltbridge:ASP:83>  (299) 
0

>  <hydroph_interaction:ASN:152>  (299) 
0

>  <halogenbond:TYR:150>  (299) 
0

>  <hbond:ASP:83>  (299) 
0

>  <hydroph_interaction:VAL:155>  (299) 
0

>  <pication:TYR:161>  (299) 
0

>  <hbond:PRO:131>  (299) 
0

>  <hbond:LEU:128>  (299) 
0

>  <saltbridge:ASP:129>  (299) 
0

>  <hbond:THR:134>  (299) 
0

>  <pication:HIS:51>  (299) 
0

>  <hbond:SER:81>  (299) 
0

>  <hbond:GLY:159>  (299) 
0

>  <hydroph_interaction:PRO:101>  (299) 
0

>  <hydroph_interaction:THR:134>  (299) 
0

>  <hbond:GLY:82>  (299) 
0

>  <hydroph_interaction:GLU:104>  (299) 
0

>  <hydroph_interaction:VAL:36>  (299) 
0

>  <hydroph_interaction:MET:49>  (299) 
0

>  <halogenbond:GLU:104>  (299) 
0

>  <hydroph_interaction:LYS:107>  (299) 
0

$$$$
MCULE-7739129000
     RDKit          3D

 34 35  0  0  0  0  0  0  0  0999 V2000
   -6.1690    5.1090  -20.1330 C   0  0  0  0  0  0  0  0  0  0  0  0
   -7.0880    4.6290  -20.7900 O   0  0  0  0  0  0  0  0  0  0  0  0
   -4.9160    5.2660  -20.8370 C   0  0  0  0  0  0  0  0  0  0  0  0
   -3.7710    5.2610  -20.0300 C   0  0  0  0  0  0  0  0  0  0  0  0
   -2.5170    5.3720  -20.5870 C   0  0  0  0  0  0  0  0  0  0  0  0
   -2.3660    5.4990  -21.9590 C   0  0  0  0  0  0  0  0  0  0  0  0
   -3.5040    5.5230  -22.7770 C   0  0  0  0  0  0  0  0  0  0  0  0
   -4.7910    5.4080  -22.2230 C   0  0  0  0  0  0  0  0  0  0  0  0
   -1.1060    5.5930  -22.4450 N   0  0  0  0  0  0  0  0  0  0  0  0
   -6.2440    5.4390  -18.8770 N   0  0  0  0  0  0  0  0  0  0  0  0
   -7.3610    5.2340  -18.1030 C   0  0  0  0  0  0  0  0  0  0  0  0
   -8.6700    5.1390  -18.7440 C   0  0  0  0  0  0  0  0  0  0  0  0
   -9.8080    4.9540  -18.0540 C   0  0  0  0  0  0  0  0  0  0  0  0
  -11.1100    4.9230  -18.7330 C   0  0  0  0  0  0  0  0  0  0  0  0
   -9.7020    4.8270  -16.6640 C   0  0  0  0  0  0  0  0  0  0  0  0
   -8.4750    4.9080  -16.0140 C   0  0  0  0  0  0  0  0  0  0  0  0
   -7.2870    5.1180  -16.7180 C   0  0  0  0  0  0  0  0  0  0  0  0
   -5.9960    5.2100  -15.9650 C   0  0  0  0  0  0  0  0  0  0  0  0
   -3.8590    5.1580  -18.9510 H   0  0  0  0  0  0  0  0  0  0  0  0
   -1.6330    5.3590  -19.9560 H   0  0  0  0  0  0  0  0  0  0  0  0
   -3.3470    5.6300  -23.8450 H   0  0  0  0  0  0  0  0  0  0  0  0
   -5.6720    5.4210  -22.8550 H   0  0  0  0  0  0  0  0  0  0  0  0
   -0.5500    4.7370  -22.2820 H   0  0  0  0  0  0  0  0  0  0  0  0
   -0.6090    6.4280  -22.1490 H   0  0  0  0  0  0  0  0  0  0  0  0
   -5.3670    5.4580  -18.3790 H   0  0  0  0  0  0  0  0  0  0  0  0
   -8.6750    5.2420  -19.8350 H   0  0  0  0  0  0  0  0  0  0  0  0
  -10.9340    5.0040  -19.8040 H   0  0  0  0  0  0  0  0  0  0  0  0
  -11.7520    5.7310  -18.5210 H   0  0  0  0  0  0  0  0  0  0  0  0
  -11.6450    4.0030  -18.5470 H   0  0  0  0  0  0  0  0  0  0  0  0
  -10.5690    4.6680  -16.0530 H   0  0  0  0  0  0  0  0  0  0  0  0
   -8.4570    4.8050  -14.9220 H   0  0  0  0  0  0  0  0  0  0  0  0
   -5.8290    6.2380  -15.6240 H   0  0  0  0  0  0  0  0  0  0  0  0
   -5.1610    4.8900  -16.5960 H   0  0  0  0  0  0  0  0  0  0  0  0
   -6.0000    4.5680  -15.0750 H   0  0  0  0  0  0  0  0  0  0  0  0
  1  2  2  0
  1  3  1  0
  3  4  2  0
  4  5  1  0
  5  6  2  0
  6  7  1  0
  7  8  2  0
  6  9  1  0
  1 10  1  0
 10 11  1  0
 11 12  2  0
 12 13  1  0
 13 14  1  0
 13 15  2  0
 15 16  1  0
 16 17  2  0
 17 18  1  0
  3  8  1  0
 11 17  1  0
  4 19  1  0
  5 20  1  0
  7 21  1  0
  8 22  1  0
  9 23  1  0
  9 24  1  0
 10 25  1  0
 12 26  1  0
 14 27  1  0
 14 28  1  0
 14 29  1  0
 15 30  1  0
 16 31  1  0
 18 32  1  0
 18 33  1  0
 18 34  1  0
A    1
 C1 
A    2
 O1 
A    3
 C2 
A    4
 C3 
A    5
 C4 
A    6
 C5 
A    7
 C6 
A    8
 C7 
A    9
 N1 
A   10
 N2 
A   11
 C8 
A   12
 C9 
A   13
 C10
A   14
 C11
A   15
 C12
A   16
 C13
A   17
 C14
A   18
 C15
A   19
 H1 
A   20
 H2 
A   21
 H3 
A   22
 H4 
A   23
 H5 
A   24
 H6 
A   25
 H7 
A   26
 H8 
A   27
 H9 
A   28
 H10
A   29
 H11
A   30
 H12
A   31
 H13
A   32
 H14
A   33
 H15
A   34
 H16
M  END
>  <ref_pdb>  (300) 
x0051_0B

>  <ref_mols>  (300) 
x0852_0B,x0605_0B

>  <original SMILES>  (300) 
[H]c1c([H])c(N([H])[H])c([H])c([H])c1C(=O)N([H])c1c([H])c(C([H])([H])[H])c([H])c([H])c1C([H])([H])[H]

>  <index>  (300) 
356

>  <∆∆G>  (300) 
-7.790796

>  <∆G_bound>  (300) 
-7.829123

>  <∆G_unbound>  (300) 
-0.038328

>  <comRMSD>  (300) 
0.867587

>  <N_constrained_atoms>  (300) 
21.0

>  <N_unconstrained_atoms>  (300) 
1.0

>  <runtime>  (300) 
40.89265

>  <LE>  (300) 
0.354127

>  <percent_hybrid>  (300) 
20.0

>  <dist>  (300) 
4.0

>  <ecfp4>  (300) 
0.245902

>  <daylight>  (300) 
0.503876

>  <topodist>  (300) 
3.0

>  <mces>  (300) 
18.0

>  <tdn>  (300) 
2.0

>  <tup>  (300) 
1.0

>  <rdn>  (300) 
0.0

>  <rup>  (300) 
0.0

>  <ldn>  (300) 
0.0

>  <lup>  (300) 
0.0

>  <mut>  (300) 
1.0

>  <maj>  (300) 
1.0

>  <min>  (300) 
0.0

>  <hyb>  (300) 
0.0

>  <sub>  (300) 
2.0

>  <query_index>  (300) 
176.0

>  <max_hit_Tanimoto>  (300) 
0.452693

>  <largest_ring>  (300) 
0

>  <N_interactions_kept>  (300) 
3.0

>  <N_interactions_lost>  (300) 
3.0

>  <interaction_uniqueness_metric>  (300) 
0.244473

>  <ad_hoc_penalty>  (300) 
-21.24674

>  <N_rotatable_bonds>  (300) 
5

>  <N_HA>  (300) 
18

>  <cluster>  (300) 
5893

>  <N_interactions>  (300) 
8

>  <Enamine>  (300) 
0

>  <Mcule>  (300) 
1

>  <N_PAINS>  (300) 
0

>  <UFF_Gibbs>  (300) 
111.020556

>  <strain_per_HA>  (300) 
6.167809

>  <saltbridge:HIS:51>  (300) 
0

>  <pistack:HIS:51>  (300) 
0

>  <hydroph_interaction:HIS:51>  (300) 
0

>  <hbond:ALA:132>  (300) 
0

>  <hbond:SER:135>  (300) 
0

>  <hydroph_interaction:TYR:150>  (300) 
1

>  <pistack:TYR:161>  (300) 
0

>  <hydroph_interaction:TYR:161>  (300) 
4

>  <hydroph_interaction:ASP:83>  (300) 
0

>  <hbond:TYR:130>  (300) 
1

>  <hydroph_interaction:ALA:132>  (300) 
0

>  <hbond:HIS:51>  (300) 
0

>  <hbond:ASP:129>  (300) 
0

>  <hbond:TYR:150>  (300) 
0

>  <hbond:GLY:151>  (300) 
0

>  <hbond:TYR:161>  (300) 
0

>  <hydroph_interaction:TYR:130>  (300) 
0

>  <hydroph_interaction:PRO:131>  (300) 
0

>  <hydroph_interaction:ASP:129>  (300) 
1

>  <saltbridge:ASP:75>  (300) 
0

>  <saltbridge:ASP:83>  (300) 
0

>  <hydroph_interaction:ASN:152>  (300) 
0

>  <halogenbond:TYR:150>  (300) 
0

>  <hbond:ASP:83>  (300) 
0

>  <hydroph_interaction:VAL:155>  (300) 
0

>  <pication:TYR:161>  (300) 
0

>  <hbond:PRO:131>  (300) 
0

>  <hbond:LEU:128>  (300) 
0

>  <saltbridge:ASP:129>  (300) 
0

>  <hbond:THR:134>  (300) 
0

>  <pication:HIS:51>  (300) 
0

>  <hbond:SER:81>  (300) 
0

>  <hbond:GLY:159>  (300) 
1

>  <hydroph_interaction:PRO:101>  (300) 
0

>  <hydroph_interaction:THR:134>  (300) 
0

>  <hbond:GLY:82>  (300) 
0

>  <hydroph_interaction:GLU:104>  (300) 
0

>  <hydroph_interaction:VAL:36>  (300) 
0

>  <hydroph_interaction:MET:49>  (300) 
0

>  <halogenbond:GLU:104>  (300) 
0

>  <hydroph_interaction:LYS:107>  (300) 
0

$$$$
MCULE-1242409534
     RDKit          3D

 22 23  0  0  0  0  0  0  0  0999 V2000
   -7.8160    5.1380  -18.3000 C   0  0  0  0  0  0  0  0  0  0  0  0
   -8.2940    5.1800  -16.9070 C   0  0  0  0  0  0  0  0  0  0  0  0
   -9.6560    4.9910  -16.8020 C   0  0  0  0  0  0  0  0  0  0  0  0
  -10.4370    4.7620  -18.3000 S   0  0  0  0  0  0  0  0  0  0  0  0
   -8.9180    4.9080  -19.1460 C   0  0  0  0  0  0  0  0  0  0  0  0
   -6.5050    5.2880  -18.6770 C   0  0  0  0  0  0  0  0  0  0  0  0
   -6.2050    5.2850  -20.0480 C   0  0  0  0  0  0  0  0  0  0  0  0
   -4.9540    5.4080  -20.5460 N   0  0  0  0  0  0  0  0  0  0  0  0
   -3.9710    5.5340  -19.6400 C   0  0  0  0  0  0  0  0  0  0  0  0
   -4.1530    5.5550  -18.2720 C   0  0  0  0  0  0  0  0  0  0  0  0
   -5.4370    5.4340  -17.7660 C   0  0  0  0  0  0  0  0  0  0  0  0
   -5.7540    5.4420  -16.4360 O   0  0  0  0  0  0  0  0  0  0  0  0
   -4.8340    4.8240  -15.5420 C   0  0  0  0  0  0  0  0  0  0  0  0
   -7.5880    5.3460  -16.0910 H   0  0  0  0  0  0  0  0  0  0  0  0
  -10.1020    5.0050  -15.8020 H   0  0  0  0  0  0  0  0  0  0  0  0
   -8.9150    4.8170  -20.2270 H   0  0  0  0  0  0  0  0  0  0  0  0
   -6.9910    5.1760  -20.7940 H   0  0  0  0  0  0  0  0  0  0  0  0
   -2.9660    5.6280  -20.0470 H   0  0  0  0  0  0  0  0  0  0  0  0
   -3.2190    5.6730  -17.7100 H   0  0  0  0  0  0  0  0  0  0  0  0
   -5.3470    4.1410  -14.8470 H   0  0  0  0  0  0  0  0  0  0  0  0
   -4.0580    4.2840  -16.0830 H   0  0  0  0  0  0  0  0  0  0  0  0
   -4.3540    5.6080  -14.9510 H   0  0  0  0  0  0  0  0  0  0  0  0
  1  2  1  0
  2  3  2  0
  3  4  1  0
  4  5  1  0
  1  6  1  0
  6  7  2  0
  7  8  1  0
  8  9  2  0
  9 10  1  0
 10 11  2  0
 11 12  1  0
 12 13  1  0
  1  5  2  0
  6 11  1  0
  2 14  1  0
  3 15  1  0
  5 16  1  0
  7 17  1  0
  9 18  1  0
 10 19  1  0
 13 20  1  0
 13 21  1  0
 13 22  1  0
A    1
 C1 
A    2
 C2 
A    3
 C3 
A    4
 S1 
A    5
 C4 
A    6
 C5 
A    7
 C6 
A    8
 N1 
A    9
 C7 
A   10
 C8 
A   11
 C9 
A   12
 O1 
A   13
 C10
A   14
 H1 
A   15
 H2 
A   16
 H3 
A   17
 H4 
A   18
 H5 
A   19
 H6 
A   20
 H7 
A   21
 H8 
A   22
 H9 
M  END
>  <ref_pdb>  (301) 
x0051_0B

>  <ref_mols>  (301) 
x0680_0B,x0386_0B

>  <original SMILES>  (301) 
[H]c1nc([H])c(-c2c([H])sc([H])c2[H])c(OC([H])([H])[H])c1[H]

>  <index>  (301) 
375

>  <∆∆G>  (301) 
-7.485151

>  <∆G_bound>  (301) 
-7.550189

>  <∆G_unbound>  (301) 
-0.065039

>  <comRMSD>  (301) 
0.617152

>  <N_constrained_atoms>  (301) 
13.0

>  <N_unconstrained_atoms>  (301) 
1.0

>  <runtime>  (301) 
26.24787

>  <LE>  (301) 
0.534654

>  <percent_hybrid>  (301) 
25.0

>  <dist>  (301) 
3.0

>  <ecfp4>  (301) 
0.294118

>  <daylight>  (301) 
0.269231

>  <topodist>  (301) 
1.0

>  <mces>  (301) 
13.0

>  <tdn>  (301) 
0.0

>  <tup>  (301) 
0.0

>  <rdn>  (301) 
0.0

>  <rup>  (301) 
0.0

>  <ldn>  (301) 
0.0

>  <lup>  (301) 
1.0

>  <mut>  (301) 
2.0

>  <maj>  (301) 
1.0

>  <min>  (301) 
1.0

>  <hyb>  (301) 
0.0

>  <sub>  (301) 
0.0

>  <query_index>  (301) 
296.0

>  <max_hit_Tanimoto>  (301) 
0.133333

>  <largest_ring>  (301) 
0

>  <N_interactions_kept>  (301) 
3.5

>  <N_interactions_lost>  (301) 
0.5

>  <interaction_uniqueness_metric>  (301) 
0.016266

>  <ad_hoc_penalty>  (301) 
-21.237063

>  <N_rotatable_bonds>  (301) 
3

>  <N_HA>  (301) 
13

>  <cluster>  (301) 
5874

>  <N_interactions>  (301) 
3

>  <Enamine>  (301) 
0

>  <Mcule>  (301) 
1

>  <N_PAINS>  (301) 
0

>  <UFF_Gibbs>  (301) 
62.101483

>  <strain_per_HA>  (301) 
4.777037

>  <saltbridge:HIS:51>  (301) 
0

>  <pistack:HIS:51>  (301) 
0

>  <hydroph_interaction:HIS:51>  (301) 
0

>  <hbond:ALA:132>  (301) 
0

>  <hbond:SER:135>  (301) 
0

>  <hydroph_interaction:TYR:150>  (301) 
0

>  <pistack:TYR:161>  (301) 
0

>  <hydroph_interaction:TYR:161>  (301) 
3

>  <hydroph_interaction:ASP:83>  (301) 
0

>  <hbond:TYR:130>  (301) 
0

>  <hydroph_interaction:ALA:132>  (301) 
0

>  <hbond:HIS:51>  (301) 
0

>  <hbond:ASP:129>  (301) 
0

>  <hbond:TYR:150>  (301) 
0

>  <hbond:GLY:151>  (301) 
0

>  <hbond:TYR:161>  (301) 
0

>  <hydroph_interaction:TYR:130>  (301) 
0

>  <hydroph_interaction:PRO:131>  (301) 
0

>  <hydroph_interaction:ASP:129>  (301) 
0

>  <saltbridge:ASP:75>  (301) 
0

>  <saltbridge:ASP:83>  (301) 
0

>  <hydroph_interaction:ASN:152>  (301) 
0

>  <halogenbond:TYR:150>  (301) 
0

>  <hbond:ASP:83>  (301) 
0

>  <hydroph_interaction:VAL:155>  (301) 
0

>  <pication:TYR:161>  (301) 
0

>  <hbond:PRO:131>  (301) 
0

>  <hbond:LEU:128>  (301) 
0

>  <saltbridge:ASP:129>  (301) 
0

>  <hbond:THR:134>  (301) 
0

>  <pication:HIS:51>  (301) 
0

>  <hbond:SER:81>  (301) 
0

>  <hbond:GLY:159>  (301) 
0

>  <hydroph_interaction:PRO:101>  (301) 
0

>  <hydroph_interaction:THR:134>  (301) 
0

>  <hbond:GLY:82>  (301) 
0

>  <hydroph_interaction:GLU:104>  (301) 
0

>  <hydroph_interaction:VAL:36>  (301) 
0

>  <hydroph_interaction:MET:49>  (301) 
0

>  <halogenbond:GLU:104>  (301) 
0

>  <hydroph_interaction:LYS:107>  (301) 
0

$$$$
nan
     RDKit          3D

 55 57  0  0  0  0  0  0  0  0999 V2000
   -4.9310    7.3860  -21.2400 C   0  0  0  0  0  0  0  0  0  0  0  0
   -5.0580    5.9120  -20.8210 C   0  0  0  0  0  0  0  0  0  0  0  0
   -3.7110    5.4390  -20.2510 C   0  0  0  0  0  0  0  0  0  0  0  0
   -5.4380    5.1000  -22.0640 C   0  0  0  0  0  0  0  0  0  0  0  0
   -6.1350    5.8440  -19.8350 N   0  0  0  0  0  0  0  0  0  0  0  0
   -6.0080    5.7580  -18.4660 C   0  0  0  0  0  0  0  0  0  0  0  0
   -4.9800    5.9420  -17.8290 O   0  0  0  0  0  0  0  0  0  0  0  0
   -7.2660    5.4060  -17.7720 C   0  0  0  0  0  0  0  0  0  0  0  0
   -8.2890    5.0870  -18.6820 C   0  0  0  0  0  0  0  0  0  0  0  0
   -9.5430    4.7240  -18.2350 C   0  0  0  0  0  0  0  0  0  0  0  0
   -9.7830    4.6820  -16.8810 C   0  0  0  0  0  0  0  0  0  0  0  0
   -8.8120    4.9910  -15.9600 C   0  0  0  0  0  0  0  0  0  0  0  0
   -7.5430    5.3530  -16.3790 C   0  0  0  0  0  0  0  0  0  0  0  0
   -6.6310    5.6370  -15.2570 C   0  0  0  0  0  0  0  0  0  0  0  0
   -5.7320    6.4560  -15.3880 O   0  0  0  0  0  0  0  0  0  0  0  0
   -6.9230    4.8870  -14.1130 N   0  0  0  0  0  0  0  0  0  0  0  0
   -7.1040    5.4750  -12.7720 C   0  0  0  0  0  0  0  0  0  0  0  0
   -8.5660    5.4680  -12.2660 C   0  0  0  0  0  0  0  0  0  0  0  0
   -8.7040    5.4540  -10.7650 C   0  0  0  0  0  0  0  0  0  0  0  0
   -8.9080    4.3680   -9.9360 C   0  0  0  0  0  0  0  0  0  0  0  0
   -9.0560    2.9190  -10.2020 C   0  0  0  0  0  0  0  0  0  0  0  0
   -8.7050    2.1710   -8.9370 C   0  0  0  0  0  0  0  0  0  0  0  0
   -9.5700    2.6390   -7.7850 C   0  0  0  0  0  0  0  0  0  0  0  0
   -9.1750    4.0660   -7.4400 C   0  0  0  0  0  0  0  0  0  0  0  0
   -8.9640    4.8570   -8.6480 N   0  0  0  0  0  0  0  0  0  0  0  0
   -8.8100    6.1850   -8.5790 N   0  0  0  0  0  0  0  0  0  0  0  0
   -8.6530    6.5480   -9.8590 C   0  0  0  0  0  0  0  0  0  0  0  0
   -4.5390    7.4790  -22.2590 H   0  0  0  0  0  0  0  0  0  0  0  0
   -4.2610    7.9290  -20.5660 H   0  0  0  0  0  0  0  0  0  0  0  0
   -5.9080    7.8860  -21.2090 H   0  0  0  0  0  0  0  0  0  0  0  0
   -3.0290    6.2830  -20.0970 H   0  0  0  0  0  0  0  0  0  0  0  0
   -3.2060    4.7350  -20.9210 H   0  0  0  0  0  0  0  0  0  0  0  0
   -3.8440    4.9390  -19.2870 H   0  0  0  0  0  0  0  0  0  0  0  0
   -6.0260    5.7020  -22.7660 H   0  0  0  0  0  0  0  0  0  0  0  0
   -6.0410    4.2200  -21.8120 H   0  0  0  0  0  0  0  0  0  0  0  0
   -4.5440    4.7450  -22.5840 H   0  0  0  0  0  0  0  0  0  0  0  0
   -7.0730    6.0040  -20.2110 H   0  0  0  0  0  0  0  0  0  0  0  0
   -8.1020    5.1200  -19.7530 H   0  0  0  0  0  0  0  0  0  0  0  0
  -10.3320    4.4770  -18.9410 H   0  0  0  0  0  0  0  0  0  0  0  0
  -10.7480    4.3970  -16.5300 H   0  0  0  0  0  0  0  0  0  0  0  0
   -9.0530    4.9410  -14.8990 H   0  0  0  0  0  0  0  0  0  0  0  0
   -7.0400    3.8680  -14.2270 H   0  0  0  0  0  0  0  0  0  0  0  0
   -6.4590    4.9540  -12.0560 H   0  0  0  0  0  0  0  0  0  0  0  0
   -6.7330    6.5030  -12.8400 H   0  0  0  0  0  0  0  0  0  0  0  0
   -9.0910    4.5940  -12.6800 H   0  0  0  0  0  0  0  0  0  0  0  0
   -9.0960    6.3420  -12.6670 H   0  0  0  0  0  0  0  0  0  0  0  0
  -10.0900    2.6940  -10.4890 H   0  0  0  0  0  0  0  0  0  0  0  0
   -8.4080    2.5930  -11.0230 H   0  0  0  0  0  0  0  0  0  0  0  0
   -7.6520    2.3250   -8.7050 H   0  0  0  0  0  0  0  0  0  0  0  0
   -8.8350    1.1150   -9.0720 H   0  0  0  0  0  0  0  0  0  0  0  0
   -9.4100    1.9810   -6.9290 H   0  0  0  0  0  0  0  0  0  0  0  0
  -10.6320    2.5790   -8.0460 H   0  0  0  0  0  0  0  0  0  0  0  0
   -8.2510    4.0780   -6.8530 H   0  0  0  0  0  0  0  0  0  0  0  0
   -9.9680    4.5560   -6.8670 H   0  0  0  0  0  0  0  0  0  0  0  0
   -8.5150    7.5990  -10.0830 H   0  0  0  0  0  0  0  0  0  0  0  0
  1  2  1  0
  2  3  1  0
  2  4  1  0
  2  5  1  0
  5  6  1  0
  6  7  2  0
  6  8  1  0
  8  9  2  0
  9 10  1  0
 10 11  2  0
 11 12  1  0
 12 13  2  0
 13 14  1  0
 14 15  2  0
 14 16  1  0
 16 17  1  0
 17 18  1  0
 18 19  1  0
 19 20  2  0
 20 21  1  0
 21 22  1  0
 22 23  1  0
 23 24  1  0
 24 25  1  0
 25 26  1  0
 26 27  2  0
 13  8  1  0
 27 19  1  0
 25 20  1  0
  1 28  1  0
  1 29  1  0
  1 30  1  0
  3 31  1  0
  3 32  1  0
  3 33  1  0
  4 34  1  0
  4 35  1  0
  4 36  1  0
  5 37  1  0
  9 38  1  0
 10 39  1  0
 11 40  1  0
 12 41  1  0
 16 42  1  0
 17 43  1  0
 17 44  1  0
 18 45  1  0
 18 46  1  0
 21 47  1  0
 21 48  1  0
 22 49  1  0
 22 50  1  0
 23 51  1  0
 23 52  1  0
 24 53  1  0
 24 54  1  0
 27 55  1  0
A    1
 C1 
A    2
 C2 
A    3
 C3 
A    4
 C4 
A    5
 N1 
A    6
 C5 
A    7
 O1 
A    8
 C6 
A    9
 C7 
A   10
 C8 
A   11
 C9 
A   12
 C10
A   13
 C11
A   14
 C12
A   15
 O2 
A   16
 N2 
A   17
 C13
A   18
 C14
A   19
 C15
A   20
 C16
A   21
 C17
A   22
 C18
A   23
 C19
A   24
 C20
A   25
 N3 
A   26
 N4 
A   27
 C21
A   28
 H1 
A   29
 H2 
A   30
 H3 
A   31
 H4 
A   32
 H5 
A   33
 H6 
A   34
 H7 
A   35
 H8 
A   36
 H9 
A   37
 H10
A   38
 H11
A   39
 H12
A   40
 H13
A   41
 H14
A   42
 H15
A   43
 H16
A   44
 H17
A   45
 H18
A   46
 H19
A   47
 H20
A   48
 H21
A   49
 H22
A   50
 H23
A   51
 H24
A   52
 H25
A   53
 H26
A   54
 H27
A   55
 H28
M  END
>  <ref_pdb>  (302) 
x0051_0B

>  <ref_mols>  (302) 
x0101_0B,x0969_1B,x0693_0B

>  <original SMILES>  (302) 
[H]c1nn2c(c1C([H])([H])C([H])([H])N([H])C(=O)c1c([H])c([H])c([H])c([H])c1C(=O)N([H])C(C([H])([H])[H])(C([H])([H])[H])C([H])([H])[H])C([H])([H])C([H])([H])C([H])([H])C2([H])[H]

>  <index>  (302) 
22930

>  <∆∆G>  (302) 
-10.875054

>  <∆G_bound>  (302) 
-9.13663

>  <∆G_unbound>  (302) 
1.738424

>  <comRMSD>  (302) 
0.462374

>  <N_constrained_atoms>  (302) 
27.0

>  <N_unconstrained_atoms>  (302) 
3.0

>  <runtime>  (302) 
63.567978

>  <LE>  (302) 
0.362502

>  <percent_hybrid>  (302) 
50.0

>  <dist>  (302) 
nan

>  <ecfp4>  (302) 
nan

>  <daylight>  (302) 
nan

>  <topodist>  (302) 
nan

>  <mces>  (302) 
nan

>  <tdn>  (302) 
nan

>  <tup>  (302) 
nan

>  <rdn>  (302) 
nan

>  <rup>  (302) 
nan

>  <ldn>  (302) 
nan

>  <lup>  (302) 
nan

>  <mut>  (302) 
nan

>  <maj>  (302) 
nan

>  <min>  (302) 
nan

>  <hyb>  (302) 
nan

>  <sub>  (302) 
nan

>  <query_index>  (302) 
nan

>  <max_hit_Tanimoto>  (302) 
0.340886

>  <largest_ring>  (302) 
6

>  <N_interactions_kept>  (302) 
4.0

>  <N_interactions_lost>  (302) 
3.0

>  <interaction_uniqueness_metric>  (302) 
0.244555

>  <ad_hoc_penalty>  (302) 
-21.235533

>  <N_rotatable_bonds>  (302) 
5

>  <N_HA>  (302) 
27

>  <cluster>  (302) 
1402

>  <N_interactions>  (302) 
7

>  <Enamine>  (302) 
0

>  <Mcule>  (302) 
0

>  <N_PAINS>  (302) 
0

>  <UFF_Gibbs>  (302) 
284.083749

>  <strain_per_HA>  (302) 
10.52162

>  <saltbridge:HIS:51>  (302) 
0

>  <pistack:HIS:51>  (302) 
1

>  <hydroph_interaction:HIS:51>  (302) 
0

>  <hbond:ALA:132>  (302) 
0

>  <hbond:SER:135>  (302) 
0

>  <hydroph_interaction:TYR:150>  (302) 
1

>  <pistack:TYR:161>  (302) 
1

>  <hydroph_interaction:TYR:161>  (302) 
0

>  <hydroph_interaction:ASP:83>  (302) 
1

>  <hbond:TYR:130>  (302) 
1

>  <hydroph_interaction:ALA:132>  (302) 
0

>  <hbond:HIS:51>  (302) 
0

>  <hbond:ASP:129>  (302) 
0

>  <hbond:TYR:150>  (302) 
0

>  <hbond:GLY:151>  (302) 
0

>  <hbond:TYR:161>  (302) 
1

>  <hydroph_interaction:TYR:130>  (302) 
0

>  <hydroph_interaction:PRO:131>  (302) 
0

>  <hydroph_interaction:ASP:129>  (302) 
1

>  <saltbridge:ASP:75>  (302) 
0

>  <saltbridge:ASP:83>  (302) 
0

>  <hydroph_interaction:ASN:152>  (302) 
0

>  <halogenbond:TYR:150>  (302) 
0

>  <hbond:ASP:83>  (302) 
0

>  <hydroph_interaction:VAL:155>  (302) 
0

>  <pication:TYR:161>  (302) 
0

>  <hbond:PRO:131>  (302) 
0

>  <hbond:LEU:128>  (302) 
0

>  <saltbridge:ASP:129>  (302) 
0

>  <hbond:THR:134>  (302) 
0

>  <pication:HIS:51>  (302) 
0

>  <hbond:SER:81>  (302) 
0

>  <hbond:GLY:159>  (302) 
0

>  <hydroph_interaction:PRO:101>  (302) 
0

>  <hydroph_interaction:THR:134>  (302) 
0

>  <hbond:GLY:82>  (302) 
0

>  <hydroph_interaction:GLU:104>  (302) 
0

>  <hydroph_interaction:VAL:36>  (302) 
0

>  <hydroph_interaction:MET:49>  (302) 
0

>  <halogenbond:GLU:104>  (302) 
0

>  <hydroph_interaction:LYS:107>  (302) 
0

$$$$
MCULE-2083531843
     RDKit          3D

 43 44  0  0  0  0  0  0  0  0999 V2000
   -7.1400    5.2550  -16.4570 N   0  0  0  0  0  0  0  0  0  0  0  0
   -8.5960    5.1980  -16.4810 C   0  0  0  0  0  0  0  0  0  0  0  0
   -9.1530    4.6340  -17.7990 C   0  0  0  0  0  0  0  0  0  0  0  0
   -8.3570    4.9550  -19.0700 C   0  0  0  0  0  0  0  0  0  0  0  0
   -7.1330    5.5590  -18.8120 C   0  0  0  0  0  0  0  0  0  0  0  0
   -6.4970    5.2250  -17.6380 C   0  0  0  0  0  0  0  0  0  0  0  0
   -5.0720    5.7720  -17.6910 C   0  0  0  0  0  0  0  0  0  0  0  0
   -6.6040    5.4060  -15.2180 C   0  0  0  0  0  0  0  0  0  0  0  0
   -5.4300    5.0860  -15.0100 O   0  0  0  0  0  0  0  0  0  0  0  0
   -7.3540    5.9380  -14.1470 C   0  0  0  0  0  0  0  0  0  0  0  0
   -7.8580    5.0950  -13.1360 C   0  0  0  0  0  0  0  0  0  0  0  0
   -8.6810    5.8790  -12.2490 O   0  0  0  0  0  0  0  0  0  0  0  0
   -8.7590    5.5260  -10.9220 C   0  0  0  0  0  0  0  0  0  0  0  0
   -8.5890    6.5230   -9.7580 C   0  0  0  0  0  0  0  0  0  0  0  0
   -8.7230    5.8670   -8.4020 C   0  0  0  0  0  0  0  0  0  0  0  0
   -8.9690    4.5250   -8.2640 C   0  0  0  0  0  0  0  0  0  0  0  0
   -9.1290    3.5940   -9.4310 C   0  0  0  0  0  0  0  0  0  0  0  0
   -9.3760    2.3010   -9.0880 O   0  0  0  0  0  0  0  0  0  0  0  0
   -9.8540    2.1400   -7.7620 C   0  0  0  0  0  0  0  0  0  0  0  0
   -9.0140    4.1460  -10.7070 C   0  0  0  0  0  0  0  0  0  0  0  0
   -8.9900    4.7620  -15.5670 H   0  0  0  0  0  0  0  0  0  0  0  0
   -8.9180    6.2400  -16.4290 H   0  0  0  0  0  0  0  0  0  0  0  0
  -10.1590    5.0380  -17.9400 H   0  0  0  0  0  0  0  0  0  0  0  0
   -9.2340    3.5580  -17.7000 H   0  0  0  0  0  0  0  0  0  0  0  0
   -8.1800    4.0200  -19.6160 H   0  0  0  0  0  0  0  0  0  0  0  0
   -8.9520    5.5850  -19.7370 H   0  0  0  0  0  0  0  0  0  0  0  0
   -7.2790    6.6460  -18.8690 H   0  0  0  0  0  0  0  0  0  0  0  0
   -6.4550    5.3150  -19.6390 H   0  0  0  0  0  0  0  0  0  0  0  0
   -6.3060    4.1750  -17.7360 H   0  0  0  0  0  0  0  0  0  0  0  0
   -4.4520    5.3640  -16.8860 H   0  0  0  0  0  0  0  0  0  0  0  0
   -4.5920    5.4660  -18.6290 H   0  0  0  0  0  0  0  0  0  0  0  0
   -5.0530    6.8570  -17.6500 H   0  0  0  0  0  0  0  0  0  0  0  0
   -6.6940    6.6580  -13.6520 H   0  0  0  0  0  0  0  0  0  0  0  0
   -8.2010    6.4550  -14.5790 H   0  0  0  0  0  0  0  0  0  0  0  0
   -8.4320    4.2630  -13.5660 H   0  0  0  0  0  0  0  0  0  0  0  0
   -7.0080    4.6950  -12.5690 H   0  0  0  0  0  0  0  0  0  0  0  0
   -8.3940    7.5850   -9.8590 H   0  0  0  0  0  0  0  0  0  0  0  0
   -8.6200    6.4790   -7.5000 H   0  0  0  0  0  0  0  0  0  0  0  0
   -9.0510    4.1220   -7.2500 H   0  0  0  0  0  0  0  0  0  0  0  0
  -10.4500    2.9950   -7.4370 H   0  0  0  0  0  0  0  0  0  0  0  0
   -8.9940    2.0660   -7.1010 H   0  0  0  0  0  0  0  0  0  0  0  0
  -10.4250    1.2150   -7.6660 H   0  0  0  0  0  0  0  0  0  0  0  0
   -9.1180    3.5250  -11.5890 H   0  0  0  0  0  0  0  0  0  0  0  0
  1  2  1  0
  2  3  1  0
  3  4  1  0
  4  5  1  0
  5  6  1  0
  6  7  1  0
  1  8  1  0
  8  9  2  0
  8 10  1  0
 10 11  1  0
 11 12  1  0
 12 13  1  0
 13 14  2  0
 14 15  1  0
 15 16  2  0
 16 17  1  0
 17 18  1  0
 18 19  1  0
 17 20  2  0
  6  1  1  0
 20 13  1  0
  2 21  1  0
  2 22  1  0
  3 23  1  0
  3 24  1  0
  4 25  1  0
  4 26  1  0
  5 27  1  0
  5 28  1  0
  6 29  1  0
  7 30  1  0
  7 31  1  0
  7 32  1  0
 10 33  1  0
 10 34  1  0
 11 35  1  0
 11 36  1  0
 14 37  1  0
 15 38  1  0
 16 39  1  0
 19 40  1  0
 19 41  1  0
 19 42  1  0
 20 43  1  0
A    1
 N1 
A    2
 C1 
A    3
 C2 
A    4
 C3 
A    5
 C4 
A    6
 C5 
A    7
 C6 
A    8
 C7 
A    9
 O1 
A   10
 C8 
A   11
 C9 
A   12
 O2 
A   13
 C10
A   14
 C11
A   15
 C12
A   16
 C13
A   17
 C14
A   18
 O3 
A   19
 C15
A   20
 C16
A   21
 H1 
A   22
 H2 
A   23
 H3 
A   24
 H4 
A   25
 H5 
A   26
 H6 
A   27
 H7 
A   28
 H8 
A   29
 H9 
A   30
 H10
A   31
 H11
A   32
 H12
A   33
 H13
A   34
 H14
A   35
 H15
A   36
 H16
A   37
 H17
A   38
 H18
A   39
 H19
A   40
 H20
A   41
 H21
A   42
 H22
A   43
 H23
M  END
>  <ref_pdb>  (303) 
x0051_0B

>  <ref_mols>  (303) 
x0605_0B,x0969_1B

>  <original SMILES>  (303) 
[H]c1c([H])c(OC([H])([H])[H])c([H])c(OC([H])([H])C([H])([H])C(=O)N2C([H])([H])C([H])([H])C([H])([H])C([H])([H])C2([H])C([H])([H])[H])c1[H]

>  <index>  (303) 
261

>  <∆∆G>  (303) 
-6.909577

>  <∆G_bound>  (303) 
-6.499512

>  <∆G_unbound>  (303) 
0.410065

>  <comRMSD>  (303) 
0.74727

>  <N_constrained_atoms>  (303) 
19.0

>  <N_unconstrained_atoms>  (303) 
4.0

>  <runtime>  (303) 
64.616511

>  <LE>  (303) 
0.300416

>  <percent_hybrid>  (303) 
48.0

>  <dist>  (303) 
9.0

>  <ecfp4>  (303) 
0.164557

>  <daylight>  (303) 
0.111588

>  <topodist>  (303) 
2.0

>  <mces>  (303) 
21.0

>  <tdn>  (303) 
0.0

>  <tup>  (303) 
0.0

>  <rdn>  (303) 
1.0

>  <rup>  (303) 
0.0

>  <ldn>  (303) 
1.0

>  <lup>  (303) 
0.0

>  <mut>  (303) 
6.0

>  <maj>  (303) 
6.0

>  <min>  (303) 
0.0

>  <hyb>  (303) 
1.0

>  <sub>  (303) 
0.0

>  <query_index>  (303) 
307.0

>  <max_hit_Tanimoto>  (303) 
0.133333

>  <largest_ring>  (303) 
0

>  <N_interactions_kept>  (303) 
2.5

>  <N_interactions_lost>  (303) 
0.5

>  <interaction_uniqueness_metric>  (303) 
0.155753

>  <ad_hoc_penalty>  (303) 
-21.235234

>  <N_rotatable_bonds>  (303) 
7

>  <N_HA>  (303) 
20

>  <cluster>  (303) 
5979

>  <N_interactions>  (303) 
6

>  <Enamine>  (303) 
0

>  <Mcule>  (303) 
1

>  <N_PAINS>  (303) 
0

>  <UFF_Gibbs>  (303) 
170.838001

>  <strain_per_HA>  (303) 
8.5419

>  <saltbridge:HIS:51>  (303) 
0

>  <pistack:HIS:51>  (303) 
1

>  <hydroph_interaction:HIS:51>  (303) 
1

>  <hbond:ALA:132>  (303) 
0

>  <hbond:SER:135>  (303) 
0

>  <hydroph_interaction:TYR:150>  (303) 
0

>  <pistack:TYR:161>  (303) 
0

>  <hydroph_interaction:TYR:161>  (303) 
3

>  <hydroph_interaction:ASP:83>  (303) 
0

>  <hbond:TYR:130>  (303) 
0

>  <hydroph_interaction:ALA:132>  (303) 
0

>  <hbond:HIS:51>  (303) 
1

>  <hbond:ASP:129>  (303) 
0

>  <hbond:TYR:150>  (303) 
0

>  <hbond:GLY:151>  (303) 
0

>  <hbond:TYR:161>  (303) 
0

>  <hydroph_interaction:TYR:130>  (303) 
0

>  <hydroph_interaction:PRO:131>  (303) 
0

>  <hydroph_interaction:ASP:129>  (303) 
0

>  <saltbridge:ASP:75>  (303) 
0

>  <saltbridge:ASP:83>  (303) 
0

>  <hydroph_interaction:ASN:152>  (303) 
0

>  <halogenbond:TYR:150>  (303) 
0

>  <hbond:ASP:83>  (303) 
0

>  <hydroph_interaction:VAL:155>  (303) 
0

>  <pication:TYR:161>  (303) 
0

>  <hbond:PRO:131>  (303) 
0

>  <hbond:LEU:128>  (303) 
0

>  <saltbridge:ASP:129>  (303) 
0

>  <hbond:THR:134>  (303) 
0

>  <pication:HIS:51>  (303) 
0

>  <hbond:SER:81>  (303) 
0

>  <hbond:GLY:159>  (303) 
0

>  <hydroph_interaction:PRO:101>  (303) 
0

>  <hydroph_interaction:THR:134>  (303) 
0

>  <hbond:GLY:82>  (303) 
0

>  <hydroph_interaction:GLU:104>  (303) 
0

>  <hydroph_interaction:VAL:36>  (303) 
0

>  <hydroph_interaction:MET:49>  (303) 
0

>  <halogenbond:GLU:104>  (303) 
0

>  <hydroph_interaction:LYS:107>  (303) 
0

$$$$
MCULE-7949175450
     RDKit          3D

 38 40  0  0  0  0  0  0  0  0999 V2000
   -8.2640    5.6840  -15.2490 C   0  0  0  0  0  0  0  0  0  0  0  0
   -7.0130    5.7420  -14.6300 C   0  0  0  0  0  0  0  0  0  0  0  0
   -7.1280    6.1330  -13.3760 N   0  0  0  0  0  0  0  0  0  0  0  0
   -8.4740    6.3150  -13.2160 N   0  0  0  0  0  0  0  0  0  0  0  0
   -9.0680    6.7590  -11.9930 C   0  0  0  0  0  0  0  0  0  0  0  0
   -9.1770    6.0440  -14.3140 C   0  0  0  0  0  0  0  0  0  0  0  0
   -8.6000    5.3610  -16.5610 C   0  0  0  0  0  0  0  0  0  0  0  0
   -7.6660    5.6500  -17.5010 C   0  0  0  0  0  0  0  0  0  0  0  0
   -7.9160    5.4040  -18.8120 C   0  0  0  0  0  0  0  0  0  0  0  0
   -6.8880    5.7600  -19.6370 N   0  0  0  0  0  0  0  0  0  0  0  0
   -6.4380    4.9880  -20.6260 C   0  0  0  0  0  0  0  0  0  0  0  0
   -5.0400    5.2780  -20.9530 C   0  0  0  0  0  0  0  0  0  0  0  0
   -4.8000    5.5010  -22.2880 C   0  0  0  0  0  0  0  0  0  0  0  0
   -3.5070    5.7630  -22.6780 C   0  0  0  0  0  0  0  0  0  0  0  0
   -2.4730    5.8140  -21.8120 N   0  0  0  0  0  0  0  0  0  0  0  0
   -2.7440    5.5990  -20.5040 C   0  0  0  0  0  0  0  0  0  0  0  0
   -4.0110    5.3280  -19.9990 C   0  0  0  0  0  0  0  0  0  0  0  0
   -4.2060    5.1070  -18.5280 C   0  0  0  0  0  0  0  0  0  0  0  0
   -7.0410    4.1250  -21.2430 O   0  0  0  0  0  0  0  0  0  0  0  0
   -9.1240    4.8510  -19.2150 C   0  0  0  0  0  0  0  0  0  0  0  0
  -10.0790    4.5510  -18.2560 C   0  0  0  0  0  0  0  0  0  0  0  0
   -9.8110    4.8050  -16.9180 C   0  0  0  0  0  0  0  0  0  0  0  0
   -6.0340    5.5280  -15.0370 H   0  0  0  0  0  0  0  0  0  0  0  0
   -8.3140    7.2990  -11.4160 H   0  0  0  0  0  0  0  0  0  0  0  0
   -9.4180    5.8770  -11.4450 H   0  0  0  0  0  0  0  0  0  0  0  0
   -9.9120    7.4180  -12.2170 H   0  0  0  0  0  0  0  0  0  0  0  0
  -10.2540    6.1410  -14.3410 H   0  0  0  0  0  0  0  0  0  0  0  0
   -6.7180    6.0880  -17.2000 H   0  0  0  0  0  0  0  0  0  0  0  0
   -6.7210    6.7530  -19.7360 H   0  0  0  0  0  0  0  0  0  0  0  0
   -5.6090    5.4690  -23.0040 H   0  0  0  0  0  0  0  0  0  0  0  0
   -3.2580    5.9440  -23.7210 H   0  0  0  0  0  0  0  0  0  0  0  0
   -1.8730    5.6550  -19.8530 H   0  0  0  0  0  0  0  0  0  0  0  0
   -5.2180    4.7480  -18.3260 H   0  0  0  0  0  0  0  0  0  0  0  0
   -4.0350    6.0330  -17.9670 H   0  0  0  0  0  0  0  0  0  0  0  0
   -3.4950    4.3710  -18.1390 H   0  0  0  0  0  0  0  0  0  0  0  0
   -9.3490    4.6470  -20.2570 H   0  0  0  0  0  0  0  0  0  0  0  0
  -11.0290    4.1240  -18.5500 H   0  0  0  0  0  0  0  0  0  0  0  0
  -10.5490    4.5730  -16.1670 H   0  0  0  0  0  0  0  0  0  0  0  0
  1  2  1  0
  2  3  2  0
  3  4  1  0
  4  5  1  0
  4  6  1  0
  1  7  1  0
  7  8  2  0
  8  9  1  0
  9 10  1  0
 10 11  1  0
 11 12  1  0
 12 13  2  0
 13 14  1  0
 14 15  2  0
 15 16  1  0
 16 17  2  0
 17 18  1  0
 11 19  2  0
  9 20  2  0
 20 21  1  0
 21 22  2  0
  1  6  2  0
  7 22  1  0
 12 17  1  0
  2 23  1  0
  5 24  1  0
  5 25  1  0
  5 26  1  0
  6 27  1  0
  8 28  1  0
 10 29  1  0
 13 30  1  0
 14 31  1  0
 16 32  1  0
 18 33  1  0
 18 34  1  0
 18 35  1  0
 20 36  1  0
 21 37  1  0
 22 38  1  0
A    1
 C1 
A    2
 C2 
A    3
 N1 
A    4
 N2 
A    5
 C3 
A    6
 C4 
A    7
 C5 
A    8
 C6 
A    9
 C7 
A   10
 N3 
A   11
 C8 
A   12
 C9 
A   13
 C10
A   14
 C11
A   15
 N4 
A   16
 C12
A   17
 C13
A   18
 C14
A   19
 O1 
A   20
 C15
A   21
 C16
A   22
 C17
A   23
 H1 
A   24
 H2 
A   25
 H3 
A   26
 H4 
A   27
 H5 
A   28
 H6 
A   29
 H7 
A   30
 H8 
A   31
 H9 
A   32
 H10
A   33
 H11
A   34
 H12
A   35
 H13
A   36
 H14
A   37
 H15
A   38
 H16
M  END
>  <ref_pdb>  (304) 
x0051_0B

>  <ref_mols>  (304) 
x0852_0B,x0951_0B

>  <original SMILES>  (304) 
[H]c1nc([H])c(C([H])([H])[H])c(C(=O)N([H])c2c([H])c([H])c([H])c(-c3c([H])nn(C([H])([H])[H])c3[H])c2[H])c1[H]

>  <index>  (304) 
637

>  <∆∆G>  (304) 
-8.470355

>  <∆G_bound>  (304) 
-8.491969

>  <∆G_unbound>  (304) 
-0.021615

>  <comRMSD>  (304) 
0.909035

>  <N_constrained_atoms>  (304) 
23.0

>  <N_unconstrained_atoms>  (304) 
0.0

>  <runtime>  (304) 
64.02694

>  <LE>  (304) 
0.368276

>  <percent_hybrid>  (304) 
32.0

>  <dist>  (304) 
7.0

>  <ecfp4>  (304) 
0.3

>  <daylight>  (304) 
0.423963

>  <topodist>  (304) 
3.0

>  <mces>  (304) 
23.0

>  <tdn>  (304) 
1.0

>  <tup>  (304) 
0.0

>  <rdn>  (304) 
1.0

>  <rup>  (304) 
1.0

>  <ldn>  (304) 
0.0

>  <lup>  (304) 
0.0

>  <mut>  (304) 
2.0

>  <maj>  (304) 
2.0

>  <min>  (304) 
0.0

>  <hyb>  (304) 
2.0

>  <sub>  (304) 
3.0

>  <query_index>  (304) 
95.0

>  <max_hit_Tanimoto>  (304) 
0.385045

>  <largest_ring>  (304) 
6

>  <N_interactions_kept>  (304) 
2.0

>  <N_interactions_lost>  (304) 
4.0

>  <interaction_uniqueness_metric>  (304) 
0.15645

>  <ad_hoc_penalty>  (304) 
-21.209333

>  <N_rotatable_bonds>  (304) 
5

>  <N_HA>  (304) 
22

>  <cluster>  (304) 
5636

>  <N_interactions>  (304) 
9

>  <Enamine>  (304) 
0

>  <Mcule>  (304) 
1

>  <N_PAINS>  (304) 
0

>  <UFF_Gibbs>  (304) 
50.946842

>  <strain_per_HA>  (304) 
2.315766

>  <saltbridge:HIS:51>  (304) 
0

>  <pistack:HIS:51>  (304) 
0

>  <hydroph_interaction:HIS:51>  (304) 
0

>  <hbond:ALA:132>  (304) 
0

>  <hbond:SER:135>  (304) 
0

>  <hydroph_interaction:TYR:150>  (304) 
1

>  <pistack:TYR:161>  (304) 
0

>  <hydroph_interaction:TYR:161>  (304) 
4

>  <hydroph_interaction:ASP:83>  (304) 
0

>  <hbond:TYR:130>  (304) 
1

>  <hydroph_interaction:ALA:132>  (304) 
1

>  <hbond:HIS:51>  (304) 
0

>  <hbond:ASP:129>  (304) 
1

>  <hbond:TYR:150>  (304) 
0

>  <hbond:GLY:151>  (304) 
0

>  <hbond:TYR:161>  (304) 
0

>  <hydroph_interaction:TYR:130>  (304) 
0

>  <hydroph_interaction:PRO:131>  (304) 
0

>  <hydroph_interaction:ASP:129>  (304) 
1

>  <saltbridge:ASP:75>  (304) 
0

>  <saltbridge:ASP:83>  (304) 
0

>  <hydroph_interaction:ASN:152>  (304) 
0

>  <halogenbond:TYR:150>  (304) 
0

>  <hbond:ASP:83>  (304) 
0

>  <hydroph_interaction:VAL:155>  (304) 
0

>  <pication:TYR:161>  (304) 
0

>  <hbond:PRO:131>  (304) 
0

>  <hbond:LEU:128>  (304) 
0

>  <saltbridge:ASP:129>  (304) 
0

>  <hbond:THR:134>  (304) 
0

>  <pication:HIS:51>  (304) 
0

>  <hbond:SER:81>  (304) 
0

>  <hbond:GLY:159>  (304) 
0

>  <hydroph_interaction:PRO:101>  (304) 
0

>  <hydroph_interaction:THR:134>  (304) 
0

>  <hbond:GLY:82>  (304) 
0

>  <hydroph_interaction:GLU:104>  (304) 
0

>  <hydroph_interaction:VAL:36>  (304) 
0

>  <hydroph_interaction:MET:49>  (304) 
0

>  <halogenbond:GLU:104>  (304) 
0

>  <hydroph_interaction:LYS:107>  (304) 
0

$$$$
PV-002509022060
     RDKit          3D

 46 50  0  0  0  0  0  0  0  0999 V2000
   -4.3410    5.3840  -21.0340 O   0  0  0  0  0  0  0  0  0  0  0  0
   -5.2150    6.1850  -20.7130 C   0  0  0  0  0  0  0  0  0  0  0  0
   -5.4660    7.3020  -21.6900 C   0  0  0  0  0  0  0  0  0  0  0  0
   -5.9790    7.0210  -22.9600 C   0  0  0  0  0  0  0  0  0  0  0  0
   -6.2490    8.0700  -23.9530 C   0  0  0  0  0  0  0  0  0  0  0  0
   -5.9610    9.4640  -23.5790 C   0  0  0  0  0  0  0  0  0  0  0  0
   -6.2300   10.8660  -24.6490 S   0  0  0  0  0  0  0  0  0  0  0  0
   -6.0260   10.1820  -26.3320 C   0  0  0  0  0  0  0  0  0  0  0  0
   -7.1730    9.5620  -26.8400 C   0  0  0  0  0  0  0  0  0  0  0  0
   -7.2810    8.2990  -27.1890 N   0  0  0  0  0  0  0  0  0  0  0  0
   -8.5750    8.1470  -27.6100 C   0  0  0  0  0  0  0  0  0  0  0  0
   -9.2840    6.9010  -28.1180 C   0  0  0  0  0  0  0  0  0  0  0  0
  -10.7560    7.0190  -28.5120 C   0  0  0  0  0  0  0  0  0  0  0  0
  -11.5050    8.3530  -28.4030 C   0  0  0  0  0  0  0  0  0  0  0  0
  -10.6380    9.5330  -27.8740 C   0  0  0  0  0  0  0  0  0  0  0  0
   -9.2810    9.3430  -27.5280 C   0  0  0  0  0  0  0  0  0  0  0  0
   -8.3550   10.2270  -27.0390 N   0  0  0  0  0  0  0  0  0  0  0  0
   -5.4370    9.7010  -22.2860 C   0  0  0  0  0  0  0  0  0  0  0  0
   -5.1960    8.6490  -21.3660 C   0  0  0  0  0  0  0  0  0  0  0  0
   -5.9320    6.0600  -19.4820 N   0  0  0  0  0  0  0  0  0  0  0  0
   -5.0950    5.8430  -18.2710 C   0  0  0  0  0  0  0  0  0  0  0  0
   -5.7050    6.2320  -17.0570 C   0  0  0  0  0  0  0  0  0  0  0  0
   -7.0460    5.7200  -17.0200 N   0  0  0  0  0  0  0  0  0  0  0  0
   -7.7820    5.5360  -15.9100 N   0  0  0  0  0  0  0  0  0  0  0  0
   -8.9690    5.0450  -16.2990 N   0  0  0  0  0  0  0  0  0  0  0  0
   -8.9660    4.9220  -17.6680 C   0  0  0  0  0  0  0  0  0  0  0  0
   -7.7240    5.3640  -18.1120 C   0  0  0  0  0  0  0  0  0  0  0  0
   -7.2730    5.4310  -19.4330 C   0  0  0  0  0  0  0  0  0  0  0  0
   -6.1910    5.9910  -23.2270 H   0  0  0  0  0  0  0  0  0  0  0  0
   -6.6500    7.7810  -24.9200 H   0  0  0  0  0  0  0  0  0  0  0  0
   -5.1750    9.4950  -26.3430 H   0  0  0  0  0  0  0  0  0  0  0  0
   -5.7610   11.0170  -26.9910 H   0  0  0  0  0  0  0  0  0  0  0  0
   -8.7550    5.9590  -28.1930 H   0  0  0  0  0  0  0  0  0  0  0  0
  -11.2780    6.1350  -28.8730 H   0  0  0  0  0  0  0  0  0  0  0  0
  -12.5520    8.4680  -28.6740 H   0  0  0  0  0  0  0  0  0  0  0  0
  -11.0930   10.5130  -27.7680 H   0  0  0  0  0  0  0  0  0  0  0  0
   -8.5130   11.2060  -26.8490 H   0  0  0  0  0  0  0  0  0  0  0  0
   -5.2070   10.7170  -21.9730 H   0  0  0  0  0  0  0  0  0  0  0  0
   -4.7940    8.8900  -20.3840 H   0  0  0  0  0  0  0  0  0  0  0  0
   -4.8530    4.7730  -18.2480 H   0  0  0  0  0  0  0  0  0  0  0  0
   -4.1440    6.3790  -18.3650 H   0  0  0  0  0  0  0  0  0  0  0  0
   -5.1800    5.8020  -16.1960 H   0  0  0  0  0  0  0  0  0  0  0  0
   -5.7380    7.3210  -16.9620 H   0  0  0  0  0  0  0  0  0  0  0  0
   -9.8140    4.5470  -18.2210 H   0  0  0  0  0  0  0  0  0  0  0  0
   -7.9450    6.0790  -19.9820 H   0  0  0  0  0  0  0  0  0  0  0  0
   -7.2870    4.4480  -19.9050 H   0  0  0  0  0  0  0  0  0  0  0  0
  1  2  2  0
  2  3  1  0
  3  4  2  0
  4  5  1  0
  5  6  2  0
  6  7  1  0
  7  8  1  0
  8  9  1  0
  9 10  2  0
 10 11  1  0
 11 12  2  0
 12 13  1  0
 13 14  2  0
 14 15  1  0
 15 16  2  0
 16 17  1  0
  6 18  1  0
 18 19  2  0
  2 20  1  0
 20 21  1  0
 21 22  1  0
 22 23  1  0
 23 24  1  0
 24 25  2  0
 25 26  1  0
 26 27  2  0
 27 28  1  0
 19  3  1  0
 17  9  1  0
 16 11  1  0
 28 20  1  0
 27 23  1  0
  4 29  1  0
  5 30  1  0
  8 31  1  0
  8 32  1  0
 12 33  1  0
 13 34  1  0
 14 35  1  0
 15 36  1  0
 17 37  1  0
 18 38  1  0
 19 39  1  0
 21 40  1  0
 21 41  1  0
 22 42  1  0
 22 43  1  0
 26 44  1  0
 28 45  1  0
 28 46  1  0
A    1
 O1 
A    2
 C1 
A    3
 C2 
A    4
 C3 
A    5
 C4 
A    6
 C5 
A    7
 S1 
A    8
 C6 
A    9
 C7 
A   10
 N1 
A   11
 C8 
A   12
 C9 
A   13
 C10
A   14
 C11
A   15
 C12
A   16
 C13
A   17
 N2 
A   18
 C14
A   19
 C15
A   20
 N3 
A   21
 C16
A   22
 C17
A   23
 N4 
A   24
 N5 
A   25
 N6 
A   26
 C18
A   27
 C19
A   28
 C20
A   29
 H1 
A   30
 H2 
A   31
 H3 
A   32
 H4 
A   33
 H5 
A   34
 H6 
A   35
 H7 
A   36
 H8 
A   37
 H9 
A   38
 H10
A   39
 H11
A   40
 H12
A   41
 H13
A   42
 H14
A   43
 H15
A   44
 H16
A   45
 H17
A   46
 H18
M  END
>  <ref_pdb>  (305) 
x0051_0B

>  <ref_mols>  (305) 
x0846_1B,x0969_0B

>  <original SMILES>  (305) 
[H]c1nnn2c1C([H])([H])N(C(=O)c1c([H])c([H])c(SC([H])([H])c3nc4c([H])c([H])c([H])c([H])c4n3[H])c([H])c1[H])C([H])([H])C2([H])[H]

>  <index>  (305) 
590

>  <∆∆G>  (305) 
-7.611943

>  <∆G_bound>  (305) 
-7.050528

>  <∆G_unbound>  (305) 
0.561415

>  <comRMSD>  (305) 
0.718745

>  <N_constrained_atoms>  (305) 
28.0

>  <N_unconstrained_atoms>  (305) 
2.0

>  <runtime>  (305) 
40.29263

>  <LE>  (305) 
0.253731

>  <percent_hybrid>  (305) 
36.0

>  <dist>  (305) 
7.0

>  <ecfp4>  (305) 
0.242105

>  <daylight>  (305) 
0.361905

>  <topodist>  (305) 
3.0

>  <mces>  (305) 
31.0

>  <tdn>  (305) 
2.0

>  <tup>  (305) 
1.0

>  <rdn>  (305) 
0.0

>  <rup>  (305) 
0.0

>  <ldn>  (305) 
0.0

>  <lup>  (305) 
0.0

>  <mut>  (305) 
4.0

>  <maj>  (305) 
4.0

>  <min>  (305) 
0.0

>  <hyb>  (305) 
0.0

>  <sub>  (305) 
2.0

>  <query_index>  (305) 
45.0

>  <max_hit_Tanimoto>  (305) 
0.269455

>  <largest_ring>  (305) 
6

>  <N_interactions_kept>  (305) 
0.5

>  <N_interactions_lost>  (305) 
2.0

>  <interaction_uniqueness_metric>  (305) 
0.199509

>  <ad_hoc_penalty>  (305) 
-21.197445

>  <N_rotatable_bonds>  (305) 
4

>  <N_HA>  (305) 
28

>  <cluster>  (305) 
515

>  <N_interactions>  (305) 
5

>  <Enamine>  (305) 
1

>  <Mcule>  (305) 
0

>  <N_PAINS>  (305) 
0

>  <UFF_Gibbs>  (305) 
97.944725

>  <strain_per_HA>  (305) 
3.498026

>  <saltbridge:HIS:51>  (305) 
0

>  <pistack:HIS:51>  (305) 
0

>  <hydroph_interaction:HIS:51>  (305) 
0

>  <hbond:ALA:132>  (305) 
0

>  <hbond:SER:135>  (305) 
0

>  <hydroph_interaction:TYR:150>  (305) 
0

>  <pistack:TYR:161>  (305) 
1

>  <hydroph_interaction:TYR:161>  (305) 
0

>  <hydroph_interaction:ASP:83>  (305) 
0

>  <hbond:TYR:130>  (305) 
0

>  <hydroph_interaction:ALA:132>  (305) 
0

>  <hbond:HIS:51>  (305) 
0

>  <hbond:ASP:129>  (305) 
1

>  <hbond:TYR:150>  (305) 
0

>  <hbond:GLY:151>  (305) 
0

>  <hbond:TYR:161>  (305) 
1

>  <hydroph_interaction:TYR:130>  (305) 
1

>  <hydroph_interaction:PRO:131>  (305) 
1

>  <hydroph_interaction:ASP:129>  (305) 
0

>  <saltbridge:ASP:75>  (305) 
0

>  <saltbridge:ASP:83>  (305) 
0

>  <hydroph_interaction:ASN:152>  (305) 
0

>  <halogenbond:TYR:150>  (305) 
0

>  <hbond:ASP:83>  (305) 
0

>  <hydroph_interaction:VAL:155>  (305) 
0

>  <pication:TYR:161>  (305) 
0

>  <hbond:PRO:131>  (305) 
0

>  <hbond:LEU:128>  (305) 
0

>  <saltbridge:ASP:129>  (305) 
0

>  <hbond:THR:134>  (305) 
0

>  <pication:HIS:51>  (305) 
0

>  <hbond:SER:81>  (305) 
0

>  <hbond:GLY:159>  (305) 
0

>  <hydroph_interaction:PRO:101>  (305) 
0

>  <hydroph_interaction:THR:134>  (305) 
0

>  <hbond:GLY:82>  (305) 
0

>  <hydroph_interaction:GLU:104>  (305) 
0

>  <hydroph_interaction:VAL:36>  (305) 
0

>  <hydroph_interaction:MET:49>  (305) 
0

>  <halogenbond:GLU:104>  (305) 
0

>  <hydroph_interaction:LYS:107>  (305) 
0

$$$$
MCULE-1170735799
     RDKit          3D

 34 34  0  0  0  0  0  0  0  0999 V2000
   -5.8810    5.4610  -18.5730 N   0  0  0  0  0  0  0  0  0  0  0  0
   -4.9400    5.2460  -17.5500 C   0  0  0  0  0  0  0  0  0  0  0  0
   -5.5410    6.4450  -19.6090 C   0  0  0  0  0  0  0  0  0  0  0  0
   -4.8880    5.9840  -20.7580 C   0  0  0  0  0  0  0  0  0  0  0  0
   -3.6160    5.4280  -20.6140 C   0  0  0  0  0  0  0  0  0  0  0  0
   -5.7240    4.9810  -21.5760 C   0  0  0  0  0  0  0  0  0  0  0  0
   -4.7240    7.2050  -21.6730 C   0  0  0  0  0  0  0  0  0  0  0  0
   -7.2220    5.2730  -18.3030 C   0  0  0  0  0  0  0  0  0  0  0  0
   -8.0690    5.0960  -19.3920 C   0  0  0  0  0  0  0  0  0  0  0  0
   -9.4210    4.9040  -19.2680 C   0  0  0  0  0  0  0  0  0  0  0  0
  -10.0270    4.8800  -17.9070 C   0  0  0  0  0  0  0  0  0  0  0  0
   -9.1910    5.0610  -16.8110 C   0  0  0  0  0  0  0  0  0  0  0  0
   -9.7050    5.0550  -15.5210 N   0  0  0  0  0  0  0  0  0  0  0  0
   -7.8140    5.2510  -17.0230 C   0  0  0  0  0  0  0  0  0  0  0  0
   -5.3910    4.6980  -16.7180 H   0  0  0  0  0  0  0  0  0  0  0  0
   -4.5320    6.1930  -17.1900 H   0  0  0  0  0  0  0  0  0  0  0  0
   -4.0960    4.6440  -17.8910 H   0  0  0  0  0  0  0  0  0  0  0  0
   -6.4790    6.9170  -19.9370 H   0  0  0  0  0  0  0  0  0  0  0  0
   -4.9900    7.2920  -19.1870 H   0  0  0  0  0  0  0  0  0  0  0  0
   -2.8310    6.1800  -20.7590 H   0  0  0  0  0  0  0  0  0  0  0  0
   -3.4430    4.6320  -21.3490 H   0  0  0  0  0  0  0  0  0  0  0  0
   -3.4800    4.9990  -19.6150 H   0  0  0  0  0  0  0  0  0  0  0  0
   -6.4200    4.4150  -20.9510 H   0  0  0  0  0  0  0  0  0  0  0  0
   -5.0830    4.2700  -22.1030 H   0  0  0  0  0  0  0  0  0  0  0  0
   -6.3210    5.4960  -22.3370 H   0  0  0  0  0  0  0  0  0  0  0  0
   -4.1300    7.9890  -21.1890 H   0  0  0  0  0  0  0  0  0  0  0  0
   -4.2140    6.9410  -22.6070 H   0  0  0  0  0  0  0  0  0  0  0  0
   -5.7000    7.6360  -21.9270 H   0  0  0  0  0  0  0  0  0  0  0  0
   -7.6810    5.1050  -20.4030 H   0  0  0  0  0  0  0  0  0  0  0  0
  -10.0130    4.7810  -20.1540 H   0  0  0  0  0  0  0  0  0  0  0  0
  -11.0900    4.7280  -17.7930 H   0  0  0  0  0  0  0  0  0  0  0  0
   -9.1370    5.5670  -14.8550 H   0  0  0  0  0  0  0  0  0  0  0  0
   -9.8920    4.1060  -15.2110 H   0  0  0  0  0  0  0  0  0  0  0  0
   -7.2070    5.3820  -16.1360 H   0  0  0  0  0  0  0  0  0  0  0  0
  1  2  1  0
  1  3  1  0
  3  4  1  0
  4  5  1  0
  4  6  1  0
  4  7  1  0
  1  8  1  0
  8  9  2  0
  9 10  1  0
 10 11  2  0
 11 12  1  0
 12 13  1  0
 12 14  2  0
 14  8  1  0
  2 15  1  0
  2 16  1  0
  2 17  1  0
  3 18  1  0
  3 19  1  0
  5 20  1  0
  5 21  1  0
  5 22  1  0
  6 23  1  0
  6 24  1  0
  6 25  1  0
  7 26  1  0
  7 27  1  0
  7 28  1  0
  9 29  1  0
 10 30  1  0
 11 31  1  0
 13 32  1  0
 13 33  1  0
 14 34  1  0
A    1
 N1 
A    2
 C1 
A    3
 C2 
A    4
 C3 
A    5
 C4 
A    6
 C5 
A    7
 C6 
A    8
 C7 
A    9
 C8 
A   10
 C9 
A   11
 C10
A   12
 C11
A   13
 N2 
A   14
 C12
A   15
 H1 
A   16
 H2 
A   17
 H3 
A   18
 H4 
A   19
 H5 
A   20
 H6 
A   21
 H7 
A   22
 H8 
A   23
 H9 
A   24
 H10
A   25
 H11
A   26
 H12
A   27
 H13
A   28
 H14
A   29
 H15
A   30
 H16
A   31
 H17
A   32
 H18
A   33
 H19
A   34
 H20
M  END
>  <ref_pdb>  (306) 
x0051_0B

>  <ref_mols>  (306) 
x0101_0B,x0490_0B

>  <original SMILES>  (306) 
[H]c1c([H])c(N([H])[H])c([H])c(N(C([H])([H])[H])C([H])([H])C(C([H])([H])[H])(C([H])([H])[H])C([H])([H])[H])c1[H]

>  <index>  (306) 
135

>  <∆∆G>  (306) 
-8.213341

>  <∆G_bound>  (306) 
-9.101706

>  <∆G_unbound>  (306) 
-0.888365

>  <comRMSD>  (306) 
0.753216

>  <N_constrained_atoms>  (306) 
19.0

>  <N_unconstrained_atoms>  (306) 
1.0

>  <runtime>  (306) 
51.498739

>  <LE>  (306) 
0.410667

>  <percent_hybrid>  (306) 
34.0

>  <dist>  (306) 
4.0

>  <ecfp4>  (306) 
0.232143

>  <daylight>  (306) 
0.392857

>  <topodist>  (306) 
3.0

>  <mces>  (306) 
14.0

>  <tdn>  (306) 
2.0

>  <tup>  (306) 
0.0

>  <rdn>  (306) 
0.0

>  <rup>  (306) 
0.0

>  <ldn>  (306) 
1.0

>  <lup>  (306) 
0.0

>  <mut>  (306) 
1.0

>  <maj>  (306) 
1.0

>  <min>  (306) 
0.0

>  <hyb>  (306) 
0.0

>  <sub>  (306) 
2.0

>  <query_index>  (306) 
245.0

>  <max_hit_Tanimoto>  (306) 
0.097308

>  <largest_ring>  (306) 
0

>  <N_interactions_kept>  (306) 
3.0

>  <N_interactions_lost>  (306) 
1.5

>  <interaction_uniqueness_metric>  (306) 
0.133268

>  <ad_hoc_penalty>  (306) 
-21.080225

>  <N_rotatable_bonds>  (306) 
4

>  <N_HA>  (306) 
14

>  <cluster>  (306) 
6094

>  <N_interactions>  (306) 
6

>  <Enamine>  (306) 
0

>  <Mcule>  (306) 
1

>  <N_PAINS>  (306) 
0

>  <UFF_Gibbs>  (306) 
176.714634

>  <strain_per_HA>  (306) 
12.622474

>  <saltbridge:HIS:51>  (306) 
0

>  <pistack:HIS:51>  (306) 
0

>  <hydroph_interaction:HIS:51>  (306) 
0

>  <hbond:ALA:132>  (306) 
0

>  <hbond:SER:135>  (306) 
2

>  <hydroph_interaction:TYR:150>  (306) 
1

>  <pistack:TYR:161>  (306) 
0

>  <hydroph_interaction:TYR:161>  (306) 
2

>  <hydroph_interaction:ASP:83>  (306) 
0

>  <hbond:TYR:130>  (306) 
0

>  <hydroph_interaction:ALA:132>  (306) 
0

>  <hbond:HIS:51>  (306) 
0

>  <hbond:ASP:129>  (306) 
0

>  <hbond:TYR:150>  (306) 
0

>  <hbond:GLY:151>  (306) 
0

>  <hbond:TYR:161>  (306) 
0

>  <hydroph_interaction:TYR:130>  (306) 
0

>  <hydroph_interaction:PRO:131>  (306) 
0

>  <hydroph_interaction:ASP:129>  (306) 
1

>  <saltbridge:ASP:75>  (306) 
0

>  <saltbridge:ASP:83>  (306) 
0

>  <hydroph_interaction:ASN:152>  (306) 
0

>  <halogenbond:TYR:150>  (306) 
0

>  <hbond:ASP:83>  (306) 
0

>  <hydroph_interaction:VAL:155>  (306) 
0

>  <pication:TYR:161>  (306) 
0

>  <hbond:PRO:131>  (306) 
0

>  <hbond:LEU:128>  (306) 
0

>  <saltbridge:ASP:129>  (306) 
0

>  <hbond:THR:134>  (306) 
0

>  <pication:HIS:51>  (306) 
0

>  <hbond:SER:81>  (306) 
0

>  <hbond:GLY:159>  (306) 
0

>  <hydroph_interaction:PRO:101>  (306) 
0

>  <hydroph_interaction:THR:134>  (306) 
0

>  <hbond:GLY:82>  (306) 
0

>  <hydroph_interaction:GLU:104>  (306) 
0

>  <hydroph_interaction:VAL:36>  (306) 
0

>  <hydroph_interaction:MET:49>  (306) 
0

>  <halogenbond:GLU:104>  (306) 
0

>  <hydroph_interaction:LYS:107>  (306) 
0

$$$$
Z4489435526
     RDKit          3D

 41 44  0  0  0  0  0  0  0  0999 V2000
   -6.5890    5.1040  -20.3590 C   0  0  0  0  0  0  0  0  0  0  0  0
   -6.4950    5.2540  -18.9810 C   0  0  0  0  0  0  0  0  0  0  0  0
   -5.4060    5.5210  -18.2930 N   0  0  0  0  0  0  0  0  0  0  0  0
   -5.7230    5.5940  -16.9860 N   0  0  0  0  0  0  0  0  0  0  0  0
   -7.0160    5.3750  -16.8400 C   0  0  0  0  0  0  0  0  0  0  0  0
   -7.8600    5.3510  -15.7010 C   0  0  0  0  0  0  0  0  0  0  0  0
   -7.3520    5.6410  -14.3890 C   0  0  0  0  0  0  0  0  0  0  0  0
   -6.5270    6.5460  -14.2770 O   0  0  0  0  0  0  0  0  0  0  0  0
   -7.7640    4.9320  -13.2490 N   0  0  0  0  0  0  0  0  0  0  0  0
   -9.0040    5.2100  -12.5190 C   0  0  0  0  0  0  0  0  0  0  0  0
   -8.9050    5.4810  -10.9790 C   0  0  0  0  0  0  0  0  0  0  0  0
   -8.9590    4.4090   -9.9190 C   0  0  0  0  0  0  0  0  0  0  0  0
   -9.0940    2.9500  -10.3290 C   0  0  0  0  0  0  0  0  0  0  0  0
   -9.4990    2.2900   -9.0070 C   0  0  0  0  0  0  0  0  0  0  0  0
   -9.4270    2.9160   -7.6810 C   0  0  0  0  0  0  0  0  0  0  0  0
   -8.9230    4.3240   -7.4310 C   0  0  0  0  0  0  0  0  0  0  0  0
   -8.8780    5.0150   -8.7050 N   0  0  0  0  0  0  0  0  0  0  0  0
   -8.7590    6.3610   -8.8180 N   0  0  0  0  0  0  0  0  0  0  0  0
   -8.7750    6.6410  -10.1580 C   0  0  0  0  0  0  0  0  0  0  0  0
   -9.1680    5.0790  -15.9170 C   0  0  0  0  0  0  0  0  0  0  0  0
   -9.7170    4.8120  -17.3200 C   0  0  0  0  0  0  0  0  0  0  0  0
   -8.8950    4.8580  -18.3670 C   0  0  0  0  0  0  0  0  0  0  0  0
   -7.5580    5.1400  -18.1170 N   0  0  0  0  0  0  0  0  0  0  0  0
   -6.5830    5.9880  -20.9810 H   0  0  0  0  0  0  0  0  0  0  0  0
   -5.7350    4.5110  -20.6950 H   0  0  0  0  0  0  0  0  0  0  0  0
   -7.5170    4.5730  -20.6000 H   0  0  0  0  0  0  0  0  0  0  0  0
   -7.2450    4.0980  -12.9810 H   0  0  0  0  0  0  0  0  0  0  0  0
   -9.6410    4.3270  -12.6600 H   0  0  0  0  0  0  0  0  0  0  0  0
   -9.5170    6.0410  -13.0120 H   0  0  0  0  0  0  0  0  0  0  0  0
   -8.2670    2.4790  -10.8530 H   0  0  0  0  0  0  0  0  0  0  0  0
   -9.9390    2.8560  -11.0140 H   0  0  0  0  0  0  0  0  0  0  0  0
   -8.8270    1.4330   -8.9180 H   0  0  0  0  0  0  0  0  0  0  0  0
  -10.4410    1.8230   -9.1540 H   0  0  0  0  0  0  0  0  0  0  0  0
   -8.8280    2.2540   -7.0490 H   0  0  0  0  0  0  0  0  0  0  0  0
  -10.4330    2.8620   -7.2510 H   0  0  0  0  0  0  0  0  0  0  0  0
   -7.9250    4.3260   -6.9810 H   0  0  0  0  0  0  0  0  0  0  0  0
   -9.5970    4.8840   -6.7700 H   0  0  0  0  0  0  0  0  0  0  0  0
   -8.6960    7.6840  -10.4780 H   0  0  0  0  0  0  0  0  0  0  0  0
   -9.9390    5.0360  -15.1350 H   0  0  0  0  0  0  0  0  0  0  0  0
  -10.7830    4.6020  -17.3630 H   0  0  0  0  0  0  0  0  0  0  0  0
   -9.2140    4.6850  -19.3900 H   0  0  0  0  0  0  0  0  0  0  0  0
  1  2  1  0
  2  3  2  0
  3  4  1  0
  4  5  2  0
  5  6  1  0
  6  7  1  0
  7  8  2  0
  7  9  1  0
  9 10  1  0
 10 11  1  0
 11 12  2  0
 12 13  1  0
 13 14  1  0
 14 15  1  0
 15 16  1  0
 16 17  1  0
 17 18  1  0
 18 19  2  0
  6 20  2  0
 20 21  1  0
 21 22  2  0
 22 23  1  0
 23  2  1  0
 23  5  1  0
 19 11  1  0
 17 12  1  0
  1 24  1  0
  1 25  1  0
  1 26  1  0
  9 27  1  0
 10 28  1  0
 10 29  1  0
 13 30  1  0
 13 31  1  0
 14 32  1  0
 14 33  1  0
 15 34  1  0
 15 35  1  0
 16 36  1  0
 16 37  1  0
 19 38  1  0
 20 39  1  0
 21 40  1  0
 22 41  1  0
A    1
 C1 
A    2
 C2 
A    3
 N1 
A    4
 N2 
A    5
 C3 
A    6
 C4 
A    7
 C5 
A    8
 O1 
A    9
 N3 
A   10
 C6 
A   11
 C7 
A   12
 C8 
A   13
 C9 
A   14
 C10
A   15
 C11
A   16
 C12
A   17
 N4 
A   18
 N5 
A   19
 C13
A   20
 C14
A   21
 C15
A   22
 C16
A   23
 N6 
A   24
 H1 
A   25
 H2 
A   26
 H3 
A   27
 H4 
A   28
 H5 
A   29
 H6 
A   30
 H7 
A   31
 H8 
A   32
 H9 
A   33
 H10
A   34
 H11
A   35
 H12
A   36
 H13
A   37
 H14
A   38
 H15
A   39
 H16
A   40
 H17
A   41
 H18
M  END
>  <ref_pdb>  (307) 
x0051_0B

>  <ref_mols>  (307) 
x0435_0B,x0969_1B

>  <original SMILES>  (307) 
[H]c1nn2c(c1C([H])([H])N([H])C(=O)c1c([H])c([H])c([H])n3c(C([H])([H])[H])nnc13)C([H])([H])C([H])([H])C([H])([H])C2([H])[H]

>  <index>  (307) 
471

>  <∆∆G>  (307) 
-5.884573

>  <∆G_bound>  (307) 
-4.447278

>  <∆G_unbound>  (307) 
1.437295

>  <comRMSD>  (307) 
0.472691

>  <N_constrained_atoms>  (307) 
20.0

>  <N_unconstrained_atoms>  (307) 
3.0

>  <runtime>  (307) 
41.046507

>  <LE>  (307) 
0.255851

>  <percent_hybrid>  (307) 
50.0

>  <dist>  (307) 
5.0

>  <ecfp4>  (307) 
0.337662

>  <daylight>  (307) 
0.350877

>  <topodist>  (307) 
1.0

>  <mces>  (307) 
25.0

>  <tdn>  (307) 
0.0

>  <tup>  (307) 
1.0

>  <rdn>  (307) 
0.0

>  <rup>  (307) 
0.0

>  <ldn>  (307) 
0.0

>  <lup>  (307) 
0.0

>  <mut>  (307) 
4.0

>  <maj>  (307) 
4.0

>  <min>  (307) 
0.0

>  <hyb>  (307) 
0.0

>  <sub>  (307) 
0.0

>  <query_index>  (307) 
311.0

>  <max_hit_Tanimoto>  (307) 
0.293233

>  <largest_ring>  (307) 
0

>  <N_interactions_kept>  (307) 
2.5

>  <N_interactions_lost>  (307) 
1.0

>  <interaction_uniqueness_metric>  (307) 
0.098528

>  <ad_hoc_penalty>  (307) 
-21.076637

>  <N_rotatable_bonds>  (307) 
4

>  <N_HA>  (307) 
23

>  <cluster>  (307) 
5790

>  <N_interactions>  (307) 
5

>  <Enamine>  (307) 
1

>  <Mcule>  (307) 
0

>  <N_PAINS>  (307) 
0

>  <UFF_Gibbs>  (307) 
99.840333

>  <strain_per_HA>  (307) 
4.340884

>  <saltbridge:HIS:51>  (307) 
0

>  <pistack:HIS:51>  (307) 
1

>  <hydroph_interaction:HIS:51>  (307) 
0

>  <hbond:ALA:132>  (307) 
0

>  <hbond:SER:135>  (307) 
0

>  <hydroph_interaction:TYR:150>  (307) 
0

>  <pistack:TYR:161>  (307) 
2

>  <hydroph_interaction:TYR:161>  (307) 
1

>  <hydroph_interaction:ASP:83>  (307) 
0

>  <hbond:TYR:130>  (307) 
0

>  <hydroph_interaction:ALA:132>  (307) 
0

>  <hbond:HIS:51>  (307) 
0

>  <hbond:ASP:129>  (307) 
0

>  <hbond:TYR:150>  (307) 
0

>  <hbond:GLY:151>  (307) 
0

>  <hbond:TYR:161>  (307) 
1

>  <hydroph_interaction:TYR:130>  (307) 
0

>  <hydroph_interaction:PRO:131>  (307) 
0

>  <hydroph_interaction:ASP:129>  (307) 
0

>  <saltbridge:ASP:75>  (307) 
0

>  <saltbridge:ASP:83>  (307) 
0

>  <hydroph_interaction:ASN:152>  (307) 
0

>  <halogenbond:TYR:150>  (307) 
0

>  <hbond:ASP:83>  (307) 
0

>  <hydroph_interaction:VAL:155>  (307) 
0

>  <pication:TYR:161>  (307) 
0

>  <hbond:PRO:131>  (307) 
0

>  <hbond:LEU:128>  (307) 
0

>  <saltbridge:ASP:129>  (307) 
0

>  <hbond:THR:134>  (307) 
0

>  <pication:HIS:51>  (307) 
0

>  <hbond:SER:81>  (307) 
0

>  <hbond:GLY:159>  (307) 
0

>  <hydroph_interaction:PRO:101>  (307) 
0

>  <hydroph_interaction:THR:134>  (307) 
0

>  <hbond:GLY:82>  (307) 
0

>  <hydroph_interaction:GLU:104>  (307) 
0

>  <hydroph_interaction:VAL:36>  (307) 
0

>  <hydroph_interaction:MET:49>  (307) 
0

>  <halogenbond:GLU:104>  (307) 
0

>  <hydroph_interaction:LYS:107>  (307) 
0

$$$$
IWGCXBFYKUKGSK-UHFFFAOYSA-N
     RDKit          3D

 46 50  0  0  0  0  0  0  0  0999 V2000
   -6.2690   10.1160  -24.4780 C   0  0  0  0  0  0  0  0  0  0  0  0
   -5.9530    9.7170  -25.7790 N   0  0  0  0  0  0  0  0  0  0  0  0
   -7.1830    9.3210  -26.5180 C   0  0  0  0  0  0  0  0  0  0  0  0
   -7.3980    8.0520  -26.9380 N   0  0  0  0  0  0  0  0  0  0  0  0
   -8.6840    7.9820  -27.5710 C   0  0  0  0  0  0  0  0  0  0  0  0
   -9.2150    9.2380  -27.5300 C   0  0  0  0  0  0  0  0  0  0  0  0
  -10.4470    9.5960  -28.0200 C   0  0  0  0  0  0  0  0  0  0  0  0
  -11.2020    8.4610  -28.6260 C   0  0  0  0  0  0  0  0  0  0  0  0
  -10.7330    7.1340  -28.7190 C   0  0  0  0  0  0  0  0  0  0  0  0
   -9.4270    6.9370  -28.1630 C   0  0  0  0  0  0  0  0  0  0  0  0
   -8.2550   10.1310  -26.8650 N   0  0  0  0  0  0  0  0  0  0  0  0
   -6.8660   11.1540  -24.2110 O   0  0  0  0  0  0  0  0  0  0  0  0
   -5.8590    9.2270  -23.3190 C   0  0  0  0  0  0  0  0  0  0  0  0
   -6.0520    7.8210  -23.4030 C   0  0  0  0  0  0  0  0  0  0  0  0
   -5.6410    6.9160  -22.2100 C   0  0  0  0  0  0  0  0  0  0  0  0
   -5.0320    7.6480  -20.9830 C   0  0  0  0  0  0  0  0  0  0  0  0
   -4.5760    6.8020  -19.7250 C   0  0  0  0  0  0  0  0  0  0  0  0
   -5.5780    5.9890  -19.0110 N   0  0  0  0  0  0  0  0  0  0  0  0
   -5.6990    5.7690  -17.6400 C   0  0  0  0  0  0  0  0  0  0  0  0
   -4.9180    5.8250  -16.7030 O   0  0  0  0  0  0  0  0  0  0  0  0
   -7.1690    5.4050  -17.5600 C   0  0  0  0  0  0  0  0  0  0  0  0
   -7.6930    5.1270  -18.7670 C   0  0  0  0  0  0  0  0  0  0  0  0
   -9.0340    4.7830  -18.9210 C   0  0  0  0  0  0  0  0  0  0  0  0
   -9.8950    4.7130  -17.8120 C   0  0  0  0  0  0  0  0  0  0  0  0
   -9.3710    4.9940  -16.5150 C   0  0  0  0  0  0  0  0  0  0  0  0
   -7.8870    5.3690  -16.3930 C   0  0  0  0  0  0  0  0  0  0  0  0
   -6.5590    5.2830  -19.6800 C   0  0  0  0  0  0  0  0  0  0  0  0
   -6.5450    4.8390  -20.7930 O   0  0  0  0  0  0  0  0  0  0  0  0
   -4.8990    9.0450  -21.0400 C   0  0  0  0  0  0  0  0  0  0  0  0
   -5.2960    9.8050  -22.1610 C   0  0  0  0  0  0  0  0  0  0  0  0
   -5.0970    9.2470  -26.0390 H   0  0  0  0  0  0  0  0  0  0  0  0
  -10.8470   10.6040  -27.9720 H   0  0  0  0  0  0  0  0  0  0  0  0
  -12.2070    8.5670  -29.0610 H   0  0  0  0  0  0  0  0  0  0  0  0
  -11.3060    6.3260  -29.1690 H   0  0  0  0  0  0  0  0  0  0  0  0
   -8.9840    5.9480  -28.1860 H   0  0  0  0  0  0  0  0  0  0  0  0
   -8.3650   11.1160  -26.6850 H   0  0  0  0  0  0  0  0  0  0  0  0
   -6.4880    7.3940  -24.3020 H   0  0  0  0  0  0  0  0  0  0  0  0
   -5.7760    5.8370  -22.2460 H   0  0  0  0  0  0  0  0  0  0  0  0
   -4.1180    7.4850  -19.0000 H   0  0  0  0  0  0  0  0  0  0  0  0
   -3.7760    6.1230  -20.0500 H   0  0  0  0  0  0  0  0  0  0  0  0
   -9.4140    4.5680  -19.9150 H   0  0  0  0  0  0  0  0  0  0  0  0
  -10.9410    4.4490  -17.9410 H   0  0  0  0  0  0  0  0  0  0  0  0
  -10.0090    4.9450  -15.6340 H   0  0  0  0  0  0  0  0  0  0  0  0
   -7.4290    5.5970  -15.4360 H   0  0  0  0  0  0  0  0  0  0  0  0
   -4.4720    9.5690  -20.1850 H   0  0  0  0  0  0  0  0  0  0  0  0
   -5.1550   10.8800  -22.1100 H   0  0  0  0  0  0  0  0  0  0  0  0
  1  2  1  0
  2  3  1  0
  3  4  2  0
  4  5  1  0
  5  6  2  0
  6  7  1  0
  7  8  2  0
  8  9  1  0
  9 10  2  0
  6 11  1  0
  1 12  2  0
  1 13  1  0
 13 14  2  0
 14 15  1  0
 15 16  2  0
 16 17  1  0
 17 18  1  0
 18 19  1  0
 19 20  2  0
 19 21  1  0
 21 22  2  0
 22 23  1  0
 23 24  2  0
 24 25  1  0
 25 26  2  0
 22 27  1  0
 27 28  2  0
 16 29  1  0
 29 30  2  0
 11  3  1  0
 10  5  1  0
 30 13  1  0
 27 18  1  0
 26 21  1  0
  2 31  1  0
  7 32  1  0
  8 33  1  0
  9 34  1  0
 10 35  1  0
 11 36  1  0
 14 37  1  0
 15 38  1  0
 17 39  1  0
 17 40  1  0
 23 41  1  0
 24 42  1  0
 25 43  1  0
 26 44  1  0
 29 45  1  0
 30 46  1  0
A    1
 C1 
A    2
 N1 
A    3
 C2 
A    4
 N2 
A    5
 C3 
A    6
 C4 
A    7
 C5 
A    8
 C6 
A    9
 C7 
A   10
 C8 
A   11
 N3 
A   12
 O1 
A   13
 C9 
A   14
 C10
A   15
 C11
A   16
 C12
A   17
 C13
A   18
 N4 
A   19
 C14
A   20
 O2 
A   21
 C15
A   22
 C16
A   23
 C17
A   24
 C18
A   25
 C19
A   26
 C20
A   27
 C21
A   28
 O3 
A   29
 C22
A   30
 C23
A   31
 H1 
A   32
 H2 
A   33
 H3 
A   34
 H4 
A   35
 H5 
A   36
 H6 
A   37
 H7 
A   38
 H8 
A   39
 H9 
A   40
 H10
A   41
 H11
A   42
 H12
A   43
 H13
A   44
 H14
A   45
 H15
A   46
 H16
M  END
>  <ref_pdb>  (308) 
x0051_0B

>  <ref_mols>  (308) 
x0727_0B,x0846_1B

>  <original SMILES>  (308) 
[H]c1c([H])c([H])c2c(c1[H])C(=O)N(C([H])([H])c1c([H])c([H])c(C(=O)N([H])c3nc4c([H])c([H])c([H])c([H])c4n3[H])c([H])c1[H])C2=O

>  <index>  (308) 
459

>  <∆∆G>  (308) 
-9.911236

>  <∆G_bound>  (308) 
-9.138984

>  <∆G_unbound>  (308) 
0.772252

>  <comRMSD>  (308) 
0.590801

>  <N_constrained_atoms>  (308) 
29.0

>  <N_unconstrained_atoms>  (308) 
2.0

>  <runtime>  (308) 
48.536735

>  <LE>  (308) 
0.319717

>  <percent_hybrid>  (308) 
38.0

>  <dist>  (308) 
9.0

>  <ecfp4>  (308) 
0.268293

>  <daylight>  (308) 
0.368421

>  <topodist>  (308) 
6.0

>  <mces>  (308) 
32.0

>  <tdn>  (308) 
2.0

>  <tup>  (308) 
2.0

>  <rdn>  (308) 
0.0

>  <rup>  (308) 
0.0

>  <ldn>  (308) 
2.0

>  <lup>  (308) 
0.0

>  <mut>  (308) 
2.0

>  <maj>  (308) 
2.0

>  <min>  (308) 
0.0

>  <hyb>  (308) 
1.0

>  <sub>  (308) 
2.0

>  <query_index>  (308) 
15.0

>  <max_hit_Tanimoto>  (308) 
0.472803

>  <largest_ring>  (308) 
0

>  <N_interactions_kept>  (308) 
0.5

>  <N_interactions_lost>  (308) 
2.5

>  <interaction_uniqueness_metric>  (308) 
0.1581

>  <ad_hoc_penalty>  (308) 
-21.038949

>  <N_rotatable_bonds>  (308) 
4

>  <N_HA>  (308) 
30

>  <cluster>  (308) 
5801

>  <N_interactions>  (308) 
5

>  <Enamine>  (308) 
0

>  <Mcule>  (308) 
1

>  <N_PAINS>  (308) 
0

>  <UFF_Gibbs>  (308) 
153.887031

>  <strain_per_HA>  (308) 
5.129568

>  <saltbridge:HIS:51>  (308) 
0

>  <pistack:HIS:51>  (308) 
0

>  <hydroph_interaction:HIS:51>  (308) 
0

>  <hbond:ALA:132>  (308) 
0

>  <hbond:SER:135>  (308) 
0

>  <hydroph_interaction:TYR:150>  (308) 
1

>  <pistack:TYR:161>  (308) 
1

>  <hydroph_interaction:TYR:161>  (308) 
0

>  <hydroph_interaction:ASP:83>  (308) 
0

>  <hbond:TYR:130>  (308) 
1

>  <hydroph_interaction:ALA:132>  (308) 
0

>  <hbond:HIS:51>  (308) 
0

>  <hbond:ASP:129>  (308) 
0

>  <hbond:TYR:150>  (308) 
0

>  <hbond:GLY:151>  (308) 
0

>  <hbond:TYR:161>  (308) 
0

>  <hydroph_interaction:TYR:130>  (308) 
1

>  <hydroph_interaction:PRO:131>  (308) 
1

>  <hydroph_interaction:ASP:129>  (308) 
0

>  <saltbridge:ASP:75>  (308) 
0

>  <saltbridge:ASP:83>  (308) 
0

>  <hydroph_interaction:ASN:152>  (308) 
0

>  <halogenbond:TYR:150>  (308) 
0

>  <hbond:ASP:83>  (308) 
0

>  <hydroph_interaction:VAL:155>  (308) 
0

>  <pication:TYR:161>  (308) 
0

>  <hbond:PRO:131>  (308) 
0

>  <hbond:LEU:128>  (308) 
0

>  <saltbridge:ASP:129>  (308) 
0

>  <hbond:THR:134>  (308) 
0

>  <pication:HIS:51>  (308) 
0

>  <hbond:SER:81>  (308) 
0

>  <hbond:GLY:159>  (308) 
0

>  <hydroph_interaction:PRO:101>  (308) 
0

>  <hydroph_interaction:THR:134>  (308) 
0

>  <hbond:GLY:82>  (308) 
0

>  <hydroph_interaction:GLU:104>  (308) 
0

>  <hydroph_interaction:VAL:36>  (308) 
0

>  <hydroph_interaction:MET:49>  (308) 
0

>  <halogenbond:GLU:104>  (308) 
0

>  <hydroph_interaction:LYS:107>  (308) 
0

$$$$
Z3242205644
     RDKit          3D

 34 36  0  0  0  0  0  0  0  0999 V2000
   -7.8080    5.2450  -15.1410 C   0  0  0  0  0  0  0  0  0  0  0  0
   -8.2190    5.1260  -16.6090 C   0  0  0  0  0  0  0  0  0  0  0  0
   -9.5670    4.8770  -16.8400 C   0  0  0  0  0  0  0  0  0  0  0  0
  -10.0740    4.7420  -18.1130 C   0  0  0  0  0  0  0  0  0  0  0  0
   -9.1080    4.8700  -19.2800 C   0  0  0  0  0  0  0  0  0  0  0  0
   -7.7810    5.1180  -19.0290 C   0  0  0  0  0  0  0  0  0  0  0  0
   -6.8420    5.2370  -20.1990 C   0  0  0  0  0  0  0  0  0  0  0  0
   -5.5000    5.4920  -19.9480 C   0  0  0  0  0  0  0  0  0  0  0  0
   -5.0500    5.6200  -18.7000 N   0  0  0  0  0  0  0  0  0  0  0  0
   -5.8830    5.5040  -17.6270 C   0  0  0  0  0  0  0  0  0  0  0  0
   -5.1750    5.6500  -16.3870 N   0  0  0  0  0  0  0  0  0  0  0  0
   -5.2890    7.0030  -15.8200 C   0  0  0  0  0  0  0  0  0  0  0  0
   -4.2540    7.2170  -14.6990 C   0  0  0  0  0  0  0  0  0  0  0  0
   -3.9330    6.0240  -13.8740 N   0  0  0  0  0  0  0  0  0  0  0  0
   -3.6950    4.8520  -14.7410 C   0  0  0  0  0  0  0  0  0  0  0  0
   -3.8120    5.1590  -16.2220 C   0  0  0  0  0  0  0  0  0  0  0  0
   -7.2670    5.2580  -17.7010 C   0  0  0  0  0  0  0  0  0  0  0  0
   -7.8590    6.2870  -14.8120 H   0  0  0  0  0  0  0  0  0  0  0  0
   -8.4380    4.6200  -14.5020 H   0  0  0  0  0  0  0  0  0  0  0  0
   -6.7740    4.9130  -15.0060 H   0  0  0  0  0  0  0  0  0  0  0  0
  -10.2490    4.7850  -15.9980 H   0  0  0  0  0  0  0  0  0  0  0  0
  -11.1300    4.5500  -18.2810 H   0  0  0  0  0  0  0  0  0  0  0  0
   -9.4610    4.7680  -20.3020 H   0  0  0  0  0  0  0  0  0  0  0  0
   -7.1910    5.1240  -21.2150 H   0  0  0  0  0  0  0  0  0  0  0  0
   -4.7760    5.5920  -20.7630 H   0  0  0  0  0  0  0  0  0  0  0  0
   -5.1950    7.7840  -16.5850 H   0  0  0  0  0  0  0  0  0  0  0  0
   -6.2970    7.1030  -15.3960 H   0  0  0  0  0  0  0  0  0  0  0  0
   -4.6290    8.0030  -14.0360 H   0  0  0  0  0  0  0  0  0  0  0  0
   -3.3140    7.5540  -15.1530 H   0  0  0  0  0  0  0  0  0  0  0  0
   -4.8180    5.8100  -13.3880 H   0  0  0  0  0  0  0  0  0  0  0  0
   -4.4250    4.0770  -14.4860 H   0  0  0  0  0  0  0  0  0  0  0  0
   -2.7080    4.4390  -14.5030 H   0  0  0  0  0  0  0  0  0  0  0  0
   -3.0930    5.9540  -16.4590 H   0  0  0  0  0  0  0  0  0  0  0  0
   -3.6190    4.3600  -16.9320 H   0  0  0  0  0  0  0  0  0  0  0  0
  1  2  1  0
  2  3  2  0
  3  4  1  0
  4  5  2  0
  5  6  1  0
  6  7  2  0
  7  8  1  0
  8  9  2  0
  9 10  1  0
 10 11  1  0
 11 12  1  0
 12 13  1  0
 13 14  1  0
 14 15  1  0
 15 16  1  0
 10 17  2  0
 17  2  1  0
 17  6  1  0
 16 11  1  0
  1 18  1  0
  1 19  1  0
  1 20  1  0
  3 21  1  0
  4 22  1  0
  5 23  1  0
  7 24  1  0
  8 25  1  0
 12 26  1  0
 12 27  1  0
 13 28  1  0
 13 29  1  0
 14 30  1  0
 15 31  1  0
 15 32  1  0
 16 33  1  0
 16 34  1  0
A    1
 C1 
A    2
 C2 
A    3
 C3 
A    4
 C4 
A    5
 C5 
A    6
 C6 
A    7
 C7 
A    8
 C8 
A    9
 N1 
A   10
 C9 
A   11
 N2 
A   12
 C10
A   13
 C11
A   14
 N3 
A   15
 C12
A   16
 C13
A   17
 C14
A   18
 H1 
A   19
 H2 
A   20
 H3 
A   21
 H4 
A   22
 H5 
A   23
 H6 
A   24
 H7 
A   25
 H8 
A   26
 H9 
A   27
 H10
A   28
 H11
A   29
 H12
A   30
 H13
A   31
 H14
A   32
 H15
A   33
 H16
A   34
 H17
M  END
>  <ref_pdb>  (309) 
x0051_0B

>  <ref_mols>  (309) 
x0429_0B,x0693_0B

>  <original SMILES>  (309) 
[H]c1nc(N2C([H])([H])C([H])([H])N([H])C([H])([H])C2([H])[H])c2c(C([H])([H])[H])c([H])c([H])c([H])c2c1[H]

>  <index>  (309) 
509

>  <∆∆G>  (309) 
-8.475934

>  <∆G_bound>  (309) 
-7.426042

>  <∆G_unbound>  (309) 
1.049892

>  <comRMSD>  (309) 
0.574276

>  <N_constrained_atoms>  (309) 
18.0

>  <N_unconstrained_atoms>  (309) 
0.0

>  <runtime>  (309) 
24.694709

>  <LE>  (309) 
0.470885

>  <percent_hybrid>  (309) 
20.0

>  <dist>  (309) 
2.0

>  <ecfp4>  (309) 
0.604651

>  <daylight>  (309) 
0.72

>  <topodist>  (309) 
0.0

>  <mces>  (309) 
19.0

>  <tdn>  (309) 
0.0

>  <tup>  (309) 
0.0

>  <rdn>  (309) 
0.0

>  <rup>  (309) 
0.0

>  <ldn>  (309) 
0.0

>  <lup>  (309) 
0.0

>  <mut>  (309) 
2.0

>  <maj>  (309) 
2.0

>  <min>  (309) 
0.0

>  <hyb>  (309) 
0.0

>  <sub>  (309) 
0.0

>  <query_index>  (309) 
179.0

>  <max_hit_Tanimoto>  (309) 
0.387755

>  <largest_ring>  (309) 
6

>  <N_interactions_kept>  (309) 
2.5

>  <N_interactions_lost>  (309) 
2.0

>  <interaction_uniqueness_metric>  (309) 
0.04341

>  <ad_hoc_penalty>  (309) 
-20.993821

>  <N_rotatable_bonds>  (309) 
2

>  <N_HA>  (309) 
17

>  <cluster>  (309) 
5754

>  <N_interactions>  (309) 
4

>  <Enamine>  (309) 
1

>  <Mcule>  (309) 
0

>  <N_PAINS>  (309) 
0

>  <UFF_Gibbs>  (309) 
55.929025

>  <strain_per_HA>  (309) 
3.289943

>  <saltbridge:HIS:51>  (309) 
0

>  <pistack:HIS:51>  (309) 
0

>  <hydroph_interaction:HIS:51>  (309) 
0

>  <hbond:ALA:132>  (309) 
0

>  <hbond:SER:135>  (309) 
0

>  <hydroph_interaction:TYR:150>  (309) 
1

>  <pistack:TYR:161>  (309) 
2

>  <hydroph_interaction:TYR:161>  (309) 
1

>  <hydroph_interaction:ASP:83>  (309) 
0

>  <hbond:TYR:130>  (309) 
0

>  <hydroph_interaction:ALA:132>  (309) 
0

>  <hbond:HIS:51>  (309) 
0

>  <hbond:ASP:129>  (309) 
0

>  <hbond:TYR:150>  (309) 
0

>  <hbond:GLY:151>  (309) 
0

>  <hbond:TYR:161>  (309) 
0

>  <hydroph_interaction:TYR:130>  (309) 
0

>  <hydroph_interaction:PRO:131>  (309) 
0

>  <hydroph_interaction:ASP:129>  (309) 
0

>  <saltbridge:ASP:75>  (309) 
0

>  <saltbridge:ASP:83>  (309) 
0

>  <hydroph_interaction:ASN:152>  (309) 
0

>  <halogenbond:TYR:150>  (309) 
0

>  <hbond:ASP:83>  (309) 
0

>  <hydroph_interaction:VAL:155>  (309) 
0

>  <pication:TYR:161>  (309) 
0

>  <hbond:PRO:131>  (309) 
0

>  <hbond:LEU:128>  (309) 
0

>  <saltbridge:ASP:129>  (309) 
0

>  <hbond:THR:134>  (309) 
0

>  <pication:HIS:51>  (309) 
0

>  <hbond:SER:81>  (309) 
0

>  <hbond:GLY:159>  (309) 
0

>  <hydroph_interaction:PRO:101>  (309) 
0

>  <hydroph_interaction:THR:134>  (309) 
0

>  <hbond:GLY:82>  (309) 
0

>  <hydroph_interaction:GLU:104>  (309) 
0

>  <hydroph_interaction:VAL:36>  (309) 
0

>  <hydroph_interaction:MET:49>  (309) 
0

>  <halogenbond:GLU:104>  (309) 
0

>  <hydroph_interaction:LYS:107>  (309) 
0

$$$$
LZNNYKQNRIPHRB-UHFFFAOYSA-N
     RDKit          3D

 34 37  0  0  0  0  0  0  0  0999 V2000
   -8.7460    5.8460  -12.8390 C   0  0  0  0  0  0  0  0  0  0  0  0
   -7.8760    5.2270  -13.8010 N   0  0  0  0  0  0  0  0  0  0  0  0
   -8.2230    5.1530  -15.2780 C   0  0  0  0  0  0  0  0  0  0  0  0
   -7.1320    5.2530  -16.3520 C   0  0  0  0  0  0  0  0  0  0  0  0
   -7.5060    5.1670  -17.7230 C   0  0  0  0  0  0  0  0  0  0  0  0
   -6.6340    5.2520  -18.5140 N   0  0  0  0  0  0  0  0  0  0  0  0
   -5.2040    5.4460  -17.7200 S   0  0  0  0  0  0  0  0  0  0  0  0
   -5.8060    5.4170  -16.1810 N   0  0  0  0  0  0  0  0  0  0  0  0
   -8.8080    4.9890  -18.2240 C   0  0  0  0  0  0  0  0  0  0  0  0
   -9.8020    4.9040  -17.2650 C   0  0  0  0  0  0  0  0  0  0  0  0
   -9.5170    4.9880  -15.8270 C   0  0  0  0  0  0  0  0  0  0  0  0
   -9.5460    6.6820  -13.2560 O   0  0  0  0  0  0  0  0  0  0  0  0
   -8.7730    5.6050  -11.3230 C   0  0  0  0  0  0  0  0  0  0  0  0
   -8.8530    4.5160  -10.4100 C   0  0  0  0  0  0  0  0  0  0  0  0
   -8.8600    4.9940   -9.1350 N   0  0  0  0  0  0  0  0  0  0  0  0
   -8.9520    4.1700   -7.9430 C   0  0  0  0  0  0  0  0  0  0  0  0
   -9.4460    2.8960   -8.2310 C   0  0  0  0  0  0  0  0  0  0  0  0
   -9.3310    2.3840   -9.5360 C   0  0  0  0  0  0  0  0  0  0  0  0
   -8.9250    3.1580  -10.6330 C   0  0  0  0  0  0  0  0  0  0  0  0
   -8.7790    6.3210   -9.0730 N   0  0  0  0  0  0  0  0  0  0  0  0
   -8.7290    6.6870  -10.3710 C   0  0  0  0  0  0  0  0  0  0  0  0
   -7.0760    4.6920  -13.4710 H   0  0  0  0  0  0  0  0  0  0  0  0
   -9.0150    4.9270  -19.2890 H   0  0  0  0  0  0  0  0  0  0  0  0
  -10.8320    4.7700  -17.5920 H   0  0  0  0  0  0  0  0  0  0  0  0
  -10.3840    4.9090  -15.1510 H   0  0  0  0  0  0  0  0  0  0  0  0
   -9.6200    4.6920   -7.2520 H   0  0  0  0  0  0  0  0  0  0  0  0
   -7.9590    4.1100   -7.4920 H   0  0  0  0  0  0  0  0  0  0  0  0
   -8.9780    2.1900   -7.5360 H   0  0  0  0  0  0  0  0  0  0  0  0
  -10.5110    2.8820   -7.9740 H   0  0  0  0  0  0  0  0  0  0  0  0
  -10.3060    2.0050   -9.7900 H   0  0  0  0  0  0  0  0  0  0  0  0
   -8.6760    1.5080   -9.4840 H   0  0  0  0  0  0  0  0  0  0  0  0
   -9.6280    3.0020  -11.4570 H   0  0  0  0  0  0  0  0  0  0  0  0
   -7.9520    2.8070  -10.9930 H   0  0  0  0  0  0  0  0  0  0  0  0
   -8.6640    7.7580  -10.6030 H   0  0  0  0  0  0  0  0  0  0  0  0
  1  2  1  0
  2  3  1  0
  3  4  1  0
  4  5  1  0
  5  6  2  0
  6  7  1  0
  7  8  1  0
  5  9  1  0
  9 10  2  0
 10 11  1  0
  1 12  2  0
  1 13  1  0
 13 14  2  0
 14 15  1  0
 15 16  1  0
 16 17  1  0
 17 18  1  0
 18 19  1  0
 15 20  1  0
 20 21  2  0
  3 11  2  0
  4  8  2  0
 21 13  1  0
 19 14  1  0
  2 22  1  0
  9 23  1  0
 10 24  1  0
 11 25  1  0
 16 26  1  0
 16 27  1  0
 17 28  1  0
 17 29  1  0
 18 30  1  0
 18 31  1  0
 19 32  1  0
 19 33  1  0
 21 34  1  0
A    1
 C1 
A    2
 N1 
A    3
 C2 
A    4
 C3 
A    5
 C4 
A    6
 N2 
A    7
 S1 
A    8
 N3 
A    9
 C5 
A   10
 C6 
A   11
 C7 
A   12
 O1 
A   13
 C8 
A   14
 C9 
A   15
 N4 
A   16
 C10
A   17
 C11
A   18
 C12
A   19
 C13
A   20
 N5 
A   21
 C14
A   22
 H1 
A   23
 H2 
A   24
 H3 
A   25
 H4 
A   26
 H5 
A   27
 H6 
A   28
 H7 
A   29
 H8 
A   30
 H9 
A   31
 H10
A   32
 H11
A   33
 H12
A   34
 H13
M  END
>  <ref_pdb>  (310) 
x0051_0B

>  <ref_mols>  (310) 
x0435_0B,x0969_1B

>  <original SMILES>  (310) 
[H]c1nn2c(c1C(=O)N([H])c1c([H])c([H])c([H])c3nsnc13)C([H])([H])C([H])([H])C([H])([H])C2([H])[H]

>  <index>  (310) 
416

>  <∆∆G>  (310) 
-5.637618

>  <∆G_bound>  (310) 
-4.75247

>  <∆G_unbound>  (310) 
0.885148

>  <comRMSD>  (310) 
0.741126

>  <N_constrained_atoms>  (310) 
19.0

>  <N_unconstrained_atoms>  (310) 
2.0

>  <runtime>  (310) 
36.290642

>  <LE>  (310) 
0.268458

>  <percent_hybrid>  (310) 
48.0

>  <dist>  (310) 
9.0

>  <ecfp4>  (310) 
0.162791

>  <daylight>  (310) 
0.25419

>  <topodist>  (310) 
3.0

>  <mces>  (310) 
23.0

>  <tdn>  (310) 
1.0

>  <tup>  (310) 
1.0

>  <rdn>  (310) 
0.0

>  <rup>  (310) 
0.0

>  <ldn>  (310) 
1.0

>  <lup>  (310) 
0.0

>  <mut>  (310) 
5.0

>  <maj>  (310) 
5.0

>  <min>  (310) 
0.0

>  <hyb>  (310) 
1.0

>  <sub>  (310) 
0.0

>  <query_index>  (310) 
311.0

>  <max_hit_Tanimoto>  (310) 
0.310917

>  <largest_ring>  (310) 
0

>  <N_interactions_kept>  (310) 
2.0

>  <N_interactions_lost>  (310) 
1.5

>  <interaction_uniqueness_metric>  (310) 
0.130457

>  <ad_hoc_penalty>  (310) 
-20.934964

>  <N_rotatable_bonds>  (310) 
2

>  <N_HA>  (310) 
21

>  <cluster>  (310) 
5839

>  <N_interactions>  (310) 
5

>  <Enamine>  (310) 
0

>  <Mcule>  (310) 
1

>  <N_PAINS>  (310) 
0

>  <UFF_Gibbs>  (310) 
119.656737

>  <strain_per_HA>  (310) 
5.69794

>  <saltbridge:HIS:51>  (310) 
0

>  <pistack:HIS:51>  (310) 
1

>  <hydroph_interaction:HIS:51>  (310) 
1

>  <hbond:ALA:132>  (310) 
0

>  <hbond:SER:135>  (310) 
0

>  <hydroph_interaction:TYR:150>  (310) 
0

>  <pistack:TYR:161>  (310) 
1

>  <hydroph_interaction:TYR:161>  (310) 
1

>  <hydroph_interaction:ASP:83>  (310) 
0

>  <hbond:TYR:130>  (310) 
0

>  <hydroph_interaction:ALA:132>  (310) 
0

>  <hbond:HIS:51>  (310) 
0

>  <hbond:ASP:129>  (310) 
0

>  <hbond:TYR:150>  (310) 
0

>  <hbond:GLY:151>  (310) 
0

>  <hbond:TYR:161>  (310) 
1

>  <hydroph_interaction:TYR:130>  (310) 
0

>  <hydroph_interaction:PRO:131>  (310) 
0

>  <hydroph_interaction:ASP:129>  (310) 
0

>  <saltbridge:ASP:75>  (310) 
0

>  <saltbridge:ASP:83>  (310) 
0

>  <hydroph_interaction:ASN:152>  (310) 
0

>  <halogenbond:TYR:150>  (310) 
0

>  <hbond:ASP:83>  (310) 
0

>  <hydroph_interaction:VAL:155>  (310) 
0

>  <pication:TYR:161>  (310) 
0

>  <hbond:PRO:131>  (310) 
0

>  <hbond:LEU:128>  (310) 
0

>  <saltbridge:ASP:129>  (310) 
0

>  <hbond:THR:134>  (310) 
0

>  <pication:HIS:51>  (310) 
0

>  <hbond:SER:81>  (310) 
0

>  <hbond:GLY:159>  (310) 
0

>  <hydroph_interaction:PRO:101>  (310) 
0

>  <hydroph_interaction:THR:134>  (310) 
0

>  <hbond:GLY:82>  (310) 
0

>  <hydroph_interaction:GLU:104>  (310) 
0

>  <hydroph_interaction:VAL:36>  (310) 
0

>  <hydroph_interaction:MET:49>  (310) 
0

>  <halogenbond:GLU:104>  (310) 
0

>  <hydroph_interaction:LYS:107>  (310) 
0

$$$$
MCULE-2971795523
     RDKit          3D

 44 46  0  0  0  0  0  0  0  0999 V2000
   -8.8350    6.8010  -14.1780 C   0  0  0  0  0  0  0  0  0  0  0  0
   -8.8860    6.1830  -12.9000 C   0  0  0  0  0  0  0  0  0  0  0  0
   -8.7960    6.9710  -11.7500 C   0  0  0  0  0  0  0  0  0  0  0  0
   -8.8510    6.3670  -10.4750 C   0  0  0  0  0  0  0  0  0  0  0  0
   -8.9970    4.9730  -10.3330 C   0  0  0  0  0  0  0  0  0  0  0  0
   -9.0650    4.3510   -9.1030 N   0  0  0  0  0  0  0  0  0  0  0  0
   -9.4090    3.0400   -9.0670 C   0  0  0  0  0  0  0  0  0  0  0  0
   -9.6530    2.5780   -7.7530 C   0  0  0  0  0  0  0  0  0  0  0  0
   -9.7250    3.4570   -6.6530 N   0  0  0  0  0  0  0  0  0  0  0  0
  -11.0440    3.6150   -5.9610 C   0  0  0  0  0  0  0  0  0  0  0  0
   -8.9510    4.7000   -6.7480 C   0  0  0  0  0  0  0  0  0  0  0  0
   -8.3190    4.9060   -7.9670 C   0  0  0  0  0  0  0  0  0  0  0  0
   -9.0770    4.2200  -11.5090 C   0  0  0  0  0  0  0  0  0  0  0  0
   -9.0230    4.8160  -12.7580 C   0  0  0  0  0  0  0  0  0  0  0  0
   -8.6010    8.0160  -14.2070 O   0  0  0  0  0  0  0  0  0  0  0  0
   -9.0760    5.8490  -15.2120 N   0  0  0  0  0  0  0  0  0  0  0  0
   -8.2650    5.5460  -16.3780 C   0  0  0  0  0  0  0  0  0  0  0  0
   -6.8700    5.7030  -16.3010 C   0  0  0  0  0  0  0  0  0  0  0  0
   -5.8910    5.4520  -17.4370 C   0  0  0  0  0  0  0  0  0  0  0  0
   -6.4390    4.9960  -18.7680 C   0  0  0  0  0  0  0  0  0  0  0  0
   -7.9420    4.8180  -18.8390 C   0  0  0  0  0  0  0  0  0  0  0  0
   -8.8220    5.0990  -17.6220 C   0  0  0  0  0  0  0  0  0  0  0  0
  -10.1430    4.8900  -17.8810 C   0  0  0  0  0  0  0  0  0  0  0  0
  -11.2080    4.7270  -18.2700 N   0  0  0  0  0  0  0  0  0  0  0  0
   -8.6850    8.0520  -11.8350 H   0  0  0  0  0  0  0  0  0  0  0  0
   -8.7820    7.0020   -9.5940 H   0  0  0  0  0  0  0  0  0  0  0  0
  -10.2400    2.9270   -9.7550 H   0  0  0  0  0  0  0  0  0  0  0  0
   -8.6070    2.5130   -9.5680 H   0  0  0  0  0  0  0  0  0  0  0  0
   -8.8980    1.8750   -7.4270 H   0  0  0  0  0  0  0  0  0  0  0  0
  -10.5540    1.9740   -7.6620 H   0  0  0  0  0  0  0  0  0  0  0  0
  -10.9330    3.4490   -4.8880 H   0  0  0  0  0  0  0  0  0  0  0  0
  -11.7640    2.8740   -6.3270 H   0  0  0  0  0  0  0  0  0  0  0  0
  -11.4370    4.6270   -6.0650 H   0  0  0  0  0  0  0  0  0  0  0  0
   -8.3590    4.7960   -5.8470 H   0  0  0  0  0  0  0  0  0  0  0  0
   -9.7000    5.4940   -6.6410 H   0  0  0  0  0  0  0  0  0  0  0  0
   -7.3280    4.4510   -7.8950 H   0  0  0  0  0  0  0  0  0  0  0  0
   -8.1740    5.9760   -8.1360 H   0  0  0  0  0  0  0  0  0  0  0  0
   -9.1890    3.1370  -11.4690 H   0  0  0  0  0  0  0  0  0  0  0  0
   -9.1010    4.1030  -13.5860 H   0  0  0  0  0  0  0  0  0  0  0  0
   -9.6990    5.0960  -14.9370 H   0  0  0  0  0  0  0  0  0  0  0  0
   -6.5330    6.0400  -15.3170 H   0  0  0  0  0  0  0  0  0  0  0  0
   -4.8040    5.5760  -17.3790 H   0  0  0  0  0  0  0  0  0  0  0  0
   -5.7990    4.8020  -19.6260 H   0  0  0  0  0  0  0  0  0  0  0  0
   -8.3250    4.4830  -19.8100 H   0  0  0  0  0  0  0  0  0  0  0  0
  1  2  1  0
  2  3  2  0
  3  4  1  0
  4  5  2  0
  5  6  1  0
  6  7  1  0
  7  8  1  0
  8  9  1  0
  9 10  1  0
  9 11  1  0
 11 12  1  0
  5 13  1  0
 13 14  2  0
  1 15  2  0
  1 16  1  0
 16 17  1  0
 17 18  2  0
 18 19  1  0
 19 20  2  0
 20 21  1  0
 21 22  2  0
 22 23  1  0
 23 24  3  0
  2 14  1  0
 12  6  1  0
 17 22  1  0
  3 25  1  0
  4 26  1  0
  7 27  1  0
  7 28  1  0
  8 29  1  0
  8 30  1  0
 10 31  1  0
 10 32  1  0
 10 33  1  0
 11 34  1  0
 11 35  1  0
 12 36  1  0
 12 37  1  0
 13 38  1  0
 14 39  1  0
 16 40  1  0
 18 41  1  0
 19 42  1  0
 20 43  1  0
 21 44  1  0
A    1
 C1 
A    2
 C2 
A    3
 C3 
A    4
 C4 
A    5
 C5 
A    6
 N1 
A    7
 C6 
A    8
 C7 
A    9
 N2 
A   10
 C8 
A   11
 C9 
A   12
 C10
A   13
 C11
A   14
 C12
A   15
 O1 
A   16
 N3 
A   17
 C13
A   18
 C14
A   19
 C15
A   20
 C16
A   21
 C17
A   22
 C18
A   23
 C19
A   24
 N4 
A   25
 H1 
A   26
 H2 
A   27
 H3 
A   28
 H4 
A   29
 H5 
A   30
 H6 
A   31
 H7 
A   32
 H8 
A   33
 H9 
A   34
 H10
A   35
 H11
A   36
 H12
A   37
 H13
A   38
 H14
A   39
 H15
A   40
 H16
A   41
 H17
A   42
 H18
A   43
 H19
A   44
 H20
M  END
>  <ref_pdb>  (311) 
x0051_0B

>  <ref_mols>  (311) 
x0605_0B,x0404_0B

>  <original SMILES>  (311) 
[H]c1c([H])c([H])c(N([H])C(=O)c2c([H])c([H])c(N3C([H])([H])C([H])([H])N(C([H])([H])[H])C([H])([H])C3([H])[H])c([H])c2[H])c(C#N)c1[H]

>  <index>  (311) 
514

>  <∆∆G>  (311) 
-5.908171

>  <∆G_bound>  (311) 
-5.375887

>  <∆G_unbound>  (311) 
0.532284

>  <comRMSD>  (311) 
0.673544

>  <N_constrained_atoms>  (311) 
24.0

>  <N_unconstrained_atoms>  (311) 
1.0

>  <runtime>  (311) 
104.077845

>  <LE>  (311) 
0.236327

>  <percent_hybrid>  (311) 
38.0

>  <dist>  (311) 
8.0

>  <ecfp4>  (311) 
0.182927

>  <daylight>  (311) 
0.258427

>  <topodist>  (311) 
4.0

>  <mces>  (311) 
25.0

>  <tdn>  (311) 
2.0

>  <tup>  (311) 
1.0

>  <rdn>  (311) 
0.0

>  <rup>  (311) 
0.0

>  <ldn>  (311) 
1.0

>  <lup>  (311) 
0.0

>  <mut>  (311) 
2.0

>  <maj>  (311) 
2.0

>  <min>  (311) 
0.0

>  <hyb>  (311) 
2.0

>  <sub>  (311) 
2.0

>  <query_index>  (311) 
27.0

>  <max_hit_Tanimoto>  (311) 
0.310078

>  <largest_ring>  (311) 
6

>  <N_interactions_kept>  (311) 
1.5

>  <N_interactions_lost>  (311) 
2.5

>  <interaction_uniqueness_metric>  (311) 
0.362563

>  <ad_hoc_penalty>  (311) 
-20.929141

>  <N_rotatable_bonds>  (311) 
4

>  <N_HA>  (311) 
24

>  <cluster>  (311) 
5750

>  <N_interactions>  (311) 
7

>  <Enamine>  (311) 
0

>  <Mcule>  (311) 
1

>  <N_PAINS>  (311) 
0

>  <UFF_Gibbs>  (311) 
159.760895

>  <strain_per_HA>  (311) 
6.656704

>  <saltbridge:HIS:51>  (311) 
0

>  <pistack:HIS:51>  (311) 
1

>  <hydroph_interaction:HIS:51>  (311) 
1

>  <hbond:ALA:132>  (311) 
0

>  <hbond:SER:135>  (311) 
0

>  <hydroph_interaction:TYR:150>  (311) 
0

>  <pistack:TYR:161>  (311) 
1

>  <hydroph_interaction:TYR:161>  (311) 
1

>  <hydroph_interaction:ASP:83>  (311) 
0

>  <hbond:TYR:130>  (311) 
0

>  <hydroph_interaction:ALA:132>  (311) 
0

>  <hbond:HIS:51>  (311) 
0

>  <hbond:ASP:129>  (311) 
0

>  <hbond:TYR:150>  (311) 
0

>  <hbond:GLY:151>  (311) 
1

>  <hbond:TYR:161>  (311) 
0

>  <hydroph_interaction:TYR:130>  (311) 
0

>  <hydroph_interaction:PRO:131>  (311) 
0

>  <hydroph_interaction:ASP:129>  (311) 
0

>  <saltbridge:ASP:75>  (311) 
1

>  <saltbridge:ASP:83>  (311) 
1

>  <hydroph_interaction:ASN:152>  (311) 
0

>  <halogenbond:TYR:150>  (311) 
0

>  <hbond:ASP:83>  (311) 
0

>  <hydroph_interaction:VAL:155>  (311) 
0

>  <pication:TYR:161>  (311) 
0

>  <hbond:PRO:131>  (311) 
0

>  <hbond:LEU:128>  (311) 
0

>  <saltbridge:ASP:129>  (311) 
0

>  <hbond:THR:134>  (311) 
0

>  <pication:HIS:51>  (311) 
0

>  <hbond:SER:81>  (311) 
0

>  <hbond:GLY:159>  (311) 
0

>  <hydroph_interaction:PRO:101>  (311) 
0

>  <hydroph_interaction:THR:134>  (311) 
0

>  <hbond:GLY:82>  (311) 
0

>  <hydroph_interaction:GLU:104>  (311) 
0

>  <hydroph_interaction:VAL:36>  (311) 
0

>  <hydroph_interaction:MET:49>  (311) 
0

>  <halogenbond:GLU:104>  (311) 
0

>  <hydroph_interaction:LYS:107>  (311) 
0

$$$$
nan
     RDKit          3D

 41 42  0  0  0  0  0  0  0  0999 V2000
   -2.3040    4.6170  -19.2170 C   0  0  0  0  0  0  0  0  0  0  0  0
   -3.1550    5.8510  -19.3510 C   0  0  0  0  0  0  0  0  0  0  0  0
   -2.6610    6.9330  -19.6420 O   0  0  0  0  0  0  0  0  0  0  0  0
   -4.5020    5.6770  -19.1230 N   0  0  0  0  0  0  0  0  0  0  0  0
   -5.2120    6.6290  -18.2640 C   0  0  0  0  0  0  0  0  0  0  0  0
   -5.8290    6.0840  -17.1390 C   0  0  0  0  0  0  0  0  0  0  0  0
   -7.1380    5.6590  -17.3810 C   0  0  0  0  0  0  0  0  0  0  0  0
   -7.5680    5.3990  -18.8160 C   0  0  0  0  0  0  0  0  0  0  0  0
   -9.0160    4.9360  -19.0290 C   0  0  0  0  0  0  0  0  0  0  0  0
   -9.9630    4.7550  -17.8530 C   0  0  0  0  0  0  0  0  0  0  0  0
   -9.5190    5.0040  -16.5430 C   0  0  0  0  0  0  0  0  0  0  0  0
   -8.0740    5.4600  -16.3590 C   0  0  0  0  0  0  0  0  0  0  0  0
   -4.9950    4.8430  -16.7600 C   0  0  0  0  0  0  0  0  0  0  0  0
   -3.5100    5.0030  -16.3600 C   0  0  0  0  0  0  0  0  0  0  0  0
   -3.3320    5.0870  -14.8630 C   0  0  0  0  0  0  0  0  0  0  0  0
   -4.2050    6.1520  -14.2350 C   0  0  0  0  0  0  0  0  0  0  0  0
   -4.5370    7.2810  -15.2150 C   0  0  0  0  0  0  0  0  0  0  0  0
   -5.7190    7.1190  -15.9370 C   0  0  0  0  0  0  0  0  0  0  0  0
   -2.7670    3.9200  -18.5160 H   0  0  0  0  0  0  0  0  0  0  0  0
   -1.3070    4.8840  -18.8560 H   0  0  0  0  0  0  0  0  0  0  0  0
   -2.1710    4.0990  -20.1710 H   0  0  0  0  0  0  0  0  0  0  0  0
   -4.8730    4.7420  -19.2190 H   0  0  0  0  0  0  0  0  0  0  0  0
   -5.9580    7.1570  -18.8720 H   0  0  0  0  0  0  0  0  0  0  0  0
   -4.4640    7.3770  -17.9750 H   0  0  0  0  0  0  0  0  0  0  0  0
   -6.8560    5.5460  -19.6230 H   0  0  0  0  0  0  0  0  0  0  0  0
   -9.3720    4.7360  -20.0490 H   0  0  0  0  0  0  0  0  0  0  0  0
  -10.9860    4.4300  -18.0440 H   0  0  0  0  0  0  0  0  0  0  0  0
  -10.1800    4.8770  -15.6880 H   0  0  0  0  0  0  0  0  0  0  0  0
   -7.7860    5.6360  -15.3270 H   0  0  0  0  0  0  0  0  0  0  0  0
   -5.4970    4.3290  -15.9340 H   0  0  0  0  0  0  0  0  0  0  0  0
   -5.0020    4.1940  -17.6110 H   0  0  0  0  0  0  0  0  0  0  0  0
   -3.0980    5.9260  -16.7820 H   0  0  0  0  0  0  0  0  0  0  0  0
   -2.9060    4.1730  -16.7310 H   0  0  0  0  0  0  0  0  0  0  0  0
   -2.2760    5.2920  -14.6420 H   0  0  0  0  0  0  0  0  0  0  0  0
   -3.5620    4.1200  -14.4040 H   0  0  0  0  0  0  0  0  0  0  0  0
   -5.1340    5.6760  -13.8960 H   0  0  0  0  0  0  0  0  0  0  0  0
   -3.7210    6.5510  -13.3370 H   0  0  0  0  0  0  0  0  0  0  0  0
   -4.5090    8.2480  -14.7010 H   0  0  0  0  0  0  0  0  0  0  0  0
   -3.7250    7.3190  -15.9500 H   0  0  0  0  0  0  0  0  0  0  0  0
   -6.0180    8.1080  -16.2990 H   0  0  0  0  0  0  0  0  0  0  0  0
   -6.4950    6.8750  -15.1990 H   0  0  0  0  0  0  0  0  0  0  0  0
  1  2  1  0
  2  3  2  0
  2  4  1  0
  4  5  1  0
  5  6  1  0
  6  7  1  0
  7  8  2  0
  8  9  1  0
  9 10  2  0
 10 11  1  0
 11 12  2  0
  6 13  1  0
 13 14  1  0
 14 15  1  0
 15 16  1  0
 16 17  1  0
 17 18  1  0
 18  6  1  0
 12  7  1  0
  1 19  1  0
  1 20  1  0
  1 21  1  0
  4 22  1  0
  5 23  1  0
  5 24  1  0
  8 25  1  0
  9 26  1  0
 10 27  1  0
 11 28  1  0
 12 29  1  0
 13 30  1  0
 13 31  1  0
 14 32  1  0
 14 33  1  0
 15 34  1  0
 15 35  1  0
 16 36  1  0
 16 37  1  0
 17 38  1  0
 17 39  1  0
 18 40  1  0
 18 41  1  0
A    1
 C1 
A    2
 C2 
A    3
 O1 
A    4
 N1 
A    5
 C3 
A    6
 C4 
A    7
 C5 
A    8
 C6 
A    9
 C7 
A   10
 C8 
A   11
 C9 
A   12
 C10
A   13
 C11
A   14
 C12
A   15
 C13
A   16
 C14
A   17
 C15
A   18
 C16
A   19
 H1 
A   20
 H2 
A   21
 H3 
A   22
 H4 
A   23
 H5 
A   24
 H6 
A   25
 H7 
A   26
 H8 
A   27
 H9 
A   28
 H10
A   29
 H11
A   30
 H12
A   31
 H13
A   32
 H14
A   33
 H15
A   34
 H16
A   35
 H17
A   36
 H18
A   37
 H19
A   38
 H20
A   39
 H21
A   40
 H22
A   41
 H23
M  END
>  <ref_pdb>  (312) 
x0051_0B

>  <ref_mols>  (312) 
x0089_0B,x0429_0B,x0443_0B

>  <original SMILES>  (312) 
[H]c1c([H])c([H])c(C2(C([H])([H])N([H])C(=O)C([H])([H])[H])C([H])([H])C([H])([H])C([H])([H])C([H])([H])C([H])([H])C2([H])[H])c([H])c1[H]

>  <index>  (312) 
19060

>  <∆∆G>  (312) 
-7.274588

>  <∆G_bound>  (312) 
-6.888845

>  <∆G_unbound>  (312) 
0.385743

>  <comRMSD>  (312) 
0.93867

>  <N_constrained_atoms>  (312) 
20.0

>  <N_unconstrained_atoms>  (312) 
0.0

>  <runtime>  (312) 
38.919774

>  <LE>  (312) 
0.363729

>  <percent_hybrid>  (312) 
50.0

>  <dist>  (312) 
nan

>  <ecfp4>  (312) 
nan

>  <daylight>  (312) 
nan

>  <topodist>  (312) 
nan

>  <mces>  (312) 
nan

>  <tdn>  (312) 
nan

>  <tup>  (312) 
nan

>  <rdn>  (312) 
nan

>  <rup>  (312) 
nan

>  <ldn>  (312) 
nan

>  <lup>  (312) 
nan

>  <mut>  (312) 
nan

>  <maj>  (312) 
nan

>  <min>  (312) 
nan

>  <hyb>  (312) 
nan

>  <sub>  (312) 
nan

>  <query_index>  (312) 
nan

>  <max_hit_Tanimoto>  (312) 
0.160109

>  <largest_ring>  (312) 
7

>  <N_interactions_kept>  (312) 
3.0

>  <N_interactions_lost>  (312) 
2.5

>  <interaction_uniqueness_metric>  (312) 
0.091664

>  <ad_hoc_penalty>  (312) 
-20.917398

>  <N_rotatable_bonds>  (312) 
4

>  <N_HA>  (312) 
18

>  <cluster>  (312) 
143

>  <N_interactions>  (312) 
8

>  <Enamine>  (312) 
0

>  <Mcule>  (312) 
0

>  <N_PAINS>  (312) 
0

>  <UFF_Gibbs>  (312) 
178.195548

>  <strain_per_HA>  (312) 
9.899753

>  <saltbridge:HIS:51>  (312) 
0

>  <pistack:HIS:51>  (312) 
0

>  <hydroph_interaction:HIS:51>  (312) 
0

>  <hbond:ALA:132>  (312) 
0

>  <hbond:SER:135>  (312) 
0

>  <hydroph_interaction:TYR:150>  (312) 
1

>  <pistack:TYR:161>  (312) 
0

>  <hydroph_interaction:TYR:161>  (312) 
5

>  <hydroph_interaction:ASP:83>  (312) 
0

>  <hbond:TYR:130>  (312) 
0

>  <hydroph_interaction:ALA:132>  (312) 
1

>  <hbond:HIS:51>  (312) 
0

>  <hbond:ASP:129>  (312) 
0

>  <hbond:TYR:150>  (312) 
0

>  <hbond:GLY:151>  (312) 
0

>  <hbond:TYR:161>  (312) 
0

>  <hydroph_interaction:TYR:130>  (312) 
0

>  <hydroph_interaction:PRO:131>  (312) 
0

>  <hydroph_interaction:ASP:129>  (312) 
0

>  <saltbridge:ASP:75>  (312) 
0

>  <saltbridge:ASP:83>  (312) 
0

>  <hydroph_interaction:ASN:152>  (312) 
0

>  <halogenbond:TYR:150>  (312) 
0

>  <hbond:ASP:83>  (312) 
0

>  <hydroph_interaction:VAL:155>  (312) 
1

>  <pication:TYR:161>  (312) 
0

>  <hbond:PRO:131>  (312) 
0

>  <hbond:LEU:128>  (312) 
0

>  <saltbridge:ASP:129>  (312) 
0

>  <hbond:THR:134>  (312) 
0

>  <pication:HIS:51>  (312) 
0

>  <hbond:SER:81>  (312) 
0

>  <hbond:GLY:159>  (312) 
0

>  <hydroph_interaction:PRO:101>  (312) 
0

>  <hydroph_interaction:THR:134>  (312) 
0

>  <hbond:GLY:82>  (312) 
0

>  <hydroph_interaction:GLU:104>  (312) 
0

>  <hydroph_interaction:VAL:36>  (312) 
0

>  <hydroph_interaction:MET:49>  (312) 
0

>  <halogenbond:GLU:104>  (312) 
0

>  <hydroph_interaction:LYS:107>  (312) 
0

$$$$
MCULE-9868049077
     RDKit          3D

 31 33  0  0  0  0  0  0  0  0999 V2000
   -8.0410    5.2690  -14.9040 Cl  0  0  0  0  0  0  0  0  0  0  0  0
   -8.3510    5.1210  -16.5960 C   0  0  0  0  0  0  0  0  0  0  0  0
   -7.3190    5.2550  -17.7320 C   0  0  0  0  0  0  0  0  0  0  0  0
   -5.8270    5.5350  -17.5440 C   0  0  0  0  0  0  0  0  0  0  0  0
   -5.0150    5.6370  -18.6270 N   0  0  0  0  0  0  0  0  0  0  0  0
   -5.6360    5.4500  -19.9630 C   0  0  0  0  0  0  0  0  0  0  0  0
   -6.9730    5.1890  -20.1480 C   0  0  0  0  0  0  0  0  0  0  0  0
   -7.8000    5.0960  -19.0330 C   0  0  0  0  0  0  0  0  0  0  0  0
   -9.2520    4.8180  -19.2830 C   0  0  0  0  0  0  0  0  0  0  0  0
  -10.1390    4.7060  -18.2130 C   0  0  0  0  0  0  0  0  0  0  0  0
   -9.6900    4.8550  -16.8960 C   0  0  0  0  0  0  0  0  0  0  0  0
   -5.2130    5.6870  -16.2860 N   0  0  0  0  0  0  0  0  0  0  0  0
   -5.2120    7.0740  -15.7870 C   0  0  0  0  0  0  0  0  0  0  0  0
   -4.1860    7.2460  -14.6310 C   0  0  0  0  0  0  0  0  0  0  0  0
   -3.8100    6.0060  -13.8990 N   0  0  0  0  0  0  0  0  0  0  0  0
   -3.2520    5.0120  -14.8420 C   0  0  0  0  0  0  0  0  0  0  0  0
   -3.8530    5.1050  -16.2630 C   0  0  0  0  0  0  0  0  0  0  0  0
   -4.9600    5.5330  -20.8080 H   0  0  0  0  0  0  0  0  0  0  0  0
   -7.3440    5.0570  -21.1530 H   0  0  0  0  0  0  0  0  0  0  0  0
   -9.6290    4.6960  -20.2980 H   0  0  0  0  0  0  0  0  0  0  0  0
  -11.1890    4.5030  -18.4020 H   0  0  0  0  0  0  0  0  0  0  0  0
  -10.4030    4.7610  -16.0840 H   0  0  0  0  0  0  0  0  0  0  0  0
   -6.2180    7.2950  -15.4070 H   0  0  0  0  0  0  0  0  0  0  0  0
   -5.0150    7.8030  -16.5840 H   0  0  0  0  0  0  0  0  0  0  0  0
   -3.2780    7.7100  -15.0340 H   0  0  0  0  0  0  0  0  0  0  0  0
   -4.5860    7.9560  -13.8980 H   0  0  0  0  0  0  0  0  0  0  0  0
   -4.7110    5.5990  -13.6020 H   0  0  0  0  0  0  0  0  0  0  0  0
   -3.4110    4.0060  -14.4410 H   0  0  0  0  0  0  0  0  0  0  0  0
   -2.1660    5.1440  -14.9070 H   0  0  0  0  0  0  0  0  0  0  0  0
   -3.2080    5.7550  -16.8630 H   0  0  0  0  0  0  0  0  0  0  0  0
   -3.8180    4.1290  -16.7540 H   0  0  0  0  0  0  0  0  0  0  0  0
  1  2  1  0
  2  3  2  0
  3  4  1  0
  4  5  2  0
  5  6  1  0
  6  7  2  0
  7  8  1  0
  8  9  2  0
  9 10  1  0
 10 11  2  0
  4 12  1  0
 12 13  1  0
 13 14  1  0
 14 15  1  0
 15 16  1  0
 16 17  1  0
  2 11  1  0
  3  8  1  0
 17 12  1  0
  6 18  1  0
  7 19  1  0
  9 20  1  0
 10 21  1  0
 11 22  1  0
 13 23  1  0
 13 24  1  0
 14 25  1  0
 14 26  1  0
 15 27  1  0
 16 28  1  0
 16 29  1  0
 17 30  1  0
 17 31  1  0
A    1
CL1 
A    2
 C1 
A    3
 C2 
A    4
 C3 
A    5
 N1 
A    6
 C4 
A    7
 C5 
A    8
 C6 
A    9
 C7 
A   10
 C8 
A   11
 C9 
A   12
 N2 
A   13
 C10
A   14
 C11
A   15
 N3 
A   16
 C12
A   17
 C13
A   18
 H1 
A   19
 H2 
A   20
 H3 
A   21
 H4 
A   22
 H5 
A   23
 H6 
A   24
 H7 
A   25
 H8 
A   26
 H9 
A   27
 H10
A   28
 H11
A   29
 H12
A   30
 H13
A   31
 H14
M  END
>  <ref_pdb>  (313) 
x0051_0B

>  <ref_mols>  (313) 
x0429_0B,x0693_0B

>  <original SMILES>  (313) 
[H]c1nc(N2C([H])([H])C([H])([H])N([H])C([H])([H])C2([H])[H])c2c(Cl)c([H])c([H])c([H])c2c1[H]

>  <index>  (313) 
526

>  <∆∆G>  (313) 
-7.381938

>  <∆G_bound>  (313) 
-5.468597

>  <∆G_unbound>  (313) 
1.913341

>  <comRMSD>  (313) 
0.572996

>  <N_constrained_atoms>  (313) 
18.0

>  <N_unconstrained_atoms>  (313) 
0.0

>  <runtime>  (313) 
23.704426

>  <LE>  (313) 
0.410108

>  <percent_hybrid>  (313) 
20.0

>  <dist>  (313) 
3.0

>  <ecfp4>  (313) 
0.408163

>  <daylight>  (313) 
0.512821

>  <topodist>  (313) 
0.0

>  <mces>  (313) 
19.0

>  <tdn>  (313) 
0.0

>  <tup>  (313) 
0.0

>  <rdn>  (313) 
0.0

>  <rup>  (313) 
0.0

>  <ldn>  (313) 
0.0

>  <lup>  (313) 
0.0

>  <mut>  (313) 
3.0

>  <maj>  (313) 
3.0

>  <min>  (313) 
0.0

>  <hyb>  (313) 
0.0

>  <sub>  (313) 
0.0

>  <query_index>  (313) 
179.0

>  <max_hit_Tanimoto>  (313) 
0.377837

>  <largest_ring>  (313) 
6

>  <N_interactions_kept>  (313) 
2.5

>  <N_interactions_lost>  (313) 
2.0

>  <interaction_uniqueness_metric>  (313) 
0.041883

>  <ad_hoc_penalty>  (313) 
-20.911095

>  <N_rotatable_bonds>  (313) 
1

>  <N_HA>  (313) 
17

>  <cluster>  (313) 
5738

>  <N_interactions>  (313) 
4

>  <Enamine>  (313) 
0

>  <Mcule>  (313) 
1

>  <N_PAINS>  (313) 
0

>  <UFF_Gibbs>  (313) 
51.853618

>  <strain_per_HA>  (313) 
3.050213

>  <saltbridge:HIS:51>  (313) 
0

>  <pistack:HIS:51>  (313) 
0

>  <hydroph_interaction:HIS:51>  (313) 
0

>  <hbond:ALA:132>  (313) 
0

>  <hbond:SER:135>  (313) 
0

>  <hydroph_interaction:TYR:150>  (313) 
1

>  <pistack:TYR:161>  (313) 
1

>  <hydroph_interaction:TYR:161>  (313) 
2

>  <hydroph_interaction:ASP:83>  (313) 
0

>  <hbond:TYR:130>  (313) 
0

>  <hydroph_interaction:ALA:132>  (313) 
0

>  <hbond:HIS:51>  (313) 
0

>  <hbond:ASP:129>  (313) 
0

>  <hbond:TYR:150>  (313) 
0

>  <hbond:GLY:151>  (313) 
0

>  <hbond:TYR:161>  (313) 
0

>  <hydroph_interaction:TYR:130>  (313) 
0

>  <hydroph_interaction:PRO:131>  (313) 
0

>  <hydroph_interaction:ASP:129>  (313) 
0

>  <saltbridge:ASP:75>  (313) 
0

>  <saltbridge:ASP:83>  (313) 
0

>  <hydroph_interaction:ASN:152>  (313) 
0

>  <halogenbond:TYR:150>  (313) 
0

>  <hbond:ASP:83>  (313) 
0

>  <hydroph_interaction:VAL:155>  (313) 
0

>  <pication:TYR:161>  (313) 
0

>  <hbond:PRO:131>  (313) 
0

>  <hbond:LEU:128>  (313) 
0

>  <saltbridge:ASP:129>  (313) 
0

>  <hbond:THR:134>  (313) 
0

>  <pication:HIS:51>  (313) 
0

>  <hbond:SER:81>  (313) 
0

>  <hbond:GLY:159>  (313) 
0

>  <hydroph_interaction:PRO:101>  (313) 
0

>  <hydroph_interaction:THR:134>  (313) 
0

>  <hbond:GLY:82>  (313) 
0

>  <hydroph_interaction:GLU:104>  (313) 
0

>  <hydroph_interaction:VAL:36>  (313) 
0

>  <hydroph_interaction:MET:49>  (313) 
0

>  <halogenbond:GLU:104>  (313) 
0

>  <hydroph_interaction:LYS:107>  (313) 
0

$$$$
PV-002199476813
     RDKit          3D

 44 46  0  0  0  0  0  0  0  0999 V2000
  -10.9610    5.0640  -18.4840 C   0  0  0  0  0  0  0  0  0  0  0  0
   -9.7040    4.3560  -18.8330 C   0  0  0  0  0  0  0  0  0  0  0  0
   -8.4760    4.8230  -18.1800 C   0  0  0  0  0  0  0  0  0  0  0  0
   -7.5260    5.2310  -19.0170 C   0  0  0  0  0  0  0  0  0  0  0  0
   -6.1930    5.7180  -18.5960 C   0  0  0  0  0  0  0  0  0  0  0  0
   -5.9810    5.7170  -17.1020 C   0  0  0  0  0  0  0  0  0  0  0  0
   -7.1000    5.2460  -16.1850 C   0  0  0  0  0  0  0  0  0  0  0  0
   -6.9040    5.2340  -14.8120 C   0  0  0  0  0  0  0  0  0  0  0  0
   -7.5370    6.3080  -14.2270 O   0  0  0  0  0  0  0  0  0  0  0  0
   -7.4780    6.0680  -12.8670 C   0  0  0  0  0  0  0  0  0  0  0  0
   -6.4970    6.2680  -12.1600 O   0  0  0  0  0  0  0  0  0  0  0  0
   -8.8150    5.5070  -12.3440 C   0  0  0  0  0  0  0  0  0  0  0  0
   -8.8320    5.5360  -10.8020 C   0  0  0  0  0  0  0  0  0  0  0  0
   -8.9260    4.4360   -9.8310 C   0  0  0  0  0  0  0  0  0  0  0  0
   -9.0150    2.9770  -10.2230 C   0  0  0  0  0  0  0  0  0  0  0  0
   -8.6450    2.2130   -8.9660 C   0  0  0  0  0  0  0  0  0  0  0  0
   -9.4080    2.6900   -7.7340 C   0  0  0  0  0  0  0  0  0  0  0  0
   -9.0140    4.1180   -7.3780 C   0  0  0  0  0  0  0  0  0  0  0  0
   -8.9200    4.9270   -8.5810 N   0  0  0  0  0  0  0  0  0  0  0  0
   -8.8160    6.3390   -8.5900 N   0  0  0  0  0  0  0  0  0  0  0  0
   -8.7680    6.6600   -9.9130 C   0  0  0  0  0  0  0  0  0  0  0  0
   -8.3060    4.8220  -16.7770 C   0  0  0  0  0  0  0  0  0  0  0  0
  -10.7940    5.6460  -17.5860 H   0  0  0  0  0  0  0  0  0  0  0  0
  -11.2760    5.7420  -19.2850 H   0  0  0  0  0  0  0  0  0  0  0  0
  -11.7640    4.3550  -18.3070 H   0  0  0  0  0  0  0  0  0  0  0  0
   -9.5320    4.4940  -19.9050 H   0  0  0  0  0  0  0  0  0  0  0  0
   -9.8160    3.2860  -18.6740 H   0  0  0  0  0  0  0  0  0  0  0  0
   -7.7420    5.2000  -20.0800 H   0  0  0  0  0  0  0  0  0  0  0  0
   -5.4330    6.0450  -19.3010 H   0  0  0  0  0  0  0  0  0  0  0  0
   -5.0370    6.0490  -16.6770 H   0  0  0  0  0  0  0  0  0  0  0  0
   -5.8220    5.3030  -14.6530 H   0  0  0  0  0  0  0  0  0  0  0  0
   -7.2840    4.3040  -14.3750 H   0  0  0  0  0  0  0  0  0  0  0  0
   -8.9420    4.4900  -12.7250 H   0  0  0  0  0  0  0  0  0  0  0  0
   -9.6300    6.1340  -12.7160 H   0  0  0  0  0  0  0  0  0  0  0  0
  -10.0330    2.7260  -10.5380 H   0  0  0  0  0  0  0  0  0  0  0  0
   -8.3290    2.7280  -11.0400 H   0  0  0  0  0  0  0  0  0  0  0  0
   -7.5730    2.3380   -8.7930 H   0  0  0  0  0  0  0  0  0  0  0  0
   -8.8120    1.1590   -9.0990 H   0  0  0  0  0  0  0  0  0  0  0  0
  -10.4870    2.6350   -7.9290 H   0  0  0  0  0  0  0  0  0  0  0  0
   -9.2020    2.0290   -6.8920 H   0  0  0  0  0  0  0  0  0  0  0  0
   -8.0280    4.1440   -6.9000 H   0  0  0  0  0  0  0  0  0  0  0  0
   -9.7510    4.5720   -6.7080 H   0  0  0  0  0  0  0  0  0  0  0  0
   -8.6890    7.7090  -10.1780 H   0  0  0  0  0  0  0  0  0  0  0  0
   -9.1170    4.4790  -16.1370 H   0  0  0  0  0  0  0  0  0  0  0  0
  1  2  1  0
  2  3  1  0
  3  4  2  0
  4  5  1  0
  5  6  2  0
  6  7  1  0
  7  8  1  0
  8  9  1  0
  9 10  1  0
 10 11  2  0
 10 12  1  0
 12 13  1  0
 13 14  2  0
 14 15  1  0
 15 16  1  0
 16 17  1  0
 17 18  1  0
 18 19  1  0
 19 20  1  0
 20 21  2  0
  7 22  2  0
 22  3  1  0
 21 13  1  0
 19 14  1  0
  1 23  1  0
  1 24  1  0
  1 25  1  0
  2 26  1  0
  2 27  1  0
  4 28  1  0
  5 29  1  0
  6 30  1  0
  8 31  1  0
  8 32  1  0
 12 33  1  0
 12 34  1  0
 15 35  1  0
 15 36  1  0
 16 37  1  0
 16 38  1  0
 17 39  1  0
 17 40  1  0
 18 41  1  0
 18 42  1  0
 21 43  1  0
 22 44  1  0
A    1
 C1 
A    2
 C2 
A    3
 C3 
A    4
 C4 
A    5
 C5 
A    6
 C6 
A    7
 C7 
A    8
 C8 
A    9
 O1 
A   10
 C9 
A   11
 O2 
A   12
 C10
A   13
 C11
A   14
 C12
A   15
 C13
A   16
 C14
A   17
 C15
A   18
 C16
A   19
 N1 
A   20
 N2 
A   21
 C17
A   22
 C18
A   23
 H1 
A   24
 H2 
A   25
 H3 
A   26
 H4 
A   27
 H5 
A   28
 H6 
A   29
 H7 
A   30
 H8 
A   31
 H9 
A   32
 H10
A   33
 H11
A   34
 H12
A   35
 H13
A   36
 H14
A   37
 H15
A   38
 H16
A   39
 H17
A   40
 H18
A   41
 H19
A   42
 H20
A   43
 H21
A   44
 H22
M  END
>  <ref_pdb>  (314) 
x0051_0B

>  <ref_mols>  (314) 
x0605_0B,x0969_1B

>  <original SMILES>  (314) 
[H]c1nn2c(c1C([H])([H])C(=O)OC([H])([H])c1c([H])c([H])c([H])c(C([H])([H])C([H])([H])[H])c1[H])C([H])([H])C([H])([H])C([H])([H])C2([H])[H]

>  <index>  (314) 
501

>  <∆∆G>  (314) 
-9.242672

>  <∆G_bound>  (314) 
-8.42517

>  <∆G_unbound>  (314) 
0.817503

>  <comRMSD>  (314) 
0.668356

>  <N_constrained_atoms>  (314) 
19.0

>  <N_unconstrained_atoms>  (314) 
3.0

>  <runtime>  (314) 
50.758898

>  <LE>  (314) 
0.420121

>  <percent_hybrid>  (314) 
48.0

>  <dist>  (314) 
5.0

>  <ecfp4>  (314) 
0.352113

>  <daylight>  (314) 
0.462151

>  <topodist>  (314) 
1.0

>  <mces>  (314) 
23.0

>  <tdn>  (314) 
0.0

>  <tup>  (314) 
1.0

>  <rdn>  (314) 
0.0

>  <rup>  (314) 
0.0

>  <ldn>  (314) 
0.0

>  <lup>  (314) 
0.0

>  <mut>  (314) 
1.0

>  <maj>  (314) 
1.0

>  <min>  (314) 
0.0

>  <hyb>  (314) 
3.0

>  <sub>  (314) 
0.0

>  <query_index>  (314) 
307.0

>  <max_hit_Tanimoto>  (314) 
0.313417

>  <largest_ring>  (314) 
6

>  <N_interactions_kept>  (314) 
1.5

>  <N_interactions_lost>  (314) 
1.5

>  <interaction_uniqueness_metric>  (314) 
0.150629

>  <ad_hoc_penalty>  (314) 
-20.897861

>  <N_rotatable_bonds>  (314) 
6

>  <N_HA>  (314) 
22

>  <cluster>  (314) 
5760

>  <N_interactions>  (314) 
5

>  <Enamine>  (314) 
1

>  <Mcule>  (314) 
0

>  <N_PAINS>  (314) 
0

>  <UFF_Gibbs>  (314) 
98.035426

>  <strain_per_HA>  (314) 
4.456156

>  <saltbridge:HIS:51>  (314) 
0

>  <pistack:HIS:51>  (314) 
1

>  <hydroph_interaction:HIS:51>  (314) 
0

>  <hbond:ALA:132>  (314) 
0

>  <hbond:SER:135>  (314) 
0

>  <hydroph_interaction:TYR:150>  (314) 
1

>  <pistack:TYR:161>  (314) 
1

>  <hydroph_interaction:TYR:161>  (314) 
1

>  <hydroph_interaction:ASP:83>  (314) 
1

>  <hbond:TYR:130>  (314) 
0

>  <hydroph_interaction:ALA:132>  (314) 
0

>  <hbond:HIS:51>  (314) 
0

>  <hbond:ASP:129>  (314) 
0

>  <hbond:TYR:150>  (314) 
0

>  <hbond:GLY:151>  (314) 
0

>  <hbond:TYR:161>  (314) 
0

>  <hydroph_interaction:TYR:130>  (314) 
0

>  <hydroph_interaction:PRO:131>  (314) 
0

>  <hydroph_interaction:ASP:129>  (314) 
0

>  <saltbridge:ASP:75>  (314) 
0

>  <saltbridge:ASP:83>  (314) 
0

>  <hydroph_interaction:ASN:152>  (314) 
0

>  <halogenbond:TYR:150>  (314) 
0

>  <hbond:ASP:83>  (314) 
0

>  <hydroph_interaction:VAL:155>  (314) 
0

>  <pication:TYR:161>  (314) 
0

>  <hbond:PRO:131>  (314) 
0

>  <hbond:LEU:128>  (314) 
0

>  <saltbridge:ASP:129>  (314) 
0

>  <hbond:THR:134>  (314) 
0

>  <pication:HIS:51>  (314) 
0

>  <hbond:SER:81>  (314) 
0

>  <hbond:GLY:159>  (314) 
0

>  <hydroph_interaction:PRO:101>  (314) 
0

>  <hydroph_interaction:THR:134>  (314) 
0

>  <hbond:GLY:82>  (314) 
0

>  <hydroph_interaction:GLU:104>  (314) 
0

>  <hydroph_interaction:VAL:36>  (314) 
0

>  <hydroph_interaction:MET:49>  (314) 
0

>  <halogenbond:GLU:104>  (314) 
0

>  <hydroph_interaction:LYS:107>  (314) 
0

$$$$
KUVSOKOYVGEETM-UHFFFAOYSA-N
     RDKit          3D

 45 49  0  0  0  0  0  0  0  0999 V2000
   -6.2510   10.2000  -24.4420 C   0  0  0  0  0  0  0  0  0  0  0  0
   -6.2000    9.7030  -25.7440 N   0  0  0  0  0  0  0  0  0  0  0  0
   -7.2950    9.2210  -26.5010 C   0  0  0  0  0  0  0  0  0  0  0  0
   -8.3530   10.0380  -26.7770 O   0  0  0  0  0  0  0  0  0  0  0  0
   -9.2330    9.2550  -27.4630 C   0  0  0  0  0  0  0  0  0  0  0  0
   -8.6450    7.9730  -27.5920 C   0  0  0  0  0  0  0  0  0  0  0  0
   -9.3120    6.9290  -28.2450 C   0  0  0  0  0  0  0  0  0  0  0  0
  -10.5850    7.1900  -28.7590 C   0  0  0  0  0  0  0  0  0  0  0  0
  -11.2340    8.5170  -28.6410 C   0  0  0  0  0  0  0  0  0  0  0  0
  -10.4870    9.6220  -27.9420 C   0  0  0  0  0  0  0  0  0  0  0  0
   -7.4130    7.9890  -26.9840 N   0  0  0  0  0  0  0  0  0  0  0  0
   -6.6000   11.3370  -24.1380 O   0  0  0  0  0  0  0  0  0  0  0  0
   -5.8520    9.2900  -23.2980 C   0  0  0  0  0  0  0  0  0  0  0  0
   -6.0550    7.7980  -23.3460 C   0  0  0  0  0  0  0  0  0  0  0  0
   -5.6320    6.9820  -22.1550 C   0  0  0  0  0  0  0  0  0  0  0  0
   -5.0590    7.5720  -21.0100 C   0  0  0  0  0  0  0  0  0  0  0  0
   -4.6220    6.8330  -19.8400 C   0  0  0  0  0  0  0  0  0  0  0  0
   -5.6020    6.0190  -19.0920 N   0  0  0  0  0  0  0  0  0  0  0  0
   -6.5630    5.2740  -19.7240 C   0  0  0  0  0  0  0  0  0  0  0  0
   -6.5760    4.7960  -20.8240 O   0  0  0  0  0  0  0  0  0  0  0  0
   -7.5900    5.1410  -18.7970 C   0  0  0  0  0  0  0  0  0  0  0  0
   -7.0580    5.4500  -17.4500 C   0  0  0  0  0  0  0  0  0  0  0  0
   -7.9900    5.3630  -16.2590 C   0  0  0  0  0  0  0  0  0  0  0  0
   -9.4490    4.9680  -16.5240 C   0  0  0  0  0  0  0  0  0  0  0  0
   -9.8970    4.6960  -17.8260 C   0  0  0  0  0  0  0  0  0  0  0  0
   -8.9240    4.7840  -19.0010 C   0  0  0  0  0  0  0  0  0  0  0  0
   -5.6570    5.7800  -17.6970 C   0  0  0  0  0  0  0  0  0  0  0  0
   -4.8030    5.8150  -16.8240 O   0  0  0  0  0  0  0  0  0  0  0  0
   -4.8940    8.9840  -21.0310 C   0  0  0  0  0  0  0  0  0  0  0  0
   -5.2730    9.8080  -22.1220 C   0  0  0  0  0  0  0  0  0  0  0  0
   -5.3830    9.9380  -26.2920 H   0  0  0  0  0  0  0  0  0  0  0  0
   -8.8530    5.9500  -28.3370 H   0  0  0  0  0  0  0  0  0  0  0  0
  -11.1200    6.3870  -29.2640 H   0  0  0  0  0  0  0  0  0  0  0  0
  -12.2300    8.6930  -29.0520 H   0  0  0  0  0  0  0  0  0  0  0  0
  -10.8880   10.6210  -27.8140 H   0  0  0  0  0  0  0  0  0  0  0  0
   -6.4980    7.3130  -24.2170 H   0  0  0  0  0  0  0  0  0  0  0  0
   -5.8090    5.9060  -22.2640 H   0  0  0  0  0  0  0  0  0  0  0  0
   -4.1780    7.5580  -19.1430 H   0  0  0  0  0  0  0  0  0  0  0  0
   -3.7880    6.1770  -20.1150 H   0  0  0  0  0  0  0  0  0  0  0  0
   -7.6280    5.5780  -15.2570 H   0  0  0  0  0  0  0  0  0  0  0  0
  -10.1420    4.8990  -15.6880 H   0  0  0  0  0  0  0  0  0  0  0  0
  -10.9350    4.4230  -18.0070 H   0  0  0  0  0  0  0  0  0  0  0  0
   -9.2740    4.5700  -20.0080 H   0  0  0  0  0  0  0  0  0  0  0  0
   -4.4520    9.4660  -20.1630 H   0  0  0  0  0  0  0  0  0  0  0  0
   -5.1010   10.8740  -22.0240 H   0  0  0  0  0  0  0  0  0  0  0  0
  1  2  1  0
  2  3  1  0
  3  4  1  0
  4  5  1  0
  5  6  2  0
  6  7  1  0
  7  8  2  0
  8  9  1  0
  9 10  2  0
  6 11  1  0
  1 12  2  0
  1 13  1  0
 13 14  2  0
 14 15  1  0
 15 16  2  0
 16 17  1  0
 17 18  1  0
 18 19  1  0
 19 20  2  0
 19 21  1  0
 21 22  2  0
 22 23  1  0
 23 24  2  0
 24 25  1  0
 25 26  2  0
 22 27  1  0
 27 28  2  0
 16 29  1  0
 29 30  2  0
  3 11  2  0
 10  5  1  0
 30 13  1  0
 27 18  1  0
 26 21  1  0
  2 31  1  0
  7 32  1  0
  8 33  1  0
  9 34  1  0
 10 35  1  0
 14 36  1  0
 15 37  1  0
 17 38  1  0
 17 39  1  0
 23 40  1  0
 24 41  1  0
 25 42  1  0
 26 43  1  0
 29 44  1  0
 30 45  1  0
A    1
 C1 
A    2
 N1 
A    3
 C2 
A    4
 O1 
A    5
 C3 
A    6
 C4 
A    7
 C5 
A    8
 C6 
A    9
 C7 
A   10
 C8 
A   11
 N2 
A   12
 O2 
A   13
 C9 
A   14
 C10
A   15
 C11
A   16
 C12
A   17
 C13
A   18
 N3 
A   19
 C14
A   20
 O3 
A   21
 C15
A   22
 C16
A   23
 C17
A   24
 C18
A   25
 C19
A   26
 C20
A   27
 C21
A   28
 O4 
A   29
 C22
A   30
 C23
A   31
 H1 
A   32
 H2 
A   33
 H3 
A   34
 H4 
A   35
 H5 
A   36
 H6 
A   37
 H7 
A   38
 H8 
A   39
 H9 
A   40
 H10
A   41
 H11
A   42
 H12
A   43
 H13
A   44
 H14
A   45
 H15
M  END
>  <ref_pdb>  (315) 
x0051_0B

>  <ref_mols>  (315) 
x0727_0B,x0846_1B

>  <original SMILES>  (315) 
[H]c1c([H])c([H])c2c(c1[H])C(=O)N(C([H])([H])c1c([H])c([H])c(C(=O)N([H])c3nc4c([H])c([H])c([H])c([H])c4o3)c([H])c1[H])C2=O

>  <index>  (315) 
463

>  <∆∆G>  (315) 
-10.13041

>  <∆G_bound>  (315) 
-9.40924

>  <∆G_unbound>  (315) 
0.72117

>  <comRMSD>  (315) 
0.605165

>  <N_constrained_atoms>  (315) 
29.0

>  <N_unconstrained_atoms>  (315) 
2.0

>  <runtime>  (315) 
48.537613

>  <LE>  (315) 
0.326787

>  <percent_hybrid>  (315) 
38.0

>  <dist>  (315) 
10.0

>  <ecfp4>  (315) 
0.166667

>  <daylight>  (315) 
0.253846

>  <topodist>  (315) 
6.0

>  <mces>  (315) 
32.0

>  <tdn>  (315) 
2.0

>  <tup>  (315) 
2.0

>  <rdn>  (315) 
0.0

>  <rup>  (315) 
0.0

>  <ldn>  (315) 
2.0

>  <lup>  (315) 
0.0

>  <mut>  (315) 
3.0

>  <maj>  (315) 
3.0

>  <min>  (315) 
0.0

>  <hyb>  (315) 
1.0

>  <sub>  (315) 
2.0

>  <query_index>  (315) 
15.0

>  <max_hit_Tanimoto>  (315) 
0.264249

>  <largest_ring>  (315) 
0

>  <N_interactions_kept>  (315) 
1.0

>  <N_interactions_lost>  (315) 
2.0

>  <interaction_uniqueness_metric>  (315) 
0.106801

>  <ad_hoc_penalty>  (315) 
-20.895621

>  <N_rotatable_bonds>  (315) 
4

>  <N_HA>  (315) 
30

>  <cluster>  (315) 
5797

>  <N_interactions>  (315) 
4

>  <Enamine>  (315) 
0

>  <Mcule>  (315) 
1

>  <N_PAINS>  (315) 
0

>  <UFF_Gibbs>  (315) 
140.876577

>  <strain_per_HA>  (315) 
4.695886

>  <saltbridge:HIS:51>  (315) 
0

>  <pistack:HIS:51>  (315) 
0

>  <hydroph_interaction:HIS:51>  (315) 
0

>  <hbond:ALA:132>  (315) 
0

>  <hbond:SER:135>  (315) 
0

>  <hydroph_interaction:TYR:150>  (315) 
1

>  <pistack:TYR:161>  (315) 
1

>  <hydroph_interaction:TYR:161>  (315) 
0

>  <hydroph_interaction:ASP:83>  (315) 
0

>  <hbond:TYR:130>  (315) 
1

>  <hydroph_interaction:ALA:132>  (315) 
0

>  <hbond:HIS:51>  (315) 
0

>  <hbond:ASP:129>  (315) 
0

>  <hbond:TYR:150>  (315) 
0

>  <hbond:GLY:151>  (315) 
0

>  <hbond:TYR:161>  (315) 
0

>  <hydroph_interaction:TYR:130>  (315) 
0

>  <hydroph_interaction:PRO:131>  (315) 
1

>  <hydroph_interaction:ASP:129>  (315) 
0

>  <saltbridge:ASP:75>  (315) 
0

>  <saltbridge:ASP:83>  (315) 
0

>  <hydroph_interaction:ASN:152>  (315) 
0

>  <halogenbond:TYR:150>  (315) 
0

>  <hbond:ASP:83>  (315) 
0

>  <hydroph_interaction:VAL:155>  (315) 
0

>  <pication:TYR:161>  (315) 
0

>  <hbond:PRO:131>  (315) 
0

>  <hbond:LEU:128>  (315) 
0

>  <saltbridge:ASP:129>  (315) 
0

>  <hbond:THR:134>  (315) 
0

>  <pication:HIS:51>  (315) 
0

>  <hbond:SER:81>  (315) 
0

>  <hbond:GLY:159>  (315) 
0

>  <hydroph_interaction:PRO:101>  (315) 
0

>  <hydroph_interaction:THR:134>  (315) 
0

>  <hbond:GLY:82>  (315) 
0

>  <hydroph_interaction:GLU:104>  (315) 
0

>  <hydroph_interaction:VAL:36>  (315) 
0

>  <hydroph_interaction:MET:49>  (315) 
0

>  <halogenbond:GLU:104>  (315) 
0

>  <hydroph_interaction:LYS:107>  (315) 
0

$$$$
Z2834780835
     RDKit          3D

 49 51  0  0  0  0  0  0  0  0999 V2000
   -2.3610    4.8250  -21.8070 C   0  0  0  0  0  0  0  0  0  0  0  0
   -3.6500    5.3820  -21.4190 N   0  0  0  0  0  0  0  0  0  0  0  0
   -4.6510    5.3560  -22.4530 C   0  0  0  0  0  0  0  0  0  0  0  0
   -4.1230    5.3520  -20.1210 C   0  0  0  0  0  0  0  0  0  0  0  0
   -3.4040    5.0730  -19.1670 O   0  0  0  0  0  0  0  0  0  0  0  0
   -5.6120    5.6710  -19.9150 C   0  0  0  0  0  0  0  0  0  0  0  0
   -5.9750    5.8270  -18.5540 O   0  0  0  0  0  0  0  0  0  0  0  0
   -7.2250    5.4550  -18.1780 C   0  0  0  0  0  0  0  0  0  0  0  0
   -8.2280    4.9840  -19.0280 C   0  0  0  0  0  0  0  0  0  0  0  0
   -9.4590    4.6400  -18.5030 C   0  0  0  0  0  0  0  0  0  0  0  0
   -9.6930    4.7650  -17.1320 C   0  0  0  0  0  0  0  0  0  0  0  0
   -8.7150    5.2350  -16.2390 C   0  0  0  0  0  0  0  0  0  0  0  0
   -9.1010    5.3120  -14.8420 N   0  0  0  0  0  0  0  0  0  0  0  0
   -8.3900    5.6790  -13.6560 C   0  0  0  0  0  0  0  0  0  0  0  0
   -7.4140    6.4210  -13.6240 O   0  0  0  0  0  0  0  0  0  0  0  0
   -8.9610    5.0730  -12.4930 N   0  0  0  0  0  0  0  0  0  0  0  0
   -8.8500    5.3930  -11.1100 C   0  0  0  0  0  0  0  0  0  0  0  0
   -8.9350    4.4360  -10.0240 C   0  0  0  0  0  0  0  0  0  0  0  0
   -9.1390    2.9690  -10.0320 C   0  0  0  0  0  0  0  0  0  0  0  0
   -9.1460    2.1780   -8.7920 C   0  0  0  0  0  0  0  0  0  0  0  0
   -9.4380    3.0240   -7.5520 C   0  0  0  0  0  0  0  0  0  0  0  0
   -8.8260    4.4370   -7.5390 C   0  0  0  0  0  0  0  0  0  0  0  0
   -8.7970    5.0790   -8.8500 N   0  0  0  0  0  0  0  0  0  0  0  0
   -8.6260    6.3980   -9.0050 N   0  0  0  0  0  0  0  0  0  0  0  0
   -8.6570    6.5960  -10.3540 C   0  0  0  0  0  0  0  0  0  0  0  0
   -7.4710    5.5780  -16.7950 C   0  0  0  0  0  0  0  0  0  0  0  0
   -2.5220    4.1560  -22.6600 H   0  0  0  0  0  0  0  0  0  0  0  0
   -1.9540    4.2460  -20.9710 H   0  0  0  0  0  0  0  0  0  0  0  0
   -1.6300    5.5800  -22.1000 H   0  0  0  0  0  0  0  0  0  0  0  0
   -5.2840    4.4680  -22.3650 H   0  0  0  0  0  0  0  0  0  0  0  0
   -4.1450    5.3400  -23.4200 H   0  0  0  0  0  0  0  0  0  0  0  0
   -5.2760    6.2490  -22.3740 H   0  0  0  0  0  0  0  0  0  0  0  0
   -6.1700    4.8010  -20.2800 H   0  0  0  0  0  0  0  0  0  0  0  0
   -5.9300    6.5340  -20.5100 H   0  0  0  0  0  0  0  0  0  0  0  0
   -8.0840    4.8740  -20.0980 H   0  0  0  0  0  0  0  0  0  0  0  0
  -10.2400    4.2750  -19.1500 H   0  0  0  0  0  0  0  0  0  0  0  0
  -10.6630    4.4880  -16.7470 H   0  0  0  0  0  0  0  0  0  0  0  0
  -10.0540    5.0240  -14.6730 H   0  0  0  0  0  0  0  0  0  0  0  0
   -9.6890    4.4040  -12.7060 H   0  0  0  0  0  0  0  0  0  0  0  0
  -10.1010    2.7910  -10.5320 H   0  0  0  0  0  0  0  0  0  0  0  0
   -8.3850    2.5230  -10.6900 H   0  0  0  0  0  0  0  0  0  0  0  0
   -9.8980    1.4140   -8.8120 H   0  0  0  0  0  0  0  0  0  0  0  0
   -8.1800    1.6880   -8.6700 H   0  0  0  0  0  0  0  0  0  0  0  0
  -10.5220    3.0780   -7.3890 H   0  0  0  0  0  0  0  0  0  0  0  0
   -9.0430    2.4810   -6.6890 H   0  0  0  0  0  0  0  0  0  0  0  0
   -7.7980    4.4010   -7.1660 H   0  0  0  0  0  0  0  0  0  0  0  0
   -9.4140    5.0980   -6.8930 H   0  0  0  0  0  0  0  0  0  0  0  0
   -8.5390    7.6030  -10.7290 H   0  0  0  0  0  0  0  0  0  0  0  0
   -6.6730    5.9470  -16.1550 H   0  0  0  0  0  0  0  0  0  0  0  0
  1  2  1  0
  2  3  1  0
  2  4  1  0
  4  5  2  0
  4  6  1  0
  6  7  1  0
  7  8  1  0
  8  9  2  0
  9 10  1  0
 10 11  2  0
 11 12  1  0
 12 13  1  0
 13 14  1  0
 14 15  2  0
 14 16  1  0
 16 17  1  0
 17 18  2  0
 18 19  1  0
 19 20  1  0
 20 21  1  0
 21 22  1  0
 22 23  1  0
 23 24  1  0
 24 25  2  0
 12 26  2  0
 26  8  1  0
 25 17  1  0
 23 18  1  0
  1 27  1  0
  1 28  1  0
  1 29  1  0
  3 30  1  0
  3 31  1  0
  3 32  1  0
  6 33  1  0
  6 34  1  0
  9 35  1  0
 10 36  1  0
 11 37  1  0
 13 38  1  0
 16 39  1  0
 19 40  1  0
 19 41  1  0
 20 42  1  0
 20 43  1  0
 21 44  1  0
 21 45  1  0
 22 46  1  0
 22 47  1  0
 25 48  1  0
 26 49  1  0
A    1
 C1 
A    2
 N1 
A    3
 C2 
A    4
 C3 
A    5
 O1 
A    6
 C4 
A    7
 O2 
A    8
 C5 
A    9
 C6 
A   10
 C7 
A   11
 C8 
A   12
 C9 
A   13
 N2 
A   14
 C10
A   15
 O3 
A   16
 N3 
A   17
 C11
A   18
 C12
A   19
 C13
A   20
 C14
A   21
 C15
A   22
 C16
A   23
 N4 
A   24
 N5 
A   25
 C17
A   26
 C18
A   27
 H1 
A   28
 H2 
A   29
 H3 
A   30
 H4 
A   31
 H5 
A   32
 H6 
A   33
 H7 
A   34
 H8 
A   35
 H9 
A   36
 H10
A   37
 H11
A   38
 H12
A   39
 H13
A   40
 H14
A   41
 H15
A   42
 H16
A   43
 H17
A   44
 H18
A   45
 H19
A   46
 H20
A   47
 H21
A   48
 H22
A   49
 H23
M  END
>  <ref_pdb>  (316) 
x0051_0B

>  <ref_mols>  (316) 
x0969_1B,x0904_0B

>  <original SMILES>  (316) 
[H]c1nn2c(c1N([H])C(=O)N([H])c1c([H])c([H])c([H])c(OC([H])([H])C(=O)N(C([H])([H])[H])C([H])([H])[H])c1[H])C([H])([H])C([H])([H])C([H])([H])C2([H])[H]

>  <index>  (316) 
584

>  <∆∆G>  (316) 
-9.477612

>  <∆G_bound>  (316) 
-8.975387

>  <∆G_unbound>  (316) 
0.502225

>  <comRMSD>  (316) 
0.585832

>  <N_constrained_atoms>  (316) 
24.0

>  <N_unconstrained_atoms>  (316) 
2.0

>  <runtime>  (316) 
71.296942

>  <LE>  (316) 
0.364524

>  <percent_hybrid>  (316) 
42.0

>  <dist>  (316) 
6.0

>  <ecfp4>  (316) 
0.527778

>  <daylight>  (316) 
0.319489

>  <topodist>  (316) 
2.0

>  <mces>  (316) 
27.0

>  <tdn>  (316) 
0.0

>  <tup>  (316) 
1.0

>  <rdn>  (316) 
0.0

>  <rup>  (316) 
0.0

>  <ldn>  (316) 
1.0

>  <lup>  (316) 
0.0

>  <mut>  (316) 
3.0

>  <maj>  (316) 
3.0

>  <min>  (316) 
0.0

>  <hyb>  (316) 
1.0

>  <sub>  (316) 
0.0

>  <query_index>  (316) 
111.0

>  <max_hit_Tanimoto>  (316) 
0.257091

>  <largest_ring>  (316) 
6

>  <N_interactions_kept>  (316) 
1.5

>  <N_interactions_lost>  (316) 
2.0

>  <interaction_uniqueness_metric>  (316) 
0.131923

>  <ad_hoc_penalty>  (316) 
-20.89273

>  <N_rotatable_bonds>  (316) 
7

>  <N_HA>  (316) 
26

>  <cluster>  (316) 
5684

>  <N_interactions>  (316) 
6

>  <Enamine>  (316) 
1

>  <Mcule>  (316) 
0

>  <N_PAINS>  (316) 
0

>  <UFF_Gibbs>  (316) 
84.126878

>  <strain_per_HA>  (316) 
3.235649

>  <saltbridge:HIS:51>  (316) 
0

>  <pistack:HIS:51>  (316) 
1

>  <hydroph_interaction:HIS:51>  (316) 
0

>  <hbond:ALA:132>  (316) 
0

>  <hbond:SER:135>  (316) 
0

>  <hydroph_interaction:TYR:150>  (316) 
1

>  <pistack:TYR:161>  (316) 
1

>  <hydroph_interaction:TYR:161>  (316) 
0

>  <hydroph_interaction:ASP:83>  (316) 
0

>  <hbond:TYR:130>  (316) 
0

>  <hydroph_interaction:ALA:132>  (316) 
1

>  <hbond:HIS:51>  (316) 
0

>  <hbond:ASP:129>  (316) 
0

>  <hbond:TYR:150>  (316) 
0

>  <hbond:GLY:151>  (316) 
2

>  <hbond:TYR:161>  (316) 
0

>  <hydroph_interaction:TYR:130>  (316) 
0

>  <hydroph_interaction:PRO:131>  (316) 
0

>  <hydroph_interaction:ASP:129>  (316) 
0

>  <saltbridge:ASP:75>  (316) 
0

>  <saltbridge:ASP:83>  (316) 
0

>  <hydroph_interaction:ASN:152>  (316) 
0

>  <halogenbond:TYR:150>  (316) 
0

>  <hbond:ASP:83>  (316) 
0

>  <hydroph_interaction:VAL:155>  (316) 
0

>  <pication:TYR:161>  (316) 
0

>  <hbond:PRO:131>  (316) 
0

>  <hbond:LEU:128>  (316) 
0

>  <saltbridge:ASP:129>  (316) 
0

>  <hbond:THR:134>  (316) 
0

>  <pication:HIS:51>  (316) 
0

>  <hbond:SER:81>  (316) 
0

>  <hbond:GLY:159>  (316) 
0

>  <hydroph_interaction:PRO:101>  (316) 
0

>  <hydroph_interaction:THR:134>  (316) 
0

>  <hbond:GLY:82>  (316) 
0

>  <hydroph_interaction:GLU:104>  (316) 
0

>  <hydroph_interaction:VAL:36>  (316) 
0

>  <hydroph_interaction:MET:49>  (316) 
0

>  <halogenbond:GLU:104>  (316) 
0

>  <hydroph_interaction:LYS:107>  (316) 
0

$$$$
Z1256109573
     RDKit          3D

 50 55  0  0  0  0  0  0  0  0999 V2000
   -3.6640    5.4430  -21.6990 O   0  0  0  0  0  0  0  0  0  0  0  0
   -4.4690    6.1550  -21.1140 C   0  0  0  0  0  0  0  0  0  0  0  0
   -5.0130    7.2760  -21.9820 C   0  0  0  0  0  0  0  0  0  0  0  0
   -5.8220    7.0880  -23.1170 C   0  0  0  0  0  0  0  0  0  0  0  0
   -6.2820    8.1860  -23.9290 C   0  0  0  0  0  0  0  0  0  0  0  0
   -5.9090    9.4690  -23.5680 C   0  0  0  0  0  0  0  0  0  0  0  0
   -6.4300   10.8500  -24.5490 S   0  0  0  0  0  0  0  0  0  0  0  0
   -6.0910   10.1780  -26.2240 C   0  0  0  0  0  0  0  0  0  0  0  0
   -7.2390    9.6090  -26.7750 C   0  0  0  0  0  0  0  0  0  0  0  0
   -7.3890    8.2820  -27.1560 N   0  0  0  0  0  0  0  0  0  0  0  0
   -8.7230    8.2080  -27.6190 C   0  0  0  0  0  0  0  0  0  0  0  0
   -9.3020    6.9040  -28.1180 C   0  0  0  0  0  0  0  0  0  0  0  0
  -10.6480    6.9760  -28.5310 C   0  0  0  0  0  0  0  0  0  0  0  0
  -11.4050    8.2800  -28.4640 C   0  0  0  0  0  0  0  0  0  0  0  0
  -10.7210    9.5380  -27.9500 C   0  0  0  0  0  0  0  0  0  0  0  0
   -9.4000    9.4350  -27.5480 C   0  0  0  0  0  0  0  0  0  0  0  0
   -8.4420   10.3110  -27.0230 N   0  0  0  0  0  0  0  0  0  0  0  0
   -5.1150    9.6820  -22.4330 C   0  0  0  0  0  0  0  0  0  0  0  0
   -4.6720    8.6040  -21.6500 C   0  0  0  0  0  0  0  0  0  0  0  0
   -4.8490    5.9780  -19.7670 N   0  0  0  0  0  0  0  0  0  0  0  0
   -4.0420    5.6780  -18.5350 C   0  0  0  0  0  0  0  0  0  0  0  0
   -4.9390    5.8040  -17.4500 C   0  0  0  0  0  0  0  0  0  0  0  0
   -6.2070    5.5570  -18.1100 N   0  0  0  0  0  0  0  0  0  0  0  0
   -6.1100    5.6470  -19.4340 C   0  0  0  0  0  0  0  0  0  0  0  0
   -7.2450    5.4010  -20.0380 N   0  0  0  0  0  0  0  0  0  0  0  0
   -8.1100    5.1740  -19.0120 C   0  0  0  0  0  0  0  0  0  0  0  0
   -9.4660    4.8890  -19.0920 C   0  0  0  0  0  0  0  0  0  0  0  0
  -10.1730    4.7060  -17.9170 C   0  0  0  0  0  0  0  0  0  0  0  0
   -9.5370    4.7970  -16.6760 C   0  0  0  0  0  0  0  0  0  0  0  0
   -8.1670    5.0760  -16.5670 C   0  0  0  0  0  0  0  0  0  0  0  0
   -7.4860    5.2640  -17.7640 C   0  0  0  0  0  0  0  0  0  0  0  0
   -6.1040    6.0760  -23.3930 H   0  0  0  0  0  0  0  0  0  0  0  0
   -6.9010    8.0000  -24.8010 H   0  0  0  0  0  0  0  0  0  0  0  0
   -5.7770   11.0250  -26.8450 H   0  0  0  0  0  0  0  0  0  0  0  0
   -5.2110    9.5430  -26.1280 H   0  0  0  0  0  0  0  0  0  0  0  0
   -8.7200    5.9880  -28.1470 H   0  0  0  0  0  0  0  0  0  0  0  0
  -11.1400    6.0800  -28.9000 H   0  0  0  0  0  0  0  0  0  0  0  0
  -12.4460    8.3220  -28.7860 H   0  0  0  0  0  0  0  0  0  0  0  0
  -11.2590   10.4790  -27.9000 H   0  0  0  0  0  0  0  0  0  0  0  0
   -8.5920   11.2930  -26.8380 H   0  0  0  0  0  0  0  0  0  0  0  0
   -4.8270   10.6930  -22.1510 H   0  0  0  0  0  0  0  0  0  0  0  0
   -4.0520    8.8030  -20.7800 H   0  0  0  0  0  0  0  0  0  0  0  0
   -3.2160    6.3910  -18.4690 H   0  0  0  0  0  0  0  0  0  0  0  0
   -3.6360    4.6650  -18.5900 H   0  0  0  0  0  0  0  0  0  0  0  0
   -4.9560    6.8290  -17.0720 H   0  0  0  0  0  0  0  0  0  0  0  0
   -4.8690    5.1100  -16.6170 H   0  0  0  0  0  0  0  0  0  0  0  0
   -9.9320    4.8250  -20.0640 H   0  0  0  0  0  0  0  0  0  0  0  0
  -11.2370    4.4900  -17.9710 H   0  0  0  0  0  0  0  0  0  0  0  0
  -10.1200    4.6480  -15.7710 H   0  0  0  0  0  0  0  0  0  0  0  0
   -7.6810    5.1430  -15.6020 H   0  0  0  0  0  0  0  0  0  0  0  0
  1  2  2  0
  2  3  1  0
  3  4  2  0
  4  5  1  0
  5  6  2  0
  6  7  1  0
  7  8  1  0
  8  9  1  0
  9 10  2  0
 10 11  1  0
 11 12  2  0
 12 13  1  0
 13 14  2  0
 14 15  1  0
 15 16  2  0
 16 17  1  0
  6 18  1  0
 18 19  2  0
  2 20  1  0
 20 21  1  0
 21 22  1  0
 22 23  1  0
 23 24  1  0
 24 25  2  0
 25 26  1  0
 26 27  2  0
 27 28  1  0
 28 29  2  0
 29 30  1  0
 30 31  2  0
 19  3  1  0
 17  9  1  0
 16 11  1  0
 24 20  1  0
 31 23  1  0
 31 26  1  0
  4 32  1  0
  5 33  1  0
  8 34  1  0
  8 35  1  0
 12 36  1  0
 13 37  1  0
 14 38  1  0
 15 39  1  0
 17 40  1  0
 18 41  1  0
 19 42  1  0
 21 43  1  0
 21 44  1  0
 22 45  1  0
 22 46  1  0
 27 47  1  0
 28 48  1  0
 29 49  1  0
 30 50  1  0
A    1
 O1 
A    2
 C1 
A    3
 C2 
A    4
 C3 
A    5
 C4 
A    6
 C5 
A    7
 S1 
A    8
 C6 
A    9
 C7 
A   10
 N1 
A   11
 C8 
A   12
 C9 
A   13
 C10
A   14
 C11
A   15
 C12
A   16
 C13
A   17
 N2 
A   18
 C14
A   19
 C15
A   20
 N3 
A   21
 C16
A   22
 C17
A   23
 N4 
A   24
 C18
A   25
 N5 
A   26
 C19
A   27
 C20
A   28
 C21
A   29
 C22
A   30
 C23
A   31
 C24
A   32
 H1 
A   33
 H2 
A   34
 H3 
A   35
 H4 
A   36
 H5 
A   37
 H6 
A   38
 H7 
A   39
 H8 
A   40
 H9 
A   41
 H10
A   42
 H11
A   43
 H12
A   44
 H13
A   45
 H14
A   46
 H15
A   47
 H16
A   48
 H17
A   49
 H18
A   50
 H19
M  END
>  <ref_pdb>  (317) 
x0051_0B

>  <ref_mols>  (317) 
x0846_1B,x0490_0B

>  <original SMILES>  (317) 
[H]c1c([H])c(C(=O)N2c3nc4c([H])c([H])c([H])c([H])c4n3C([H])([H])C2([H])[H])c([H])c([H])c1SC([H])([H])c1nc2c([H])c([H])c([H])c([H])c2n1[H]

>  <index>  (317) 
617

>  <∆∆G>  (317) 
-9.109488

>  <∆G_bound>  (317) 
-7.749835

>  <∆G_unbound>  (317) 
1.359653

>  <comRMSD>  (317) 
0.702247

>  <N_constrained_atoms>  (317) 
29.0

>  <N_unconstrained_atoms>  (317) 
2.0

>  <runtime>  (317) 
43.185533

>  <LE>  (317) 
0.293854

>  <percent_hybrid>  (317) 
38.0

>  <dist>  (317) 
7.0

>  <ecfp4>  (317) 
0.297619

>  <daylight>  (317) 
0.425

>  <topodist>  (317) 
3.0

>  <mces>  (317) 
34.0

>  <tdn>  (317) 
1.0

>  <tup>  (317) 
1.0

>  <rdn>  (317) 
0.0

>  <rup>  (317) 
1.0

>  <ldn>  (317) 
0.0

>  <lup>  (317) 
0.0

>  <mut>  (317) 
4.0

>  <maj>  (317) 
4.0

>  <min>  (317) 
0.0

>  <hyb>  (317) 
0.0

>  <sub>  (317) 
2.0

>  <query_index>  (317) 
51.0

>  <max_hit_Tanimoto>  (317) 
0.323105

>  <largest_ring>  (317) 
6

>  <N_interactions_kept>  (317) 
0.0

>  <N_interactions_lost>  (317) 
3.0

>  <interaction_uniqueness_metric>  (317) 
0.182203

>  <ad_hoc_penalty>  (317) 
-20.867233

>  <N_rotatable_bonds>  (317) 
4

>  <N_HA>  (317) 
31

>  <cluster>  (317) 
5654

>  <N_interactions>  (317) 
6

>  <Enamine>  (317) 
1

>  <Mcule>  (317) 
0

>  <N_PAINS>  (317) 
0

>  <UFF_Gibbs>  (317) 
100.080402

>  <strain_per_HA>  (317) 
3.2284

>  <saltbridge:HIS:51>  (317) 
0

>  <pistack:HIS:51>  (317) 
0

>  <hydroph_interaction:HIS:51>  (317) 
0

>  <hbond:ALA:132>  (317) 
0

>  <hbond:SER:135>  (317) 
0

>  <hydroph_interaction:TYR:150>  (317) 
1

>  <pistack:TYR:161>  (317) 
1

>  <hydroph_interaction:TYR:161>  (317) 
1

>  <hydroph_interaction:ASP:83>  (317) 
0

>  <hbond:TYR:130>  (317) 
0

>  <hydroph_interaction:ALA:132>  (317) 
0

>  <hbond:HIS:51>  (317) 
0

>  <hbond:ASP:129>  (317) 
1

>  <hbond:TYR:150>  (317) 
0

>  <hbond:GLY:151>  (317) 
0

>  <hbond:TYR:161>  (317) 
0

>  <hydroph_interaction:TYR:130>  (317) 
1

>  <hydroph_interaction:PRO:131>  (317) 
1

>  <hydroph_interaction:ASP:129>  (317) 
0

>  <saltbridge:ASP:75>  (317) 
0

>  <saltbridge:ASP:83>  (317) 
0

>  <hydroph_interaction:ASN:152>  (317) 
0

>  <halogenbond:TYR:150>  (317) 
0

>  <hbond:ASP:83>  (317) 
0

>  <hydroph_interaction:VAL:155>  (317) 
0

>  <pication:TYR:161>  (317) 
0

>  <hbond:PRO:131>  (317) 
0

>  <hbond:LEU:128>  (317) 
0

>  <saltbridge:ASP:129>  (317) 
0

>  <hbond:THR:134>  (317) 
0

>  <pication:HIS:51>  (317) 
0

>  <hbond:SER:81>  (317) 
0

>  <hbond:GLY:159>  (317) 
0

>  <hydroph_interaction:PRO:101>  (317) 
0

>  <hydroph_interaction:THR:134>  (317) 
0

>  <hbond:GLY:82>  (317) 
0

>  <hydroph_interaction:GLU:104>  (317) 
0

>  <hydroph_interaction:VAL:36>  (317) 
0

>  <hydroph_interaction:MET:49>  (317) 
0

>  <halogenbond:GLU:104>  (317) 
0

>  <hydroph_interaction:LYS:107>  (317) 
0

$$$$
Z3553177694
     RDKit          3D

 40 43  0  0  0  0  0  0  0  0999 V2000
   -6.4960    5.1490  -20.4450 C   0  0  0  0  0  0  0  0  0  0  0  0
   -6.5250    5.2360  -19.0120 N   0  0  0  0  0  0  0  0  0  0  0  0
   -5.3800    5.4530  -18.2910 N   0  0  0  0  0  0  0  0  0  0  0  0
   -5.7280    5.4820  -17.0080 N   0  0  0  0  0  0  0  0  0  0  0  0
   -7.0870    5.2860  -16.9200 C   0  0  0  0  0  0  0  0  0  0  0  0
   -8.0390    5.2240  -15.7170 C   0  0  0  0  0  0  0  0  0  0  0  0
   -7.4410    5.4050  -14.3230 C   0  0  0  0  0  0  0  0  0  0  0  0
   -8.3160    4.9870  -13.2230 O   0  0  0  0  0  0  0  0  0  0  0  0
   -8.7570    6.0160  -12.4050 C   0  0  0  0  0  0  0  0  0  0  0  0
   -9.1060    7.0940  -12.8750 O   0  0  0  0  0  0  0  0  0  0  0  0
   -8.7960    5.8030  -10.9340 C   0  0  0  0  0  0  0  0  0  0  0  0
   -8.8890    4.5470  -10.0500 C   0  0  0  0  0  0  0  0  0  0  0  0
   -8.9630    3.1020  -10.3290 C   0  0  0  0  0  0  0  0  0  0  0  0
   -9.4360    2.2460   -9.1460 C   0  0  0  0  0  0  0  0  0  0  0  0
   -9.5710    2.8480   -7.7440 C   0  0  0  0  0  0  0  0  0  0  0  0
   -8.9730    4.2370   -7.5560 C   0  0  0  0  0  0  0  0  0  0  0  0
   -8.8930    5.0250   -8.7680 N   0  0  0  0  0  0  0  0  0  0  0  0
   -8.8130    6.3590   -8.6740 N   0  0  0  0  0  0  0  0  0  0  0  0
   -8.7610    6.8100   -9.9380 C   0  0  0  0  0  0  0  0  0  0  0  0
   -9.3960    5.0030  -16.0330 C   0  0  0  0  0  0  0  0  0  0  0  0
   -9.8320    4.8450  -17.3640 C   0  0  0  0  0  0  0  0  0  0  0  0
   -8.9680    4.8990  -18.4630 C   0  0  0  0  0  0  0  0  0  0  0  0
   -7.6140    5.1230  -18.2010 C   0  0  0  0  0  0  0  0  0  0  0  0
   -5.5800    4.6620  -20.7890 H   0  0  0  0  0  0  0  0  0  0  0  0
   -7.3630    4.5740  -20.7930 H   0  0  0  0  0  0  0  0  0  0  0  0
   -6.5400    6.1560  -20.8710 H   0  0  0  0  0  0  0  0  0  0  0  0
   -6.5160    4.8180  -14.2860 H   0  0  0  0  0  0  0  0  0  0  0  0
   -7.1820    6.4600  -14.1710 H   0  0  0  0  0  0  0  0  0  0  0  0
   -9.6420    2.9200  -11.1720 H   0  0  0  0  0  0  0  0  0  0  0  0
   -7.9740    2.7600  -10.6490 H   0  0  0  0  0  0  0  0  0  0  0  0
  -10.4170    1.8970   -9.4170 H   0  0  0  0  0  0  0  0  0  0  0  0
   -8.7950    1.3650   -9.0740 H   0  0  0  0  0  0  0  0  0  0  0  0
  -10.6360    2.8780   -7.4830 H   0  0  0  0  0  0  0  0  0  0  0  0
   -9.1030    2.1680   -7.0240 H   0  0  0  0  0  0  0  0  0  0  0  0
   -7.9520    4.1650   -7.1690 H   0  0  0  0  0  0  0  0  0  0  0  0
   -9.5740    4.8040   -6.8350 H   0  0  0  0  0  0  0  0  0  0  0  0
   -8.6970    7.8790  -10.0900 H   0  0  0  0  0  0  0  0  0  0  0  0
  -10.1310    4.9490  -15.2280 H   0  0  0  0  0  0  0  0  0  0  0  0
  -10.8860    4.6730  -17.5550 H   0  0  0  0  0  0  0  0  0  0  0  0
   -9.3410    4.7750  -19.4740 H   0  0  0  0  0  0  0  0  0  0  0  0
  1  2  1  0
  2  3  1  0
  3  4  2  0
  4  5  1  0
  5  6  2  0
  6  7  1  0
  7  8  1  0
  8  9  1  0
  9 10  2  0
  9 11  1  0
 11 12  2  0
 12 13  1  0
 13 14  1  0
 14 15  1  0
 15 16  1  0
 16 17  1  0
 17 18  1  0
 18 19  2  0
  6 20  1  0
 20 21  2  0
 21 22  1  0
 22 23  2  0
 23  2  1  0
 23  5  1  0
 19 11  1  0
 17 12  1  0
  1 24  1  0
  1 25  1  0
  1 26  1  0
  7 27  1  0
  7 28  1  0
 13 29  1  0
 13 30  1  0
 14 31  1  0
 14 32  1  0
 15 33  1  0
 15 34  1  0
 16 35  1  0
 16 36  1  0
 19 37  1  0
 20 38  1  0
 21 39  1  0
 22 40  1  0
A    1
 C1 
A    2
 N1 
A    3
 N2 
A    4
 N3 
A    5
 C2 
A    6
 C3 
A    7
 C4 
A    8
 O1 
A    9
 C5 
A   10
 O2 
A   11
 C6 
A   12
 C7 
A   13
 C8 
A   14
 C9 
A   15
 C10
A   16
 C11
A   17
 N4 
A   18
 N5 
A   19
 C12
A   20
 C13
A   21
 C14
A   22
 C15
A   23
 C16
A   24
 H1 
A   25
 H2 
A   26
 H3 
A   27
 H4 
A   28
 H5 
A   29
 H6 
A   30
 H7 
A   31
 H8 
A   32
 H9 
A   33
 H10
A   34
 H11
A   35
 H12
A   36
 H13
A   37
 H14
A   38
 H15
A   39
 H16
A   40
 H17
M  END
>  <ref_pdb>  (318) 
x0051_0B

>  <ref_mols>  (318) 
x0969_1B,x0435_0B

>  <original SMILES>  (318) 
[H]c1nn2c(c1C(=O)OC([H])([H])c1c([H])c([H])c([H])c3c1nnn3C([H])([H])[H])C([H])([H])C([H])([H])C([H])([H])C2([H])[H]

>  <index>  (318) 
629

>  <∆∆G>  (318) 
-6.527428

>  <∆G_bound>  (318) 
-6.039534

>  <∆G_unbound>  (318) 
0.487893

>  <comRMSD>  (318) 
0.412129

>  <N_constrained_atoms>  (318) 
20.0

>  <N_unconstrained_atoms>  (318) 
3.0

>  <runtime>  (318) 
54.144036

>  <LE>  (318) 
0.283801

>  <percent_hybrid>  (318) 
50.0

>  <dist>  (318) 
6.0

>  <ecfp4>  (318) 
0.155556

>  <daylight>  (318) 
0.320475

>  <topodist>  (318) 
1.0

>  <mces>  (318) 
25.0

>  <tdn>  (318) 
0.0

>  <tup>  (318) 
1.0

>  <rdn>  (318) 
0.0

>  <rup>  (318) 
0.0

>  <ldn>  (318) 
0.0

>  <lup>  (318) 
0.0

>  <mut>  (318) 
4.0

>  <maj>  (318) 
4.0

>  <min>  (318) 
0.0

>  <hyb>  (318) 
1.0

>  <sub>  (318) 
0.0

>  <query_index>  (318) 
343.0

>  <max_hit_Tanimoto>  (318) 
0.296422

>  <largest_ring>  (318) 
6

>  <N_interactions_kept>  (318) 
2.0

>  <N_interactions_lost>  (318) 
1.5

>  <interaction_uniqueness_metric>  (318) 
0.176625

>  <ad_hoc_penalty>  (318) 
-20.866593

>  <N_rotatable_bonds>  (318) 
4

>  <N_HA>  (318) 
23

>  <cluster>  (318) 
5644

>  <N_interactions>  (318) 
5

>  <Enamine>  (318) 
1

>  <Mcule>  (318) 
0

>  <N_PAINS>  (318) 
0

>  <UFF_Gibbs>  (318) 
70.026063

>  <strain_per_HA>  (318) 
3.044611

>  <saltbridge:HIS:51>  (318) 
1

>  <pistack:HIS:51>  (318) 
1

>  <hydroph_interaction:HIS:51>  (318) 
1

>  <hbond:ALA:132>  (318) 
0

>  <hbond:SER:135>  (318) 
0

>  <hydroph_interaction:TYR:150>  (318) 
0

>  <pistack:TYR:161>  (318) 
1

>  <hydroph_interaction:TYR:161>  (318) 
1

>  <hydroph_interaction:ASP:83>  (318) 
0

>  <hbond:TYR:130>  (318) 
0

>  <hydroph_interaction:ALA:132>  (318) 
0

>  <hbond:HIS:51>  (318) 
0

>  <hbond:ASP:129>  (318) 
0

>  <hbond:TYR:150>  (318) 
0

>  <hbond:GLY:151>  (318) 
0

>  <hbond:TYR:161>  (318) 
0

>  <hydroph_interaction:TYR:130>  (318) 
0

>  <hydroph_interaction:PRO:131>  (318) 
0

>  <hydroph_interaction:ASP:129>  (318) 
0

>  <saltbridge:ASP:75>  (318) 
0

>  <saltbridge:ASP:83>  (318) 
0

>  <hydroph_interaction:ASN:152>  (318) 
0

>  <halogenbond:TYR:150>  (318) 
0

>  <hbond:ASP:83>  (318) 
0

>  <hydroph_interaction:VAL:155>  (318) 
0

>  <pication:TYR:161>  (318) 
0

>  <hbond:PRO:131>  (318) 
0

>  <hbond:LEU:128>  (318) 
0

>  <saltbridge:ASP:129>  (318) 
0

>  <hbond:THR:134>  (318) 
0

>  <pication:HIS:51>  (318) 
0

>  <hbond:SER:81>  (318) 
0

>  <hbond:GLY:159>  (318) 
0

>  <hydroph_interaction:PRO:101>  (318) 
0

>  <hydroph_interaction:THR:134>  (318) 
0

>  <hbond:GLY:82>  (318) 
0

>  <hydroph_interaction:GLU:104>  (318) 
0

>  <hydroph_interaction:VAL:36>  (318) 
0

>  <hydroph_interaction:MET:49>  (318) 
0

>  <halogenbond:GLU:104>  (318) 
0

>  <hydroph_interaction:LYS:107>  (318) 
0

$$$$
MCULE-1964690009
     RDKit          3D

 49 52  0  0  0  0  0  0  0  0999 V2000
   -9.6680    4.1150  -19.5880 C   0  0  0  0  0  0  0  0  0  0  0  0
  -11.0110    4.0130  -19.7240 O   0  0  0  0  0  0  0  0  0  0  0  0
  -11.2640    3.4200  -21.0050 C   0  0  0  0  0  0  0  0  0  0  0  0
  -12.5750    3.1810  -21.4140 C   0  0  0  0  0  0  0  0  0  0  0  0
  -10.0360    3.1620  -21.6490 C   0  0  0  0  0  0  0  0  0  0  0  0
   -8.9210    3.6060  -20.7640 C   0  0  0  0  0  0  0  0  0  0  0  0
   -8.9320    4.6490  -18.4450 C   0  0  0  0  0  0  0  0  0  0  0  0
   -9.6760    5.0170  -17.2310 C   0  0  0  0  0  0  0  0  0  0  0  0
   -8.9850    5.5620  -16.0770 C   0  0  0  0  0  0  0  0  0  0  0  0
   -9.5820    5.9720  -14.8940 N   0  0  0  0  0  0  0  0  0  0  0  0
   -9.0210    6.8620  -14.0200 C   0  0  0  0  0  0  0  0  0  0  0  0
   -8.9800    6.2600  -12.6520 C   0  0  0  0  0  0  0  0  0  0  0  0
   -8.8520    7.1010  -11.5600 C   0  0  0  0  0  0  0  0  0  0  0  0
   -8.8250    6.5300  -10.1470 C   0  0  0  0  0  0  0  0  0  0  0  0
   -8.9540    5.0150  -10.1480 C   0  0  0  0  0  0  0  0  0  0  0  0
   -8.9710    4.3060   -8.9800 N   0  0  0  0  0  0  0  0  0  0  0  0
   -9.4120    2.8930   -9.0130 C   0  0  0  0  0  0  0  0  0  0  0  0
   -9.6720    2.4040   -7.7410 C   0  0  0  0  0  0  0  0  0  0  0  0
   -9.9890    3.4180   -6.7960 O   0  0  0  0  0  0  0  0  0  0  0  0
   -8.9130    4.3190   -6.5800 C   0  0  0  0  0  0  0  0  0  0  0  0
   -8.3410    4.8370   -7.7530 C   0  0  0  0  0  0  0  0  0  0  0  0
   -9.0670    4.2970  -11.3410 C   0  0  0  0  0  0  0  0  0  0  0  0
   -9.0810    4.8950  -12.5660 C   0  0  0  0  0  0  0  0  0  0  0  0
   -8.5820    7.9720  -14.2350 O   0  0  0  0  0  0  0  0  0  0  0  0
   -7.5990    5.6940  -16.1760 C   0  0  0  0  0  0  0  0  0  0  0  0
   -6.9000    5.3340  -17.3380 C   0  0  0  0  0  0  0  0  0  0  0  0
   -7.5580    4.8250  -18.4560 C   0  0  0  0  0  0  0  0  0  0  0  0
  -12.9410    3.7680  -22.1990 H   0  0  0  0  0  0  0  0  0  0  0  0
  -12.7500    2.2010  -21.8160 H   0  0  0  0  0  0  0  0  0  0  0  0
  -13.2670    3.3080  -20.5780 H   0  0  0  0  0  0  0  0  0  0  0  0
   -9.8320    2.7180  -22.6070 H   0  0  0  0  0  0  0  0  0  0  0  0
   -7.8660    3.5070  -21.0500 H   0  0  0  0  0  0  0  0  0  0  0  0
  -10.7490    4.8830  -17.2110 H   0  0  0  0  0  0  0  0  0  0  0  0
  -10.1950    5.2850  -14.4680 H   0  0  0  0  0  0  0  0  0  0  0  0
   -8.7740    8.1760  -11.6870 H   0  0  0  0  0  0  0  0  0  0  0  0
   -8.7310    7.1530   -9.2640 H   0  0  0  0  0  0  0  0  0  0  0  0
  -10.3330    2.7850   -9.5880 H   0  0  0  0  0  0  0  0  0  0  0  0
   -8.6620    2.2740   -9.5110 H   0  0  0  0  0  0  0  0  0  0  0  0
  -10.5060    1.6950   -7.7650 H   0  0  0  0  0  0  0  0  0  0  0  0
   -8.8070    1.8720   -7.3550 H   0  0  0  0  0  0  0  0  0  0  0  0
   -8.1550    3.7770   -6.0030 H   0  0  0  0  0  0  0  0  0  0  0  0
   -9.2970    5.1390   -5.9590 H   0  0  0  0  0  0  0  0  0  0  0  0
   -8.4340    5.9180   -7.7030 H   0  0  0  0  0  0  0  0  0  0  0  0
   -7.2750    4.5860   -7.7790 H   0  0  0  0  0  0  0  0  0  0  0  0
   -9.1540    3.2140  -11.3260 H   0  0  0  0  0  0  0  0  0  0  0  0
   -9.1770    4.2880  -13.4630 H   0  0  0  0  0  0  0  0  0  0  0  0
   -7.0260    6.0890  -15.3430 H   0  0  0  0  0  0  0  0  0  0  0  0
   -5.8190    5.4560  -17.3720 H   0  0  0  0  0  0  0  0  0  0  0  0
   -6.9780    4.5650  -19.3380 H   0  0  0  0  0  0  0  0  0  0  0  0
  1  2  1  0
  2  3  1  0
  3  4  1  0
  3  5  2  0
  5  6  1  0
  1  7  1  0
  7  8  2  0
  8  9  1  0
  9 10  1  0
 10 11  1  0
 11 12  1  0
 12 13  2  0
 13 14  1  0
 14 15  2  0
 15 16  1  0
 16 17  1  0
 17 18  1  0
 18 19  1  0
 19 20  1  0
 20 21  1  0
 15 22  1  0
 22 23  2  0
 11 24  2  0
  9 25  2  0
 25 26  1  0
 26 27  2  0
  1  6  2  0
  7 27  1  0
 12 23  1  0
 21 16  1  0
  4 28  1  0
  4 29  1  0
  4 30  1  0
  5 31  1  0
  6 32  1  0
  8 33  1  0
 10 34  1  0
 13 35  1  0
 14 36  1  0
 17 37  1  0
 17 38  1  0
 18 39  1  0
 18 40  1  0
 20 41  1  0
 20 42  1  0
 21 43  1  0
 21 44  1  0
 22 45  1  0
 23 46  1  0
 25 47  1  0
 26 48  1  0
 27 49  1  0
A    1
 C1 
A    2
 O1 
A    3
 C2 
A    4
 C3 
A    5
 C4 
A    6
 C5 
A    7
 C6 
A    8
 C7 
A    9
 C8 
A   10
 N1 
A   11
 C9 
A   12
 C10
A   13
 C11
A   14
 C12
A   15
 C13
A   16
 N2 
A   17
 C14
A   18
 C15
A   19
 O2 
A   20
 C16
A   21
 C17
A   22
 C18
A   23
 C19
A   24
 O3 
A   25
 C20
A   26
 C21
A   27
 C22
A   28
 H1 
A   29
 H2 
A   30
 H3 
A   31
 H4 
A   32
 H5 
A   33
 H6 
A   34
 H7 
A   35
 H8 
A   36
 H9 
A   37
 H10
A   38
 H11
A   39
 H12
A   40
 H13
A   41
 H14
A   42
 H15
A   43
 H16
A   44
 H17
A   45
 H18
A   46
 H19
A   47
 H20
A   48
 H21
A   49
 H22
M  END
>  <ref_pdb>  (319) 
x0051_0B

>  <ref_mols>  (319) 
x0089_0B,x0404_0B

>  <original SMILES>  (319) 
[H]c1c(-c2c([H])c([H])c([H])c(N([H])C(=O)c3c([H])c([H])c(N4C([H])([H])C([H])([H])OC([H])([H])C4([H])[H])c([H])c3[H])c2[H])oc(C([H])([H])[H])c1[H]

>  <index>  (319) 
838

>  <∆∆G>  (319) 
-6.618441

>  <∆G_bound>  (319) 
-6.399808

>  <∆G_unbound>  (319) 
0.218633

>  <comRMSD>  (319) 
0.693407

>  <N_constrained_atoms>  (319) 
22.0

>  <N_unconstrained_atoms>  (319) 
7.0

>  <runtime>  (319) 
175.598868

>  <LE>  (319) 
0.228222

>  <percent_hybrid>  (319) 
37.0

>  <dist>  (319) 
12.0

>  <ecfp4>  (319) 
0.229885

>  <daylight>  (319) 
0.164875

>  <topodist>  (319) 
5.0

>  <mces>  (319) 
29.0

>  <tdn>  (319) 
2.0

>  <tup>  (319) 
0.0

>  <rdn>  (319) 
1.0

>  <rup>  (319) 
1.0

>  <ldn>  (319) 
1.0

>  <lup>  (319) 
0.0

>  <mut>  (319) 
5.0

>  <maj>  (319) 
5.0

>  <min>  (319) 
0.0

>  <hyb>  (319) 
2.0

>  <sub>  (319) 
2.0

>  <query_index>  (319) 
3.0

>  <max_hit_Tanimoto>  (319) 
0.211864

>  <largest_ring>  (319) 
6

>  <N_interactions_kept>  (319) 
1.0

>  <N_interactions_lost>  (319) 
3.5

>  <interaction_uniqueness_metric>  (319) 
0.522112

>  <ad_hoc_penalty>  (319) 
-20.802439

>  <N_rotatable_bonds>  (319) 
5

>  <N_HA>  (319) 
27

>  <cluster>  (319) 
5451

>  <N_interactions>  (319) 
9

>  <Enamine>  (319) 
0

>  <Mcule>  (319) 
1

>  <N_PAINS>  (319) 
0

>  <UFF_Gibbs>  (319) 
151.388852

>  <strain_per_HA>  (319) 
5.606995

>  <saltbridge:HIS:51>  (319) 
0

>  <pistack:HIS:51>  (319) 
1

>  <hydroph_interaction:HIS:51>  (319) 
1

>  <hbond:ALA:132>  (319) 
0

>  <hbond:SER:135>  (319) 
0

>  <hydroph_interaction:TYR:150>  (319) 
2

>  <pistack:TYR:161>  (319) 
1

>  <hydroph_interaction:TYR:161>  (319) 
1

>  <hydroph_interaction:ASP:83>  (319) 
0

>  <hbond:TYR:130>  (319) 
0

>  <hydroph_interaction:ALA:132>  (319) 
1

>  <hbond:HIS:51>  (319) 
1

>  <hbond:ASP:129>  (319) 
0

>  <hbond:TYR:150>  (319) 
0

>  <hbond:GLY:151>  (319) 
0

>  <hbond:TYR:161>  (319) 
0

>  <hydroph_interaction:TYR:130>  (319) 
0

>  <hydroph_interaction:PRO:131>  (319) 
0

>  <hydroph_interaction:ASP:129>  (319) 
0

>  <saltbridge:ASP:75>  (319) 
0

>  <saltbridge:ASP:83>  (319) 
0

>  <hydroph_interaction:ASN:152>  (319) 
0

>  <halogenbond:TYR:150>  (319) 
0

>  <hbond:ASP:83>  (319) 
0

>  <hydroph_interaction:VAL:155>  (319) 
0

>  <pication:TYR:161>  (319) 
0

>  <hbond:PRO:131>  (319) 
0

>  <hbond:LEU:128>  (319) 
0

>  <saltbridge:ASP:129>  (319) 
0

>  <hbond:THR:134>  (319) 
0

>  <pication:HIS:51>  (319) 
0

>  <hbond:SER:81>  (319) 
0

>  <hbond:GLY:159>  (319) 
0

>  <hydroph_interaction:PRO:101>  (319) 
0

>  <hydroph_interaction:THR:134>  (319) 
1

>  <hbond:GLY:82>  (319) 
0

>  <hydroph_interaction:GLU:104>  (319) 
0

>  <hydroph_interaction:VAL:36>  (319) 
0

>  <hydroph_interaction:MET:49>  (319) 
0

>  <halogenbond:GLU:104>  (319) 
0

>  <hydroph_interaction:LYS:107>  (319) 
0

$$$$
MCULE-7745530070
     RDKit          3D

 30 32  0  0  0  0  0  0  0  0999 V2000
   -7.2600    5.6370  -17.6510 C   0  0  0  0  0  0  0  0  0  0  0  0
   -8.0510    5.5450  -16.3750 C   0  0  0  0  0  0  0  0  0  0  0  0
   -9.4850    5.0960  -16.3560 C   0  0  0  0  0  0  0  0  0  0  0  0
  -10.0550    4.7450  -17.7230 C   0  0  0  0  0  0  0  0  0  0  0  0
   -9.1510    4.8700  -18.9310 C   0  0  0  0  0  0  0  0  0  0  0  0
   -7.8360    5.2980  -18.8530 C   0  0  0  0  0  0  0  0  0  0  0  0
   -6.9220    5.4560  -19.8980 N   0  0  0  0  0  0  0  0  0  0  0  0
   -5.9560    6.3980  -19.2520 C   0  0  0  0  0  0  0  0  0  0  0  0
   -5.8580    6.0720  -17.8740 C   0  0  0  0  0  0  0  0  0  0  0  0
   -4.9550    5.0660  -17.5160 C   0  0  0  0  0  0  0  0  0  0  0  0
   -4.0580    5.6090  -16.4320 C   0  0  0  0  0  0  0  0  0  0  0  0
   -4.5790    6.9840  -16.1260 C   0  0  0  0  0  0  0  0  0  0  0  0
   -5.5950    7.2130  -17.0840 C   0  0  0  0  0  0  0  0  0  0  0  0
  -10.1210    5.0640  -15.0530 N   0  0  0  0  0  0  0  0  0  0  0  0
   -7.5570    5.8230  -15.4350 H   0  0  0  0  0  0  0  0  0  0  0  0
  -11.0890    4.4100  -17.8520 H   0  0  0  0  0  0  0  0  0  0  0  0
   -9.5530    4.6160  -19.9180 H   0  0  0  0  0  0  0  0  0  0  0  0
   -7.4360    5.8880  -20.6800 H   0  0  0  0  0  0  0  0  0  0  0  0
   -6.3140    7.4070  -19.4830 H   0  0  0  0  0  0  0  0  0  0  0  0
   -5.0480    6.2880  -19.8390 H   0  0  0  0  0  0  0  0  0  0  0  0
   -4.4550    4.6400  -18.3780 H   0  0  0  0  0  0  0  0  0  0  0  0
   -5.4300    4.2270  -17.0380 H   0  0  0  0  0  0  0  0  0  0  0  0
   -3.0170    5.6400  -16.7670 H   0  0  0  0  0  0  0  0  0  0  0  0
   -4.1060    4.9860  -15.5340 H   0  0  0  0  0  0  0  0  0  0  0  0
   -3.8160    7.7500  -16.0020 H   0  0  0  0  0  0  0  0  0  0  0  0
   -5.0660    6.9280  -15.1480 H   0  0  0  0  0  0  0  0  0  0  0  0
   -5.3550    8.0900  -17.6960 H   0  0  0  0  0  0  0  0  0  0  0  0
   -6.4980    7.4780  -16.5240 H   0  0  0  0  0  0  0  0  0  0  0  0
  -11.0580    4.6770  -15.0840 H   0  0  0  0  0  0  0  0  0  0  0  0
   -9.5480    4.6580  -14.3170 H   0  0  0  0  0  0  0  0  0  0  0  0
  1  2  2  0
  2  3  1  0
  3  4  2  0
  4  5  1  0
  5  6  2  0
  6  7  1  0
  7  8  1  0
  8  9  1  0
  9 10  1  0
 10 11  1  0
 11 12  1  0
 12 13  1  0
  3 14  1  0
  1  6  1  0
  9  1  1  0
 13  9  1  0
  2 15  1  0
  4 16  1  0
  5 17  1  0
  7 18  1  0
  8 19  1  0
  8 20  1  0
 10 21  1  0
 10 22  1  0
 11 23  1  0
 11 24  1  0
 12 25  1  0
 12 26  1  0
 13 27  1  0
 13 28  1  0
 14 29  1  0
 14 30  1  0
A    1
 C1 
A    2
 C2 
A    3
 C3 
A    4
 C4 
A    5
 C5 
A    6
 C6 
A    7
 N1 
A    8
 C7 
A    9
 C8 
A   10
 C9 
A   11
 C10
A   12
 C11
A   13
 C12
A   14
 N2 
A   15
 H1 
A   16
 H2 
A   17
 H3 
A   18
 H4 
A   19
 H5 
A   20
 H6 
A   21
 H7 
A   22
 H8 
A   23
 H9 
A   24
 H10
A   25
 H11
A   26
 H12
A   27
 H13
A   28
 H14
A   29
 H15
A   30
 H16
M  END
>  <ref_pdb>  (320) 
x0051_0B

>  <ref_mols>  (320) 
x0490_0B,x0227_0B

>  <original SMILES>  (320) 
[H]c1c([H])c2c(c([H])c1N([H])[H])C1(C([H])([H])N2[H])C([H])([H])C([H])([H])C([H])([H])C1([H])[H]

>  <index>  (320) 
329

>  <∆∆G>  (320) 
-5.137255

>  <∆G_bound>  (320) 
-4.981036

>  <∆G_unbound>  (320) 
0.156219

>  <comRMSD>  (320) 
0.708608

>  <N_constrained_atoms>  (320) 
15.0

>  <N_unconstrained_atoms>  (320) 
1.0

>  <runtime>  (320) 
23.955835

>  <LE>  (320) 
0.321078

>  <percent_hybrid>  (320) 
34.0

>  <dist>  (320) 
2.0

>  <ecfp4>  (320) 
0.326087

>  <daylight>  (320) 
0.852632

>  <topodist>  (320) 
2.0

>  <mces>  (320) 
15.0

>  <tdn>  (320) 
1.0

>  <tup>  (320) 
1.0

>  <rdn>  (320) 
0.0

>  <rup>  (320) 
0.0

>  <ldn>  (320) 
0.0

>  <lup>  (320) 
0.0

>  <mut>  (320) 
0.0

>  <maj>  (320) 
0.0

>  <min>  (320) 
0.0

>  <hyb>  (320) 
0.0

>  <sub>  (320) 
2.0

>  <query_index>  (320) 
171.0

>  <max_hit_Tanimoto>  (320) 
0.331536

>  <largest_ring>  (320) 
0

>  <N_interactions_kept>  (320) 
2.0

>  <N_interactions_lost>  (320) 
3.0

>  <interaction_uniqueness_metric>  (320) 
0.145853

>  <ad_hoc_penalty>  (320) 
-20.788758

>  <N_rotatable_bonds>  (320) 
1

>  <N_HA>  (320) 
14

>  <cluster>  (320) 
5919

>  <N_interactions>  (320) 
8

>  <Enamine>  (320) 
0

>  <Mcule>  (320) 
1

>  <N_PAINS>  (320) 
0

>  <UFF_Gibbs>  (320) 
103.202355

>  <strain_per_HA>  (320) 
7.371597

>  <saltbridge:HIS:51>  (320) 
0

>  <pistack:HIS:51>  (320) 
0

>  <hydroph_interaction:HIS:51>  (320) 
0

>  <hbond:ALA:132>  (320) 
0

>  <hbond:SER:135>  (320) 
2

>  <hydroph_interaction:TYR:150>  (320) 
1

>  <pistack:TYR:161>  (320) 
0

>  <hydroph_interaction:TYR:161>  (320) 
3

>  <hydroph_interaction:ASP:83>  (320) 
0

>  <hbond:TYR:130>  (320) 
1

>  <hydroph_interaction:ALA:132>  (320) 
1

>  <hbond:HIS:51>  (320) 
0

>  <hbond:ASP:129>  (320) 
0

>  <hbond:TYR:150>  (320) 
0

>  <hbond:GLY:151>  (320) 
0

>  <hbond:TYR:161>  (320) 
0

>  <hydroph_interaction:TYR:130>  (320) 
0

>  <hydroph_interaction:PRO:131>  (320) 
0

>  <hydroph_interaction:ASP:129>  (320) 
0

>  <saltbridge:ASP:75>  (320) 
0

>  <saltbridge:ASP:83>  (320) 
0

>  <hydroph_interaction:ASN:152>  (320) 
0

>  <halogenbond:TYR:150>  (320) 
0

>  <hbond:ASP:83>  (320) 
0

>  <hydroph_interaction:VAL:155>  (320) 
0

>  <pication:TYR:161>  (320) 
0

>  <hbond:PRO:131>  (320) 
0

>  <hbond:LEU:128>  (320) 
0

>  <saltbridge:ASP:129>  (320) 
0

>  <hbond:THR:134>  (320) 
0

>  <pication:HIS:51>  (320) 
0

>  <hbond:SER:81>  (320) 
0

>  <hbond:GLY:159>  (320) 
0

>  <hydroph_interaction:PRO:101>  (320) 
0

>  <hydroph_interaction:THR:134>  (320) 
0

>  <hbond:GLY:82>  (320) 
0

>  <hydroph_interaction:GLU:104>  (320) 
0

>  <hydroph_interaction:VAL:36>  (320) 
0

>  <hydroph_interaction:MET:49>  (320) 
0

>  <halogenbond:GLU:104>  (320) 
0

>  <hydroph_interaction:LYS:107>  (320) 
0

$$$$
Z3205061516
     RDKit          3D

 39 42  0  0  0  0  0  0  0  0999 V2000
   -6.5550    6.5440  -14.1130 O   0  0  0  0  0  0  0  0  0  0  0  0
   -7.3860    5.6540  -14.2930 C   0  0  0  0  0  0  0  0  0  0  0  0
   -7.9160    4.9230  -13.2060 N   0  0  0  0  0  0  0  0  0  0  0  0
   -8.9490    5.3840  -12.3710 C   0  0  0  0  0  0  0  0  0  0  0  0
   -8.8840    5.4340  -10.8250 C   0  0  0  0  0  0  0  0  0  0  0  0
   -8.9660    4.3540   -9.9480 C   0  0  0  0  0  0  0  0  0  0  0  0
   -9.1030    2.9950  -10.1930 C   0  0  0  0  0  0  0  0  0  0  0  0
   -8.6880    2.2520   -9.0830 C   0  0  0  0  0  0  0  0  0  0  0  0
   -9.2960    2.7110   -7.9040 C   0  0  0  0  0  0  0  0  0  0  0  0
   -8.9620    4.0230   -7.6060 C   0  0  0  0  0  0  0  0  0  0  0  0
   -8.8930    4.8310   -8.6730 N   0  0  0  0  0  0  0  0  0  0  0  0
   -8.7550    6.1750   -8.6050 N   0  0  0  0  0  0  0  0  0  0  0  0
   -8.7500    6.5450   -9.9370 C   0  0  0  0  0  0  0  0  0  0  0  0
   -7.8430    5.3500  -15.7100 C   0  0  0  0  0  0  0  0  0  0  0  0
   -9.2860    5.0720  -16.0570 C   0  0  0  0  0  0  0  0  0  0  0  0
   -9.8120    4.7920  -17.4120 C   0  0  0  0  0  0  0  0  0  0  0  0
   -8.8390    4.8640  -18.5170 C   0  0  0  0  0  0  0  0  0  0  0  0
   -7.5270    5.1930  -18.2040 N   0  0  0  0  0  0  0  0  0  0  0  0
   -6.4780    5.2510  -19.0920 C   0  0  0  0  0  0  0  0  0  0  0  0
   -6.4970    5.2380  -20.3100 O   0  0  0  0  0  0  0  0  0  0  0  0
   -5.2900    5.3260  -18.2560 N   0  0  0  0  0  0  0  0  0  0  0  0
   -5.6490    5.3920  -16.9350 N   0  0  0  0  0  0  0  0  0  0  0  0
   -6.9570    5.3150  -16.9300 C   0  0  0  0  0  0  0  0  0  0  0  0
   -7.7390    3.9300  -13.1740 H   0  0  0  0  0  0  0  0  0  0  0  0
   -9.7820    4.7900  -12.7450 H   0  0  0  0  0  0  0  0  0  0  0  0
   -9.1950    6.3730  -12.7480 H   0  0  0  0  0  0  0  0  0  0  0  0
   -8.3570    2.7810  -10.9720 H   0  0  0  0  0  0  0  0  0  0  0  0
  -10.0260    2.6760  -10.6660 H   0  0  0  0  0  0  0  0  0  0  0  0
   -8.8110    1.1950   -9.2180 H   0  0  0  0  0  0  0  0  0  0  0  0
   -7.6070    2.2800   -8.9870 H   0  0  0  0  0  0  0  0  0  0  0  0
  -10.3520    2.4520   -7.8450 H   0  0  0  0  0  0  0  0  0  0  0  0
   -8.8550    2.1050   -7.1020 H   0  0  0  0  0  0  0  0  0  0  0  0
   -9.6960    4.4370   -6.9060 H   0  0  0  0  0  0  0  0  0  0  0  0
   -7.9770    4.0660   -7.1230 H   0  0  0  0  0  0  0  0  0  0  0  0
   -8.6540    7.6060  -10.1890 H   0  0  0  0  0  0  0  0  0  0  0  0
   -9.9690    5.0910  -15.2000 H   0  0  0  0  0  0  0  0  0  0  0  0
  -10.8560    4.5440  -17.6020 H   0  0  0  0  0  0  0  0  0  0  0  0
   -9.0820    4.6800  -19.5590 H   0  0  0  0  0  0  0  0  0  0  0  0
   -4.3430    5.1270  -18.5580 H   0  0  0  0  0  0  0  0  0  0  0  0
  1  2  2  0
  2  3  1  0
  3  4  1  0
  4  5  1  0
  5  6  2  0
  6  7  1  0
  7  8  1  0
  8  9  1  0
  9 10  1  0
 10 11  1  0
 11 12  1  0
 12 13  2  0
  2 14  1  0
 14 15  2  0
 15 16  1  0
 16 17  2  0
 17 18  1  0
 18 19  1  0
 19 20  2  0
 19 21  1  0
 21 22  1  0
 22 23  2  0
 13  5  1  0
 11  6  1  0
 23 14  1  0
 23 18  1  0
  3 24  1  0
  4 25  1  0
  4 26  1  0
  7 27  1  0
  7 28  1  0
  8 29  1  0
  8 30  1  0
  9 31  1  0
  9 32  1  0
 10 33  1  0
 10 34  1  0
 13 35  1  0
 15 36  1  0
 16 37  1  0
 17 38  1  0
 21 39  1  0
A    1
 O1 
A    2
 C1 
A    3
 N1 
A    4
 C2 
A    5
 C3 
A    6
 C4 
A    7
 C5 
A    8
 C6 
A    9
 C7 
A   10
 C8 
A   11
 N2 
A   12
 N3 
A   13
 C9 
A   14
 C10
A   15
 C11
A   16
 C12
A   17
 C13
A   18
 N4 
A   19
 C14
A   20
 O2 
A   21
 N5 
A   22
 N6 
A   23
 C15
A   24
 H1 
A   25
 H2 
A   26
 H3 
A   27
 H4 
A   28
 H5 
A   29
 H6 
A   30
 H7 
A   31
 H8 
A   32
 H9 
A   33
 H10
A   34
 H11
A   35
 H12
A   36
 H13
A   37
 H14
A   38
 H15
A   39
 H16
M  END
>  <ref_pdb>  (321) 
x0051_0B

>  <ref_mols>  (321) 
x0435_0B,x0969_1B

>  <original SMILES>  (321) 
[H]c1nn2c(c1C([H])([H])N([H])C(=O)c1c([H])c([H])c([H])n3c(=O)n([H])nc13)C([H])([H])C([H])([H])C([H])([H])C2([H])[H]

>  <index>  (321) 
442

>  <∆∆G>  (321) 
-6.373907

>  <∆G_bound>  (321) 
-4.905324

>  <∆G_unbound>  (321) 
1.468582

>  <comRMSD>  (321) 
0.3581

>  <N_constrained_atoms>  (321) 
20.0

>  <N_unconstrained_atoms>  (321) 
3.0

>  <runtime>  (321) 
48.663673

>  <LE>  (321) 
0.277126

>  <percent_hybrid>  (321) 
50.0

>  <dist>  (321) 
6.0

>  <ecfp4>  (321) 
0.307692

>  <daylight>  (321) 
0.240786

>  <topodist>  (321) 
1.0

>  <mces>  (321) 
25.0

>  <tdn>  (321) 
0.0

>  <tup>  (321) 
1.0

>  <rdn>  (321) 
0.0

>  <rup>  (321) 
0.0

>  <ldn>  (321) 
0.0

>  <lup>  (321) 
0.0

>  <mut>  (321) 
4.0

>  <maj>  (321) 
4.0

>  <min>  (321) 
0.0

>  <hyb>  (321) 
1.0

>  <sub>  (321) 
0.0

>  <query_index>  (321) 
311.0

>  <max_hit_Tanimoto>  (321) 
0.297275

>  <largest_ring>  (321) 
0

>  <N_interactions_kept>  (321) 
2.0

>  <N_interactions_lost>  (321) 
1.5

>  <interaction_uniqueness_metric>  (321) 
0.186251

>  <ad_hoc_penalty>  (321) 
-20.784577

>  <N_rotatable_bonds>  (321) 
3

>  <N_HA>  (321) 
23

>  <cluster>  (321) 
5817

>  <N_interactions>  (321) 
5

>  <Enamine>  (321) 
1

>  <Mcule>  (321) 
0

>  <N_PAINS>  (321) 
0

>  <UFF_Gibbs>  (321) 
134.766995

>  <strain_per_HA>  (321) 
5.859435

>  <saltbridge:HIS:51>  (321) 
0

>  <pistack:HIS:51>  (321) 
0

>  <hydroph_interaction:HIS:51>  (321) 
1

>  <hbond:ALA:132>  (321) 
0

>  <hbond:SER:135>  (321) 
0

>  <hydroph_interaction:TYR:150>  (321) 
0

>  <pistack:TYR:161>  (321) 
1

>  <hydroph_interaction:TYR:161>  (321) 
1

>  <hydroph_interaction:ASP:83>  (321) 
1

>  <hbond:TYR:130>  (321) 
0

>  <hydroph_interaction:ALA:132>  (321) 
0

>  <hbond:HIS:51>  (321) 
0

>  <hbond:ASP:129>  (321) 
0

>  <hbond:TYR:150>  (321) 
0

>  <hbond:GLY:151>  (321) 
0

>  <hbond:TYR:161>  (321) 
1

>  <hydroph_interaction:TYR:130>  (321) 
0

>  <hydroph_interaction:PRO:131>  (321) 
0

>  <hydroph_interaction:ASP:129>  (321) 
0

>  <saltbridge:ASP:75>  (321) 
0

>  <saltbridge:ASP:83>  (321) 
0

>  <hydroph_interaction:ASN:152>  (321) 
0

>  <halogenbond:TYR:150>  (321) 
0

>  <hbond:ASP:83>  (321) 
0

>  <hydroph_interaction:VAL:155>  (321) 
0

>  <pication:TYR:161>  (321) 
0

>  <hbond:PRO:131>  (321) 
0

>  <hbond:LEU:128>  (321) 
0

>  <saltbridge:ASP:129>  (321) 
0

>  <hbond:THR:134>  (321) 
0

>  <pication:HIS:51>  (321) 
0

>  <hbond:SER:81>  (321) 
0

>  <hbond:GLY:159>  (321) 
0

>  <hydroph_interaction:PRO:101>  (321) 
0

>  <hydroph_interaction:THR:134>  (321) 
0

>  <hbond:GLY:82>  (321) 
0

>  <hydroph_interaction:GLU:104>  (321) 
0

>  <hydroph_interaction:VAL:36>  (321) 
0

>  <hydroph_interaction:MET:49>  (321) 
0

>  <halogenbond:GLU:104>  (321) 
0

>  <hydroph_interaction:LYS:107>  (321) 
0

$$$$
QTXARSARJQRVQD-UHFFFAOYSA-N
     RDKit          3D

 24 25  0  0  0  0  0  0  0  0999 V2000
   -5.3830    5.8410  -17.8090 N   0  0  0  0  0  0  0  0  0  0  0  0
   -4.1230    5.1370  -17.5350 C   0  0  0  0  0  0  0  0  0  0  0  0
   -6.3480    5.4150  -18.8230 C   0  0  0  0  0  0  0  0  0  0  0  0
   -6.4420    6.3890  -19.9940 C   0  0  0  0  0  0  0  0  0  0  0  0
   -7.7250    5.2140  -18.2330 C   0  0  0  0  0  0  0  0  0  0  0  0
   -7.9560    5.3350  -16.8780 C   0  0  0  0  0  0  0  0  0  0  0  0
   -9.5710    5.0860  -16.4370 S   0  0  0  0  0  0  0  0  0  0  0  0
  -10.0060    4.7960  -18.0620 C   0  0  0  0  0  0  0  0  0  0  0  0
   -8.9390    4.8900  -18.9280 C   0  0  0  0  0  0  0  0  0  0  0  0
   -6.8810    5.6530  -15.9040 C   0  0  0  0  0  0  0  0  0  0  0  0
   -5.9410    6.4430  -16.5640 C   0  0  0  0  0  0  0  0  0  0  0  0
   -3.8150    4.5100  -18.3780 H   0  0  0  0  0  0  0  0  0  0  0  0
   -3.3460    5.8820  -17.3460 H   0  0  0  0  0  0  0  0  0  0  0  0
   -4.2170    4.4760  -16.6670 H   0  0  0  0  0  0  0  0  0  0  0  0
   -6.0260    4.4650  -19.2230 H   0  0  0  0  0  0  0  0  0  0  0  0
   -7.3550    6.9870  -19.9270 H   0  0  0  0  0  0  0  0  0  0  0  0
   -6.4810    5.8600  -20.9530 H   0  0  0  0  0  0  0  0  0  0  0  0
   -5.5840    7.0680  -20.0230 H   0  0  0  0  0  0  0  0  0  0  0  0
  -11.0130    4.5610  -18.3970 H   0  0  0  0  0  0  0  0  0  0  0  0
   -9.0540    4.7320  -19.9980 H   0  0  0  0  0  0  0  0  0  0  0  0
   -7.3250    6.0380  -14.9900 H   0  0  0  0  0  0  0  0  0  0  0  0
   -6.3970    4.7110  -15.6270 H   0  0  0  0  0  0  0  0  0  0  0  0
   -6.3760    7.4080  -16.7930 H   0  0  0  0  0  0  0  0  0  0  0  0
   -5.1290    6.6290  -15.8530 H   0  0  0  0  0  0  0  0  0  0  0  0
  1  2  1  0
  1  3  1  0
  3  4  1  0
  3  5  1  0
  5  6  2  0
  6  7  1  0
  7  8  1  0
  8  9  2  0
  6 10  1  0
 10 11  1  0
 11  1  1  0
  9  5  1  0
  2 12  1  0
  2 13  1  0
  2 14  1  0
  3 15  1  0
  4 16  1  0
  4 17  1  0
  4 18  1  0
  8 19  1  0
  9 20  1  0
 10 21  1  0
 10 22  1  0
 11 23  1  0
 11 24  1  0
A    1
 N1 
A    2
 C1 
A    3
 C2 
A    4
 C3 
A    5
 C4 
A    6
 C5 
A    7
 S1 
A    8
 C6 
A    9
 C7 
A   10
 C8 
A   11
 C9 
A   12
 H1 
A   13
 H2 
A   14
 H3 
A   15
 H4 
A   16
 H5 
A   17
 H6 
A   18
 H7 
A   19
 H8 
A   20
 H9 
A   21
 H10
A   22
 H11
A   23
 H12
A   24
 H13
M  END
>  <ref_pdb>  (322) 
x0051_0B

>  <ref_mols>  (322) 
x0472_0B,x0386_0B

>  <original SMILES>  (322) 
[H]c1sc2c(c1[H])C([H])(C([H])([H])[H])N(C([H])([H])[H])C([H])([H])C2([H])[H]

>  <index>  (322) 
537

>  <∆∆G>  (322) 
-7.025105

>  <∆G_bound>  (322) 
-7.056081

>  <∆G_unbound>  (322) 
-0.030976

>  <comRMSD>  (322) 
0.750314

>  <N_constrained_atoms>  (322) 
13.0

>  <N_unconstrained_atoms>  (322) 
0.0

>  <runtime>  (322) 
21.089239

>  <LE>  (322) 
0.540393

>  <percent_hybrid>  (322) 
15.0

>  <dist>  (322) 
4.0

>  <ecfp4>  (322) 
0.444444

>  <daylight>  (322) 
0.745902

>  <topodist>  (322) 
3.0

>  <mces>  (322) 
12.0

>  <tdn>  (322) 
3.0

>  <tup>  (322) 
0.0

>  <rdn>  (322) 
0.0

>  <rup>  (322) 
0.0

>  <ldn>  (322) 
0.0

>  <lup>  (322) 
0.0

>  <mut>  (322) 
1.0

>  <maj>  (322) 
1.0

>  <min>  (322) 
0.0

>  <hyb>  (322) 
0.0

>  <sub>  (322) 
1.0

>  <query_index>  (322) 
75.0

>  <max_hit_Tanimoto>  (322) 
0.672052

>  <largest_ring>  (322) 
6

>  <N_interactions_kept>  (322) 
3.0

>  <N_interactions_lost>  (322) 
0.0

>  <interaction_uniqueness_metric>  (322) 
0.009391

>  <ad_hoc_penalty>  (322) 
-20.760597

>  <N_rotatable_bonds>  (322) 
2

>  <N_HA>  (322) 
11

>  <cluster>  (322) 
5727

>  <N_interactions>  (322) 
1

>  <Enamine>  (322) 
0

>  <Mcule>  (322) 
1

>  <N_PAINS>  (322) 
0

>  <UFF_Gibbs>  (322) 
30.520497

>  <strain_per_HA>  (322) 
2.774591

>  <saltbridge:HIS:51>  (322) 
0

>  <pistack:HIS:51>  (322) 
0

>  <hydroph_interaction:HIS:51>  (322) 
0

>  <hbond:ALA:132>  (322) 
0

>  <hbond:SER:135>  (322) 
0

>  <hydroph_interaction:TYR:150>  (322) 
0

>  <pistack:TYR:161>  (322) 
0

>  <hydroph_interaction:TYR:161>  (322) 
1

>  <hydroph_interaction:ASP:83>  (322) 
0

>  <hbond:TYR:130>  (322) 
0

>  <hydroph_interaction:ALA:132>  (322) 
0

>  <hbond:HIS:51>  (322) 
0

>  <hbond:ASP:129>  (322) 
0

>  <hbond:TYR:150>  (322) 
0

>  <hbond:GLY:151>  (322) 
0

>  <hbond:TYR:161>  (322) 
0

>  <hydroph_interaction:TYR:130>  (322) 
0

>  <hydroph_interaction:PRO:131>  (322) 
0

>  <hydroph_interaction:ASP:129>  (322) 
0

>  <saltbridge:ASP:75>  (322) 
0

>  <saltbridge:ASP:83>  (322) 
0

>  <hydroph_interaction:ASN:152>  (322) 
0

>  <halogenbond:TYR:150>  (322) 
0

>  <hbond:ASP:83>  (322) 
0

>  <hydroph_interaction:VAL:155>  (322) 
0

>  <pication:TYR:161>  (322) 
0

>  <hbond:PRO:131>  (322) 
0

>  <hbond:LEU:128>  (322) 
0

>  <saltbridge:ASP:129>  (322) 
0

>  <hbond:THR:134>  (322) 
0

>  <pication:HIS:51>  (322) 
0

>  <hbond:SER:81>  (322) 
0

>  <hbond:GLY:159>  (322) 
0

>  <hydroph_interaction:PRO:101>  (322) 
0

>  <hydroph_interaction:THR:134>  (322) 
0

>  <hbond:GLY:82>  (322) 
0

>  <hydroph_interaction:GLU:104>  (322) 
0

>  <hydroph_interaction:VAL:36>  (322) 
0

>  <hydroph_interaction:MET:49>  (322) 
0

>  <halogenbond:GLU:104>  (322) 
0

>  <hydroph_interaction:LYS:107>  (322) 
0

$$$$
CSSS00020620909
     RDKit          3D

 23 24  0  0  0  0  0  0  0  0999 V2000
   -8.8760    4.9640  -14.1790 N   0  0  0  0  0  0  0  0  0  0  0  0
   -8.0280    5.6140  -15.1960 C   0  0  1  0  0  0  0  0  0  0  0  0
   -6.5560    5.2610  -14.9130 C   0  0  0  0  0  0  0  0  0  0  0  0
   -5.6480    5.7230  -16.0090 C   0  0  0  0  0  0  0  0  0  0  0  0
   -6.0550    5.7140  -17.3470 C   0  0  0  0  0  0  0  0  0  0  0  0
   -7.5150    5.3590  -17.6560 C   0  0  0  0  0  0  0  0  0  0  0  0
   -7.9290    5.0890  -18.9570 C   0  0  0  0  0  0  0  0  0  0  0  0
   -9.2530    4.7710  -19.1940 C   0  0  0  0  0  0  0  0  0  0  0  0
  -10.1470    4.7250  -18.1350 C   0  0  0  0  0  0  0  0  0  0  0  0
   -9.7940    4.9790  -16.8580 N   0  0  0  0  0  0  0  0  0  0  0  0
   -8.4500    5.3050  -16.6290 C   0  0  0  0  0  0  0  0  0  0  0  0
   -9.2100    4.0790  -14.5900 H   0  0  0  0  0  0  0  0  0  0  0  0
   -9.7070    5.5310  -14.0250 H   0  0  0  0  0  0  0  0  0  0  0  0
   -8.1170    6.7000  -15.1210 H   0  0  0  0  0  0  0  0  0  0  0  0
   -6.4570    4.1850  -14.7910 H   0  0  0  0  0  0  0  0  0  0  0  0
   -6.2250    5.7470  -13.9910 H   0  0  0  0  0  0  0  0  0  0  0  0
   -5.3410    6.7470  -15.7620 H   0  0  0  0  0  0  0  0  0  0  0  0
   -4.7220    5.1340  -15.9400 H   0  0  0  0  0  0  0  0  0  0  0  0
   -5.4290    5.0050  -17.8990 H   0  0  0  0  0  0  0  0  0  0  0  0
   -5.8280    6.7000  -17.7760 H   0  0  0  0  0  0  0  0  0  0  0  0
   -7.2310    5.1230  -19.7830 H   0  0  0  0  0  0  0  0  0  0  0  0
   -9.5810    4.5630  -20.2010 H   0  0  0  0  0  0  0  0  0  0  0  0
  -11.1930    4.4810  -18.2920 H   0  0  0  0  0  0  0  0  0  0  0  0
  1  2  1  0
  2  3  1  0
  3  4  1  0
  4  5  1  0
  5  6  1  0
  6  7  2  0
  7  8  1  0
  8  9  2  0
  9 10  1  0
 10 11  2  0
 11  2  1  0
 11  6  1  0
  1 12  1  0
  1 13  1  0
  2 14  1  1
  3 15  1  0
  3 16  1  0
  4 17  1  0
  4 18  1  0
  5 19  1  0
  5 20  1  0
  7 21  1  0
  8 22  1  0
  9 23  1  0
A    1
 N1 
A    2
 C1 
A    3
 C2 
A    4
 C3 
A    5
 C4 
A    6
 C5 
A    7
 C6 
A    8
 C7 
A    9
 C8 
A   10
 N2 
A   11
 C9 
A   12
 H1 
A   13
 H2 
A   14
 H3 
A   15
 H4 
A   16
 H5 
A   17
 H6 
A   18
 H7 
A   19
 H8 
A   20
 H9 
A   21
 H10
A   22
 H11
A   23
 H12
M  END
>  <ref_pdb>  (323) 
x0051_0B

>  <ref_mols>  (323) 
x0455_0B,x0951_0B

>  <original SMILES>  (323) 
[H]c1nc2c(c([H])c1[H])C([H])([H])C([H])([H])C([H])([H])[C@]2([H])N([H])[H]

>  <index>  (323) 
606

>  <∆∆G>  (323) 
-5.59474

>  <∆G_bound>  (323) 
-5.51831

>  <∆G_unbound>  (323) 
0.07643

>  <comRMSD>  (323) 
0.71721

>  <N_constrained_atoms>  (323) 
13.0

>  <N_unconstrained_atoms>  (323) 
0.0

>  <runtime>  (323) 
18.720231

>  <LE>  (323) 
0.430365

>  <percent_hybrid>  (323) 
40.0

>  <dist>  (323) 
3.0

>  <ecfp4>  (323) 
0.297872

>  <daylight>  (323) 
0.329412

>  <topodist>  (323) 
2.0

>  <mces>  (323) 
12.0

>  <tdn>  (323) 
1.0

>  <tup>  (323) 
0.0

>  <rdn>  (323) 
0.0

>  <rup>  (323) 
0.0

>  <ldn>  (323) 
1.0

>  <lup>  (323) 
0.0

>  <mut>  (323) 
1.0

>  <maj>  (323) 
1.0

>  <min>  (323) 
0.0

>  <hyb>  (323) 
0.0

>  <sub>  (323) 
1.0

>  <query_index>  (323) 
288.0

>  <max_hit_Tanimoto>  (323) 
0.313814

>  <largest_ring>  (323) 
6

>  <N_interactions_kept>  (323) 
1.0

>  <N_interactions_lost>  (323) 
1.5

>  <interaction_uniqueness_metric>  (323) 
0.071024

>  <ad_hoc_penalty>  (323) 
-20.757831

>  <N_rotatable_bonds>  (323) 
1

>  <N_HA>  (323) 
11

>  <cluster>  (323) 
5664

>  <N_interactions>  (323) 
4

>  <Enamine>  (323) 
1

>  <Mcule>  (323) 
0

>  <N_PAINS>  (323) 
0

>  <UFF_Gibbs>  (323) 
25.967511

>  <strain_per_HA>  (323) 
2.360683

>  <saltbridge:HIS:51>  (323) 
0

>  <pistack:HIS:51>  (323) 
0

>  <hydroph_interaction:HIS:51>  (323) 
0

>  <hbond:ALA:132>  (323) 
0

>  <hbond:SER:135>  (323) 
0

>  <hydroph_interaction:TYR:150>  (323) 
1

>  <pistack:TYR:161>  (323) 
0

>  <hydroph_interaction:TYR:161>  (323) 
2

>  <hydroph_interaction:ASP:83>  (323) 
0

>  <hbond:TYR:130>  (323) 
0

>  <hydroph_interaction:ALA:132>  (323) 
0

>  <hbond:HIS:51>  (323) 
0

>  <hbond:ASP:129>  (323) 
0

>  <hbond:TYR:150>  (323) 
0

>  <hbond:GLY:151>  (323) 
0

>  <hbond:TYR:161>  (323) 
1

>  <hydroph_interaction:TYR:130>  (323) 
0

>  <hydroph_interaction:PRO:131>  (323) 
0

>  <hydroph_interaction:ASP:129>  (323) 
0

>  <saltbridge:ASP:75>  (323) 
0

>  <saltbridge:ASP:83>  (323) 
0

>  <hydroph_interaction:ASN:152>  (323) 
0

>  <halogenbond:TYR:150>  (323) 
0

>  <hbond:ASP:83>  (323) 
0

>  <hydroph_interaction:VAL:155>  (323) 
0

>  <pication:TYR:161>  (323) 
0

>  <hbond:PRO:131>  (323) 
0

>  <hbond:LEU:128>  (323) 
0

>  <saltbridge:ASP:129>  (323) 
0

>  <hbond:THR:134>  (323) 
0

>  <pication:HIS:51>  (323) 
0

>  <hbond:SER:81>  (323) 
0

>  <hbond:GLY:159>  (323) 
0

>  <hydroph_interaction:PRO:101>  (323) 
0

>  <hydroph_interaction:THR:134>  (323) 
0

>  <hbond:GLY:82>  (323) 
0

>  <hydroph_interaction:GLU:104>  (323) 
0

>  <hydroph_interaction:VAL:36>  (323) 
0

>  <hydroph_interaction:MET:49>  (323) 
0

>  <halogenbond:GLU:104>  (323) 
0

>  <hydroph_interaction:LYS:107>  (323) 
0

$$$$
CSSB00000720401
     RDKit          3D

 19 20  0  0  0  0  0  0  0  0999 V2000
  -10.0080    5.3310  -14.8430 S   0  0  0  0  0  0  0  0  0  0  0  0
   -9.2890    5.1340  -16.4040 C   0  0  0  0  0  0  0  0  0  0  0  0
   -7.9040    5.3980  -16.5970 N   0  0  0  0  0  0  0  0  0  0  0  0
   -7.7160    5.1270  -17.9700 C   0  0  0  0  0  0  0  0  0  0  0  0
   -9.0090    4.6920  -18.6200 C   0  0  0  0  0  0  0  0  0  0  0  0
   -9.9750    4.7050  -17.6210 O   0  0  0  0  0  0  0  0  0  0  0  0
   -6.4200    5.2270  -18.7560 C   0  0  0  0  0  0  0  0  0  0  0  0
   -5.3270    5.3630  -17.8960 C   0  0  0  0  0  0  0  0  0  0  0  0
   -4.0330    5.4700  -18.3880 C   0  0  0  0  0  0  0  0  0  0  0  0
   -3.7990    5.4410  -19.8670 C   0  0  0  0  0  0  0  0  0  0  0  0
   -5.0310    5.2890  -20.7630 C   0  0  0  0  0  0  0  0  0  0  0  0
   -6.2880    5.1890  -20.1460 C   0  0  0  0  0  0  0  0  0  0  0  0
  -10.1520    4.0180  -14.5960 H   0  0  0  0  0  0  0  0  0  0  0  0
   -9.3280    4.3940  -19.6100 H   0  0  0  0  0  0  0  0  0  0  0  0
   -5.4820    5.3860  -16.8190 H   0  0  0  0  0  0  0  0  0  0  0  0
   -3.1960    5.5760  -17.7040 H   0  0  0  0  0  0  0  0  0  0  0  0
   -2.8030    5.5230  -20.2880 H   0  0  0  0  0  0  0  0  0  0  0  0
   -4.9330    5.2600  -21.8440 H   0  0  0  0  0  0  0  0  0  0  0  0
   -7.1570    5.0810  -20.7860 H   0  0  0  0  0  0  0  0  0  0  0  0
  1  2  1  0
  2  3  2  0
  3  4  1  0
  4  5  2  0
  5  6  1  0
  4  7  1  0
  7  8  2  0
  8  9  1  0
  9 10  2  0
 10 11  1  0
 11 12  2  0
  6  2  1  0
 12  7  1  0
  1 13  1  0
  5 14  1  0
  8 15  1  0
  9 16  1  0
 10 17  1  0
 11 18  1  0
 12 19  1  0
A    1
 S1 
A    2
 C1 
A    3
 N1 
A    4
 C2 
A    5
 C3 
A    6
 O1 
A    7
 C4 
A    8
 C5 
A    9
 C6 
A   10
 C7 
A   11
 C8 
A   12
 C9 
A   13
 H1 
A   14
 H2 
A   15
 H3 
A   16
 H4 
A   17
 H5 
A   18
 H6 
A   19
 H7 
M  END
>  <ref_pdb>  (324) 
x0051_0B

>  <ref_mols>  (324) 
x0680_0B,x0386_0B

>  <original SMILES>  (324) 
[H]Sc1nc(-c2c([H])c([H])c([H])c([H])c2[H])c([H])o1

>  <index>  (324) 
387

>  <∆∆G>  (324) 
-6.475655

>  <∆G_bound>  (324) 
-6.449221

>  <∆G_unbound>  (324) 
0.026434

>  <comRMSD>  (324) 
0.719151

>  <N_constrained_atoms>  (324) 
12.0

>  <N_unconstrained_atoms>  (324) 
1.0

>  <runtime>  (324) 
30.362976

>  <LE>  (324) 
0.498127

>  <percent_hybrid>  (324) 
17.0

>  <dist>  (324) 
3.0

>  <ecfp4>  (324) 
0.183673

>  <daylight>  (324) 
0.471074

>  <topodist>  (324) 
2.0

>  <mces>  (324) 
12.0

>  <tdn>  (324) 
1.0

>  <tup>  (324) 
1.0

>  <rdn>  (324) 
0.0

>  <rup>  (324) 
0.0

>  <ldn>  (324) 
0.0

>  <lup>  (324) 
0.0

>  <mut>  (324) 
1.0

>  <maj>  (324) 
1.0

>  <min>  (324) 
0.0

>  <hyb>  (324) 
0.0

>  <sub>  (324) 
2.0

>  <query_index>  (324) 
296.0

>  <max_hit_Tanimoto>  (324) 
0.125326

>  <largest_ring>  (324) 
0

>  <N_interactions_kept>  (324) 
3.5

>  <N_interactions_lost>  (324) 
0.5

>  <interaction_uniqueness_metric>  (324) 
0.016266

>  <ad_hoc_penalty>  (324) 
-20.702988

>  <N_rotatable_bonds>  (324) 
2

>  <N_HA>  (324) 
12

>  <cluster>  (324) 
5863

>  <N_interactions>  (324) 
3

>  <Enamine>  (324) 
1

>  <Mcule>  (324) 
0

>  <N_PAINS>  (324) 
0

>  <UFF_Gibbs>  (324) 
60.895395

>  <strain_per_HA>  (324) 
5.074616

>  <saltbridge:HIS:51>  (324) 
0

>  <pistack:HIS:51>  (324) 
0

>  <hydroph_interaction:HIS:51>  (324) 
0

>  <hbond:ALA:132>  (324) 
0

>  <hbond:SER:135>  (324) 
0

>  <hydroph_interaction:TYR:150>  (324) 
0

>  <pistack:TYR:161>  (324) 
0

>  <hydroph_interaction:TYR:161>  (324) 
3

>  <hydroph_interaction:ASP:83>  (324) 
0

>  <hbond:TYR:130>  (324) 
0

>  <hydroph_interaction:ALA:132>  (324) 
0

>  <hbond:HIS:51>  (324) 
0

>  <hbond:ASP:129>  (324) 
0

>  <hbond:TYR:150>  (324) 
0

>  <hbond:GLY:151>  (324) 
0

>  <hbond:TYR:161>  (324) 
0

>  <hydroph_interaction:TYR:130>  (324) 
0

>  <hydroph_interaction:PRO:131>  (324) 
0

>  <hydroph_interaction:ASP:129>  (324) 
0

>  <saltbridge:ASP:75>  (324) 
0

>  <saltbridge:ASP:83>  (324) 
0

>  <hydroph_interaction:ASN:152>  (324) 
0

>  <halogenbond:TYR:150>  (324) 
0

>  <hbond:ASP:83>  (324) 
0

>  <hydroph_interaction:VAL:155>  (324) 
0

>  <pication:TYR:161>  (324) 
0

>  <hbond:PRO:131>  (324) 
0

>  <hbond:LEU:128>  (324) 
0

>  <saltbridge:ASP:129>  (324) 
0

>  <hbond:THR:134>  (324) 
0

>  <pication:HIS:51>  (324) 
0

>  <hbond:SER:81>  (324) 
0

>  <hbond:GLY:159>  (324) 
0

>  <hydroph_interaction:PRO:101>  (324) 
0

>  <hydroph_interaction:THR:134>  (324) 
0

>  <hbond:GLY:82>  (324) 
0

>  <hydroph_interaction:GLU:104>  (324) 
0

>  <hydroph_interaction:VAL:36>  (324) 
0

>  <hydroph_interaction:MET:49>  (324) 
0

>  <halogenbond:GLU:104>  (324) 
0

>  <hydroph_interaction:LYS:107>  (324) 
0

$$$$
MCULE-2965083674
     RDKit          3D

 39 41  0  0  0  0  0  0  0  0999 V2000
   -8.4590    4.8460  -18.9530 C   0  0  0  0  0  0  0  0  0  0  0  0
   -9.5670    4.7090  -17.9030 C   0  0  0  0  0  0  0  0  0  0  0  0
   -9.2120    5.2090  -16.5570 C   0  0  0  0  0  0  0  0  0  0  0  0
   -8.0080    5.7850  -16.1390 C   0  0  0  0  0  0  0  0  0  0  0  0
   -6.9400    5.8940  -17.2160 C   0  0  0  0  0  0  0  0  0  0  0  0
   -7.1450    5.4320  -18.6310 C   0  0  0  0  0  0  0  0  0  0  0  0
   -6.1290    5.5760  -19.5230 O   0  0  0  0  0  0  0  0  0  0  0  0
   -7.7200    6.2490  -14.9060 N   0  0  0  0  0  0  0  0  0  0  0  0
   -8.8470    7.2550  -14.1440 S   0  0  0  0  0  6  0  0  0  0  0  0
   -8.2400    8.5590  -13.9410 O   0  0  0  0  0  0  0  0  0  0  0  0
  -10.1040    7.1030  -14.8090 O   0  0  0  0  0  0  0  0  0  0  0  0
   -8.8670    6.4340  -12.6060 C   0  0  0  0  0  0  0  0  0  0  0  0
   -8.7270    7.1230  -11.4030 C   0  0  0  0  0  0  0  0  0  0  0  0
   -8.7240    6.4610  -10.1950 C   0  0  0  0  0  0  0  0  0  0  0  0
   -8.8710    4.9790  -10.1850 C   0  0  0  0  0  0  0  0  0  0  0  0
   -8.8610    4.2590   -8.9820 N   0  0  0  0  0  0  0  0  0  0  0  0
   -9.3740    2.9000   -9.1190 C   0  0  0  0  0  0  0  0  0  0  0  0
   -9.6820    2.5150   -7.6670 C   0  0  0  0  0  0  0  0  0  0  0  0
   -9.3420    3.5520   -6.7800 C   0  0  0  0  0  0  0  0  0  0  0  0
   -9.0200    4.7440   -7.6760 C   0  0  0  0  0  0  0  0  0  0  0  0
   -8.9460    5.8900   -7.2520 O   0  0  0  0  0  0  0  0  0  0  0  0
   -9.0180    4.3140  -11.4080 C   0  0  0  0  0  0  0  0  0  0  0  0
   -9.0160    5.0400  -12.6030 C   0  0  0  0  0  0  0  0  0  0  0  0
   -8.7550    4.4690  -19.9400 H   0  0  0  0  0  0  0  0  0  0  0  0
  -10.5350    4.2800  -18.1330 H   0  0  0  0  0  0  0  0  0  0  0  0
   -9.9920    5.1160  -15.8060 H   0  0  0  0  0  0  0  0  0  0  0  0
   -6.0280    6.3420  -16.8490 H   0  0  0  0  0  0  0  0  0  0  0  0
   -5.2980    5.3010  -19.1050 H   0  0  0  0  0  0  0  0  0  0  0  0
   -6.7770    6.6050  -14.7590 H   0  0  0  0  0  0  0  0  0  0  0  0
   -8.6120    8.2150  -11.3900 H   0  0  0  0  0  0  0  0  0  0  0  0
   -8.6100    7.0110   -9.2530 H   0  0  0  0  0  0  0  0  0  0  0  0
  -10.2680    2.8200   -9.7330 H   0  0  0  0  0  0  0  0  0  0  0  0
   -8.6190    2.2390   -9.5480 H   0  0  0  0  0  0  0  0  0  0  0  0
  -10.7430    2.2730   -7.5580 H   0  0  0  0  0  0  0  0  0  0  0  0
   -9.1270    1.6200   -7.4100 H   0  0  0  0  0  0  0  0  0  0  0  0
  -10.1680    3.7780   -6.0970 H   0  0  0  0  0  0  0  0  0  0  0  0
   -8.4710    3.2660   -6.1780 H   0  0  0  0  0  0  0  0  0  0  0  0
   -9.1390    3.2330  -11.5410 H   0  0  0  0  0  0  0  0  0  0  0  0
   -9.1340    4.4260  -13.5050 H   0  0  0  0  0  0  0  0  0  0  0  0
  1  2  2  0
  2  3  1  0
  3  4  2  0
  4  5  1  0
  5  6  2  0
  6  7  1  0
  4  8  1  0
  8  9  1  0
  9 10  2  0
  9 11  2  0
  9 12  1  0
 12 13  2  0
 13 14  1  0
 14 15  2  0
 15 16  1  0
 16 17  1  0
 17 18  1  0
 18 19  1  0
 19 20  1  0
 20 21  2  0
 15 22  1  0
 22 23  2  0
  6  1  1  0
 12 23  1  0
 20 16  1  0
  1 24  1  0
  2 25  1  0
  3 26  1  0
  5 27  1  0
  7 28  1  0
  8 29  1  0
 13 30  1  0
 14 31  1  0
 17 32  1  0
 17 33  1  0
 18 34  1  0
 18 35  1  0
 19 36  1  0
 19 37  1  0
 22 38  1  0
 23 39  1  0
A    1
 C1 
A    2
 C2 
A    3
 C3 
A    4
 C4 
A    5
 C5 
A    6
 C6 
A    7
 O1 
A    8
 N1 
A    9
 S1 
A   10
 O2 
A   11
 O3 
A   12
 C7 
A   13
 C8 
A   14
 C9 
A   15
 C10
A   16
 N2 
A   17
 C11
A   18
 C12
A   19
 C13
A   20
 C14
A   21
 O4 
A   22
 C15
A   23
 C16
A   24
 H1 
A   25
 H2 
A   26
 H3 
A   27
 H4 
A   28
 H5 
A   29
 H6 
A   30
 H7 
A   31
 H8 
A   32
 H9 
A   33
 H10
A   34
 H11
A   35
 H12
A   36
 H13
A   37
 H14
A   38
 H15
A   39
 H16
M  END
>  <ref_pdb>  (325) 
x0051_0B

>  <ref_mols>  (325) 
x0589_0B,x0404_0B

>  <original SMILES>  (325) 
[H]Oc1c([H])c([H])c([H])c(N([H])S(=O)(=O)c2c([H])c([H])c(N3C(=O)C([H])([H])C([H])([H])C3([H])[H])c([H])c2[H])c1[H]

>  <index>  (325) 
474

>  <∆∆G>  (325) 
-6.402224

>  <∆G_bound>  (325) 
-6.305118

>  <∆G_unbound>  (325) 
0.097106

>  <comRMSD>  (325) 
0.584002

>  <N_constrained_atoms>  (325) 
23.0

>  <N_unconstrained_atoms>  (325) 
2.0

>  <runtime>  (325) 
61.819807

>  <LE>  (325) 
0.256089

>  <percent_hybrid>  (325) 
35.0

>  <dist>  (325) 
8.0

>  <ecfp4>  (325) 
0.1875

>  <daylight>  (325) 
0.28866

>  <topodist>  (325) 
4.0

>  <mces>  (325) 
24.0

>  <tdn>  (325) 
1.0

>  <tup>  (325) 
1.0

>  <rdn>  (325) 
0.0

>  <rup>  (325) 
0.0

>  <ldn>  (325) 
2.0

>  <lup>  (325) 
0.0

>  <mut>  (325) 
2.0

>  <maj>  (325) 
2.0

>  <min>  (325) 
0.0

>  <hyb>  (325) 
2.0

>  <sub>  (325) 
1.0

>  <query_index>  (325) 
29.0

>  <max_hit_Tanimoto>  (325) 
0.350224

>  <largest_ring>  (325) 
0

>  <N_interactions_kept>  (325) 
2.0

>  <N_interactions_lost>  (325) 
1.5

>  <interaction_uniqueness_metric>  (325) 
0.125383

>  <ad_hoc_penalty>  (325) 
-20.600426

>  <N_rotatable_bonds>  (325) 
5

>  <N_HA>  (325) 
23

>  <cluster>  (325) 
5787

>  <N_interactions>  (325) 
6

>  <Enamine>  (325) 
0

>  <Mcule>  (325) 
1

>  <N_PAINS>  (325) 
0

>  <UFF_Gibbs>  (325) 
116.474982

>  <strain_per_HA>  (325) 
5.06413

>  <saltbridge:HIS:51>  (325) 
0

>  <pistack:HIS:51>  (325) 
1

>  <hydroph_interaction:HIS:51>  (325) 
1

>  <hbond:ALA:132>  (325) 
0

>  <hbond:SER:135>  (325) 
0

>  <hydroph_interaction:TYR:150>  (325) 
0

>  <pistack:TYR:161>  (325) 
0

>  <hydroph_interaction:TYR:161>  (325) 
2

>  <hydroph_interaction:ASP:83>  (325) 
0

>  <hbond:TYR:130>  (325) 
1

>  <hydroph_interaction:ALA:132>  (325) 
1

>  <hbond:HIS:51>  (325) 
0

>  <hbond:ASP:129>  (325) 
0

>  <hbond:TYR:150>  (325) 
0

>  <hbond:GLY:151>  (325) 
0

>  <hbond:TYR:161>  (325) 
0

>  <hydroph_interaction:TYR:130>  (325) 
0

>  <hydroph_interaction:PRO:131>  (325) 
0

>  <hydroph_interaction:ASP:129>  (325) 
0

>  <saltbridge:ASP:75>  (325) 
0

>  <saltbridge:ASP:83>  (325) 
0

>  <hydroph_interaction:ASN:152>  (325) 
0

>  <halogenbond:TYR:150>  (325) 
0

>  <hbond:ASP:83>  (325) 
0

>  <hydroph_interaction:VAL:155>  (325) 
0

>  <pication:TYR:161>  (325) 
0

>  <hbond:PRO:131>  (325) 
0

>  <hbond:LEU:128>  (325) 
0

>  <saltbridge:ASP:129>  (325) 
0

>  <hbond:THR:134>  (325) 
0

>  <pication:HIS:51>  (325) 
0

>  <hbond:SER:81>  (325) 
0

>  <hbond:GLY:159>  (325) 
0

>  <hydroph_interaction:PRO:101>  (325) 
0

>  <hydroph_interaction:THR:134>  (325) 
0

>  <hbond:GLY:82>  (325) 
0

>  <hydroph_interaction:GLU:104>  (325) 
0

>  <hydroph_interaction:VAL:36>  (325) 
0

>  <hydroph_interaction:MET:49>  (325) 
0

>  <halogenbond:GLU:104>  (325) 
0

>  <hydroph_interaction:LYS:107>  (325) 
0

$$$$
CSSB00000709121
     RDKit          3D

 42 43  0  0  0  0  0  0  0  0999 V2000
   -5.3380    7.3880  -20.9480 C   0  0  0  0  0  0  0  0  0  0  0  0
   -5.1710    5.9180  -20.6830 C   0  0  0  0  0  0  0  0  0  0  0  0
   -3.7920    5.5010  -20.3360 C   0  0  0  0  0  0  0  0  0  0  0  0
   -5.5230    5.1690  -21.9730 C   0  0  0  0  0  0  0  0  0  0  0  0
   -5.8230    5.4060  -19.7770 O   0  0  0  0  0  0  0  0  0  0  0  0
   -5.8610    5.9280  -18.5220 C   0  0  0  0  0  0  0  0  0  0  0  0
   -5.0180    6.5620  -17.8930 O   0  0  0  0  0  0  0  0  0  0  0  0
   -7.2160    5.5930  -17.9010 C   0  0  0  0  0  0  0  0  0  0  0  0
   -8.1050    4.9520  -18.9170 C   0  0  0  0  0  0  0  0  0  0  0  0
   -9.3880    4.5480  -18.5830 C   0  0  0  0  0  0  0  0  0  0  0  0
   -9.8840    4.7220  -17.3060 C   0  0  0  0  0  0  0  0  0  0  0  0
   -9.1050    5.3110  -16.3300 C   0  0  0  0  0  0  0  0  0  0  0  0
   -7.7030    5.7960  -16.5800 C   0  0  0  0  0  0  0  0  0  0  0  0
   -7.0880    6.3750  -15.4660 C   0  0  0  0  0  0  0  0  0  0  0  0
   -6.5560    5.4410  -14.5050 C   0  0  0  0  0  0  0  0  0  0  0  0
   -7.4700    4.5960  -14.0220 C   0  0  0  0  0  0  0  0  0  0  0  0
   -8.5380    5.2510  -13.2640 N   0  0  0  0  0  0  0  0  0  0  0  0
   -8.3950    6.5890  -13.2330 C   0  0  0  0  0  0  0  0  0  0  0  0
   -8.2130    7.1200  -14.6450 C   0  0  0  0  0  0  0  0  0  0  0  0
   -4.3710    7.8290  -21.2000 H   0  0  0  0  0  0  0  0  0  0  0  0
   -6.0510    7.5690  -21.7560 H   0  0  0  0  0  0  0  0  0  0  0  0
   -5.7360    7.8640  -20.0470 H   0  0  0  0  0  0  0  0  0  0  0  0
   -3.5960    5.0240  -19.3790 H   0  0  0  0  0  0  0  0  0  0  0  0
   -3.4450    4.8170  -21.1250 H   0  0  0  0  0  0  0  0  0  0  0  0
   -3.1430    6.3800  -20.4070 H   0  0  0  0  0  0  0  0  0  0  0  0
   -6.1480    4.2950  -21.7590 H   0  0  0  0  0  0  0  0  0  0  0  0
   -4.6240    4.8330  -22.5020 H   0  0  0  0  0  0  0  0  0  0  0  0
   -6.0890    5.7990  -22.6700 H   0  0  0  0  0  0  0  0  0  0  0  0
   -7.7460    4.7970  -19.9330 H   0  0  0  0  0  0  0  0  0  0  0  0
  -10.0020    4.0880  -19.3360 H   0  0  0  0  0  0  0  0  0  0  0  0
  -10.8810    4.4000  -17.0710 H   0  0  0  0  0  0  0  0  0  0  0  0
   -9.5420    5.4270  -15.3320 H   0  0  0  0  0  0  0  0  0  0  0  0
   -6.4270    7.1590  -15.8260 H   0  0  0  0  0  0  0  0  0  0  0  0
   -5.6240    4.9960  -14.8370 H   0  0  0  0  0  0  0  0  0  0  0  0
   -6.2320    6.0390  -13.6450 H   0  0  0  0  0  0  0  0  0  0  0  0
   -6.9740    3.8350  -13.4030 H   0  0  0  0  0  0  0  0  0  0  0  0
   -7.9300    4.0650  -14.8630 H   0  0  0  0  0  0  0  0  0  0  0  0
   -9.4380    5.0150  -13.6810 H   0  0  0  0  0  0  0  0  0  0  0  0
   -7.6270    6.8140  -12.4950 H   0  0  0  0  0  0  0  0  0  0  0  0
   -9.3140    7.0180  -12.8180 H   0  0  0  0  0  0  0  0  0  0  0  0
   -9.1800    7.0360  -15.1490 H   0  0  0  0  0  0  0  0  0  0  0  0
   -7.9760    8.1900  -14.5880 H   0  0  0  0  0  0  0  0  0  0  0  0
  1  2  1  0
  2  3  1  0
  2  4  1  0
  2  5  1  0
  5  6  1  0
  6  7  2  0
  6  8  1  0
  8  9  2  0
  9 10  1  0
 10 11  2  0
 11 12  1  0
 12 13  2  0
 13 14  1  0
 14 15  1  0
 15 16  1  0
 16 17  1  0
 17 18  1  0
 18 19  1  0
 13  8  1  0
 19 14  1  0
  1 20  1  0
  1 21  1  0
  1 22  1  0
  3 23  1  0
  3 24  1  0
  3 25  1  0
  4 26  1  0
  4 27  1  0
  4 28  1  0
  9 29  1  0
 10 30  1  0
 11 31  1  0
 12 32  1  0
 14 33  1  0
 15 34  1  0
 15 35  1  0
 16 36  1  0
 16 37  1  0
 17 38  1  0
 18 39  1  0
 18 40  1  0
 19 41  1  0
 19 42  1  0
A    1
 C1 
A    2
 C2 
A    3
 C3 
A    4
 C4 
A    5
 O1 
A    6
 C5 
A    7
 O2 
A    8
 C6 
A    9
 C7 
A   10
 C8 
A   11
 C9 
A   12
 C10
A   13
 C11
A   14
 C12
A   15
 C13
A   16
 C14
A   17
 N1 
A   18
 C15
A   19
 C16
A   20
 H1 
A   21
 H2 
A   22
 H3 
A   23
 H4 
A   24
 H5 
A   25
 H6 
A   26
 H7 
A   27
 H8 
A   28
 H9 
A   29
 H10
A   30
 H11
A   31
 H12
A   32
 H13
A   33
 H14
A   34
 H15
A   35
 H16
A   36
 H17
A   37
 H18
A   38
 H19
A   39
 H20
A   40
 H21
A   41
 H22
A   42
 H23
M  END
>  <ref_pdb>  (326) 
x0051_0B

>  <ref_mols>  (326) 
x0101_0B,x0951_0B

>  <original SMILES>  (326) 
[H]c1c([H])c([H])c(C2([H])C([H])([H])C([H])([H])N([H])C([H])([H])C2([H])[H])c(C(=O)OC(C([H])([H])[H])(C([H])([H])[H])C([H])([H])[H])c1[H]

>  <index>  (326) 
102

>  <∆∆G>  (326) 
-6.574883

>  <∆G_bound>  (326) 
-6.146701

>  <∆G_unbound>  (326) 
0.428182

>  <comRMSD>  (326) 
0.98886

>  <N_constrained_atoms>  (326) 
21.0

>  <N_unconstrained_atoms>  (326) 
0.0

>  <runtime>  (326) 
31.279247

>  <LE>  (326) 
0.31309

>  <percent_hybrid>  (326) 
40.0

>  <dist>  (326) 
10.0

>  <ecfp4>  (326) 
0.164384

>  <daylight>  (326) 
0.169231

>  <topodist>  (326) 
4.0

>  <mces>  (326) 
19.0

>  <tdn>  (326) 
2.0

>  <tup>  (326) 
0.0

>  <rdn>  (326) 
1.0

>  <rup>  (326) 
1.0

>  <ldn>  (326) 
0.0

>  <lup>  (326) 
0.0

>  <mut>  (326) 
5.0

>  <maj>  (326) 
5.0

>  <min>  (326) 
0.0

>  <hyb>  (326) 
1.0

>  <sub>  (326) 
4.0

>  <query_index>  (326) 
30.0

>  <max_hit_Tanimoto>  (326) 
0.20178

>  <largest_ring>  (326) 
0

>  <N_interactions_kept>  (326) 
3.0

>  <N_interactions_lost>  (326) 
1.0

>  <interaction_uniqueness_metric>  (326) 
0.087514

>  <ad_hoc_penalty>  (326) 
-20.588765

>  <N_rotatable_bonds>  (326) 
2

>  <N_HA>  (326) 
19

>  <cluster>  (326) 
6123

>  <N_interactions>  (326) 
5

>  <Enamine>  (326) 
1

>  <Mcule>  (326) 
0

>  <N_PAINS>  (326) 
0

>  <UFF_Gibbs>  (326) 
271.47088

>  <strain_per_HA>  (326) 
14.287941

>  <saltbridge:HIS:51>  (326) 
0

>  <pistack:HIS:51>  (326) 
0

>  <hydroph_interaction:HIS:51>  (326) 
0

>  <hbond:ALA:132>  (326) 
0

>  <hbond:SER:135>  (326) 
0

>  <hydroph_interaction:TYR:150>  (326) 
1

>  <pistack:TYR:161>  (326) 
0

>  <hydroph_interaction:TYR:161>  (326) 
2

>  <hydroph_interaction:ASP:83>  (326) 
0

>  <hbond:TYR:130>  (326) 
0

>  <hydroph_interaction:ALA:132>  (326) 
1

>  <hbond:HIS:51>  (326) 
0

>  <hbond:ASP:129>  (326) 
0

>  <hbond:TYR:150>  (326) 
0

>  <hbond:GLY:151>  (326) 
0

>  <hbond:TYR:161>  (326) 
0

>  <hydroph_interaction:TYR:130>  (326) 
0

>  <hydroph_interaction:PRO:131>  (326) 
0

>  <hydroph_interaction:ASP:129>  (326) 
1

>  <saltbridge:ASP:75>  (326) 
0

>  <saltbridge:ASP:83>  (326) 
0

>  <hydroph_interaction:ASN:152>  (326) 
0

>  <halogenbond:TYR:150>  (326) 
0

>  <hbond:ASP:83>  (326) 
0

>  <hydroph_interaction:VAL:155>  (326) 
0

>  <pication:TYR:161>  (326) 
0

>  <hbond:PRO:131>  (326) 
0

>  <hbond:LEU:128>  (326) 
0

>  <saltbridge:ASP:129>  (326) 
0

>  <hbond:THR:134>  (326) 
0

>  <pication:HIS:51>  (326) 
0

>  <hbond:SER:81>  (326) 
0

>  <hbond:GLY:159>  (326) 
0

>  <hydroph_interaction:PRO:101>  (326) 
0

>  <hydroph_interaction:THR:134>  (326) 
0

>  <hbond:GLY:82>  (326) 
0

>  <hydroph_interaction:GLU:104>  (326) 
0

>  <hydroph_interaction:VAL:36>  (326) 
0

>  <hydroph_interaction:MET:49>  (326) 
0

>  <halogenbond:GLU:104>  (326) 
0

>  <hydroph_interaction:LYS:107>  (326) 
0

$$$$
Z1557002446
     RDKit          3D

 37 38  0  0  0  0  0  0  0  0999 V2000
   -5.9720    5.1120  -20.6150 C   0  0  0  0  0  0  0  0  0  0  0  0
   -5.6230    6.4030  -19.8800 C   0  0  0  0  0  0  0  0  0  0  0  0
   -6.2270    6.4700  -18.5030 C   0  0  0  0  0  0  0  0  0  0  0  0
   -7.3940    5.7960  -18.1580 C   0  0  0  0  0  0  0  0  0  0  0  0
   -7.8650    5.5960  -16.7740 C   0  0  0  0  0  0  0  0  0  0  0  0
   -7.0000    6.1370  -15.6510 C   0  0  0  0  0  0  0  0  0  0  0  0
   -5.6360    6.6850  -16.1220 C   0  0  0  0  0  0  0  0  0  0  0  0
   -5.1820    6.3060  -17.4720 N   0  0  0  0  0  0  0  0  0  0  0  0
   -4.5370    5.0000  -17.5370 C   0  0  0  0  0  0  0  0  0  0  0  0
   -3.1430    4.9080  -16.8880 C   0  0  0  0  0  0  0  0  0  0  0  0
   -3.3770    4.4770  -15.5650 C   0  0  0  0  0  0  0  0  0  0  0  0
   -2.4800    6.2910  -16.8330 C   0  0  0  0  0  0  0  0  0  0  0  0
   -1.0660    6.1930  -16.6990 O   0  0  0  0  0  0  0  0  0  0  0  0
   -9.3310    4.7870  -16.6320 S   0  0  0  0  0  0  0  0  0  0  0  0
   -9.4490    4.6090  -18.3310 C   0  0  0  0  0  0  0  0  0  0  0  0
   -8.3620    5.1840  -19.0260 C   0  0  0  0  0  0  0  0  0  0  0  0
   -6.4410    4.4000  -19.9330 H   0  0  0  0  0  0  0  0  0  0  0  0
   -6.6720    5.2720  -21.4390 H   0  0  0  0  0  0  0  0  0  0  0  0
   -5.0800    4.6310  -21.0260 H   0  0  0  0  0  0  0  0  0  0  0  0
   -6.0030    7.2550  -20.4610 H   0  0  0  0  0  0  0  0  0  0  0  0
   -4.5310    6.4860  -19.8200 H   0  0  0  0  0  0  0  0  0  0  0  0
   -6.5020    7.5190  -18.4540 H   0  0  0  0  0  0  0  0  0  0  0  0
   -6.8440    5.3100  -14.9480 H   0  0  0  0  0  0  0  0  0  0  0  0
   -7.5420    6.9160  -15.0990 H   0  0  0  0  0  0  0  0  0  0  0  0
   -5.6740    7.7820  -16.0790 H   0  0  0  0  0  0  0  0  0  0  0  0
   -4.8840    6.3850  -15.3820 H   0  0  0  0  0  0  0  0  0  0  0  0
   -5.1820    4.3100  -16.9970 H   0  0  0  0  0  0  0  0  0  0  0  0
   -4.4820    4.6570  -18.5730 H   0  0  0  0  0  0  0  0  0  0  0  0
   -2.5340    4.3670  -17.5950 H   0  0  0  0  0  0  0  0  0  0  0  0
   -4.3980    4.4580  -15.1990 H   0  0  0  0  0  0  0  0  0  0  0  0
   -2.9970    3.4930  -15.3030 H   0  0  0  0  0  0  0  0  0  0  0  0
   -2.8520    5.1580  -14.8910 H   0  0  0  0  0  0  0  0  0  0  0  0
   -2.8620    6.8800  -15.9920 H   0  0  0  0  0  0  0  0  0  0  0  0
   -2.6990    6.8530  -17.7460 H   0  0  0  0  0  0  0  0  0  0  0  0
   -0.7200    7.0930  -16.5840 H   0  0  0  0  0  0  0  0  0  0  0  0
  -10.2980    4.1010  -18.7520 H   0  0  0  0  0  0  0  0  0  0  0  0
   -8.2890    5.1620  -20.1050 H   0  0  0  0  0  0  0  0  0  0  0  0
  1  2  1  0
  2  3  1  0
  3  4  1  0
  4  5  2  0
  5  6  1  0
  6  7  1  0
  7  8  1  0
  8  9  1  0
  9 10  1  0
 10 11  1  0
 10 12  1  0
 12 13  1  0
  5 14  1  0
 14 15  1  0
 15 16  2  0
  8  3  1  0
 16  4  1  0
  1 17  1  0
  1 18  1  0
  1 19  1  0
  2 20  1  0
  2 21  1  0
  3 22  1  0
  6 23  1  0
  6 24  1  0
  7 25  1  0
  7 26  1  0
  9 27  1  0
  9 28  1  0
 10 29  1  0
 11 30  1  0
 11 31  1  0
 11 32  1  0
 12 33  1  0
 12 34  1  0
 13 35  1  0
 15 36  1  0
 16 37  1  0
A    1
 C1 
A    2
 C2 
A    3
 C3 
A    4
 C4 
A    5
 C5 
A    6
 C6 
A    7
 C7 
A    8
 N1 
A    9
 C8 
A   10
 C9 
A   11
 C10
A   12
 C11
A   13
 O1 
A   14
 S1 
A   15
 C12
A   16
 C13
A   17
 H1 
A   18
 H2 
A   19
 H3 
A   20
 H4 
A   21
 H5 
A   22
 H6 
A   23
 H7 
A   24
 H8 
A   25
 H9 
A   26
 H10
A   27
 H11
A   28
 H12
A   29
 H13
A   30
 H14
A   31
 H15
A   32
 H16
A   33
 H17
A   34
 H18
A   35
 H19
A   36
 H20
A   37
 H21
M  END
>  <ref_pdb>  (327) 
x0051_0B

>  <ref_mols>  (327) 
x0472_0B,x0227_0B

>  <original SMILES>  (327) 
[H]OC([H])([H])C([H])(C([H])([H])[H])C([H])([H])N1C([H])([H])C([H])([H])c2sc([H])c([H])c2C1([H])C([H])([H])C([H])([H])[H]

>  <index>  (327) 
407

>  <∆∆G>  (327) 
-7.523848

>  <∆G_bound>  (327) 
-7.318289

>  <∆G_unbound>  (327) 
0.205559

>  <comRMSD>  (327) 
0.850247

>  <N_constrained_atoms>  (327) 
18.0

>  <N_unconstrained_atoms>  (327) 
2.0

>  <runtime>  (327) 
21.008896

>  <LE>  (327) 
0.376192

>  <percent_hybrid>  (327) 
50.0

>  <dist>  (327) 
3.0

>  <ecfp4>  (327) 
0.415094

>  <daylight>  (327) 
0.759124

>  <topodist>  (327) 
1.0

>  <mces>  (327) 
16.0

>  <tdn>  (327) 
0.0

>  <tup>  (327) 
0.0

>  <rdn>  (327) 
0.0

>  <rup>  (327) 
0.0

>  <ldn>  (327) 
0.0

>  <lup>  (327) 
1.0

>  <mut>  (327) 
2.0

>  <maj>  (327) 
2.0

>  <min>  (327) 
0.0

>  <hyb>  (327) 
0.0

>  <sub>  (327) 
0.0

>  <query_index>  (327) 
78.0

>  <max_hit_Tanimoto>  (327) 
0.577075

>  <largest_ring>  (327) 
0

>  <N_interactions_kept>  (327) 
4.5

>  <N_interactions_lost>  (327) 
0.5

>  <interaction_uniqueness_metric>  (327) 
0.05195

>  <ad_hoc_penalty>  (327) 
-20.55403

>  <N_rotatable_bonds>  (327) 
7

>  <N_HA>  (327) 
16

>  <cluster>  (327) 
5847

>  <N_interactions>  (327) 
5

>  <Enamine>  (327) 
1

>  <Mcule>  (327) 
0

>  <N_PAINS>  (327) 
0

>  <UFF_Gibbs>  (327) 
83.737405

>  <strain_per_HA>  (327) 
5.233588

>  <saltbridge:HIS:51>  (327) 
0

>  <pistack:HIS:51>  (327) 
0

>  <hydroph_interaction:HIS:51>  (327) 
0

>  <hbond:ALA:132>  (327) 
0

>  <hbond:SER:135>  (327) 
0

>  <hydroph_interaction:TYR:150>  (327) 
0

>  <pistack:TYR:161>  (327) 
0

>  <hydroph_interaction:TYR:161>  (327) 
4

>  <hydroph_interaction:ASP:83>  (327) 
0

>  <hbond:TYR:130>  (327) 
0

>  <hydroph_interaction:ALA:132>  (327) 
0

>  <hbond:HIS:51>  (327) 
0

>  <hbond:ASP:129>  (327) 
0

>  <hbond:TYR:150>  (327) 
0

>  <hbond:GLY:151>  (327) 
0

>  <hbond:TYR:161>  (327) 
0

>  <hydroph_interaction:TYR:130>  (327) 
0

>  <hydroph_interaction:PRO:131>  (327) 
0

>  <hydroph_interaction:ASP:129>  (327) 
0

>  <saltbridge:ASP:75>  (327) 
0

>  <saltbridge:ASP:83>  (327) 
0

>  <hydroph_interaction:ASN:152>  (327) 
0

>  <halogenbond:TYR:150>  (327) 
0

>  <hbond:ASP:83>  (327) 
0

>  <hydroph_interaction:VAL:155>  (327) 
1

>  <pication:TYR:161>  (327) 
0

>  <hbond:PRO:131>  (327) 
0

>  <hbond:LEU:128>  (327) 
0

>  <saltbridge:ASP:129>  (327) 
0

>  <hbond:THR:134>  (327) 
0

>  <pication:HIS:51>  (327) 
0

>  <hbond:SER:81>  (327) 
0

>  <hbond:GLY:159>  (327) 
0

>  <hydroph_interaction:PRO:101>  (327) 
0

>  <hydroph_interaction:THR:134>  (327) 
0

>  <hbond:GLY:82>  (327) 
0

>  <hydroph_interaction:GLU:104>  (327) 
0

>  <hydroph_interaction:VAL:36>  (327) 
0

>  <hydroph_interaction:MET:49>  (327) 
0

>  <halogenbond:GLU:104>  (327) 
0

>  <hydroph_interaction:LYS:107>  (327) 
0

$$$$
CSSS00121685199
     RDKit          3D

 47 49  0  0  0  0  0  0  0  0999 V2000
   -6.8060    4.6870  -20.8560 O   0  0  0  0  0  0  0  0  0  0  0  0
   -6.1560    5.5000  -20.2060 C   0  0  0  0  0  0  0  0  0  0  0  0
   -6.2680    5.5960  -18.7360 C   0  0  0  0  0  0  0  0  0  0  0  0
   -7.5040    5.2960  -18.1640 C   0  0  0  0  0  0  0  0  0  0  0  0
   -8.6640    4.9550  -18.8990 C   0  0  0  0  0  0  0  0  0  0  0  0
   -9.9000    4.6580  -18.1280 C   0  0  0  0  0  0  0  0  0  0  0  0
   -9.8040    4.7470  -16.6020 C   0  0  0  0  0  0  0  0  0  0  0  0
   -8.6250    5.0930  -15.9820 C   0  0  0  0  0  0  0  0  0  0  0  0
   -7.5140    5.3560  -16.7720 C   0  0  0  0  0  0  0  0  0  0  0  0
   -5.1780    6.4720  -20.7050 N   0  0  0  0  0  0  0  0  0  0  0  0
   -5.3950    7.4790  -21.6540 C   0  0  0  0  0  0  0  0  0  0  0  0
   -5.9130    7.0370  -22.8550 C   0  0  0  0  0  0  0  0  0  0  0  0
   -6.1840    7.9350  -23.8750 C   0  0  0  0  0  0  0  0  0  0  0  0
   -5.9360    9.2960  -23.7050 C   0  0  0  0  0  0  0  0  0  0  0  0
   -5.4060    9.7560  -22.4940 C   0  0  0  0  0  0  0  0  0  0  0  0
   -5.1350    8.8470  -21.4680 C   0  0  0  0  0  0  0  0  0  0  0  0
   -6.2380   10.2360  -24.8070 C   0  0  0  0  0  0  0  0  0  0  0  0
   -6.1690   11.4500  -24.6430 O   0  0  0  0  0  0  0  0  0  0  0  0
   -6.5980    9.6280  -25.9970 N   0  0  0  0  0  0  0  0  0  0  0  0
   -7.4610   10.2690  -26.9740 C   0  0  0  0  0  0  0  0  0  0  0  0
   -8.3500    9.3520  -27.8050 C   0  0  0  0  0  0  0  0  0  0  0  0
   -8.4530    7.9880  -27.6150 C   0  0  0  0  0  0  0  0  0  0  0  0
   -9.7460    7.5850  -27.8990 C   0  0  0  0  0  0  0  0  0  0  0  0
  -10.6230    8.6590  -28.0060 C   0  0  0  0  0  0  0  0  0  0  0  0
   -9.7640    9.7760  -27.7200 O   0  0  0  0  0  0  0  0  0  0  0  0
   -5.9840    6.6240  -18.4680 H   0  0  0  0  0  0  0  0  0  0  0  0
   -5.5030    4.9720  -18.2540 H   0  0  0  0  0  0  0  0  0  0  0  0
   -8.6500    4.9110  -19.9830 H   0  0  0  0  0  0  0  0  0  0  0  0
  -10.8260    4.3890  -18.6220 H   0  0  0  0  0  0  0  0  0  0  0  0
  -10.6590    4.5360  -15.9820 H   0  0  0  0  0  0  0  0  0  0  0  0
   -8.5640    5.1550  -14.9010 H   0  0  0  0  0  0  0  0  0  0  0  0
   -6.5930    5.6230  -16.2590 H   0  0  0  0  0  0  0  0  0  0  0  0
   -4.2600    6.4550  -20.2800 H   0  0  0  0  0  0  0  0  0  0  0  0
   -6.1200    5.9790  -23.0190 H   0  0  0  0  0  0  0  0  0  0  0  0
   -6.5950    7.5550  -24.8060 H   0  0  0  0  0  0  0  0  0  0  0  0
   -5.2050   10.8180  -22.3460 H   0  0  0  0  0  0  0  0  0  0  0  0
   -4.7280    9.2330  -20.5400 H   0  0  0  0  0  0  0  0  0  0  0  0
   -6.0470    8.8590  -26.3510 H   0  0  0  0  0  0  0  0  0  0  0  0
   -6.7670   10.7740  -27.6560 H   0  0  0  0  0  0  0  0  0  0  0  0
   -8.0610   11.0440  -26.4950 H   0  0  0  0  0  0  0  0  0  0  0  0
   -8.0680    9.5130  -28.8530 H   0  0  0  0  0  0  0  0  0  0  0  0
   -7.7870    7.4570  -28.3030 H   0  0  0  0  0  0  0  0  0  0  0  0
   -8.1420    7.7030  -26.6050 H   0  0  0  0  0  0  0  0  0  0  0  0
   -9.7240    7.0790  -28.8700 H   0  0  0  0  0  0  0  0  0  0  0  0
  -10.1170    6.8440  -27.1900 H   0  0  0  0  0  0  0  0  0  0  0  0
  -11.0110    8.7630  -29.0250 H   0  0  0  0  0  0  0  0  0  0  0  0
  -11.4710    8.7300  -27.3300 H   0  0  0  0  0  0  0  0  0  0  0  0
  1  2  2  0
  2  3  1  0
  3  4  1  0
  4  5  2  0
  5  6  1  0
  6  7  2  0
  7  8  1  0
  8  9  2  0
  2 10  1  0
 10 11  1  0
 11 12  2  0
 12 13  1  0
 13 14  2  0
 14 15  1  0
 15 16  2  0
 14 17  1  0
 17 18  2  0
 17 19  1  0
 19 20  1  0
 20 21  1  0
 21 22  1  0
 22 23  1  0
 23 24  1  0
 24 25  1  0
  9  4  1  0
 16 11  1  0
 25 21  1  0
  3 26  1  0
  3 27  1  0
  5 28  1  0
  6 29  1  0
  7 30  1  0
  8 31  1  0
  9 32  1  0
 10 33  1  0
 12 34  1  0
 13 35  1  0
 15 36  1  0
 16 37  1  0
 19 38  1  0
 20 39  1  0
 20 40  1  0
 21 41  1  0
 22 42  1  0
 22 43  1  0
 23 44  1  0
 23 45  1  0
 24 46  1  0
 24 47  1  0
A    1
 O1 
A    2
 C1 
A    3
 C2 
A    4
 C3 
A    5
 C4 
A    6
 C5 
A    7
 C6 
A    8
 C7 
A    9
 C8 
A   10
 N1 
A   11
 C9 
A   12
 C10
A   13
 C11
A   14
 C12
A   15
 C13
A   16
 C14
A   17
 C15
A   18
 O2 
A   19
 N2 
A   20
 C16
A   21
 C17
A   22
 C18
A   23
 C19
A   24
 C20
A   25
 O3 
A   26
 H1 
A   27
 H2 
A   28
 H3 
A   29
 H4 
A   30
 H5 
A   31
 H6 
A   32
 H7 
A   33
 H8 
A   34
 H9 
A   35
 H10
A   36
 H11
A   37
 H12
A   38
 H13
A   39
 H14
A   40
 H15
A   41
 H16
A   42
 H17
A   43
 H18
A   44
 H19
A   45
 H20
A   46
 H21
A   47
 H22
M  END
>  <ref_pdb>  (328) 
x0051_0B

>  <ref_mols>  (328) 
x0846_1B,x0382_0B

>  <original SMILES>  (328) 
[H]c1c([H])c([H])c(C([H])([H])C(=O)N([H])c2c([H])c([H])c(C(=O)N([H])C([H])([H])C3([H])OC([H])([H])C([H])([H])C3([H])[H])c([H])c2[H])c([H])c1[H]

>  <index>  (328) 
448

>  <∆∆G>  (328) 
-8.026231

>  <∆G_bound>  (328) 
-7.073555

>  <∆G_unbound>  (328) 
0.952676

>  <comRMSD>  (328) 
0.923718

>  <N_constrained_atoms>  (328) 
24.0

>  <N_unconstrained_atoms>  (328) 
4.0

>  <runtime>  (328) 
60.809838

>  <LE>  (328) 
0.286651

>  <percent_hybrid>  (328) 
30.0

>  <dist>  (328) 
10.0

>  <ecfp4>  (328) 
0.2

>  <daylight>  (328) 
0.263393

>  <topodist>  (328) 
5.0

>  <mces>  (328) 
26.0

>  <tdn>  (328) 
1.0

>  <tup>  (328) 
1.0

>  <rdn>  (328) 
1.0

>  <rup>  (328) 
0.0

>  <ldn>  (328) 
2.0

>  <lup>  (328) 
0.0

>  <mut>  (328) 
4.0

>  <maj>  (328) 
4.0

>  <min>  (328) 
0.0

>  <hyb>  (328) 
1.0

>  <sub>  (328) 
2.0

>  <query_index>  (328) 
353.0

>  <max_hit_Tanimoto>  (328) 
0.18509

>  <largest_ring>  (328) 
0

>  <N_interactions_kept>  (328) 
1.0

>  <N_interactions_lost>  (328) 
0.5

>  <interaction_uniqueness_metric>  (328) 
0.062354

>  <ad_hoc_penalty>  (328) 
-20.535081

>  <N_rotatable_bonds>  (328) 
6

>  <N_HA>  (328) 
25

>  <cluster>  (328) 
5812

>  <N_interactions>  (328) 
4

>  <Enamine>  (328) 
1

>  <Mcule>  (328) 
0

>  <N_PAINS>  (328) 
0

>  <UFF_Gibbs>  (328) 
119.39463

>  <strain_per_HA>  (328) 
4.775785

>  <saltbridge:HIS:51>  (328) 
0

>  <pistack:HIS:51>  (328) 
0

>  <hydroph_interaction:HIS:51>  (328) 
0

>  <hbond:ALA:132>  (328) 
0

>  <hbond:SER:135>  (328) 
0

>  <hydroph_interaction:TYR:150>  (328) 
1

>  <pistack:TYR:161>  (328) 
1

>  <hydroph_interaction:TYR:161>  (328) 
1

>  <hydroph_interaction:ASP:83>  (328) 
0

>  <hbond:TYR:130>  (328) 
1

>  <hydroph_interaction:ALA:132>  (328) 
0

>  <hbond:HIS:51>  (328) 
0

>  <hbond:ASP:129>  (328) 
0

>  <hbond:TYR:150>  (328) 
0

>  <hbond:GLY:151>  (328) 
0

>  <hbond:TYR:161>  (328) 
0

>  <hydroph_interaction:TYR:130>  (328) 
0

>  <hydroph_interaction:PRO:131>  (328) 
0

>  <hydroph_interaction:ASP:129>  (328) 
0

>  <saltbridge:ASP:75>  (328) 
0

>  <saltbridge:ASP:83>  (328) 
0

>  <hydroph_interaction:ASN:152>  (328) 
0

>  <halogenbond:TYR:150>  (328) 
0

>  <hbond:ASP:83>  (328) 
0

>  <hydroph_interaction:VAL:155>  (328) 
0

>  <pication:TYR:161>  (328) 
0

>  <hbond:PRO:131>  (328) 
0

>  <hbond:LEU:128>  (328) 
0

>  <saltbridge:ASP:129>  (328) 
0

>  <hbond:THR:134>  (328) 
0

>  <pication:HIS:51>  (328) 
0

>  <hbond:SER:81>  (328) 
0

>  <hbond:GLY:159>  (328) 
0

>  <hydroph_interaction:PRO:101>  (328) 
0

>  <hydroph_interaction:THR:134>  (328) 
0

>  <hbond:GLY:82>  (328) 
0

>  <hydroph_interaction:GLU:104>  (328) 
0

>  <hydroph_interaction:VAL:36>  (328) 
0

>  <hydroph_interaction:MET:49>  (328) 
0

>  <halogenbond:GLU:104>  (328) 
0

>  <hydroph_interaction:LYS:107>  (328) 
0

$$$$
ANTUUSYICVMNET-UHFFFAOYSA-N
     RDKit          3D

 44 46  0  0  0  0  0  0  0  0999 V2000
   -8.5670    6.9120  -14.0130 C   0  0  0  0  0  0  0  0  0  0  0  0
   -7.8850    5.9520  -14.7830 N   0  0  0  0  0  0  0  0  0  0  0  0
   -8.0100    5.6130  -16.1240 C   0  0  0  0  0  0  0  0  0  0  0  0
   -6.8930    5.4590  -16.9570 C   0  0  0  0  0  0  0  0  0  0  0  0
   -5.5470    5.6140  -16.5180 C   0  0  0  0  0  0  0  0  0  0  0  0
   -7.0250    5.1340  -18.3080 C   0  0  0  0  0  0  0  0  0  0  0  0
   -8.3680    4.9300  -18.9300 C   0  0  0  0  0  0  0  0  0  0  0  0
   -9.5390    5.0940  -18.0140 C   0  0  0  0  0  0  0  0  0  0  0  0
  -10.7950    4.9570  -18.5580 C   0  0  0  0  0  0  0  0  0  0  0  0
   -9.3060    5.4190  -16.6620 C   0  0  0  0  0  0  0  0  0  0  0  0
   -8.9780    8.0340  -14.2850 O   0  0  0  0  0  0  0  0  0  0  0  0
   -8.6950    6.3850  -12.6520 C   0  0  0  0  0  0  0  0  0  0  0  0
   -8.6930    7.2430  -11.3830 C   0  0  0  0  0  0  0  0  0  0  0  0
   -8.7930    6.5760  -10.1730 C   0  0  0  0  0  0  0  0  0  0  0  0
   -8.8980    5.0490  -10.1940 C   0  0  0  0  0  0  0  0  0  0  0  0
   -8.9920    4.3160   -9.0410 N   0  0  0  0  0  0  0  0  0  0  0  0
   -9.1620    2.8610   -9.1670 C   0  0  0  0  0  0  0  0  0  0  0  0
   -9.7160    2.3230   -7.8570 C   0  0  0  0  0  0  0  0  0  0  0  0
   -8.8840    2.6850   -6.7550 O   0  0  0  0  0  0  0  0  0  0  0  0
   -8.7590    4.1060   -6.6280 C   0  0  0  0  0  0  0  0  0  0  0  0
   -8.1990    4.7740   -7.8900 C   0  0  0  0  0  0  0  0  0  0  0  0
   -8.9030    4.3650  -11.3520 N   0  0  0  0  0  0  0  0  0  0  0  0
   -8.8070    5.0220  -12.5220 C   0  0  0  0  0  0  0  0  0  0  0  0
   -7.2160    5.3760  -14.2880 H   0  0  0  0  0  0  0  0  0  0  0  0
   -4.8600    5.1340  -17.2240 H   0  0  0  0  0  0  0  0  0  0  0  0
   -5.3820    5.1510  -15.5400 H   0  0  0  0  0  0  0  0  0  0  0  0
   -5.2950    6.6760  -16.4230 H   0  0  0  0  0  0  0  0  0  0  0  0
   -6.1800    5.0060  -18.9980 H   0  0  0  0  0  0  0  0  0  0  0  0
   -8.4940    4.6810  -19.9930 H   0  0  0  0  0  0  0  0  0  0  0  0
  -10.7370    5.2580  -19.6060 H   0  0  0  0  0  0  0  0  0  0  0  0
  -11.4900    5.6240  -18.0870 H   0  0  0  0  0  0  0  0  0  0  0  0
  -11.1910    3.9710  -18.4790 H   0  0  0  0  0  0  0  0  0  0  0  0
  -10.1810    5.5360  -16.0210 H   0  0  0  0  0  0  0  0  0  0  0  0
   -8.6100    8.3250  -11.4260 H   0  0  0  0  0  0  0  0  0  0  0  0
   -8.7920    7.1380   -9.2450 H   0  0  0  0  0  0  0  0  0  0  0  0
   -9.8450    2.5730   -9.9760 H   0  0  0  0  0  0  0  0  0  0  0  0
   -8.1870    2.4170   -9.3630 H   0  0  0  0  0  0  0  0  0  0  0  0
  -10.7080    2.7450   -7.6670 H   0  0  0  0  0  0  0  0  0  0  0  0
   -9.7970    1.2400   -7.8940 H   0  0  0  0  0  0  0  0  0  0  0  0
   -9.7500    4.4830   -6.3590 H   0  0  0  0  0  0  0  0  0  0  0  0
   -8.0850    4.2900   -5.7820 H   0  0  0  0  0  0  0  0  0  0  0  0
   -8.2810    5.8640   -7.7910 H   0  0  0  0  0  0  0  0  0  0  0  0
   -7.1440    4.5330   -8.0540 H   0  0  0  0  0  0  0  0  0  0  0  0
   -8.8180    4.3590  -13.3970 H   0  0  0  0  0  0  0  0  0  0  0  0
  1  2  1  0
  2  3  1  0
  3  4  2  0
  4  5  1  0
  4  6  1  0
  6  7  2  0
  7  8  1  0
  8  9  1  0
  8 10  2  0
  1 11  2  0
  1 12  1  0
 12 13  2  0
 13 14  1  0
 14 15  2  0
 15 16  1  0
 16 17  1  0
 17 18  1  0
 18 19  1  0
 19 20  1  0
 20 21  1  0
 15 22  1  0
 22 23  2  0
  3 10  1  0
 23 12  1  0
 21 16  1  0
  2 24  1  0
  5 25  1  0
  5 26  1  0
  5 27  1  0
  6 28  1  0
  7 29  1  0
  9 30  1  0
  9 31  1  0
  9 32  1  0
 10 33  1  0
 13 34  1  0
 14 35  1  0
 17 36  1  0
 17 37  1  0
 18 38  1  0
 18 39  1  0
 20 40  1  0
 20 41  1  0
 21 42  1  0
 21 43  1  0
 23 44  1  0
A    1
 C1 
A    2
 N1 
A    3
 C2 
A    4
 C3 
A    5
 C4 
A    6
 C5 
A    7
 C6 
A    8
 C7 
A    9
 C8 
A   10
 C9 
A   11
 O1 
A   12
 C10
A   13
 C11
A   14
 C12
A   15
 C13
A   16
 N2 
A   17
 C14
A   18
 C15
A   19
 O2 
A   20
 C16
A   21
 C17
A   22
 N3 
A   23
 C18
A   24
 H1 
A   25
 H2 
A   26
 H3 
A   27
 H4 
A   28
 H5 
A   29
 H6 
A   30
 H7 
A   31
 H8 
A   32
 H9 
A   33
 H10
A   34
 H11
A   35
 H12
A   36
 H13
A   37
 H14
A   38
 H15
A   39
 H16
A   40
 H17
A   41
 H18
A   42
 H19
A   43
 H20
A   44
 H21
M  END
>  <ref_pdb>  (329) 
x0051_0B

>  <ref_mols>  (329) 
x0553_0B,x0404_0B

>  <original SMILES>  (329) 
[H]c1nc(N2C([H])([H])C([H])([H])OC([H])([H])C2([H])[H])c([H])c([H])c1C(=O)N([H])c1c([H])c(C([H])([H])[H])c([H])c([H])c1C([H])([H])[H]

>  <index>  (329) 
552

>  <∆∆G>  (329) 
-7.411848

>  <∆G_bound>  (329) 
-7.190155

>  <∆G_unbound>  (329) 
0.221692

>  <comRMSD>  (329) 
0.580787

>  <N_constrained_atoms>  (329) 
24.0

>  <N_unconstrained_atoms>  (329) 
0.0

>  <runtime>  (329) 
66.524384

>  <LE>  (329) 
0.308827

>  <percent_hybrid>  (329) 
38.0

>  <dist>  (329) 
8.0

>  <ecfp4>  (329) 
0.190476

>  <daylight>  (329) 
0.181435

>  <topodist>  (329) 
3.0

>  <mces>  (329) 
25.0

>  <tdn>  (329) 
2.0

>  <tup>  (329) 
0.0

>  <rdn>  (329) 
0.0

>  <rup>  (329) 
0.0

>  <ldn>  (329) 
1.0

>  <lup>  (329) 
0.0

>  <mut>  (329) 
3.0

>  <maj>  (329) 
3.0

>  <min>  (329) 
0.0

>  <hyb>  (329) 
2.0

>  <sub>  (329) 
0.0

>  <query_index>  (329) 
112.0

>  <max_hit_Tanimoto>  (329) 
0.201176

>  <largest_ring>  (329) 
6

>  <N_interactions_kept>  (329) 
2.0

>  <N_interactions_lost>  (329) 
1.5

>  <interaction_uniqueness_metric>  (329) 
0.112655

>  <ad_hoc_penalty>  (329) 
-20.454461

>  <N_rotatable_bonds>  (329) 
5

>  <N_HA>  (329) 
23

>  <cluster>  (329) 
5713

>  <N_interactions>  (329) 
5

>  <Enamine>  (329) 
0

>  <Mcule>  (329) 
1

>  <N_PAINS>  (329) 
0

>  <UFF_Gibbs>  (329) 
92.813124

>  <strain_per_HA>  (329) 
4.035353

>  <saltbridge:HIS:51>  (329) 
0

>  <pistack:HIS:51>  (329) 
1

>  <hydroph_interaction:HIS:51>  (329) 
1

>  <hbond:ALA:132>  (329) 
0

>  <hbond:SER:135>  (329) 
0

>  <hydroph_interaction:TYR:150>  (329) 
1

>  <pistack:TYR:161>  (329) 
0

>  <hydroph_interaction:TYR:161>  (329) 
1

>  <hydroph_interaction:ASP:83>  (329) 
0

>  <hbond:TYR:130>  (329) 
0

>  <hydroph_interaction:ALA:132>  (329) 
1

>  <hbond:HIS:51>  (329) 
0

>  <hbond:ASP:129>  (329) 
0

>  <hbond:TYR:150>  (329) 
0

>  <hbond:GLY:151>  (329) 
0

>  <hbond:TYR:161>  (329) 
0

>  <hydroph_interaction:TYR:130>  (329) 
0

>  <hydroph_interaction:PRO:131>  (329) 
0

>  <hydroph_interaction:ASP:129>  (329) 
0

>  <saltbridge:ASP:75>  (329) 
0

>  <saltbridge:ASP:83>  (329) 
0

>  <hydroph_interaction:ASN:152>  (329) 
0

>  <halogenbond:TYR:150>  (329) 
0

>  <hbond:ASP:83>  (329) 
0

>  <hydroph_interaction:VAL:155>  (329) 
0

>  <pication:TYR:161>  (329) 
0

>  <hbond:PRO:131>  (329) 
0

>  <hbond:LEU:128>  (329) 
0

>  <saltbridge:ASP:129>  (329) 
0

>  <hbond:THR:134>  (329) 
0

>  <pication:HIS:51>  (329) 
0

>  <hbond:SER:81>  (329) 
0

>  <hbond:GLY:159>  (329) 
0

>  <hydroph_interaction:PRO:101>  (329) 
0

>  <hydroph_interaction:THR:134>  (329) 
0

>  <hbond:GLY:82>  (329) 
0

>  <hydroph_interaction:GLU:104>  (329) 
0

>  <hydroph_interaction:VAL:36>  (329) 
0

>  <hydroph_interaction:MET:49>  (329) 
0

>  <halogenbond:GLU:104>  (329) 
0

>  <hydroph_interaction:LYS:107>  (329) 
0

$$$$
MCULE-5676934598
     RDKit          3D

 20 21  0  0  0  0  0  0  0  0999 V2000
   -7.6860    5.0830  -18.1540 C   0  0  0  0  0  0  0  0  0  0  0  0
   -7.9990    5.0330  -16.8300 C   0  0  0  0  0  0  0  0  0  0  0  0
   -9.6760    4.8980  -16.6540 S   0  0  0  0  0  0  0  0  0  0  0  0
   -9.8260    4.9180  -18.3730 C   0  0  0  0  0  0  0  0  0  0  0  0
  -11.1490    4.8690  -19.0420 C   0  0  0  0  0  0  0  0  0  0  0  0
   -8.7080    5.0080  -19.0390 N   0  0  0  0  0  0  0  0  0  0  0  0
   -6.3510    5.2130  -18.6480 C   0  0  0  0  0  0  0  0  0  0  0  0
   -5.9970    5.3070  -20.1170 C   0  0  0  0  0  0  0  0  0  0  0  0
   -4.7200    5.4230  -20.5750 N   0  0  0  0  0  0  0  0  0  0  0  0
   -3.7370    5.4530  -19.6380 C   0  0  0  0  0  0  0  0  0  0  0  0
   -3.9960    5.3750  -18.2830 C   0  0  0  0  0  0  0  0  0  0  0  0
   -5.2700    5.2590  -17.7730 C   0  0  0  0  0  0  0  0  0  0  0  0
   -7.2870    5.0770  -16.0060 H   0  0  0  0  0  0  0  0  0  0  0  0
  -11.8340    4.0550  -18.8610 H   0  0  0  0  0  0  0  0  0  0  0  0
  -11.6700    5.7860  -18.7890 H   0  0  0  0  0  0  0  0  0  0  0  0
  -10.9740    4.9360  -20.1200 H   0  0  0  0  0  0  0  0  0  0  0  0
   -6.7460    5.2860  -20.9030 H   0  0  0  0  0  0  0  0  0  0  0  0
   -2.7180    5.5420  -20.0260 H   0  0  0  0  0  0  0  0  0  0  0  0
   -3.1510    5.4070  -17.5840 H   0  0  0  0  0  0  0  0  0  0  0  0
   -5.3370    5.2050  -16.6820 H   0  0  0  0  0  0  0  0  0  0  0  0
  1  2  2  0
  2  3  1  0
  3  4  1  0
  4  5  1  0
  4  6  2  0
  1  7  1  0
  7  8  2  0
  8  9  1  0
  9 10  2  0
 10 11  1  0
 11 12  2  0
  6  1  1  0
  7 12  1  0
  2 13  1  0
  5 14  1  0
  5 15  1  0
  5 16  1  0
  8 17  1  0
 10 18  1  0
 11 19  1  0
 12 20  1  0
A    1
 C1 
A    2
 C2 
A    3
 S1 
A    4
 C3 
A    5
 C4 
A    6
 N1 
A    7
 C5 
A    8
 C6 
A    9
 N2 
A   10
 C7 
A   11
 C8 
A   12
 C9 
A   13
 H1 
A   14
 H2 
A   15
 H3 
A   16
 H4 
A   17
 H5 
A   18
 H6 
A   19
 H7 
A   20
 H8 
M  END
>  <ref_pdb>  (330) 
x0051_0B

>  <ref_mols>  (330) 
x0680_0B,x0386_0B

>  <original SMILES>  (330) 
[H]c1nc([H])c(-c2nc(C([H])([H])[H])sc2[H])c([H])c1[H]

>  <index>  (330) 
634

>  <∆∆G>  (330) 
-6.913918

>  <∆G_bound>  (330) 
-6.897857

>  <∆G_unbound>  (330) 
0.016061

>  <comRMSD>  (330) 
0.689884

>  <N_constrained_atoms>  (330) 
12.0

>  <N_unconstrained_atoms>  (330) 
1.0

>  <runtime>  (330) 
31.628931

>  <LE>  (330) 
0.53184

>  <percent_hybrid>  (330) 
17.0

>  <dist>  (330) 
3.0

>  <ecfp4>  (330) 
0.254902

>  <daylight>  (330) 
0.357616

>  <topodist>  (330) 
2.0

>  <mces>  (330) 
12.0

>  <tdn>  (330) 
1.0

>  <tup>  (330) 
1.0

>  <rdn>  (330) 
0.0

>  <rup>  (330) 
0.0

>  <ldn>  (330) 
0.0

>  <lup>  (330) 
0.0

>  <mut>  (330) 
1.0

>  <maj>  (330) 
0.0

>  <min>  (330) 
1.0

>  <hyb>  (330) 
0.0

>  <sub>  (330) 
2.0

>  <query_index>  (330) 
296.0

>  <max_hit_Tanimoto>  (330) 
0.117073

>  <largest_ring>  (330) 
6

>  <N_interactions_kept>  (330) 
3.0

>  <N_interactions_lost>  (330) 
1.0

>  <interaction_uniqueness_metric>  (330) 
0.028804

>  <ad_hoc_penalty>  (330) 
-20.449314

>  <N_rotatable_bonds>  (330) 
2

>  <N_HA>  (330) 
12

>  <cluster>  (330) 
5639

>  <N_interactions>  (330) 
3

>  <Enamine>  (330) 
0

>  <Mcule>  (330) 
1

>  <N_PAINS>  (330) 
0

>  <UFF_Gibbs>  (330) 
22.627101

>  <strain_per_HA>  (330) 
1.885592

>  <saltbridge:HIS:51>  (330) 
0

>  <pistack:HIS:51>  (330) 
0

>  <hydroph_interaction:HIS:51>  (330) 
0

>  <hbond:ALA:132>  (330) 
0

>  <hbond:SER:135>  (330) 
0

>  <hydroph_interaction:TYR:150>  (330) 
1

>  <pistack:TYR:161>  (330) 
0

>  <hydroph_interaction:TYR:161>  (330) 
2

>  <hydroph_interaction:ASP:83>  (330) 
0

>  <hbond:TYR:130>  (330) 
0

>  <hydroph_interaction:ALA:132>  (330) 
0

>  <hbond:HIS:51>  (330) 
0

>  <hbond:ASP:129>  (330) 
0

>  <hbond:TYR:150>  (330) 
0

>  <hbond:GLY:151>  (330) 
0

>  <hbond:TYR:161>  (330) 
0

>  <hydroph_interaction:TYR:130>  (330) 
0

>  <hydroph_interaction:PRO:131>  (330) 
0

>  <hydroph_interaction:ASP:129>  (330) 
0

>  <saltbridge:ASP:75>  (330) 
0

>  <saltbridge:ASP:83>  (330) 
0

>  <hydroph_interaction:ASN:152>  (330) 
0

>  <halogenbond:TYR:150>  (330) 
0

>  <hbond:ASP:83>  (330) 
0

>  <hydroph_interaction:VAL:155>  (330) 
0

>  <pication:TYR:161>  (330) 
0

>  <hbond:PRO:131>  (330) 
0

>  <hbond:LEU:128>  (330) 
0

>  <saltbridge:ASP:129>  (330) 
0

>  <hbond:THR:134>  (330) 
0

>  <pication:HIS:51>  (330) 
0

>  <hbond:SER:81>  (330) 
0

>  <hbond:GLY:159>  (330) 
0

>  <hydroph_interaction:PRO:101>  (330) 
0

>  <hydroph_interaction:THR:134>  (330) 
0

>  <hbond:GLY:82>  (330) 
0

>  <hydroph_interaction:GLU:104>  (330) 
0

>  <hydroph_interaction:VAL:36>  (330) 
0

>  <hydroph_interaction:MET:49>  (330) 
0

>  <halogenbond:GLU:104>  (330) 
0

>  <hydroph_interaction:LYS:107>  (330) 
0

$$$$
PV-002529810358
     RDKit          3D

 56 58  0  0  0  0  0  0  0  0999 V2000
   -9.5950    4.8010  -18.4680 C   0  0  0  0  0  0  0  0  0  0  0  0
   -8.5700    4.7350  -17.3330 C   0  0  1  0  0  0  0  0  0  0  0  0
   -7.4150    5.7580  -17.2640 C   0  0  0  0  0  0  0  0  0  0  0  0
   -6.3640    5.9050  -18.3920 C   0  0  0  0  0  0  0  0  0  0  0  0
   -6.6030    5.0300  -19.5970 C   0  0  0  0  0  0  0  0  0  0  0  0
   -5.3990    5.1390  -20.5210 C   0  0  0  0  0  0  0  0  0  0  0  0
   -5.3160    6.5270  -21.1120 C   0  0  0  0  0  0  0  0  0  0  0  0
   -5.1850    7.5610  -20.0140 C   0  0  0  0  0  0  0  0  0  0  0  0
   -6.1970    7.3440  -18.9010 C   0  0  0  0  0  0  0  0  0  0  0  0
   -9.2010    4.7790  -16.0300 N   0  0  0  0  0  0  0  0  0  0  0  0
   -8.3910    5.1740  -14.9900 C   0  0  0  0  0  0  0  0  0  0  0  0
   -7.5090    4.4860  -14.4940 O   0  0  0  0  0  0  0  0  0  0  0  0
   -8.6620    6.4400  -14.5550 N   0  0  0  0  0  0  0  0  0  0  0  0
   -8.8700    6.6560  -13.1130 C   0  0  0  0  0  0  0  0  0  0  0  0
   -8.6930    5.3650  -12.2880 C   0  0  0  0  0  0  0  0  0  0  0  0
   -8.7810    5.4580  -10.7830 C   0  0  0  0  0  0  0  0  0  0  0  0
   -8.9360    4.3960   -9.9220 C   0  0  0  0  0  0  0  0  0  0  0  0
   -9.0580    2.9390  -10.1580 C   0  0  0  0  0  0  0  0  0  0  0  0
   -8.6930    2.2060   -8.8880 C   0  0  0  0  0  0  0  0  0  0  0  0
   -9.5270    2.7130   -7.7290 C   0  0  0  0  0  0  0  0  0  0  0  0
   -9.1190    4.1480   -7.4240 C   0  0  0  0  0  0  0  0  0  0  0  0
   -8.9660    4.9200   -8.6510 N   0  0  0  0  0  0  0  0  0  0  0  0
   -8.8380    6.2560   -8.6250 N   0  0  0  0  0  0  0  0  0  0  0  0
   -8.7280    6.5870   -9.9240 C   0  0  0  0  0  0  0  0  0  0  0  0
   -9.8150    3.8040  -18.8530 H   0  0  0  0  0  0  0  0  0  0  0  0
   -9.2050    5.3790  -19.3140 H   0  0  0  0  0  0  0  0  0  0  0  0
  -10.5310    5.2640  -18.1370 H   0  0  0  0  0  0  0  0  0  0  0  0
   -8.1010    3.7570  -17.4070 H   0  0  0  0  0  0  0  0  0  0  0  0
   -6.8550    5.4950  -16.3590 H   0  0  0  0  0  0  0  0  0  0  0  0
   -7.8470    6.7220  -17.0270 H   0  0  0  0  0  0  0  0  0  0  0  0
   -5.3960    5.5920  -17.9860 H   0  0  0  0  0  0  0  0  0  0  0  0
   -6.8070    4.0000  -19.3170 H   0  0  0  0  0  0  0  0  0  0  0  0
   -7.4940    5.3870  -20.1270 H   0  0  0  0  0  0  0  0  0  0  0  0
   -4.4850    4.9430  -19.9550 H   0  0  0  0  0  0  0  0  0  0  0  0
   -5.4590    4.3980  -21.3280 H   0  0  0  0  0  0  0  0  0  0  0  0
   -6.2050    6.7320  -21.7170 H   0  0  0  0  0  0  0  0  0  0  0  0
   -4.4500    6.5890  -21.7830 H   0  0  0  0  0  0  0  0  0  0  0  0
   -4.1670    7.5340  -19.6090 H   0  0  0  0  0  0  0  0  0  0  0  0
   -5.3240    8.5620  -20.4380 H   0  0  0  0  0  0  0  0  0  0  0  0
   -7.1600    7.6610  -19.3020 H   0  0  0  0  0  0  0  0  0  0  0  0
   -5.9430    8.0170  -18.0800 H   0  0  0  0  0  0  0  0  0  0  0  0
   -9.7050    3.9410  -15.7820 H   0  0  0  0  0  0  0  0  0  0  0  0
   -9.2800    6.9610  -15.1610 H   0  0  0  0  0  0  0  0  0  0  0  0
   -8.1570    7.4260  -12.7960 H   0  0  0  0  0  0  0  0  0  0  0  0
   -9.8850    7.0460  -12.9650 H   0  0  0  0  0  0  0  0  0  0  0  0
   -7.7150    4.9370  -12.5390 H   0  0  0  0  0  0  0  0  0  0  0  0
   -9.4300    4.6220  -12.6220 H   0  0  0  0  0  0  0  0  0  0  0  0
   -8.3770    2.6430  -10.9670 H   0  0  0  0  0  0  0  0  0  0  0  0
  -10.0710    2.6630  -10.4640 H   0  0  0  0  0  0  0  0  0  0  0  0
   -8.8420    1.1410   -9.0050 H   0  0  0  0  0  0  0  0  0  0  0  0
   -7.6320    2.3620   -8.6790 H   0  0  0  0  0  0  0  0  0  0  0  0
  -10.5960    2.6540   -7.9610 H   0  0  0  0  0  0  0  0  0  0  0  0
   -9.3440    2.0780   -6.8610 H   0  0  0  0  0  0  0  0  0  0  0  0
   -8.1670    4.1720   -6.8820 H   0  0  0  0  0  0  0  0  0  0  0  0
   -9.8840    4.6530   -6.8230 H   0  0  0  0  0  0  0  0  0  0  0  0
   -8.6130    7.6290  -10.1930 H   0  0  0  0  0  0  0  0  0  0  0  0
  1  2  1  0
  2  3  1  0
  3  4  1  0
  4  5  1  0
  5  6  1  0
  6  7  1  0
  7  8  1  0
  8  9  1  0
  2 10  1  0
 10 11  1  0
 11 12  2  0
 11 13  1  0
 13 14  1  0
 14 15  1  0
 15 16  1  0
 16 17  2  0
 17 18  1  0
 18 19  1  0
 19 20  1  0
 20 21  1  0
 21 22  1  0
 22 23  1  0
 23 24  2  0
  9  4  1  0
 24 16  1  0
 22 17  1  0
  1 25  1  0
  1 26  1  0
  1 27  1  0
  2 28  1  1
  3 29  1  0
  3 30  1  0
  4 31  1  0
  5 32  1  0
  5 33  1  0
  6 34  1  0
  6 35  1  0
  7 36  1  0
  7 37  1  0
  8 38  1  0
  8 39  1  0
  9 40  1  0
  9 41  1  0
 10 42  1  0
 13 43  1  0
 14 44  1  0
 14 45  1  0
 15 46  1  0
 15 47  1  0
 18 48  1  0
 18 49  1  0
 19 50  1  0
 19 51  1  0
 20 52  1  0
 20 53  1  0
 21 54  1  0
 21 55  1  0
 24 56  1  0
A    1
 C1 
A    2
 C2 
A    3
 C3 
A    4
 C4 
A    5
 C5 
A    6
 C6 
A    7
 C7 
A    8
 C8 
A    9
 C9 
A   10
 N1 
A   11
 C10
A   12
 O1 
A   13
 N2 
A   14
 C11
A   15
 C12
A   16
 C13
A   17
 C14
A   18
 C15
A   19
 C16
A   20
 C17
A   21
 C18
A   22
 N3 
A   23
 N4 
A   24
 C19
A   25
 H1 
A   26
 H2 
A   27
 H3 
A   28
 H4 
A   29
 H5 
A   30
 H6 
A   31
 H7 
A   32
 H8 
A   33
 H9 
A   34
 H10
A   35
 H11
A   36
 H12
A   37
 H13
A   38
 H14
A   39
 H15
A   40
 H16
A   41
 H17
A   42
 H18
A   43
 H19
A   44
 H20
A   45
 H21
A   46
 H22
A   47
 H23
A   48
 H24
A   49
 H25
A   50
 H26
A   51
 H27
A   52
 H28
A   53
 H29
A   54
 H30
A   55
 H31
A   56
 H32
M  END
>  <ref_pdb>  (331) 
x0051_0B

>  <ref_mols>  (331) 
x0969_1B,x0803_0B

>  <original SMILES>  (331) 
[H]c1nn2c(c1C([H])([H])C([H])([H])N([H])C(=O)N([H])[C@@]([H])(C([H])([H])[H])C([H])([H])C1([H])C([H])([H])C([H])([H])C([H])([H])C([H])([H])C1([H])[H])C([H])([H])C([H])([H])C([H])([H])C2([H])[H]

>  <index>  (331) 
490

>  <∆∆G>  (331) 
-6.601496

>  <∆G_bound>  (331) 
-5.220449

>  <∆G_unbound>  (331) 
1.381047

>  <comRMSD>  (331) 
0.706992

>  <N_constrained_atoms>  (331) 
22.0

>  <N_unconstrained_atoms>  (331) 
2.0

>  <runtime>  (331) 
73.964389

>  <LE>  (331) 
0.275062

>  <percent_hybrid>  (331) 
46.0

>  <dist>  (331) 
10.0

>  <ecfp4>  (331) 
0.2375

>  <daylight>  (331) 
0.279863

>  <topodist>  (331) 
1.0

>  <mces>  (331) 
26.0

>  <tdn>  (331) 
0.0

>  <tup>  (331) 
0.0

>  <rdn>  (331) 
1.0

>  <rup>  (331) 
0.0

>  <ldn>  (331) 
0.0

>  <lup>  (331) 
0.0

>  <mut>  (331) 
6.0

>  <maj>  (331) 
6.0

>  <min>  (331) 
0.0

>  <hyb>  (331) 
3.0

>  <sub>  (331) 
0.0

>  <query_index>  (331) 
360.0

>  <max_hit_Tanimoto>  (331) 
0.350446

>  <largest_ring>  (331) 
0

>  <N_interactions_kept>  (331) 
5.0

>  <N_interactions_lost>  (331) 
1.0

>  <interaction_uniqueness_metric>  (331) 
0.144425

>  <ad_hoc_penalty>  (331) 
-20.411052

>  <N_rotatable_bonds>  (331) 
7

>  <N_HA>  (331) 
24

>  <cluster>  (331) 
5771

>  <N_interactions>  (331) 
6

>  <Enamine>  (331) 
1

>  <Mcule>  (331) 
0

>  <N_PAINS>  (331) 
0

>  <UFF_Gibbs>  (331) 
120.777165

>  <strain_per_HA>  (331) 
5.032382

>  <saltbridge:HIS:51>  (331) 
0

>  <pistack:HIS:51>  (331) 
1

>  <hydroph_interaction:HIS:51>  (331) 
0

>  <hbond:ALA:132>  (331) 
0

>  <hbond:SER:135>  (331) 
0

>  <hydroph_interaction:TYR:150>  (331) 
1

>  <pistack:TYR:161>  (331) 
0

>  <hydroph_interaction:TYR:161>  (331) 
3

>  <hydroph_interaction:ASP:83>  (331) 
1

>  <hbond:TYR:130>  (331) 
0

>  <hydroph_interaction:ALA:132>  (331) 
0

>  <hbond:HIS:51>  (331) 
0

>  <hbond:ASP:129>  (331) 
0

>  <hbond:TYR:150>  (331) 
0

>  <hbond:GLY:151>  (331) 
0

>  <hbond:TYR:161>  (331) 
0

>  <hydroph_interaction:TYR:130>  (331) 
0

>  <hydroph_interaction:PRO:131>  (331) 
0

>  <hydroph_interaction:ASP:129>  (331) 
0

>  <saltbridge:ASP:75>  (331) 
0

>  <saltbridge:ASP:83>  (331) 
0

>  <hydroph_interaction:ASN:152>  (331) 
0

>  <halogenbond:TYR:150>  (331) 
0

>  <hbond:ASP:83>  (331) 
0

>  <hydroph_interaction:VAL:155>  (331) 
0

>  <pication:TYR:161>  (331) 
0

>  <hbond:PRO:131>  (331) 
0

>  <hbond:LEU:128>  (331) 
0

>  <saltbridge:ASP:129>  (331) 
0

>  <hbond:THR:134>  (331) 
0

>  <pication:HIS:51>  (331) 
0

>  <hbond:SER:81>  (331) 
0

>  <hbond:GLY:159>  (331) 
0

>  <hydroph_interaction:PRO:101>  (331) 
0

>  <hydroph_interaction:THR:134>  (331) 
0

>  <hbond:GLY:82>  (331) 
0

>  <hydroph_interaction:GLU:104>  (331) 
0

>  <hydroph_interaction:VAL:36>  (331) 
0

>  <hydroph_interaction:MET:49>  (331) 
0

>  <halogenbond:GLU:104>  (331) 
0

>  <hydroph_interaction:LYS:107>  (331) 
0

$$$$
Z295742492
     RDKit          3D

 51 55  0  0  0  0  0  0  0  0999 V2000
   -7.2190    4.4680  -20.3830 C   0  0  0  0  0  0  0  0  0  0  0  0
   -7.2710    5.6590  -19.5110 C   0  0  0  0  0  0  0  0  0  0  0  0
   -7.7100    5.4680  -18.2000 C   0  0  0  0  0  0  0  0  0  0  0  0
   -8.9440    4.9660  -17.8020 C   0  0  0  0  0  0  0  0  0  0  0  0
   -8.9590    4.9710  -16.3680 C   0  0  0  0  0  0  0  0  0  0  0  0
   -7.7640    5.4520  -15.8580 C   0  0  0  0  0  0  0  0  0  0  0  0
   -7.0130    5.7500  -17.0320 N   0  0  0  0  0  0  0  0  0  0  0  0
   -5.6880    6.2800  -17.1300 C   0  0  0  0  0  0  0  0  0  0  0  0
   -5.1540    5.8430  -18.3490 C   0  0  0  0  0  0  0  0  0  0  0  0
   -6.0260    6.1660  -19.5160 N   0  0  0  0  0  0  0  0  0  0  0  0
   -5.2970    6.2970  -20.7370 C   0  0  0  0  0  0  0  0  0  0  0  0
   -4.4150    5.4870  -21.0490 O   0  0  0  0  0  0  0  0  0  0  0  0
   -5.5090    7.3640  -21.6700 C   0  0  0  0  0  0  0  0  0  0  0  0
   -6.0540    7.1090  -23.1090 C   0  0  0  0  0  0  0  0  0  0  0  0
   -6.2720    8.2420  -24.0750 C   0  0  0  0  0  0  0  0  0  0  0  0
   -5.9120    9.5870  -23.5020 C   0  0  0  0  0  0  0  0  0  0  0  0
   -6.1740   10.6520  -24.5430 C   0  0  0  0  0  0  0  0  0  0  0  0
   -5.7530   10.1320  -26.2320 S   0  0  0  0  0  0  0  0  0  0  0  0
   -7.1900    9.4120  -26.8530 C   0  0  0  0  0  0  0  0  0  0  0  0
   -7.3650    8.1610  -27.2070 N   0  0  0  0  0  0  0  0  0  0  0  0
   -8.6660    8.0870  -27.6230 C   0  0  0  0  0  0  0  0  0  0  0  0
   -9.4020    7.0030  -28.0990 C   0  0  0  0  0  0  0  0  0  0  0  0
  -10.7470    7.1810  -28.4590 C   0  0  0  0  0  0  0  0  0  0  0  0
  -11.3620    8.4250  -28.3500 C   0  0  0  0  0  0  0  0  0  0  0  0
  -10.6320    9.5030  -27.8820 C   0  0  0  0  0  0  0  0  0  0  0  0
   -9.2890    9.3290  -27.5210 C   0  0  0  0  0  0  0  0  0  0  0  0
   -8.3150   10.1580  -27.0290 N   0  0  0  0  0  0  0  0  0  0  0  0
   -5.4140    9.7760  -22.1930 C   0  0  0  0  0  0  0  0  0  0  0  0
   -5.2160    8.6950  -21.2970 C   0  0  0  0  0  0  0  0  0  0  0  0
   -7.3690    4.7020  -21.4330 H   0  0  0  0  0  0  0  0  0  0  0  0
   -7.9760    3.7310  -20.0880 H   0  0  0  0  0  0  0  0  0  0  0  0
   -6.2340    4.0360  -20.2960 H   0  0  0  0  0  0  0  0  0  0  0  0
   -8.0950    6.2200  -19.9020 H   0  0  0  0  0  0  0  0  0  0  0  0
   -9.7500    4.6380  -18.4570 H   0  0  0  0  0  0  0  0  0  0  0  0
   -9.8100    4.6340  -15.7680 H   0  0  0  0  0  0  0  0  0  0  0  0
   -7.3880    5.6060  -14.8390 H   0  0  0  0  0  0  0  0  0  0  0  0
   -5.7750    7.3450  -16.9310 H   0  0  0  0  0  0  0  0  0  0  0  0
   -5.0820    5.8540  -16.3200 H   0  0  0  0  0  0  0  0  0  0  0  0
   -4.1550    6.1840  -18.6310 H   0  0  0  0  0  0  0  0  0  0  0  0
   -5.0870    4.7560  -18.2550 H   0  0  0  0  0  0  0  0  0  0  0  0
   -6.2570    6.0570  -23.3340 H   0  0  0  0  0  0  0  0  0  0  0  0
   -6.6540    8.0660  -25.0760 H   0  0  0  0  0  0  0  0  0  0  0  0
   -7.2240   10.9530  -24.4820 H   0  0  0  0  0  0  0  0  0  0  0  0
   -5.5920   11.5600  -24.3530 H   0  0  0  0  0  0  0  0  0  0  0  0
   -8.9280    6.0300  -28.1850 H   0  0  0  0  0  0  0  0  0  0  0  0
  -11.3160    6.3330  -28.8270 H   0  0  0  0  0  0  0  0  0  0  0  0
  -12.4070    8.5560  -28.6300 H   0  0  0  0  0  0  0  0  0  0  0  0
  -11.1100   10.4780  -27.7970 H   0  0  0  0  0  0  0  0  0  0  0  0
   -8.4020   11.1450  -26.8240 H   0  0  0  0  0  0  0  0  0  0  0  0
   -5.1740   10.7830  -21.8520 H   0  0  0  0  0  0  0  0  0  0  0  0
   -4.8310    8.9000  -20.3010 H   0  0  0  0  0  0  0  0  0  0  0  0
  1  2  1  0
  2  3  1  0
  3  4  2  0
  4  5  1  0
  5  6  2  0
  6  7  1  0
  7  8  1  0
  8  9  1  0
  9 10  1  0
 10 11  1  0
 11 12  2  0
 11 13  1  0
 13 14  2  0
 14 15  1  0
 15 16  2  0
 16 17  1  0
 17 18  1  0
 18 19  1  0
 19 20  2  0
 20 21  1  0
 21 22  2  0
 22 23  1  0
 23 24  2  0
 24 25  1  0
 25 26  2  0
 26 27  1  0
 16 28  1  0
 28 29  2  0
 10  2  1  0
  7  3  1  0
 29 13  1  0
 27 19  1  0
 26 21  1  0
  1 30  1  0
  1 31  1  0
  1 32  1  0
  2 33  1  0
  4 34  1  0
  5 35  1  0
  6 36  1  0
  8 37  1  0
  8 38  1  0
  9 39  1  0
  9 40  1  0
 14 41  1  0
 15 42  1  0
 17 43  1  0
 17 44  1  0
 22 45  1  0
 23 46  1  0
 24 47  1  0
 25 48  1  0
 27 49  1  0
 28 50  1  0
 29 51  1  0
A    1
 C1 
A    2
 C2 
A    3
 C3 
A    4
 C4 
A    5
 C5 
A    6
 C6 
A    7
 N1 
A    8
 C7 
A    9
 C8 
A   10
 N2 
A   11
 C9 
A   12
 O1 
A   13
 C10
A   14
 C11
A   15
 C12
A   16
 C13
A   17
 C14
A   18
 S1 
A   19
 C15
A   20
 N3 
A   21
 C16
A   22
 C17
A   23
 C18
A   24
 C19
A   25
 C20
A   26
 C21
A   27
 N4 
A   28
 C22
A   29
 C23
A   30
 H1 
A   31
 H2 
A   32
 H3 
A   33
 H4 
A   34
 H5 
A   35
 H6 
A   36
 H7 
A   37
 H8 
A   38
 H9 
A   39
 H10
A   40
 H11
A   41
 H12
A   42
 H13
A   43
 H14
A   44
 H15
A   45
 H16
A   46
 H17
A   47
 H18
A   48
 H19
A   49
 H20
A   50
 H21
A   51
 H22
M  END
>  <ref_pdb>  (332) 
x0051_0B

>  <ref_mols>  (332) 
x0846_1B,x0969_0B

>  <original SMILES>  (332) 
[H]c1c([H])c(C([H])([H])Sc2nc3c([H])c([H])c([H])c([H])c3n2[H])c([H])c([H])c1C(=O)N1C([H])([H])C([H])([H])n2c([H])c([H])c([H])c2C1([H])C([H])([H])[H]

>  <index>  (332) 
518

>  <∆∆G>  (332) 
-9.243748

>  <∆G_bound>  (332) 
-9.111859

>  <∆G_unbound>  (332) 
0.131889

>  <comRMSD>  (332) 
0.742355

>  <N_constrained_atoms>  (332) 
28.0

>  <N_unconstrained_atoms>  (332) 
3.0

>  <runtime>  (332) 
44.201583

>  <LE>  (332) 
0.298185

>  <percent_hybrid>  (332) 
36.0

>  <dist>  (332) 
7.0

>  <ecfp4>  (332) 
0.207921

>  <daylight>  (332) 
0.319489

>  <topodist>  (332) 
4.0

>  <mces>  (332) 
31.0

>  <tdn>  (332) 
2.0

>  <tup>  (332) 
2.0

>  <rdn>  (332) 
0.0

>  <rup>  (332) 
0.0

>  <ldn>  (332) 
0.0

>  <lup>  (332) 
0.0

>  <mut>  (332) 
3.0

>  <maj>  (332) 
3.0

>  <min>  (332) 
0.0

>  <hyb>  (332) 
0.0

>  <sub>  (332) 
3.0

>  <query_index>  (332) 
45.0

>  <max_hit_Tanimoto>  (332) 
0.246903

>  <largest_ring>  (332) 
6

>  <N_interactions_kept>  (332) 
0.5

>  <N_interactions_lost>  (332) 
2.0

>  <interaction_uniqueness_metric>  (332) 
0.16668

>  <ad_hoc_penalty>  (332) 
-20.406118

>  <N_rotatable_bonds>  (332) 
5

>  <N_HA>  (332) 
29

>  <cluster>  (332) 
5746

>  <N_interactions>  (332) 
5

>  <Enamine>  (332) 
1

>  <Mcule>  (332) 
0

>  <N_PAINS>  (332) 
0

>  <UFF_Gibbs>  (332) 
145.163352

>  <strain_per_HA>  (332) 
5.005633

>  <saltbridge:HIS:51>  (332) 
0

>  <pistack:HIS:51>  (332) 
0

>  <hydroph_interaction:HIS:51>  (332) 
0

>  <hbond:ALA:132>  (332) 
0

>  <hbond:SER:135>  (332) 
0

>  <hydroph_interaction:TYR:150>  (332) 
0

>  <pistack:TYR:161>  (332) 
1

>  <hydroph_interaction:TYR:161>  (332) 
1

>  <hydroph_interaction:ASP:83>  (332) 
0

>  <hbond:TYR:130>  (332) 
0

>  <hydroph_interaction:ALA:132>  (332) 
0

>  <hbond:HIS:51>  (332) 
0

>  <hbond:ASP:129>  (332) 
1

>  <hbond:TYR:150>  (332) 
0

>  <hbond:GLY:151>  (332) 
0

>  <hbond:TYR:161>  (332) 
0

>  <hydroph_interaction:TYR:130>  (332) 
1

>  <hydroph_interaction:PRO:131>  (332) 
1

>  <hydroph_interaction:ASP:129>  (332) 
0

>  <saltbridge:ASP:75>  (332) 
0

>  <saltbridge:ASP:83>  (332) 
0

>  <hydroph_interaction:ASN:152>  (332) 
0

>  <halogenbond:TYR:150>  (332) 
0

>  <hbond:ASP:83>  (332) 
0

>  <hydroph_interaction:VAL:155>  (332) 
0

>  <pication:TYR:161>  (332) 
0

>  <hbond:PRO:131>  (332) 
0

>  <hbond:LEU:128>  (332) 
0

>  <saltbridge:ASP:129>  (332) 
0

>  <hbond:THR:134>  (332) 
0

>  <pication:HIS:51>  (332) 
0

>  <hbond:SER:81>  (332) 
0

>  <hbond:GLY:159>  (332) 
0

>  <hydroph_interaction:PRO:101>  (332) 
0

>  <hydroph_interaction:THR:134>  (332) 
0

>  <hbond:GLY:82>  (332) 
0

>  <hydroph_interaction:GLU:104>  (332) 
0

>  <hydroph_interaction:VAL:36>  (332) 
0

>  <hydroph_interaction:MET:49>  (332) 
0

>  <halogenbond:GLU:104>  (332) 
0

>  <hydroph_interaction:LYS:107>  (332) 
0

$$$$
PV-005060897018
     RDKit          3D

 27 28  0  0  0  0  0  0  0  0999 V2000
   -9.3680    6.1140  -13.4130 C   0  0  0  0  0  0  0  0  0  0  0  0
   -8.5820    5.1670  -14.1730 N   0  0  0  0  0  0  0  0  0  0  0  0
   -7.8770    5.6560  -15.2200 C   0  0  0  0  0  0  0  0  0  0  0  0
   -6.4170    5.2520  -15.1440 C   0  0  0  0  0  0  0  0  0  0  0  0
   -5.4290    5.3560  -16.3220 C   0  0  0  0  0  0  0  0  0  0  0  0
   -6.2410    5.9080  -17.4480 C   0  0  0  0  0  0  0  0  0  0  0  0
   -7.5420    5.4630  -17.6790 C   0  0  0  0  0  0  0  0  0  0  0  0
   -7.9490    5.1840  -18.9730 C   0  0  0  0  0  0  0  0  0  0  0  0
   -9.2540    4.7460  -19.2040 C   0  0  0  0  0  0  0  0  0  0  0  0
  -10.1310    4.5940  -18.1460 C   0  0  0  0  0  0  0  0  0  0  0  0
   -9.7130    4.8710  -16.8470 C   0  0  0  0  0  0  0  0  0  0  0  0
   -8.4260    5.3110  -16.5980 C   0  0  0  0  0  0  0  0  0  0  0  0
   -8.8190    7.0530  -13.2960 H   0  0  0  0  0  0  0  0  0  0  0  0
  -10.3220    6.3290  -13.9060 H   0  0  0  0  0  0  0  0  0  0  0  0
   -9.5710    5.6990  -12.4190 H   0  0  0  0  0  0  0  0  0  0  0  0
   -9.0710    4.3070  -14.4920 H   0  0  0  0  0  0  0  0  0  0  0  0
   -7.9300    6.7500  -15.1520 H   0  0  0  0  0  0  0  0  0  0  0  0
   -5.9560    5.8230  -14.3310 H   0  0  0  0  0  0  0  0  0  0  0  0
   -6.3780    4.2100  -14.8090 H   0  0  0  0  0  0  0  0  0  0  0  0
   -4.6550    6.0790  -16.0440 H   0  0  0  0  0  0  0  0  0  0  0  0
   -4.9650    4.4070  -16.5820 H   0  0  0  0  0  0  0  0  0  0  0  0
   -5.6710    5.7590  -18.3710 H   0  0  0  0  0  0  0  0  0  0  0  0
   -6.2680    6.9940  -17.3100 H   0  0  0  0  0  0  0  0  0  0  0  0
   -7.2570    5.3050  -19.8020 H   0  0  0  0  0  0  0  0  0  0  0  0
   -9.5710    4.5300  -20.2180 H   0  0  0  0  0  0  0  0  0  0  0  0
  -11.1480    4.2580  -18.3310 H   0  0  0  0  0  0  0  0  0  0  0  0
  -10.4030    4.7450  -16.0220 H   0  0  0  0  0  0  0  0  0  0  0  0
  1  2  1  0
  2  3  1  0
  3  4  1  0
  4  5  1  0
  5  6  1  0
  6  7  1  0
  7  8  2  0
  8  9  1  0
  9 10  2  0
 10 11  1  0
 11 12  2  0
 12  3  1  0
 12  7  1  0
  1 13  1  0
  1 14  1  0
  1 15  1  0
  2 16  1  0
  3 17  1  0
  4 18  1  0
  4 19  1  0
  5 20  1  0
  5 21  1  0
  6 22  1  0
  6 23  1  0
  8 24  1  0
  9 25  1  0
 10 26  1  0
 11 27  1  0
A    1
 C1 
A    2
 N1 
A    3
 C2 
A    4
 C3 
A    5
 C4 
A    6
 C5 
A    7
 C6 
A    8
 C7 
A    9
 C8 
A   10
 C9 
A   11
 C10
A   12
 C11
A   13
 H1 
A   14
 H2 
A   15
 H3 
A   16
 H4 
A   17
 H5 
A   18
 H6 
A   19
 H7 
A   20
 H8 
A   21
 H9 
A   22
 H10
A   23
 H11
A   24
 H12
A   25
 H13
A   26
 H14
A   27
 H15
M  END
>  <ref_pdb>  (333) 
x0051_0B

>  <ref_mols>  (333) 
x0455_0B,x0951_0B

>  <original SMILES>  (333) 
[H]c1c([H])c([H])c2c(c1[H])C([H])([H])C([H])([H])C([H])([H])C2([H])N([H])C([H])([H])[H]

>  <index>  (333) 
611

>  <∆∆G>  (333) 
-6.403504

>  <∆G_bound>  (333) 
-6.347967

>  <∆G_unbound>  (333) 
0.055537

>  <comRMSD>  (333) 
0.655434

>  <N_constrained_atoms>  (333) 
14.0

>  <N_unconstrained_atoms>  (333) 
0.0

>  <runtime>  (333) 
28.121368

>  <LE>  (333) 
0.457393

>  <percent_hybrid>  (333) 
34.0

>  <dist>  (333) 
3.0

>  <ecfp4>  (333) 
0.2

>  <daylight>  (333) 
0.212903

>  <topodist>  (333) 
1.0

>  <mces>  (333) 
13.0

>  <tdn>  (333) 
0.0

>  <tup>  (333) 
0.0

>  <rdn>  (333) 
0.0

>  <rup>  (333) 
0.0

>  <ldn>  (333) 
1.0

>  <lup>  (333) 
0.0

>  <mut>  (333) 
2.0

>  <maj>  (333) 
2.0

>  <min>  (333) 
0.0

>  <hyb>  (333) 
0.0

>  <sub>  (333) 
0.0

>  <query_index>  (333) 
288.0

>  <max_hit_Tanimoto>  (333) 
0.158228

>  <largest_ring>  (333) 
6

>  <N_interactions_kept>  (333) 
0.0

>  <N_interactions_lost>  (333) 
2.5

>  <interaction_uniqueness_metric>  (333) 
0.119675

>  <ad_hoc_penalty>  (333) 
-20.400103

>  <N_rotatable_bonds>  (333) 
2

>  <N_HA>  (333) 
12

>  <cluster>  (333) 
5660

>  <N_interactions>  (333) 
6

>  <Enamine>  (333) 
1

>  <Mcule>  (333) 
0

>  <N_PAINS>  (333) 
0

>  <UFF_Gibbs>  (333) 
37.945667

>  <strain_per_HA>  (333) 
3.162139

>  <saltbridge:HIS:51>  (333) 
0

>  <pistack:HIS:51>  (333) 
0

>  <hydroph_interaction:HIS:51>  (333) 
0

>  <hbond:ALA:132>  (333) 
0

>  <hbond:SER:135>  (333) 
0

>  <hydroph_interaction:TYR:150>  (333) 
1

>  <pistack:TYR:161>  (333) 
1

>  <hydroph_interaction:TYR:161>  (333) 
1

>  <hydroph_interaction:ASP:83>  (333) 
0

>  <hbond:TYR:130>  (333) 
0

>  <hydroph_interaction:ALA:132>  (333) 
1

>  <hbond:HIS:51>  (333) 
0

>  <hbond:ASP:129>  (333) 
0

>  <hbond:TYR:150>  (333) 
0

>  <hbond:GLY:151>  (333) 
0

>  <hbond:TYR:161>  (333) 
2

>  <hydroph_interaction:TYR:130>  (333) 
0

>  <hydroph_interaction:PRO:131>  (333) 
0

>  <hydroph_interaction:ASP:129>  (333) 
0

>  <saltbridge:ASP:75>  (333) 
0

>  <saltbridge:ASP:83>  (333) 
0

>  <hydroph_interaction:ASN:152>  (333) 
0

>  <halogenbond:TYR:150>  (333) 
0

>  <hbond:ASP:83>  (333) 
0

>  <hydroph_interaction:VAL:155>  (333) 
0

>  <pication:TYR:161>  (333) 
0

>  <hbond:PRO:131>  (333) 
0

>  <hbond:LEU:128>  (333) 
0

>  <saltbridge:ASP:129>  (333) 
0

>  <hbond:THR:134>  (333) 
0

>  <pication:HIS:51>  (333) 
0

>  <hbond:SER:81>  (333) 
0

>  <hbond:GLY:159>  (333) 
0

>  <hydroph_interaction:PRO:101>  (333) 
0

>  <hydroph_interaction:THR:134>  (333) 
0

>  <hbond:GLY:82>  (333) 
0

>  <hydroph_interaction:GLU:104>  (333) 
0

>  <hydroph_interaction:VAL:36>  (333) 
0

>  <hydroph_interaction:MET:49>  (333) 
0

>  <halogenbond:GLU:104>  (333) 
0

>  <hydroph_interaction:LYS:107>  (333) 
0

$$$$
PV-002138587716
     RDKit          3D

 46 50  0  0  0  0  0  0  0  0999 V2000
   -4.6130    5.2480  -21.2280 O   0  0  0  0  0  0  0  0  0  0  0  0
   -5.3470    6.1400  -20.8340 C   0  0  0  0  0  0  0  0  0  0  0  0
   -5.5680    7.2870  -21.8220 C   0  0  0  0  0  0  0  0  0  0  0  0
   -6.0510    7.1280  -23.0850 C   0  0  0  0  0  0  0  0  0  0  0  0
   -6.2520    8.2340  -23.9970 C   0  0  0  0  0  0  0  0  0  0  0  0
   -5.9430    9.5160  -23.5870 C   0  0  0  0  0  0  0  0  0  0  0  0
   -6.1370   10.5960  -24.4570 C   0  0  0  0  0  0  0  0  0  0  0  0
   -5.6820   10.1460  -26.1650 S   0  0  0  0  0  0  0  0  0  0  0  0
   -7.1390    9.4850  -26.8020 C   0  0  0  0  0  0  0  0  0  0  0  0
   -7.4290    8.1720  -27.2120 N   0  0  0  0  0  0  0  0  0  0  0  0
   -8.7110    8.0530  -27.6470 C   0  0  0  0  0  0  0  0  0  0  0  0
   -9.3820    6.9420  -28.1140 C   0  0  0  0  0  0  0  0  0  0  0  0
  -10.7270    7.1450  -28.4790 C   0  0  0  0  0  0  0  0  0  0  0  0
  -11.3340    8.4340  -28.3660 C   0  0  0  0  0  0  0  0  0  0  0  0
  -10.6150    9.5740  -27.8860 C   0  0  0  0  0  0  0  0  0  0  0  0
   -9.3180    9.2600  -27.5580 C   0  0  0  0  0  0  0  0  0  0  0  0
   -8.3750   10.2640  -27.0260 N   0  0  0  0  0  0  0  0  0  0  0  0
   -5.4350    9.6960  -22.2830 C   0  0  0  0  0  0  0  0  0  0  0  0
   -5.2500    8.6010  -21.4110 C   0  0  0  0  0  0  0  0  0  0  0  0
   -5.9280    6.0890  -19.5280 N   0  0  0  0  0  0  0  0  0  0  0  0
   -5.0380    5.9130  -18.3350 C   0  0  0  0  0  0  0  0  0  0  0  0
   -5.7230    6.2680  -17.0180 C   0  0  0  0  0  0  0  0  0  0  0  0
   -7.0530    5.7390  -17.0460 N   0  0  0  0  0  0  0  0  0  0  0  0
   -7.8230    5.5830  -15.9590 N   0  0  0  0  0  0  0  0  0  0  0  0
   -8.9840    5.0650  -16.3750 N   0  0  0  0  0  0  0  0  0  0  0  0
   -8.9210    4.9010  -17.7360 C   0  0  0  0  0  0  0  0  0  0  0  0
   -7.6870    5.3350  -18.1660 C   0  0  0  0  0  0  0  0  0  0  0  0
   -7.2140    5.3570  -19.4350 C   0  0  0  0  0  0  0  0  0  0  0  0
   -6.3030    6.1280  -23.4290 H   0  0  0  0  0  0  0  0  0  0  0  0
   -6.6460    8.0450  -24.9930 H   0  0  0  0  0  0  0  0  0  0  0  0
   -7.2000   10.8360  -24.4460 H   0  0  0  0  0  0  0  0  0  0  0  0
   -5.6370   11.5350  -24.2260 H   0  0  0  0  0  0  0  0  0  0  0  0
   -8.8960    5.9730  -28.1860 H   0  0  0  0  0  0  0  0  0  0  0  0
  -11.3120    6.3070  -28.8510 H   0  0  0  0  0  0  0  0  0  0  0  0
  -12.3770    8.5540  -28.6570 H   0  0  0  0  0  0  0  0  0  0  0  0
  -11.0550   10.5630  -27.7930 H   0  0  0  0  0  0  0  0  0  0  0  0
   -8.5260   11.2460  -26.8450 H   0  0  0  0  0  0  0  0  0  0  0  0
   -5.1810   10.6930  -21.9320 H   0  0  0  0  0  0  0  0  0  0  0  0
   -4.8590    8.7730  -20.4110 H   0  0  0  0  0  0  0  0  0  0  0  0
   -4.1140    6.4880  -18.4290 H   0  0  0  0  0  0  0  0  0  0  0  0
   -4.7420    4.8710  -18.3340 H   0  0  0  0  0  0  0  0  0  0  0  0
   -5.8130    7.3410  -16.8990 H   0  0  0  0  0  0  0  0  0  0  0  0
   -5.1890    5.8440  -16.1630 H   0  0  0  0  0  0  0  0  0  0  0  0
   -9.7470    4.4950  -18.3050 H   0  0  0  0  0  0  0  0  0  0  0  0
   -7.0670    4.4120  -19.9440 H   0  0  0  0  0  0  0  0  0  0  0  0
   -7.9390    5.9100  -20.0220 H   0  0  0  0  0  0  0  0  0  0  0  0
  1  2  2  0
  2  3  1  0
  3  4  2  0
  4  5  1  0
  5  6  2  0
  6  7  1  0
  7  8  1  0
  8  9  1  0
  9 10  2  0
 10 11  1  0
 11 12  2  0
 12 13  1  0
 13 14  2  0
 14 15  1  0
 15 16  2  0
 16 17  1  0
  6 18  1  0
 18 19  2  0
  2 20  1  0
 20 21  1  0
 21 22  1  0
 22 23  1  0
 23 24  1  0
 24 25  2  0
 25 26  1  0
 26 27  2  0
 27 28  1  0
 19  3  1  0
 17  9  1  0
 16 11  1  0
 28 20  1  0
 27 23  1  0
  4 29  1  0
  5 30  1  0
  7 31  1  0
  7 32  1  0
 12 33  1  0
 13 34  1  0
 14 35  1  0
 15 36  1  0
 17 37  1  0
 18 38  1  0
 19 39  1  0
 21 40  1  0
 21 41  1  0
 22 42  1  0
 22 43  1  0
 26 44  1  0
 28 45  1  0
 28 46  1  0
A    1
 O1 
A    2
 C1 
A    3
 C2 
A    4
 C3 
A    5
 C4 
A    6
 C5 
A    7
 C6 
A    8
 S1 
A    9
 C7 
A   10
 N1 
A   11
 C8 
A   12
 C9 
A   13
 C10
A   14
 C11
A   15
 C12
A   16
 C13
A   17
 N2 
A   18
 C14
A   19
 C15
A   20
 N3 
A   21
 C16
A   22
 C17
A   23
 N4 
A   24
 N5 
A   25
 N6 
A   26
 C18
A   27
 C19
A   28
 C20
A   29
 H1 
A   30
 H2 
A   31
 H3 
A   32
 H4 
A   33
 H5 
A   34
 H6 
A   35
 H7 
A   36
 H8 
A   37
 H9 
A   38
 H10
A   39
 H11
A   40
 H12
A   41
 H13
A   42
 H14
A   43
 H15
A   44
 H16
A   45
 H17
A   46
 H18
M  END
>  <ref_pdb>  (334) 
x0051_0B

>  <ref_mols>  (334) 
x0846_1B,x0969_0B

>  <original SMILES>  (334) 
[H]c1nnn2c1C([H])([H])N(C(=O)c1c([H])c([H])c(C([H])([H])Sc3nc4c([H])c([H])c([H])c([H])c4n3[H])c([H])c1[H])C([H])([H])C2([H])[H]

>  <index>  (334) 
665

>  <∆∆G>  (334) 
-7.287344

>  <∆G_bound>  (334) 
-6.94445

>  <∆G_unbound>  (334) 
0.342894

>  <comRMSD>  (334) 
0.728381

>  <N_constrained_atoms>  (334) 
28.0

>  <N_unconstrained_atoms>  (334) 
2.0

>  <runtime>  (334) 
52.653686

>  <LE>  (334) 
0.242911

>  <percent_hybrid>  (334) 
36.0

>  <dist>  (334) 
6.0

>  <ecfp4>  (334) 
0.242105

>  <daylight>  (334) 
0.362179

>  <topodist>  (334) 
3.0

>  <mces>  (334) 
31.0

>  <tdn>  (334) 
2.0

>  <tup>  (334) 
1.0

>  <rdn>  (334) 
0.0

>  <rup>  (334) 
0.0

>  <ldn>  (334) 
0.0

>  <lup>  (334) 
0.0

>  <mut>  (334) 
3.0

>  <maj>  (334) 
3.0

>  <min>  (334) 
0.0

>  <hyb>  (334) 
0.0

>  <sub>  (334) 
2.0

>  <query_index>  (334) 
45.0

>  <max_hit_Tanimoto>  (334) 
0.262821

>  <largest_ring>  (334) 
6

>  <N_interactions_kept>  (334) 
0.5

>  <N_interactions_lost>  (334) 
2.0

>  <interaction_uniqueness_metric>  (334) 
0.199509

>  <ad_hoc_penalty>  (334) 
-20.375007

>  <N_rotatable_bonds>  (334) 
4

>  <N_HA>  (334) 
28

>  <cluster>  (334) 
5609

>  <N_interactions>  (334) 
5

>  <Enamine>  (334) 
1

>  <Mcule>  (334) 
0

>  <N_PAINS>  (334) 
0

>  <UFF_Gibbs>  (334) 
93.520845

>  <strain_per_HA>  (334) 
3.34003

>  <saltbridge:HIS:51>  (334) 
0

>  <pistack:HIS:51>  (334) 
0

>  <hydroph_interaction:HIS:51>  (334) 
0

>  <hbond:ALA:132>  (334) 
0

>  <hbond:SER:135>  (334) 
0

>  <hydroph_interaction:TYR:150>  (334) 
0

>  <pistack:TYR:161>  (334) 
1

>  <hydroph_interaction:TYR:161>  (334) 
0

>  <hydroph_interaction:ASP:83>  (334) 
0

>  <hbond:TYR:130>  (334) 
0

>  <hydroph_interaction:ALA:132>  (334) 
0

>  <hbond:HIS:51>  (334) 
0

>  <hbond:ASP:129>  (334) 
1

>  <hbond:TYR:150>  (334) 
0

>  <hbond:GLY:151>  (334) 
0

>  <hbond:TYR:161>  (334) 
1

>  <hydroph_interaction:TYR:130>  (334) 
1

>  <hydroph_interaction:PRO:131>  (334) 
1

>  <hydroph_interaction:ASP:129>  (334) 
0

>  <saltbridge:ASP:75>  (334) 
0

>  <saltbridge:ASP:83>  (334) 
0

>  <hydroph_interaction:ASN:152>  (334) 
0

>  <halogenbond:TYR:150>  (334) 
0

>  <hbond:ASP:83>  (334) 
0

>  <hydroph_interaction:VAL:155>  (334) 
0

>  <pication:TYR:161>  (334) 
0

>  <hbond:PRO:131>  (334) 
0

>  <hbond:LEU:128>  (334) 
0

>  <saltbridge:ASP:129>  (334) 
0

>  <hbond:THR:134>  (334) 
0

>  <pication:HIS:51>  (334) 
0

>  <hbond:SER:81>  (334) 
0

>  <hbond:GLY:159>  (334) 
0

>  <hydroph_interaction:PRO:101>  (334) 
0

>  <hydroph_interaction:THR:134>  (334) 
0

>  <hbond:GLY:82>  (334) 
0

>  <hydroph_interaction:GLU:104>  (334) 
0

>  <hydroph_interaction:VAL:36>  (334) 
0

>  <hydroph_interaction:MET:49>  (334) 
0

>  <halogenbond:GLU:104>  (334) 
0

>  <hydroph_interaction:LYS:107>  (334) 
0

$$$$
MCULE-7168109046
     RDKit          3D

 29 30  0  0  0  0  0  0  0  0999 V2000
   -7.1580    5.7630  -17.3140 C   0  0  0  0  0  0  0  0  0  0  0  0
   -8.2300    5.3100  -16.5820 C   0  0  0  0  0  0  0  0  0  0  0  0
   -8.1180    5.4490  -15.2030 C   0  0  0  0  0  0  0  0  0  0  0  0
   -6.8160    5.2240  -14.6910 C   0  0  0  0  0  0  0  0  0  0  0  0
   -5.8110    6.0080  -15.2940 C   0  0  0  0  0  0  0  0  0  0  0  0
   -6.0680    6.3090  -16.6890 N   0  0  0  0  0  0  0  0  0  0  0  0
   -9.3900    4.7340  -17.1630 C   0  0  0  0  0  0  0  0  0  0  0  0
   -9.5280    4.5730  -18.5550 C   0  0  0  0  0  0  0  0  0  0  0  0
   -8.5100    4.9940  -19.3930 C   0  0  0  0  0  0  0  0  0  0  0  0
   -7.2650    5.6240  -18.8280 C   0  0  0  0  0  0  0  0  0  0  0  0
   -6.2130    6.0990  -19.5670 O   0  0  0  0  0  0  0  0  0  0  0  0
   -5.8410    5.3170  -20.6740 C   0  0  0  0  0  0  0  0  0  0  0  0
   -4.4550    5.1990  -20.7380 C   0  0  0  0  0  0  0  0  0  0  0  0
   -3.9200    5.0960  -21.9950 N   0  0  0  0  0  0  0  0  0  0  0  0
   -3.7140    5.1830  -19.7530 O   0  0  0  0  0  0  0  0  0  0  0  0
   -8.7310    4.6330  -14.8070 H   0  0  0  0  0  0  0  0  0  0  0  0
   -8.5780    6.3380  -14.7840 H   0  0  0  0  0  0  0  0  0  0  0  0
   -6.5650    4.1690  -14.7340 H   0  0  0  0  0  0  0  0  0  0  0  0
   -6.8170    5.3590  -13.6110 H   0  0  0  0  0  0  0  0  0  0  0  0
   -5.6610    6.9300  -14.7430 H   0  0  0  0  0  0  0  0  0  0  0  0
   -4.8600    5.4590  -15.2580 H   0  0  0  0  0  0  0  0  0  0  0  0
   -5.8490    7.2460  -17.0080 H   0  0  0  0  0  0  0  0  0  0  0  0
  -10.1940    4.4040  -16.5180 H   0  0  0  0  0  0  0  0  0  0  0  0
  -10.4210    4.1280  -18.9530 H   0  0  0  0  0  0  0  0  0  0  0  0
   -8.6200    4.8700  -20.4700 H   0  0  0  0  0  0  0  0  0  0  0  0
   -6.3700    5.6530  -21.5630 H   0  0  0  0  0  0  0  0  0  0  0  0
   -6.2090    4.3110  -20.4590 H   0  0  0  0  0  0  0  0  0  0  0  0
   -4.2670    4.2250  -22.4460 H   0  0  0  0  0  0  0  0  0  0  0  0
   -2.9610    5.3550  -22.1810 H   0  0  0  0  0  0  0  0  0  0  0  0
  1  2  2  0
  2  3  1  0
  3  4  1  0
  4  5  1  0
  5  6  1  0
  2  7  1  0
  7  8  2  0
  8  9  1  0
  9 10  2  0
 10 11  1  0
 11 12  1  0
 12 13  1  0
 13 14  1  0
 13 15  2  0
  6  1  1  0
  1 10  1  0
  3 16  1  0
  3 17  1  0
  4 18  1  0
  4 19  1  0
  5 20  1  0
  5 21  1  0
  6 22  1  0
  7 23  1  0
  8 24  1  0
  9 25  1  0
 12 26  1  0
 12 27  1  0
 14 28  1  0
 14 29  1  0
A    1
 C1 
A    2
 C2 
A    3
 C3 
A    4
 C4 
A    5
 C5 
A    6
 N1 
A    7
 C6 
A    8
 C7 
A    9
 C8 
A   10
 C9 
A   11
 O1 
A   12
 C10
A   13
 C11
A   14
 N2 
A   15
 O2 
A   16
 H1 
A   17
 H2 
A   18
 H3 
A   19
 H4 
A   20
 H5 
A   21
 H6 
A   22
 H7 
A   23
 H8 
A   24
 H9 
A   25
 H10
A   26
 H11
A   27
 H12
A   28
 H13
A   29
 H14
M  END
>  <ref_pdb>  (335) 
x0051_0B

>  <ref_mols>  (335) 
x0904_0B,x0455_0B

>  <original SMILES>  (335) 
[H]c1c([H])c(OC([H])([H])C(=O)N([H])[H])c2c(c1[H])C([H])([H])C([H])([H])C([H])([H])N2[H]

>  <index>  (335) 
453

>  <∆∆G>  (335) 
-6.231981

>  <∆G_bound>  (335) 
-5.623138

>  <∆G_unbound>  (335) 
0.608843

>  <comRMSD>  (335) 
0.697369

>  <N_constrained_atoms>  (335) 
18.0

>  <N_unconstrained_atoms>  (335) 
0.0

>  <runtime>  (335) 
32.502284

>  <LE>  (335) 
0.346221

>  <percent_hybrid>  (335) 
34.0

>  <dist>  (335) 
6.0

>  <ecfp4>  (335) 
0.138462

>  <daylight>  (335) 
0.152381

>  <topodist>  (335) 
2.0

>  <mces>  (335) 
16.0

>  <tdn>  (335) 
2.0

>  <tup>  (335) 
0.0

>  <rdn>  (335) 
0.0

>  <rup>  (335) 
0.0

>  <ldn>  (335) 
0.0

>  <lup>  (335) 
0.0

>  <mut>  (335) 
0.0

>  <maj>  (335) 
0.0

>  <min>  (335) 
0.0

>  <hyb>  (335) 
4.0

>  <sub>  (335) 
1.0

>  <query_index>  (335) 
160.0

>  <max_hit_Tanimoto>  (335) 
0.288799

>  <largest_ring>  (335) 
0

>  <N_interactions_kept>  (335) 
1.0

>  <N_interactions_lost>  (335) 
2.0

>  <interaction_uniqueness_metric>  (335) 
0.106036

>  <ad_hoc_penalty>  (335) 
-20.363474

>  <N_rotatable_bonds>  (335) 
3

>  <N_HA>  (335) 
15

>  <cluster>  (335) 
5807

>  <N_interactions>  (335) 
6

>  <Enamine>  (335) 
0

>  <Mcule>  (335) 
1

>  <N_PAINS>  (335) 
0

>  <UFF_Gibbs>  (335) 
80.129779

>  <strain_per_HA>  (335) 
5.341985

>  <saltbridge:HIS:51>  (335) 
0

>  <pistack:HIS:51>  (335) 
0

>  <hydroph_interaction:HIS:51>  (335) 
0

>  <hbond:ALA:132>  (335) 
0

>  <hbond:SER:135>  (335) 
0

>  <hydroph_interaction:TYR:150>  (335) 
1

>  <pistack:TYR:161>  (335) 
0

>  <hydroph_interaction:TYR:161>  (335) 
2

>  <hydroph_interaction:ASP:83>  (335) 
0

>  <hbond:TYR:130>  (335) 
0

>  <hydroph_interaction:ALA:132>  (335) 
1

>  <hbond:HIS:51>  (335) 
0

>  <hbond:ASP:129>  (335) 
2

>  <hbond:TYR:150>  (335) 
0

>  <hbond:GLY:151>  (335) 
0

>  <hbond:TYR:161>  (335) 
0

>  <hydroph_interaction:TYR:130>  (335) 
0

>  <hydroph_interaction:PRO:131>  (335) 
0

>  <hydroph_interaction:ASP:129>  (335) 
0

>  <saltbridge:ASP:75>  (335) 
0

>  <saltbridge:ASP:83>  (335) 
0

>  <hydroph_interaction:ASN:152>  (335) 
0

>  <halogenbond:TYR:150>  (335) 
0

>  <hbond:ASP:83>  (335) 
0

>  <hydroph_interaction:VAL:155>  (335) 
0

>  <pication:TYR:161>  (335) 
0

>  <hbond:PRO:131>  (335) 
0

>  <hbond:LEU:128>  (335) 
0

>  <saltbridge:ASP:129>  (335) 
0

>  <hbond:THR:134>  (335) 
0

>  <pication:HIS:51>  (335) 
0

>  <hbond:SER:81>  (335) 
0

>  <hbond:GLY:159>  (335) 
0

>  <hydroph_interaction:PRO:101>  (335) 
0

>  <hydroph_interaction:THR:134>  (335) 
0

>  <hbond:GLY:82>  (335) 
0

>  <hydroph_interaction:GLU:104>  (335) 
0

>  <hydroph_interaction:VAL:36>  (335) 
0

>  <hydroph_interaction:MET:49>  (335) 
0

>  <halogenbond:GLU:104>  (335) 
0

>  <hydroph_interaction:LYS:107>  (335) 
0

$$$$
WQPVWYOGSGCZDU-UHFFFAOYSA-N
     RDKit          3D

 42 43  0  0  0  0  0  0  0  0999 V2000
   -6.1340    5.9930  -18.6290 C   0  0  0  0  0  0  0  0  0  0  0  0
   -6.1890    5.9760  -20.0180 N   0  0  0  0  0  0  0  0  0  0  0  0
   -5.1120    6.0840  -20.9180 C   0  0  0  0  0  0  0  0  0  0  0  0
   -4.7930    7.3520  -21.4130 C   0  0  0  0  0  0  0  0  0  0  0  0
   -3.9130    5.5160  -20.2450 C   0  0  0  0  0  0  0  0  0  0  0  0
   -5.4580    5.2000  -22.1210 C   0  0  0  0  0  0  0  0  0  0  0  0
   -5.1480    6.2930  -17.9640 O   0  0  0  0  0  0  0  0  0  0  0  0
   -7.4010    5.5910  -17.9680 C   0  0  0  0  0  0  0  0  0  0  0  0
   -7.8410    5.8060  -16.6290 C   0  0  0  0  0  0  0  0  0  0  0  0
   -7.1700    6.4890  -15.5660 N   0  0  0  0  0  0  0  0  0  0  0  0
   -8.1700    7.1320  -14.7330 C   0  0  0  0  0  0  0  0  0  0  0  0
   -8.3210    6.5560  -13.4730 C   0  0  0  0  0  0  0  0  0  0  0  0
   -8.3750    5.1780  -13.4140 C   0  0  0  0  0  0  0  0  0  0  0  0
   -7.4750    4.4970  -14.2240 C   0  0  0  0  0  0  0  0  0  0  0  0
   -6.4520    5.4540  -14.8290 C   0  0  0  0  0  0  0  0  0  0  0  0
   -9.0310    5.3530  -16.2070 N   0  0  0  0  0  0  0  0  0  0  0  0
   -9.8420    4.6980  -17.0220 C   0  0  0  0  0  0  0  0  0  0  0  0
   -9.5740    4.4260  -18.3210 C   0  0  0  0  0  0  0  0  0  0  0  0
   -8.2520    4.9070  -18.8370 C   0  0  0  0  0  0  0  0  0  0  0  0
   -7.0970    6.1470  -20.4640 H   0  0  0  0  0  0  0  0  0  0  0  0
   -4.1800    8.0250  -20.8220 H   0  0  0  0  0  0  0  0  0  0  0  0
   -5.7200    7.9000  -21.6280 H   0  0  0  0  0  0  0  0  0  0  0  0
   -4.2750    7.2470  -22.3750 H   0  0  0  0  0  0  0  0  0  0  0  0
   -4.1770    4.9790  -19.3280 H   0  0  0  0  0  0  0  0  0  0  0  0
   -3.2090    6.3060  -19.9640 H   0  0  0  0  0  0  0  0  0  0  0  0
   -3.3850    4.8150  -20.9020 H   0  0  0  0  0  0  0  0  0  0  0  0
   -6.0540    5.7530  -22.8580 H   0  0  0  0  0  0  0  0  0  0  0  0
   -6.0480    4.3270  -21.8210 H   0  0  0  0  0  0  0  0  0  0  0  0
   -4.5530    4.8360  -22.6180 H   0  0  0  0  0  0  0  0  0  0  0  0
   -9.1590    7.0580  -15.2010 H   0  0  0  0  0  0  0  0  0  0  0  0
   -7.9390    8.1980  -14.6020 H   0  0  0  0  0  0  0  0  0  0  0  0
   -9.2400    6.9440  -13.0120 H   0  0  0  0  0  0  0  0  0  0  0  0
   -7.4990    6.9130  -12.8390 H   0  0  0  0  0  0  0  0  0  0  0  0
   -8.2430    4.8580  -12.3720 H   0  0  0  0  0  0  0  0  0  0  0  0
   -9.3880    4.8560  -13.6910 H   0  0  0  0  0  0  0  0  0  0  0  0
   -8.0060    3.9860  -15.0280 H   0  0  0  0  0  0  0  0  0  0  0  0
   -6.9600    3.7280  -13.6320 H   0  0  0  0  0  0  0  0  0  0  0  0
   -5.8090    4.8990  -15.5210 H   0  0  0  0  0  0  0  0  0  0  0  0
   -5.8190    5.8580  -14.0270 H   0  0  0  0  0  0  0  0  0  0  0  0
  -10.7590    4.3830  -16.5660 H   0  0  0  0  0  0  0  0  0  0  0  0
  -10.2660    3.8930  -18.9410 H   0  0  0  0  0  0  0  0  0  0  0  0
   -7.9660    4.7220  -19.8700 H   0  0  0  0  0  0  0  0  0  0  0  0
  1  2  1  0
  2  3  1  0
  3  4  1  0
  3  5  1  0
  3  6  1  0
  1  7  2  0
  1  8  1  0
  8  9  2  0
  9 10  1  0
 10 11  1  0
 11 12  1  0
 12 13  1  0
 13 14  1  0
 14 15  1  0
  9 16  1  0
 16 17  2  0
 17 18  1  0
 18 19  2  0
 19  8  1  0
 15 10  1  0
  2 20  1  0
  4 21  1  0
  4 22  1  0
  4 23  1  0
  5 24  1  0
  5 25  1  0
  5 26  1  0
  6 27  1  0
  6 28  1  0
  6 29  1  0
 11 30  1  0
 11 31  1  0
 12 32  1  0
 12 33  1  0
 13 34  1  0
 13 35  1  0
 14 36  1  0
 14 37  1  0
 15 38  1  0
 15 39  1  0
 17 40  1  0
 18 41  1  0
 19 42  1  0
A    1
 C1 
A    2
 N1 
A    3
 C2 
A    4
 C3 
A    5
 C4 
A    6
 C5 
A    7
 O1 
A    8
 C6 
A    9
 C7 
A   10
 N2 
A   11
 C8 
A   12
 C9 
A   13
 C10
A   14
 C11
A   15
 C12
A   16
 N3 
A   17
 C13
A   18
 C14
A   19
 C15
A   20
 H1 
A   21
 H2 
A   22
 H3 
A   23
 H4 
A   24
 H5 
A   25
 H6 
A   26
 H7 
A   27
 H8 
A   28
 H9 
A   29
 H10
A   30
 H11
A   31
 H12
A   32
 H13
A   33
 H14
A   34
 H15
A   35
 H16
A   36
 H17
A   37
 H18
A   38
 H19
A   39
 H20
A   40
 H21
A   41
 H22
A   42
 H23
M  END
>  <ref_pdb>  (336) 
x0051_0B

>  <ref_mols>  (336) 
x0101_0B,x0951_0B

>  <original SMILES>  (336) 
[H]c1nc(N2C([H])([H])C([H])([H])C([H])([H])C([H])([H])C2([H])[H])c(C(=O)N([H])C(C([H])([H])[H])(C([H])([H])[H])C([H])([H])[H])c([H])c1[H]

>  <index>  (336) 
193

>  <∆∆G>  (336) 
-6.779232

>  <∆G_bound>  (336) 
-5.350231

>  <∆G_unbound>  (336) 
1.429001

>  <comRMSD>  (336) 
0.932386

>  <N_constrained_atoms>  (336) 
21.0

>  <N_unconstrained_atoms>  (336) 
0.0

>  <runtime>  (336) 
38.546169

>  <LE>  (336) 
0.322821

>  <percent_hybrid>  (336) 
40.0

>  <dist>  (336) 
8.0

>  <ecfp4>  (336) 
0.225352

>  <daylight>  (336) 
0.238532

>  <topodist>  (336) 
4.0

>  <mces>  (336) 
19.0

>  <tdn>  (336) 
2.0

>  <tup>  (336) 
0.0

>  <rdn>  (336) 
1.0

>  <rup>  (336) 
1.0

>  <ldn>  (336) 
0.0

>  <lup>  (336) 
0.0

>  <mut>  (336) 
3.0

>  <maj>  (336) 
3.0

>  <min>  (336) 
0.0

>  <hyb>  (336) 
1.0

>  <sub>  (336) 
4.0

>  <query_index>  (336) 
30.0

>  <max_hit_Tanimoto>  (336) 
0.249052

>  <largest_ring>  (336) 
0

>  <N_interactions_kept>  (336) 
2.0

>  <N_interactions_lost>  (336) 
2.0

>  <interaction_uniqueness_metric>  (336) 
0.111875

>  <ad_hoc_penalty>  (336) 
-20.329856

>  <N_rotatable_bonds>  (336) 
2

>  <N_HA>  (336) 
19

>  <cluster>  (336) 
6043

>  <N_interactions>  (336) 
6

>  <Enamine>  (336) 
0

>  <Mcule>  (336) 
1

>  <N_PAINS>  (336) 
0

>  <UFF_Gibbs>  (336) 
203.193519

>  <strain_per_HA>  (336) 
10.694396

>  <saltbridge:HIS:51>  (336) 
0

>  <pistack:HIS:51>  (336) 
0

>  <hydroph_interaction:HIS:51>  (336) 
0

>  <hbond:ALA:132>  (336) 
0

>  <hbond:SER:135>  (336) 
0

>  <hydroph_interaction:TYR:150>  (336) 
1

>  <pistack:TYR:161>  (336) 
0

>  <hydroph_interaction:TYR:161>  (336) 
2

>  <hydroph_interaction:ASP:83>  (336) 
0

>  <hbond:TYR:130>  (336) 
1

>  <hydroph_interaction:ALA:132>  (336) 
1

>  <hbond:HIS:51>  (336) 
0

>  <hbond:ASP:129>  (336) 
0

>  <hbond:TYR:150>  (336) 
0

>  <hbond:GLY:151>  (336) 
0

>  <hbond:TYR:161>  (336) 
0

>  <hydroph_interaction:TYR:130>  (336) 
0

>  <hydroph_interaction:PRO:131>  (336) 
0

>  <hydroph_interaction:ASP:129>  (336) 
1

>  <saltbridge:ASP:75>  (336) 
0

>  <saltbridge:ASP:83>  (336) 
0

>  <hydroph_interaction:ASN:152>  (336) 
0

>  <halogenbond:TYR:150>  (336) 
0

>  <hbond:ASP:83>  (336) 
0

>  <hydroph_interaction:VAL:155>  (336) 
0

>  <pication:TYR:161>  (336) 
0

>  <hbond:PRO:131>  (336) 
0

>  <hbond:LEU:128>  (336) 
0

>  <saltbridge:ASP:129>  (336) 
0

>  <hbond:THR:134>  (336) 
0

>  <pication:HIS:51>  (336) 
0

>  <hbond:SER:81>  (336) 
0

>  <hbond:GLY:159>  (336) 
0

>  <hydroph_interaction:PRO:101>  (336) 
0

>  <hydroph_interaction:THR:134>  (336) 
0

>  <hbond:GLY:82>  (336) 
0

>  <hydroph_interaction:GLU:104>  (336) 
0

>  <hydroph_interaction:VAL:36>  (336) 
0

>  <hydroph_interaction:MET:49>  (336) 
0

>  <halogenbond:GLU:104>  (336) 
0

>  <hydroph_interaction:LYS:107>  (336) 
0

$$$$
JSYWJPUIXGVHTL-UHFFFAOYSA-N
     RDKit          3D

 51 53  0  0  0  0  0  0  0  0999 V2000
   -9.1080    7.6260  -13.7000 C   0  0  0  0  0  0  0  0  0  0  0  0
   -9.1970    6.8490  -14.8350 N   0  0  0  0  0  0  0  0  0  0  0  0
   -8.0970    5.9570  -15.2690 C   0  0  0  0  0  0  0  0  0  0  0  0
   -8.4030    5.5010  -16.6870 C   0  0  0  0  0  0  0  0  0  0  0  0
   -7.3810    5.6050  -17.8240 C   0  0  0  0  0  0  0  0  0  0  0  0
   -6.1320    6.1130  -17.5600 O   0  0  0  0  0  0  0  0  0  0  0  0
   -5.2420    5.3990  -16.7070 C   0  0  0  0  0  0  0  0  0  0  0  0
   -3.9940    5.0710  -17.5310 C   0  0  0  0  0  0  0  0  0  0  0  0
   -7.7860    5.1820  -19.0880 C   0  0  0  0  0  0  0  0  0  0  0  0
   -9.1880    4.6410  -19.3200 C   0  0  0  0  0  0  0  0  0  0  0  0
  -10.0350    4.5800  -18.2260 C   0  0  0  0  0  0  0  0  0  0  0  0
   -9.6550    4.9880  -16.9580 C   0  0  0  0  0  0  0  0  0  0  0  0
   -9.1180    8.8490  -13.5950 O   0  0  0  0  0  0  0  0  0  0  0  0
   -8.9560    6.7630  -12.5160 C   0  0  0  0  0  0  0  0  0  0  0  0
   -8.6940    7.2740  -11.2380 C   0  0  0  0  0  0  0  0  0  0  0  0
   -8.5490    6.4030  -10.1540 C   0  0  0  0  0  0  0  0  0  0  0  0
   -8.6500    5.0120  -10.2620 C   0  0  0  0  0  0  0  0  0  0  0  0
   -8.4900    4.1960   -9.1750 N   0  0  0  0  0  0  0  0  0  0  0  0
   -8.8490    2.7860   -9.2350 C   0  0  0  0  0  0  0  0  0  0  0  0
   -9.6080    2.4720   -8.1160 C   0  0  0  0  0  0  0  0  0  0  0  0
   -9.1860    2.9980   -6.8850 C   0  0  0  0  0  0  0  0  0  0  0  0
   -8.9340    4.3720   -6.9220 C   0  0  0  0  0  0  0  0  0  0  0  0
   -8.0140    4.7140   -7.9020 C   0  0  0  0  0  0  0  0  0  0  0  0
   -8.9160    4.4740  -11.5200 C   0  0  0  0  0  0  0  0  0  0  0  0
   -9.0790    5.3920  -12.7100 C   0  0  0  0  0  0  0  0  0  0  0  0
  -10.0960    6.6540  -15.2610 H   0  0  0  0  0  0  0  0  0  0  0  0
   -8.1010    5.0750  -14.6180 H   0  0  0  0  0  0  0  0  0  0  0  0
   -7.0970    6.3870  -15.2380 H   0  0  0  0  0  0  0  0  0  0  0  0
   -5.1160    6.0120  -15.8160 H   0  0  0  0  0  0  0  0  0  0  0  0
   -5.7120    4.4580  -16.4160 H   0  0  0  0  0  0  0  0  0  0  0  0
   -4.2770    4.6830  -18.5150 H   0  0  0  0  0  0  0  0  0  0  0  0
   -3.3750    5.9630  -17.6680 H   0  0  0  0  0  0  0  0  0  0  0  0
   -3.3940    4.2960  -17.0370 H   0  0  0  0  0  0  0  0  0  0  0  0
   -7.1210    5.2270  -19.9440 H   0  0  0  0  0  0  0  0  0  0  0  0
   -9.4970    4.3180  -20.3060 H   0  0  0  0  0  0  0  0  0  0  0  0
  -11.0240    4.1810  -18.4560 H   0  0  0  0  0  0  0  0  0  0  0  0
  -10.4210    4.8780  -16.1980 H   0  0  0  0  0  0  0  0  0  0  0  0
   -8.5960    8.3410  -11.0640 H   0  0  0  0  0  0  0  0  0  0  0  0
   -8.3450    6.8560   -9.1870 H   0  0  0  0  0  0  0  0  0  0  0  0
   -7.9620    2.1430   -9.2960 H   0  0  0  0  0  0  0  0  0  0  0  0
   -9.4760    2.5950  -10.1130 H   0  0  0  0  0  0  0  0  0  0  0  0
  -10.5730    2.9510   -8.3020 H   0  0  0  0  0  0  0  0  0  0  0  0
   -9.8950    1.4300   -8.0620 H   0  0  0  0  0  0  0  0  0  0  0  0
   -8.4350    2.4010   -6.3710 H   0  0  0  0  0  0  0  0  0  0  0  0
  -10.0650    2.9200   -6.2420 H   0  0  0  0  0  0  0  0  0  0  0  0
   -9.8690    4.9150   -7.0720 H   0  0  0  0  0  0  0  0  0  0  0  0
   -8.5600    4.6760   -5.9390 H   0  0  0  0  0  0  0  0  0  0  0  0
   -7.9000    5.8010   -7.9520 H   0  0  0  0  0  0  0  0  0  0  0  0
   -7.0410    4.2760   -7.6450 H   0  0  0  0  0  0  0  0  0  0  0  0
   -9.0100    3.4020  -11.6760 H   0  0  0  0  0  0  0  0  0  0  0  0
   -9.2860    4.9740  -13.6940 H   0  0  0  0  0  0  0  0  0  0  0  0
  1  2  1  0
  2  3  1  0
  3  4  1  0
  4  5  2  0
  5  6  1  0
  6  7  1  0
  7  8  1  0
  5  9  1  0
  9 10  2  0
 10 11  1  0
 11 12  2  0
  1 13  2  0
  1 14  1  0
 14 15  2  0
 15 16  1  0
 16 17  2  0
 17 18  1  0
 18 19  1  0
 19 20  1  0
 20 21  1  0
 21 22  1  0
 22 23  1  0
 17 24  1  0
 24 25  2  0
 12  4  1  0
 25 14  1  0
 23 18  1  0
  2 26  1  0
  3 27  1  0
  3 28  1  0
  7 29  1  0
  7 30  1  0
  8 31  1  0
  8 32  1  0
  8 33  1  0
  9 34  1  0
 10 35  1  0
 11 36  1  0
 12 37  1  0
 15 38  1  0
 16 39  1  0
 19 40  1  0
 19 41  1  0
 20 42  1  0
 20 43  1  0
 21 44  1  0
 21 45  1  0
 22 46  1  0
 22 47  1  0
 23 48  1  0
 23 49  1  0
 24 50  1  0
 25 51  1  0
A    1
 C1 
A    2
 N1 
A    3
 C2 
A    4
 C3 
A    5
 C4 
A    6
 O1 
A    7
 C5 
A    8
 C6 
A    9
 C7 
A   10
 C8 
A   11
 C9 
A   12
 C10
A   13
 O2 
A   14
 C11
A   15
 C12
A   16
 C13
A   17
 C14
A   18
 N2 
A   19
 C15
A   20
 C16
A   21
 C17
A   22
 C18
A   23
 C19
A   24
 C20
A   25
 C21
A   26
 H1 
A   27
 H2 
A   28
 H3 
A   29
 H4 
A   30
 H5 
A   31
 H6 
A   32
 H7 
A   33
 H8 
A   34
 H9 
A   35
 H10
A   36
 H11
A   37
 H12
A   38
 H13
A   39
 H14
A   40
 H15
A   41
 H16
A   42
 H17
A   43
 H18
A   44
 H19
A   45
 H20
A   46
 H21
A   47
 H22
A   48
 H23
A   49
 H24
A   50
 H25
A   51
 H26
M  END
>  <ref_pdb>  (337) 
x0051_0B

>  <ref_mols>  (337) 
x0490_0B,x0404_0B

>  <original SMILES>  (337) 
[H]c1c([H])c([H])c(C([H])([H])N([H])C(=O)c2c([H])c([H])c(N3C([H])([H])C([H])([H])C([H])([H])C([H])([H])C3([H])[H])c([H])c2[H])c(OC([H])([H])C([H])([H])[H])c1[H]

>  <index>  (337) 
209

>  <∆∆G>  (337) 
-9.445464

>  <∆G_bound>  (337) 
-8.903422

>  <∆G_unbound>  (337) 
0.542042

>  <comRMSD>  (337) 
0.623089

>  <N_constrained_atoms>  (337) 
26.0

>  <N_unconstrained_atoms>  (337) 
0.0

>  <runtime>  (337) 
63.451398

>  <LE>  (337) 
0.363287

>  <percent_hybrid>  (337) 
39.0

>  <dist>  (337) 
9.0

>  <ecfp4>  (337) 
0.234568

>  <daylight>  (337) 
0.178138

>  <topodist>  (337) 
4.0

>  <mces>  (337) 
27.0

>  <tdn>  (337) 
3.0

>  <tup>  (337) 
0.0

>  <rdn>  (337) 
1.0

>  <rup>  (337) 
0.0

>  <ldn>  (337) 
0.0

>  <lup>  (337) 
0.0

>  <mut>  (337) 
4.0

>  <maj>  (337) 
4.0

>  <min>  (337) 
0.0

>  <hyb>  (337) 
1.0

>  <sub>  (337) 
1.0

>  <query_index>  (337) 
10.0

>  <max_hit_Tanimoto>  (337) 
0.232221

>  <largest_ring>  (337) 
0

>  <N_interactions_kept>  (337) 
2.0

>  <N_interactions_lost>  (337) 
2.5

>  <interaction_uniqueness_metric>  (337) 
0.178764

>  <ad_hoc_penalty>  (337) 
-20.31852

>  <N_rotatable_bonds>  (337) 
7

>  <N_HA>  (337) 
25

>  <cluster>  (337) 
6028

>  <N_interactions>  (337) 
8

>  <Enamine>  (337) 
0

>  <Mcule>  (337) 
1

>  <N_PAINS>  (337) 
0

>  <UFF_Gibbs>  (337) 
275.634501

>  <strain_per_HA>  (337) 
11.02538

>  <saltbridge:HIS:51>  (337) 
0

>  <pistack:HIS:51>  (337) 
1

>  <hydroph_interaction:HIS:51>  (337) 
1

>  <hbond:ALA:132>  (337) 
1

>  <hbond:SER:135>  (337) 
0

>  <hydroph_interaction:TYR:150>  (337) 
1

>  <pistack:TYR:161>  (337) 
0

>  <hydroph_interaction:TYR:161>  (337) 
3

>  <hydroph_interaction:ASP:83>  (337) 
0

>  <hbond:TYR:130>  (337) 
0

>  <hydroph_interaction:ALA:132>  (337) 
1

>  <hbond:HIS:51>  (337) 
0

>  <hbond:ASP:129>  (337) 
0

>  <hbond:TYR:150>  (337) 
0

>  <hbond:GLY:151>  (337) 
0

>  <hbond:TYR:161>  (337) 
0

>  <hydroph_interaction:TYR:130>  (337) 
0

>  <hydroph_interaction:PRO:131>  (337) 
0

>  <hydroph_interaction:ASP:129>  (337) 
0

>  <saltbridge:ASP:75>  (337) 
0

>  <saltbridge:ASP:83>  (337) 
0

>  <hydroph_interaction:ASN:152>  (337) 
0

>  <halogenbond:TYR:150>  (337) 
0

>  <hbond:ASP:83>  (337) 
0

>  <hydroph_interaction:VAL:155>  (337) 
0

>  <pication:TYR:161>  (337) 
0

>  <hbond:PRO:131>  (337) 
0

>  <hbond:LEU:128>  (337) 
0

>  <saltbridge:ASP:129>  (337) 
0

>  <hbond:THR:134>  (337) 
0

>  <pication:HIS:51>  (337) 
0

>  <hbond:SER:81>  (337) 
0

>  <hbond:GLY:159>  (337) 
0

>  <hydroph_interaction:PRO:101>  (337) 
0

>  <hydroph_interaction:THR:134>  (337) 
0

>  <hbond:GLY:82>  (337) 
0

>  <hydroph_interaction:GLU:104>  (337) 
0

>  <hydroph_interaction:VAL:36>  (337) 
0

>  <hydroph_interaction:MET:49>  (337) 
0

>  <halogenbond:GLU:104>  (337) 
0

>  <hydroph_interaction:LYS:107>  (337) 
0

$$$$
WFQHJORKRAFLBA-UHFFFAOYSA-N
     RDKit          3D

 36 38  0  0  0  0  0  0  0  0999 V2000
   -8.8570    5.9080  -12.2920 C   0  0  0  0  0  0  0  0  0  0  0  0
   -8.5300    4.9450  -13.2620 N   0  0  0  0  0  0  0  0  0  0  0  0
   -7.5130    5.0800  -14.2710 C   0  0  0  0  0  0  0  0  0  0  0  0
   -7.7560    5.1170  -15.6810 C   0  0  0  0  0  0  0  0  0  0  0  0
   -6.6540    5.3330  -16.5150 C   0  0  0  0  0  0  0  0  0  0  0  0
   -6.8190    5.3820  -18.0010 C   0  0  0  0  0  0  0  0  0  0  0  0
   -5.7720    5.5910  -18.8080 F   0  0  0  0  0  0  0  0  0  0  0  0
   -8.0800    5.2090  -18.5380 C   0  0  0  0  0  0  0  0  0  0  0  0
   -9.1460    5.0000  -17.6950 C   0  0  0  0  0  0  0  0  0  0  0  0
  -10.7980    4.8020  -18.5410 Br  0  0  0  0  0  0  0  0  0  0  0  0
   -9.0260    4.9500  -16.3030 C   0  0  0  0  0  0  0  0  0  0  0  0
   -9.1470    7.0620  -12.5920 O   0  0  0  0  0  0  0  0  0  0  0  0
   -8.8700    5.5790  -10.8400 C   0  0  0  0  0  0  0  0  0  0  0  0
   -8.9500    4.4070  -10.0570 C   0  0  0  0  0  0  0  0  0  0  0  0
   -8.9260    4.8280   -8.7400 N   0  0  0  0  0  0  0  0  0  0  0  0
   -9.0030    3.9630   -7.5690 C   0  0  0  0  0  0  0  0  0  0  0  0
   -9.2800    2.6630   -7.9500 C   0  0  0  0  0  0  0  0  0  0  0  0
   -8.6660    2.2780   -9.1400 C   0  0  0  0  0  0  0  0  0  0  0  0
   -9.0480    2.9430  -10.3060 C   0  0  0  0  0  0  0  0  0  0  0  0
   -8.8240    6.1520   -8.5870 N   0  0  0  0  0  0  0  0  0  0  0  0
   -8.7950    6.5990   -9.8450 C   0  0  0  0  0  0  0  0  0  0  0  0
   -9.2250    4.2250  -13.4370 H   0  0  0  0  0  0  0  0  0  0  0  0
   -6.8350    4.2400  -14.0840 H   0  0  0  0  0  0  0  0  0  0  0  0
   -6.9490    5.9860  -14.0210 H   0  0  0  0  0  0  0  0  0  0  0  0
   -5.6590    5.4680  -16.1020 H   0  0  0  0  0  0  0  0  0  0  0  0
   -8.2170    5.2440  -19.6180 H   0  0  0  0  0  0  0  0  0  0  0  0
   -9.9080    4.7840  -15.6940 H   0  0  0  0  0  0  0  0  0  0  0  0
   -8.0490    4.0180   -7.0330 H   0  0  0  0  0  0  0  0  0  0  0  0
   -9.7970    4.3590   -6.9300 H   0  0  0  0  0  0  0  0  0  0  0  0
   -8.9590    1.9980   -7.1430 H   0  0  0  0  0  0  0  0  0  0  0  0
  -10.3670    2.5560   -8.0520 H   0  0  0  0  0  0  0  0  0  0  0  0
   -7.5850    2.3900   -9.0140 H   0  0  0  0  0  0  0  0  0  0  0  0
   -8.8390    1.2190   -9.2740 H   0  0  0  0  0  0  0  0  0  0  0  0
  -10.0720    2.6580  -10.5750 H   0  0  0  0  0  0  0  0  0  0  0  0
   -8.4000    2.6750  -11.1490 H   0  0  0  0  0  0  0  0  0  0  0  0
   -8.7200    7.6660  -10.0120 H   0  0  0  0  0  0  0  0  0  0  0  0
  1  2  1  0
  2  3  1  0
  3  4  1  0
  4  5  2  0
  5  6  1  0
  6  7  1  0
  6  8  2  0
  8  9  1  0
  9 10  1  0
  9 11  2  0
  1 12  2  0
  1 13  1  0
 13 14  2  0
 14 15  1  0
 15 16  1  0
 16 17  1  0
 17 18  1  0
 18 19  1  0
 15 20  1  0
 20 21  2  0
 11  4  1  0
 21 13  1  0
 19 14  1  0
  2 22  1  0
  3 23  1  0
  3 24  1  0
  5 25  1  0
  8 26  1  0
 11 27  1  0
 16 28  1  0
 16 29  1  0
 17 30  1  0
 17 31  1  0
 18 32  1  0
 18 33  1  0
 19 34  1  0
 19 35  1  0
 21 36  1  0
A    1
 C1 
A    2
 N1 
A    3
 C2 
A    4
 C3 
A    5
 C4 
A    6
 C5 
A    7
 F1 
A    8
 C6 
A    9
 C7 
A   10
BR1 
A   11
 C8 
A   12
 O1 
A   13
 C9 
A   14
 C10
A   15
 N2 
A   16
 C11
A   17
 C12
A   18
 C13
A   19
 C14
A   20
 N3 
A   21
 C15
A   22
 H1 
A   23
 H2 
A   24
 H3 
A   25
 H4 
A   26
 H5 
A   27
 H6 
A   28
 H7 
A   29
 H8 
A   30
 H9 
A   31
 H10
A   32
 H11
A   33
 H12
A   34
 H13
A   35
 H14
A   36
 H15
M  END
>  <ref_pdb>  (338) 
x0051_0B

>  <ref_mols>  (338) 
x0589_0B,x0969_1B

>  <original SMILES>  (338) 
[H]c1nn2c(c1C(=O)N([H])C([H])([H])c1c([H])c(F)c([H])c(Br)c1[H])C([H])([H])C([H])([H])C([H])([H])C2([H])[H]

>  <index>  (338) 
600

>  <∆∆G>  (338) 
-5.76183

>  <∆G_bound>  (338) 
-5.079616

>  <∆G_unbound>  (338) 
0.682214

>  <comRMSD>  (338) 
0.467025

>  <N_constrained_atoms>  (338) 
18.0

>  <N_unconstrained_atoms>  (338) 
3.0

>  <runtime>  (338) 
47.16018

>  <LE>  (338) 
0.274373

>  <percent_hybrid>  (338) 
45.0

>  <dist>  (338) 
6.0

>  <ecfp4>  (338) 
0.285714

>  <daylight>  (338) 
0.333333

>  <topodist>  (338) 
1.0

>  <mces>  (338) 
22.0

>  <tdn>  (338) 
0.0

>  <tup>  (338) 
1.0

>  <rdn>  (338) 
0.0

>  <rup>  (338) 
0.0

>  <ldn>  (338) 
0.0

>  <lup>  (338) 
0.0

>  <mut>  (338) 
4.0

>  <maj>  (338) 
4.0

>  <min>  (338) 
0.0

>  <hyb>  (338) 
1.0

>  <sub>  (338) 
0.0

>  <query_index>  (338) 
379.0

>  <max_hit_Tanimoto>  (338) 
0.338294

>  <largest_ring>  (338) 
6

>  <N_interactions_kept>  (338) 
1.5

>  <N_interactions_lost>  (338) 
1.0

>  <interaction_uniqueness_metric>  (338) 
0.163139

>  <ad_hoc_penalty>  (338) 
-20.310712

>  <N_rotatable_bonds>  (338) 
3

>  <N_HA>  (338) 
21

>  <cluster>  (338) 
5669

>  <N_interactions>  (338) 
4

>  <Enamine>  (338) 
0

>  <Mcule>  (338) 
1

>  <N_PAINS>  (338) 
0

>  <UFF_Gibbs>  (338) 
77.192941

>  <strain_per_HA>  (338) 
3.675854

>  <saltbridge:HIS:51>  (338) 
0

>  <pistack:HIS:51>  (338) 
1

>  <hydroph_interaction:HIS:51>  (338) 
0

>  <hbond:ALA:132>  (338) 
0

>  <hbond:SER:135>  (338) 
0

>  <hydroph_interaction:TYR:150>  (338) 
0

>  <pistack:TYR:161>  (338) 
1

>  <hydroph_interaction:TYR:161>  (338) 
0

>  <hydroph_interaction:ASP:83>  (338) 
1

>  <hbond:TYR:130>  (338) 
0

>  <hydroph_interaction:ALA:132>  (338) 
0

>  <hbond:HIS:51>  (338) 
0

>  <hbond:ASP:129>  (338) 
0

>  <hbond:TYR:150>  (338) 
0

>  <hbond:GLY:151>  (338) 
1

>  <hbond:TYR:161>  (338) 
0

>  <hydroph_interaction:TYR:130>  (338) 
0

>  <hydroph_interaction:PRO:131>  (338) 
0

>  <hydroph_interaction:ASP:129>  (338) 
0

>  <saltbridge:ASP:75>  (338) 
0

>  <saltbridge:ASP:83>  (338) 
0

>  <hydroph_interaction:ASN:152>  (338) 
0

>  <halogenbond:TYR:150>  (338) 
0

>  <hbond:ASP:83>  (338) 
0

>  <hydroph_interaction:VAL:155>  (338) 
0

>  <pication:TYR:161>  (338) 
0

>  <hbond:PRO:131>  (338) 
0

>  <hbond:LEU:128>  (338) 
0

>  <saltbridge:ASP:129>  (338) 
0

>  <hbond:THR:134>  (338) 
0

>  <pication:HIS:51>  (338) 
0

>  <hbond:SER:81>  (338) 
0

>  <hbond:GLY:159>  (338) 
0

>  <hydroph_interaction:PRO:101>  (338) 
0

>  <hydroph_interaction:THR:134>  (338) 
0

>  <hbond:GLY:82>  (338) 
0

>  <hydroph_interaction:GLU:104>  (338) 
0

>  <hydroph_interaction:VAL:36>  (338) 
0

>  <hydroph_interaction:MET:49>  (338) 
0

>  <halogenbond:GLU:104>  (338) 
0

>  <hydroph_interaction:LYS:107>  (338) 
0

$$$$
CSSS00011219298
     RDKit          3D

 30 31  0  0  0  0  0  0  0  0999 V2000
   -5.0060    5.2870  -20.5060 C   0  0  0  0  0  0  0  0  0  0  0  0
   -3.7140    5.3520  -19.8800 O   0  0  0  0  0  0  0  0  0  0  0  0
   -3.7070    5.8840  -18.6220 C   0  0  0  0  0  0  0  0  0  0  0  0
   -2.8670    6.6780  -18.2130 O   0  0  0  0  0  0  0  0  0  0  0  0
   -4.8810    5.3610  -17.7850 C   0  0  0  0  0  0  0  0  0  0  0  0
   -4.4200    5.2010  -16.3420 C   0  0  0  0  0  0  0  0  0  0  0  0
   -4.8660    6.4340  -15.6530 N   0  0  0  0  0  0  0  0  0  0  0  0
   -5.7540    7.2010  -16.5590 C   0  0  0  0  0  0  0  0  0  0  0  0
   -6.0640    6.3230  -17.7890 C   0  0  0  0  0  0  0  0  0  0  0  0
   -7.3480    5.7620  -17.8850 C   0  0  0  0  0  0  0  0  0  0  0  0
   -8.1200    5.4920  -16.7490 C   0  0  0  0  0  0  0  0  0  0  0  0
   -9.4020    4.9470  -16.8690 C   0  0  0  0  0  0  0  0  0  0  0  0
   -9.9260    4.6680  -18.1280 C   0  0  0  0  0  0  0  0  0  0  0  0
   -9.1740    4.9230  -19.2700 C   0  0  0  0  0  0  0  0  0  0  0  0
   -7.8850    5.4710  -19.1600 C   0  0  0  0  0  0  0  0  0  0  0  0
   -5.7400    4.7760  -19.8770 H   0  0  0  0  0  0  0  0  0  0  0  0
   -4.9020    4.7360  -21.4500 H   0  0  0  0  0  0  0  0  0  0  0  0
   -5.3570    6.2980  -20.7300 H   0  0  0  0  0  0  0  0  0  0  0  0
   -5.2120    4.4040  -18.1590 H   0  0  0  0  0  0  0  0  0  0  0  0
   -3.3300    5.1240  -16.2860 H   0  0  0  0  0  0  0  0  0  0  0  0
   -4.8400    4.3210  -15.8460 H   0  0  0  0  0  0  0  0  0  0  0  0
   -4.0640    7.0000  -15.3750 H   0  0  0  0  0  0  0  0  0  0  0  0
   -6.7120    7.4270  -16.0680 H   0  0  0  0  0  0  0  0  0  0  0  0
   -5.2730    8.1470  -16.8240 H   0  0  0  0  0  0  0  0  0  0  0  0
   -5.9230    6.9460  -18.6800 H   0  0  0  0  0  0  0  0  0  0  0  0
   -7.7190    5.7080  -15.7640 H   0  0  0  0  0  0  0  0  0  0  0  0
   -9.9900    4.7440  -15.9780 H   0  0  0  0  0  0  0  0  0  0  0  0
  -10.9210    4.2520  -18.2250 H   0  0  0  0  0  0  0  0  0  0  0  0
   -9.5850    4.7040  -20.2520 H   0  0  0  0  0  0  0  0  0  0  0  0
   -7.3150    5.6680  -20.0660 H   0  0  0  0  0  0  0  0  0  0  0  0
  1  2  1  0
  2  3  1  0
  3  4  2  0
  3  5  1  0
  5  6  1  0
  6  7  1  0
  7  8  1  0
  8  9  1  0
  9 10  1  0
 10 11  2  0
 11 12  1  0
 12 13  2  0
 13 14  1  0
 14 15  2  0
  9  5  1  0
 15 10  1  0
  1 16  1  0
  1 17  1  0
  1 18  1  0
  5 19  1  0
  6 20  1  0
  6 21  1  0
  7 22  1  0
  8 23  1  0
  8 24  1  0
  9 25  1  0
 11 26  1  0
 12 27  1  0
 13 28  1  0
 14 29  1  0
 15 30  1  0
A    1
 C1 
A    2
 O1 
A    3
 C2 
A    4
 O2 
A    5
 C3 
A    6
 C4 
A    7
 N1 
A    8
 C5 
A    9
 C6 
A   10
 C7 
A   11
 C8 
A   12
 C9 
A   13
 C10
A   14
 C11
A   15
 C12
A   16
 H1 
A   17
 H2 
A   18
 H3 
A   19
 H4 
A   20
 H5 
A   21
 H6 
A   22
 H7 
A   23
 H8 
A   24
 H9 
A   25
 H10
A   26
 H11
A   27
 H12
A   28
 H13
A   29
 H14
A   30
 H15
M  END
>  <ref_pdb>  (339) 
x0051_0B

>  <ref_mols>  (339) 
x0227_0B,x0051_0B

>  <original SMILES>  (339) 
[H]c1c([H])c([H])c(C2([H])C([H])([H])N([H])C([H])([H])C2([H])C(=O)OC([H])([H])[H])c([H])c1[H]

>  <index>  (339) 
489

>  <∆∆G>  (339) 
-6.804711

>  <∆G_bound>  (339) 
-6.473902

>  <∆G_unbound>  (339) 
0.330809

>  <comRMSD>  (339) 
0.71444

>  <N_constrained_atoms>  (339) 
15.0

>  <N_unconstrained_atoms>  (339) 
2.0

>  <runtime>  (339) 
28.011194

>  <LE>  (339) 
0.400277

>  <percent_hybrid>  (339) 
50.0

>  <dist>  (339) 
7.0

>  <ecfp4>  (339) 
0.15873

>  <daylight>  (339) 
0.259494

>  <topodist>  (339) 
5.0

>  <mces>  (339) 
14.0

>  <tdn>  (339) 
3.0

>  <tup>  (339) 
1.0

>  <rdn>  (339) 
0.0

>  <rup>  (339) 
0.0

>  <ldn>  (339) 
0.0

>  <lup>  (339) 
1.0

>  <mut>  (339) 
2.0

>  <maj>  (339) 
2.0

>  <min>  (339) 
0.0

>  <hyb>  (339) 
0.0

>  <sub>  (339) 
2.0

>  <query_index>  (339) 
270.0

>  <max_hit_Tanimoto>  (339) 
0.21363

>  <largest_ring>  (339) 
0

>  <N_interactions_kept>  (339) 
4.0

>  <N_interactions_lost>  (339) 
1.5

>  <interaction_uniqueness_metric>  (339) 
0.053763

>  <ad_hoc_penalty>  (339) 
-20.305649

>  <N_rotatable_bonds>  (339) 
3

>  <N_HA>  (339) 
15

>  <cluster>  (339) 
5772

>  <N_interactions>  (339) 
5

>  <Enamine>  (339) 
1

>  <Mcule>  (339) 
0

>  <N_PAINS>  (339) 
0

>  <UFF_Gibbs>  (339) 
65.960527

>  <strain_per_HA>  (339) 
4.397368

>  <saltbridge:HIS:51>  (339) 
0

>  <pistack:HIS:51>  (339) 
0

>  <hydroph_interaction:HIS:51>  (339) 
0

>  <hbond:ALA:132>  (339) 
0

>  <hbond:SER:135>  (339) 
0

>  <hydroph_interaction:TYR:150>  (339) 
1

>  <pistack:TYR:161>  (339) 
0

>  <hydroph_interaction:TYR:161>  (339) 
3

>  <hydroph_interaction:ASP:83>  (339) 
0

>  <hbond:TYR:130>  (339) 
0

>  <hydroph_interaction:ALA:132>  (339) 
1

>  <hbond:HIS:51>  (339) 
0

>  <hbond:ASP:129>  (339) 
0

>  <hbond:TYR:150>  (339) 
0

>  <hbond:GLY:151>  (339) 
0

>  <hbond:TYR:161>  (339) 
0

>  <hydroph_interaction:TYR:130>  (339) 
0

>  <hydroph_interaction:PRO:131>  (339) 
0

>  <hydroph_interaction:ASP:129>  (339) 
0

>  <saltbridge:ASP:75>  (339) 
0

>  <saltbridge:ASP:83>  (339) 
0

>  <hydroph_interaction:ASN:152>  (339) 
0

>  <halogenbond:TYR:150>  (339) 
0

>  <hbond:ASP:83>  (339) 
0

>  <hydroph_interaction:VAL:155>  (339) 
0

>  <pication:TYR:161>  (339) 
0

>  <hbond:PRO:131>  (339) 
0

>  <hbond:LEU:128>  (339) 
0

>  <saltbridge:ASP:129>  (339) 
0

>  <hbond:THR:134>  (339) 
0

>  <pication:HIS:51>  (339) 
0

>  <hbond:SER:81>  (339) 
0

>  <hbond:GLY:159>  (339) 
0

>  <hydroph_interaction:PRO:101>  (339) 
0

>  <hydroph_interaction:THR:134>  (339) 
0

>  <hbond:GLY:82>  (339) 
0

>  <hydroph_interaction:GLU:104>  (339) 
0

>  <hydroph_interaction:VAL:36>  (339) 
0

>  <hydroph_interaction:MET:49>  (339) 
0

>  <halogenbond:GLU:104>  (339) 
0

>  <hydroph_interaction:LYS:107>  (339) 
0

$$$$
PV-006665447670
     RDKit          3D

 25 26  0  0  0  0  0  0  0  0999 V2000
   -9.4270    6.0940  -13.4830 C   0  0  0  0  0  0  0  0  0  0  0  0
   -8.5900    5.0950  -14.1230 N   0  0  0  0  0  0  0  0  0  0  0  0
   -7.7200    5.6560  -15.1690 C   0  0  0  0  0  0  0  0  0  0  0  0
   -6.2660    5.3180  -15.0550 C   0  0  0  0  0  0  0  0  0  0  0  0
   -5.3880    5.9920  -15.8220 C   0  0  0  0  0  0  0  0  0  0  0  0
   -5.6700    5.7930  -17.6040 S   0  0  0  0  0  0  0  0  0  0  0  0
   -7.3930    5.3890  -17.6650 C   0  0  0  0  0  0  0  0  0  0  0  0
   -7.9850    5.0790  -19.0230 C   0  0  0  0  0  0  0  0  0  0  0  0
   -9.3150    4.7500  -19.1720 C   0  0  0  0  0  0  0  0  0  0  0  0
  -10.1280    4.7030  -18.0400 C   0  0  0  0  0  0  0  0  0  0  0  0
   -9.5800    4.9910  -16.7800 C   0  0  0  0  0  0  0  0  0  0  0  0
   -8.2320    5.3390  -16.5610 C   0  0  0  0  0  0  0  0  0  0  0  0
   -8.9680    7.0860  -13.5010 H   0  0  0  0  0  0  0  0  0  0  0  0
   -9.6330    5.8340  -12.4400 H   0  0  0  0  0  0  0  0  0  0  0  0
  -10.3830    6.1560  -14.0160 H   0  0  0  0  0  0  0  0  0  0  0  0
   -9.1260    4.2810  -14.4750 H   0  0  0  0  0  0  0  0  0  0  0  0
   -7.8360    6.7430  -15.0830 H   0  0  0  0  0  0  0  0  0  0  0  0
   -5.9720    5.2240  -14.0110 H   0  0  0  0  0  0  0  0  0  0  0  0
   -6.2070    4.2930  -15.4110 H   0  0  0  0  0  0  0  0  0  0  0  0
   -5.4640    7.0560  -15.5520 H   0  0  0  0  0  0  0  0  0  0  0  0
   -4.3660    5.6680  -15.6040 H   0  0  0  0  0  0  0  0  0  0  0  0
   -7.2900    5.1330  -19.8700 H   0  0  0  0  0  0  0  0  0  0  0  0
   -9.7060    4.5370  -20.1590 H   0  0  0  0  0  0  0  0  0  0  0  0
  -11.1760    4.4470  -18.1340 H   0  0  0  0  0  0  0  0  0  0  0  0
  -10.3100    4.9220  -15.9700 H   0  0  0  0  0  0  0  0  0  0  0  0
  1  2  1  0
  2  3  1  0
  3  4  1  0
  4  5  1  0
  5  6  1  0
  6  7  1  0
  7  8  2  0
  8  9  1  0
  9 10  2  0
 10 11  1  0
 11 12  2  0
 12  3  1  0
 12  7  1  0
  1 13  1  0
  1 14  1  0
  1 15  1  0
  2 16  1  0
  3 17  1  0
  4 18  1  0
  4 19  1  0
  5 20  1  0
  5 21  1  0
  8 22  1  0
  9 23  1  0
 10 24  1  0
 11 25  1  0
A    1
 C1 
A    2
 N1 
A    3
 C2 
A    4
 C3 
A    5
 C4 
A    6
 S1 
A    7
 C5 
A    8
 C6 
A    9
 C7 
A   10
 C8 
A   11
 C9 
A   12
 C10
A   13
 H1 
A   14
 H2 
A   15
 H3 
A   16
 H4 
A   17
 H5 
A   18
 H6 
A   19
 H7 
A   20
 H8 
A   21
 H9 
A   22
 H10
A   23
 H11
A   24
 H12
A   25
 H13
M  END
>  <ref_pdb>  (340) 
x0051_0B

>  <ref_mols>  (340) 
x0455_0B,x0951_0B

>  <original SMILES>  (340) 
[H]c1c([H])c([H])c2c(c1[H])SC([H])([H])C([H])([H])C2([H])N([H])C([H])([H])[H]

>  <index>  (340) 
562

>  <∆∆G>  (340) 
-6.698534

>  <∆G_bound>  (340) 
-6.635048

>  <∆G_unbound>  (340) 
0.063485

>  <comRMSD>  (340) 
0.732975

>  <N_constrained_atoms>  (340) 
14.0

>  <N_unconstrained_atoms>  (340) 
0.0

>  <runtime>  (340) 
21.708365

>  <LE>  (340) 
0.478467

>  <percent_hybrid>  (340) 
34.0

>  <dist>  (340) 
3.0

>  <ecfp4>  (340) 
0.196078

>  <daylight>  (340) 
0.194444

>  <topodist>  (340) 
1.0

>  <mces>  (340) 
13.0

>  <tdn>  (340) 
0.0

>  <tup>  (340) 
0.0

>  <rdn>  (340) 
0.0

>  <rup>  (340) 
0.0

>  <ldn>  (340) 
1.0

>  <lup>  (340) 
0.0

>  <mut>  (340) 
2.0

>  <maj>  (340) 
2.0

>  <min>  (340) 
0.0

>  <hyb>  (340) 
0.0

>  <sub>  (340) 
0.0

>  <query_index>  (340) 
288.0

>  <max_hit_Tanimoto>  (340) 
0.181564

>  <largest_ring>  (340) 
6

>  <N_interactions_kept>  (340) 
0.5

>  <N_interactions_lost>  (340) 
2.0

>  <interaction_uniqueness_metric>  (340) 
0.110284

>  <ad_hoc_penalty>  (340) 
-20.293223

>  <N_rotatable_bonds>  (340) 
2

>  <N_HA>  (340) 
12

>  <cluster>  (340) 
5704

>  <N_interactions>  (340) 
5

>  <Enamine>  (340) 
1

>  <Mcule>  (340) 
0

>  <N_PAINS>  (340) 
0

>  <UFF_Gibbs>  (340) 
47.875479

>  <strain_per_HA>  (340) 
3.989623

>  <saltbridge:HIS:51>  (340) 
0

>  <pistack:HIS:51>  (340) 
0

>  <hydroph_interaction:HIS:51>  (340) 
0

>  <hbond:ALA:132>  (340) 
0

>  <hbond:SER:135>  (340) 
0

>  <hydroph_interaction:TYR:150>  (340) 
1

>  <pistack:TYR:161>  (340) 
1

>  <hydroph_interaction:TYR:161>  (340) 
0

>  <hydroph_interaction:ASP:83>  (340) 
0

>  <hbond:TYR:130>  (340) 
0

>  <hydroph_interaction:ALA:132>  (340) 
1

>  <hbond:HIS:51>  (340) 
0

>  <hbond:ASP:129>  (340) 
0

>  <hbond:TYR:150>  (340) 
0

>  <hbond:GLY:151>  (340) 
0

>  <hbond:TYR:161>  (340) 
2

>  <hydroph_interaction:TYR:130>  (340) 
0

>  <hydroph_interaction:PRO:131>  (340) 
0

>  <hydroph_interaction:ASP:129>  (340) 
0

>  <saltbridge:ASP:75>  (340) 
0

>  <saltbridge:ASP:83>  (340) 
0

>  <hydroph_interaction:ASN:152>  (340) 
0

>  <halogenbond:TYR:150>  (340) 
0

>  <hbond:ASP:83>  (340) 
0

>  <hydroph_interaction:VAL:155>  (340) 
0

>  <pication:TYR:161>  (340) 
0

>  <hbond:PRO:131>  (340) 
0

>  <hbond:LEU:128>  (340) 
0

>  <saltbridge:ASP:129>  (340) 
0

>  <hbond:THR:134>  (340) 
0

>  <pication:HIS:51>  (340) 
0

>  <hbond:SER:81>  (340) 
0

>  <hbond:GLY:159>  (340) 
0

>  <hydroph_interaction:PRO:101>  (340) 
0

>  <hydroph_interaction:THR:134>  (340) 
0

>  <hbond:GLY:82>  (340) 
0

>  <hydroph_interaction:GLU:104>  (340) 
0

>  <hydroph_interaction:VAL:36>  (340) 
0

>  <hydroph_interaction:MET:49>  (340) 
0

>  <halogenbond:GLU:104>  (340) 
0

>  <hydroph_interaction:LYS:107>  (340) 
0

$$$$
Z5001525277
     RDKit          3D

 52 55  0  0  0  0  0  0  0  0999 V2000
  -11.2310    2.9100   -6.2920 C   0  0  0  0  0  0  0  0  0  0  0  0
  -10.1230    3.1550   -7.0750 N   0  0  0  0  0  0  0  0  0  0  0  0
   -9.6280    2.2780   -8.0800 C   0  0  0  0  0  0  0  0  0  0  0  0
   -9.2990    2.9680   -9.2510 C   0  0  0  0  0  0  0  0  0  0  0  0
   -8.9680    4.2940   -9.0690 N   0  0  0  0  0  0  0  0  0  0  0  0
   -8.9610    5.0650  -10.1580 C   0  0  0  0  0  0  0  0  0  0  0  0
   -8.8330    6.4590  -10.0990 C   0  0  0  0  0  0  0  0  0  0  0  0
   -8.8390    7.2730  -11.2450 C   0  0  0  0  0  0  0  0  0  0  0  0
   -8.9750    6.7320  -12.5320 C   0  0  0  0  0  0  0  0  0  0  0  0
   -8.9890    7.5260  -13.6630 C   0  0  0  0  0  0  0  0  0  0  0  0
   -8.8460    8.7470  -13.6010 O   0  0  0  0  0  0  0  0  0  0  0  0
   -9.1600    6.8260  -14.8130 N   0  0  0  0  0  0  0  0  0  0  0  0
   -8.1180    5.9030  -15.2560 C   0  0  0  0  0  0  0  0  0  0  0  0
   -8.3740    5.4880  -16.6440 C   0  0  0  0  0  0  0  0  0  0  0  0
   -9.7430    5.1180  -16.8960 C   0  0  0  0  0  0  0  0  0  0  0  0
  -10.1960    4.7110  -18.2540 C   0  0  0  0  0  0  0  0  0  0  0  0
   -9.2850    4.6770  -19.3080 C   0  0  0  0  0  0  0  0  0  0  0  0
   -7.9710    5.0020  -19.1000 C   0  0  0  0  0  0  0  0  0  0  0  0
   -7.4890    5.4160  -17.7270 C   0  0  0  0  0  0  0  0  0  0  0  0
   -6.1570    5.6340  -17.9510 N   0  0  0  0  0  0  0  0  0  0  0  0
   -5.1660    6.0390  -16.9940 C   0  0  0  0  0  0  0  0  0  0  0  0
   -5.8800    5.3950  -19.2800 C   0  0  0  0  0  0  0  0  0  0  0  0
   -6.9300    5.0210  -19.9810 N   0  0  0  0  0  0  0  0  0  0  0  0
   -9.1020    5.3560  -12.6900 C   0  0  0  0  0  0  0  0  0  0  0  0
   -9.0910    4.5010  -11.4290 C   0  0  0  0  0  0  0  0  0  0  0  0
   -8.4740    4.7760   -7.7550 C   0  0  0  0  0  0  0  0  0  0  0  0
   -9.2190    4.2430   -6.6880 C   0  0  0  0  0  0  0  0  0  0  0  0
  -12.1400    3.2880   -6.7180 H   0  0  0  0  0  0  0  0  0  0  0  0
  -11.3760    1.8290   -6.1950 H   0  0  0  0  0  0  0  0  0  0  0  0
  -11.1270    3.3240   -5.2850 H   0  0  0  0  0  0  0  0  0  0  0  0
   -8.7410    1.8120   -7.6630 H   0  0  0  0  0  0  0  0  0  0  0  0
  -10.3310    1.4690   -8.2850 H   0  0  0  0  0  0  0  0  0  0  0  0
   -8.4940    2.4490   -9.7730 H   0  0  0  0  0  0  0  0  0  0  0  0
  -10.1530    2.9340   -9.9270 H   0  0  0  0  0  0  0  0  0  0  0  0
   -8.7270    6.9450   -9.1340 H   0  0  0  0  0  0  0  0  0  0  0  0
   -8.7380    8.3510  -11.1350 H   0  0  0  0  0  0  0  0  0  0  0  0
  -10.0870    6.7020  -15.2010 H   0  0  0  0  0  0  0  0  0  0  0  0
   -8.0400    5.0170  -14.6140 H   0  0  0  0  0  0  0  0  0  0  0  0
   -7.1560    6.4300  -15.2050 H   0  0  0  0  0  0  0  0  0  0  0  0
  -10.4350    5.1480  -16.0730 H   0  0  0  0  0  0  0  0  0  0  0  0
  -11.2350    4.4450  -18.4230 H   0  0  0  0  0  0  0  0  0  0  0  0
   -9.5900    4.3920  -20.3030 H   0  0  0  0  0  0  0  0  0  0  0  0
   -5.3490    5.6550  -15.9930 H   0  0  0  0  0  0  0  0  0  0  0  0
   -5.1320    7.1300  -16.9910 H   0  0  0  0  0  0  0  0  0  0  0  0
   -4.2030    5.6700  -17.3190 H   0  0  0  0  0  0  0  0  0  0  0  0
   -4.8700    5.5080  -19.6960 H   0  0  0  0  0  0  0  0  0  0  0  0
   -9.2110    4.8940  -13.6680 H   0  0  0  0  0  0  0  0  0  0  0  0
   -9.1970    3.4270  -11.6230 H   0  0  0  0  0  0  0  0  0  0  0  0
   -8.4360    5.8610   -7.7880 H   0  0  0  0  0  0  0  0  0  0  0  0
   -7.4380    4.4470   -7.6420 H   0  0  0  0  0  0  0  0  0  0  0  0
   -9.7870    5.0650   -6.2300 H   0  0  0  0  0  0  0  0  0  0  0  0
   -8.5270    3.8630   -5.9270 H   0  0  0  0  0  0  0  0  0  0  0  0
  1  2  1  0
  2  3  1  0
  3  4  1  0
  4  5  1  0
  5  6  1  0
  6  7  2  0
  7  8  1  0
  8  9  2  0
  9 10  1  0
 10 11  2  0
 10 12  1  0
 12 13  1  0
 13 14  1  0
 14 15  2  0
 15 16  1  0
 16 17  2  0
 17 18  1  0
 18 19  2  0
 19 20  1  0
 20 21  1  0
 20 22  1  0
 22 23  2  0
  9 24  1  0
 24 25  2  0
  5 26  1  0
 26 27  1  0
 27  2  1  0
 25  6  1  0
 19 14  1  0
 23 18  1  0
  1 28  1  0
  1 29  1  0
  1 30  1  0
  3 31  1  0
  3 32  1  0
  4 33  1  0
  4 34  1  0
  7 35  1  0
  8 36  1  0
 12 37  1  0
 13 38  1  0
 13 39  1  0
 15 40  1  0
 16 41  1  0
 17 42  1  0
 21 43  1  0
 21 44  1  0
 21 45  1  0
 22 46  1  0
 24 47  1  0
 25 48  1  0
 26 49  1  0
 26 50  1  0
 27 51  1  0
 27 52  1  0
A    1
 C1 
A    2
 N1 
A    3
 C2 
A    4
 C3 
A    5
 N2 
A    6
 C4 
A    7
 C5 
A    8
 C6 
A    9
 C7 
A   10
 C8 
A   11
 O1 
A   12
 N3 
A   13
 C9 
A   14
 C10
A   15
 C11
A   16
 C12
A   17
 C13
A   18
 C14
A   19
 C15
A   20
 N4 
A   21
 C16
A   22
 C17
A   23
 N5 
A   24
 C18
A   25
 C19
A   26
 C20
A   27
 C21
A   28
 H1 
A   29
 H2 
A   30
 H3 
A   31
 H4 
A   32
 H5 
A   33
 H6 
A   34
 H7 
A   35
 H8 
A   36
 H9 
A   37
 H10
A   38
 H11
A   39
 H12
A   40
 H13
A   41
 H14
A   42
 H15
A   43
 H16
A   44
 H17
A   45
 H18
A   46
 H19
A   47
 H20
A   48
 H21
A   49
 H22
A   50
 H23
A   51
 H24
A   52
 H25
M  END
>  <ref_pdb>  (341) 
x0051_0B

>  <ref_mols>  (341) 
x0490_0B,x0404_0B

>  <original SMILES>  (341) 
[H]c1c([H])c(N2C([H])([H])C([H])([H])N(C([H])([H])[H])C([H])([H])C2([H])[H])c([H])c([H])c1C(=O)N([H])C([H])([H])c1c([H])c([H])c([H])c2nc([H])n(C([H])([H])[H])c12

>  <index>  (341) 
367

>  <∆∆G>  (341) 
-6.53236

>  <∆G_bound>  (341) 
-5.915081

>  <∆G_unbound>  (341) 
0.617279

>  <comRMSD>  (341) 
0.656272

>  <N_constrained_atoms>  (341) 
27.0

>  <N_unconstrained_atoms>  (341) 
1.0

>  <runtime>  (341) 
71.439461

>  <LE>  (341) 
0.233299

>  <percent_hybrid>  (341) 
41.0

>  <dist>  (341) 
6.0

>  <ecfp4>  (341) 
0.296296

>  <daylight>  (341) 
0.344538

>  <topodist>  (341) 
3.0

>  <mces>  (341) 
29.0

>  <tdn>  (341) 
2.0

>  <tup>  (341) 
1.0

>  <rdn>  (341) 
0.0

>  <rup>  (341) 
0.0

>  <ldn>  (341) 
0.0

>  <lup>  (341) 
0.0

>  <mut>  (341) 
2.0

>  <maj>  (341) 
2.0

>  <min>  (341) 
0.0

>  <hyb>  (341) 
1.0

>  <sub>  (341) 
2.0

>  <query_index>  (341) 
10.0

>  <max_hit_Tanimoto>  (341) 
0.332521

>  <largest_ring>  (341) 
0

>  <N_interactions_kept>  (341) 
1.0

>  <N_interactions_lost>  (341) 
3.5

>  <interaction_uniqueness_metric>  (341) 
0.42576

>  <ad_hoc_penalty>  (341) 
-20.282425

>  <N_rotatable_bonds>  (341) 
6

>  <N_HA>  (341) 
27

>  <cluster>  (341) 
5882

>  <N_interactions>  (341) 
10

>  <Enamine>  (341) 
1

>  <Mcule>  (341) 
0

>  <N_PAINS>  (341) 
0

>  <UFF_Gibbs>  (341) 
271.684396

>  <strain_per_HA>  (341) 
10.062385

>  <saltbridge:HIS:51>  (341) 
0

>  <pistack:HIS:51>  (341) 
1

>  <hydroph_interaction:HIS:51>  (341) 
1

>  <hbond:ALA:132>  (341) 
1

>  <hbond:SER:135>  (341) 
0

>  <hydroph_interaction:TYR:150>  (341) 
1

>  <pistack:TYR:161>  (341) 
1

>  <hydroph_interaction:TYR:161>  (341) 
2

>  <hydroph_interaction:ASP:83>  (341) 
0

>  <hbond:TYR:130>  (341) 
0

>  <hydroph_interaction:ALA:132>  (341) 
1

>  <hbond:HIS:51>  (341) 
0

>  <hbond:ASP:129>  (341) 
0

>  <hbond:TYR:150>  (341) 
0

>  <hbond:GLY:151>  (341) 
0

>  <hbond:TYR:161>  (341) 
0

>  <hydroph_interaction:TYR:130>  (341) 
0

>  <hydroph_interaction:PRO:131>  (341) 
0

>  <hydroph_interaction:ASP:129>  (341) 
0

>  <saltbridge:ASP:75>  (341) 
1

>  <saltbridge:ASP:83>  (341) 
1

>  <hydroph_interaction:ASN:152>  (341) 
0

>  <halogenbond:TYR:150>  (341) 
0

>  <hbond:ASP:83>  (341) 
0

>  <hydroph_interaction:VAL:155>  (341) 
0

>  <pication:TYR:161>  (341) 
0

>  <hbond:PRO:131>  (341) 
0

>  <hbond:LEU:128>  (341) 
0

>  <saltbridge:ASP:129>  (341) 
0

>  <hbond:THR:134>  (341) 
0

>  <pication:HIS:51>  (341) 
0

>  <hbond:SER:81>  (341) 
0

>  <hbond:GLY:159>  (341) 
0

>  <hydroph_interaction:PRO:101>  (341) 
0

>  <hydroph_interaction:THR:134>  (341) 
0

>  <hbond:GLY:82>  (341) 
0

>  <hydroph_interaction:GLU:104>  (341) 
0

>  <hydroph_interaction:VAL:36>  (341) 
0

>  <hydroph_interaction:MET:49>  (341) 
0

>  <halogenbond:GLU:104>  (341) 
0

>  <hydroph_interaction:LYS:107>  (341) 
0

$$$$
MCULE-1746965507
     RDKit          3D

 47 50  0  0  0  0  0  0  0  0999 V2000
   -6.3170    6.2430  -17.1850 O   0  0  0  0  0  0  0  0  0  0  0  0
   -5.4050    5.9970  -17.9530 C   0  0  0  0  0  0  0  0  0  0  0  0
   -4.5750    4.9560  -17.2070 C   0  0  0  0  0  0  0  0  0  0  0  0
   -5.7410    5.5200  -19.3780 C   0  0  0  0  0  0  0  0  0  0  0  0
   -4.7420    5.1810  -20.3580 O   0  0  0  0  0  0  0  0  0  0  0  0
   -7.0760    5.4480  -19.6720 N   0  0  0  0  0  0  0  0  0  0  0  0
   -7.9570    5.3140  -18.7380 C   0  0  0  0  0  0  0  0  0  0  0  0
   -9.3560    4.7690  -18.9650 C   0  0  0  0  0  0  0  0  0  0  0  0
  -10.1710    4.7330  -17.7080 C   0  0  0  0  0  0  0  0  0  0  0  0
   -9.6640    5.1520  -16.4770 C   0  0  0  0  0  0  0  0  0  0  0  0
   -8.3770    5.6440  -16.3520 C   0  0  0  0  0  0  0  0  0  0  0  0
   -7.8570    6.0810  -15.1720 N   0  0  0  0  0  0  0  0  0  0  0  0
   -8.8120    7.1620  -14.2550 S   0  0  0  0  0  6  0  0  0  0  0  0
   -8.0920    8.4100  -14.0680 O   0  0  0  0  0  0  0  0  0  0  0  0
  -10.1350    7.1530  -14.8030 O   0  0  0  0  0  0  0  0  0  0  0  0
   -8.8440    6.3930  -12.7440 C   0  0  0  0  0  0  0  0  0  0  0  0
   -8.7160    7.1760  -11.4520 C   0  0  0  0  0  0  0  0  0  0  0  0
   -8.7470    6.4460  -10.1860 C   0  0  0  0  0  0  0  0  0  0  0  0
   -8.9040    4.9380  -10.1740 C   0  0  0  0  0  0  0  0  0  0  0  0
   -9.0150    4.3190  -11.4430 C   0  0  0  0  0  0  0  0  0  0  0  0
   -8.9890    5.0060  -12.6780 C   0  0  0  0  0  0  0  0  0  0  0  0
   -8.9400    4.2220   -9.0470 N   0  0  0  0  0  0  0  0  0  0  0  0
   -9.3630    2.8260   -9.0650 C   0  0  0  0  0  0  0  0  0  0  0  0
   -9.6750    2.5400   -7.6040 C   0  0  0  0  0  0  0  0  0  0  0  0
   -9.2950    3.7900   -6.8610 C   0  0  0  0  0  0  0  0  0  0  0  0
   -8.8220    4.7600   -7.7410 C   0  0  0  0  0  0  0  0  0  0  0  0
   -8.4110    5.8510   -7.3720 O   0  0  0  0  0  0  0  0  0  0  0  0
   -7.5490    5.7210  -17.4630 C   0  0  0  0  0  0  0  0  0  0  0  0
   -4.9250    6.9580  -18.1210 H   0  0  0  0  0  0  0  0  0  0  0  0
   -3.8210    5.4390  -16.5750 H   0  0  0  0  0  0  0  0  0  0  0  0
   -5.1980    4.3250  -16.5680 H   0  0  0  0  0  0  0  0  0  0  0  0
   -4.0360    4.3320  -17.9220 H   0  0  0  0  0  0  0  0  0  0  0  0
   -7.3830    5.8160  -20.5780 H   0  0  0  0  0  0  0  0  0  0  0  0
   -9.6400    4.4670  -19.9770 H   0  0  0  0  0  0  0  0  0  0  0  0
  -11.1870    4.3680  -17.7660 H   0  0  0  0  0  0  0  0  0  0  0  0
  -10.2980    5.0970  -15.5960 H   0  0  0  0  0  0  0  0  0  0  0  0
   -7.5390    5.3340  -14.5510 H   0  0  0  0  0  0  0  0  0  0  0  0
   -8.6030    8.2650  -11.4770 H   0  0  0  0  0  0  0  0  0  0  0  0
   -8.6590    6.9760   -9.2310 H   0  0  0  0  0  0  0  0  0  0  0  0
   -9.1330    3.2410  -11.5100 H   0  0  0  0  0  0  0  0  0  0  0  0
   -9.0850    4.4240  -13.5970 H   0  0  0  0  0  0  0  0  0  0  0  0
  -10.2260    2.5740   -9.6630 H   0  0  0  0  0  0  0  0  0  0  0  0
   -8.5160    2.2190   -9.3970 H   0  0  0  0  0  0  0  0  0  0  0  0
   -9.0890    1.6980   -7.2450 H   0  0  0  0  0  0  0  0  0  0  0  0
  -10.7190    2.2240   -7.5290 H   0  0  0  0  0  0  0  0  0  0  0  0
  -10.1010    4.2590   -6.3030 H   0  0  0  0  0  0  0  0  0  0  0  0
   -8.5020    3.5490   -6.1500 H   0  0  0  0  0  0  0  0  0  0  0  0
  1  2  1  0
  2  3  1  0
  2  4  1  0
  4  5  2  0
  4  6  1  0
  6  7  1  0
  7  8  2  0
  8  9  1  0
  9 10  2  0
 10 11  1  0
 11 12  1  0
 12 13  1  0
 13 14  2  0
 13 15  2  0
 13 16  1  0
 16 17  2  0
 17 18  1  0
 18 19  2  0
 19 20  1  0
 20 21  2  0
 19 22  1  0
 22 23  1  0
 23 24  1  0
 24 25  1  0
 25 26  1  0
 26 27  2  0
 11 28  2  0
 28  1  1  0
 28  7  1  0
 21 16  1  0
 26 22  1  0
  2 29  1  0
  3 30  1  0
  3 31  1  0
  3 32  1  0
  6 33  1  0
  8 34  1  0
  9 35  1  0
 10 36  1  0
 12 37  1  0
 17 38  1  0
 18 39  1  0
 20 40  1  0
 21 41  1  0
 23 42  1  0
 23 43  1  0
 24 44  1  0
 24 45  1  0
 25 46  1  0
 25 47  1  0
A    1
 O1 
A    2
 C1 
A    3
 C2 
A    4
 C3 
A    5
 O2 
A    6
 N1 
A    7
 C4 
A    8
 C5 
A    9
 C6 
A   10
 C7 
A   11
 C8 
A   12
 N2 
A   13
 S1 
A   14
 O3 
A   15
 O4 
A   16
 C9 
A   17
 C10
A   18
 C11
A   19
 C12
A   20
 C13
A   21
 C14
A   22
 N3 
A   23
 C15
A   24
 C16
A   25
 C17
A   26
 C18
A   27
 O5 
A   28
 C19
A   29
 H1 
A   30
 H2 
A   31
 H3 
A   32
 H4 
A   33
 H5 
A   34
 H6 
A   35
 H7 
A   36
 H8 
A   37
 H9 
A   38
 H10
A   39
 H11
A   40
 H12
A   41
 H13
A   42
 H14
A   43
 H15
A   44
 H16
A   45
 H17
A   46
 H18
A   47
 H19
M  END
>  <ref_pdb>  (342) 
x0051_0B

>  <ref_mols>  (342) 
x0443_0B,x0404_0B

>  <original SMILES>  (342) 
[H]c1c([H])c2c(c(N([H])S(=O)(=O)c3c([H])c([H])c(N4C(=O)C([H])([H])C([H])([H])C4([H])[H])c([H])c3[H])c1[H])OC([H])(C([H])([H])[H])C(=O)N2[H]

>  <index>  (342) 
342

>  <∆∆G>  (342) 
-8.845766

>  <∆G_bound>  (342) 
-8.076844

>  <∆G_unbound>  (342) 
0.768922

>  <comRMSD>  (342) 
0.615505

>  <N_constrained_atoms>  (342) 
26.0

>  <N_unconstrained_atoms>  (342) 
3.0

>  <runtime>  (342) 
77.547989

>  <LE>  (342) 
0.305026

>  <percent_hybrid>  (342) 
43.0

>  <dist>  (342) 
10.0

>  <ecfp4>  (342) 
0.206522

>  <daylight>  (342) 
0.243986

>  <topodist>  (342) 
4.0

>  <mces>  (342) 
29.0

>  <tdn>  (342) 
0.0

>  <tup>  (342) 
1.0

>  <rdn>  (342) 
0.0

>  <rup>  (342) 
0.0

>  <ldn>  (342) 
2.0

>  <lup>  (342) 
1.0

>  <mut>  (342) 
3.0

>  <maj>  (342) 
3.0

>  <min>  (342) 
0.0

>  <hyb>  (342) 
3.0

>  <sub>  (342) 
0.0

>  <query_index>  (342) 
13.0

>  <max_hit_Tanimoto>  (342) 
0.258847

>  <largest_ring>  (342) 
0

>  <N_interactions_kept>  (342) 
2.5

>  <N_interactions_lost>  (342) 
2.0

>  <interaction_uniqueness_metric>  (342) 
0.084571

>  <ad_hoc_penalty>  (342) 
-20.281002

>  <N_rotatable_bonds>  (342) 
5

>  <N_HA>  (342) 
28

>  <cluster>  (342) 
5906

>  <N_interactions>  (342) 
6

>  <Enamine>  (342) 
0

>  <Mcule>  (342) 
1

>  <N_PAINS>  (342) 
0

>  <UFF_Gibbs>  (342) 
193.383806

>  <strain_per_HA>  (342) 
6.906564

>  <saltbridge:HIS:51>  (342) 
0

>  <pistack:HIS:51>  (342) 
1

>  <hydroph_interaction:HIS:51>  (342) 
0

>  <hbond:ALA:132>  (342) 
0

>  <hbond:SER:135>  (342) 
0

>  <hydroph_interaction:TYR:150>  (342) 
1

>  <pistack:TYR:161>  (342) 
0

>  <hydroph_interaction:TYR:161>  (342) 
3

>  <hydroph_interaction:ASP:83>  (342) 
0

>  <hbond:TYR:130>  (342) 
1

>  <hydroph_interaction:ALA:132>  (342) 
0

>  <hbond:HIS:51>  (342) 
0

>  <hbond:ASP:129>  (342) 
0

>  <hbond:TYR:150>  (342) 
0

>  <hbond:GLY:151>  (342) 
0

>  <hbond:TYR:161>  (342) 
0

>  <hydroph_interaction:TYR:130>  (342) 
0

>  <hydroph_interaction:PRO:131>  (342) 
0

>  <hydroph_interaction:ASP:129>  (342) 
0

>  <saltbridge:ASP:75>  (342) 
0

>  <saltbridge:ASP:83>  (342) 
0

>  <hydroph_interaction:ASN:152>  (342) 
0

>  <halogenbond:TYR:150>  (342) 
0

>  <hbond:ASP:83>  (342) 
0

>  <hydroph_interaction:VAL:155>  (342) 
0

>  <pication:TYR:161>  (342) 
0

>  <hbond:PRO:131>  (342) 
0

>  <hbond:LEU:128>  (342) 
0

>  <saltbridge:ASP:129>  (342) 
0

>  <hbond:THR:134>  (342) 
0

>  <pication:HIS:51>  (342) 
0

>  <hbond:SER:81>  (342) 
0

>  <hbond:GLY:159>  (342) 
0

>  <hydroph_interaction:PRO:101>  (342) 
0

>  <hydroph_interaction:THR:134>  (342) 
0

>  <hbond:GLY:82>  (342) 
0

>  <hydroph_interaction:GLU:104>  (342) 
0

>  <hydroph_interaction:VAL:36>  (342) 
0

>  <hydroph_interaction:MET:49>  (342) 
0

>  <halogenbond:GLU:104>  (342) 
0

>  <hydroph_interaction:LYS:107>  (342) 
0

$$$$
POXRGQCLZZHBFZ-UHFFFAOYSA-N
     RDKit          3D

 40 42  0  0  0  0  0  0  0  0999 V2000
   -9.0810    4.8110  -13.5100 N   0  0  0  0  0  0  0  0  0  0  0  0
   -9.7590    5.2280  -14.7970 C   0  0  0  0  0  0  0  0  0  0  0  0
   -8.8420    5.2350  -16.0510 C   0  0  0  0  0  0  0  0  0  0  0  0
   -9.1750    5.0590  -17.4500 C   0  0  0  0  0  0  0  0  0  0  0  0
  -10.7100    4.7800  -18.1610 Cl  0  0  0  0  0  0  0  0  0  0  0  0
   -8.1980    5.1230  -18.4290 C   0  0  0  0  0  0  0  0  0  0  0  0
   -6.8770    5.3550  -18.1060 C   0  0  0  0  0  0  0  0  0  0  0  0
   -5.8410    5.4290  -19.1830 C   0  0  0  0  0  0  0  0  0  0  0  0
   -6.5240    5.5180  -16.7760 C   0  0  0  0  0  0  0  0  0  0  0  0
   -7.4950    5.4570  -15.7770 C   0  0  0  0  0  0  0  0  0  0  0  0
   -8.8180    5.8960  -12.5160 C   0  0  0  0  0  0  0  0  0  0  0  0
   -8.8780    5.6060  -11.0070 C   0  0  0  0  0  0  0  0  0  0  0  0
   -8.9920    4.4410  -10.2190 C   0  0  0  0  0  0  0  0  0  0  0  0
   -8.9870    4.8660   -8.9080 N   0  0  0  0  0  0  0  0  0  0  0  0
   -9.0860    4.0320   -7.7300 C   0  0  0  0  0  0  0  0  0  0  0  0
   -9.7010    2.6610   -7.9930 C   0  0  0  0  0  0  0  0  0  0  0  0
   -9.3830    2.0460   -9.3640 C   0  0  0  0  0  0  0  0  0  0  0  0
   -9.1000    2.9910  -10.5480 C   0  0  0  0  0  0  0  0  0  0  0  0
   -8.8760    6.1870   -8.7650 N   0  0  0  0  0  0  0  0  0  0  0  0
   -8.8140    6.6290  -10.0170 C   0  0  0  0  0  0  0  0  0  0  0  0
   -9.4080    3.9840  -13.0290 H   0  0  0  0  0  0  0  0  0  0  0  0
  -10.6420    4.6200  -14.9960 H   0  0  0  0  0  0  0  0  0  0  0  0
  -10.1560    6.2460  -14.6750 H   0  0  0  0  0  0  0  0  0  0  0  0
   -8.4820    4.9930  -19.4740 H   0  0  0  0  0  0  0  0  0  0  0  0
   -5.7080    6.4690  -19.4990 H   0  0  0  0  0  0  0  0  0  0  0  0
   -4.8810    5.0380  -18.8320 H   0  0  0  0  0  0  0  0  0  0  0  0
   -6.1540    4.8360  -20.0510 H   0  0  0  0  0  0  0  0  0  0  0  0
   -5.4870    5.6980  -16.4990 H   0  0  0  0  0  0  0  0  0  0  0  0
   -7.1780    5.5930  -14.7430 H   0  0  0  0  0  0  0  0  0  0  0  0
   -9.5660    6.6750  -12.7140 H   0  0  0  0  0  0  0  0  0  0  0  0
   -7.8610    6.3710  -12.7550 H   0  0  0  0  0  0  0  0  0  0  0  0
   -8.0720    3.9330   -7.3400 H   0  0  0  0  0  0  0  0  0  0  0  0
   -9.6860    4.5710   -6.9900 H   0  0  0  0  0  0  0  0  0  0  0  0
  -10.7870    2.7240   -7.8850 H   0  0  0  0  0  0  0  0  0  0  0  0
   -9.3600    1.9740   -7.2110 H   0  0  0  0  0  0  0  0  0  0  0  0
   -8.5540    1.3550   -9.2660 H   0  0  0  0  0  0  0  0  0  0  0  0
  -10.2380    1.4300   -9.6370 H   0  0  0  0  0  0  0  0  0  0  0  0
   -9.8980    2.8680  -11.2900 H   0  0  0  0  0  0  0  0  0  0  0  0
   -8.1770    2.6560  -11.0350 H   0  0  0  0  0  0  0  0  0  0  0  0
   -8.7210    7.6950  -10.1740 H   0  0  0  0  0  0  0  0  0  0  0  0
  1  2  1  0
  2  3  1  0
  3  4  2  0
  4  5  1  0
  4  6  1  0
  6  7  2  0
  7  8  1  0
  7  9  1  0
  9 10  2  0
  1 11  1  0
 11 12  1  0
 12 13  2  0
 13 14  1  0
 14 15  1  0
 15 16  1  0
 16 17  1  0
 17 18  1  0
 14 19  1  0
 19 20  2  0
 10  3  1  0
 20 12  1  0
 18 13  1  0
  1 21  1  0
  2 22  1  0
  2 23  1  0
  6 24  1  0
  8 25  1  0
  8 26  1  0
  8 27  1  0
  9 28  1  0
 10 29  1  0
 11 30  1  0
 11 31  1  0
 15 32  1  0
 15 33  1  0
 16 34  1  0
 16 35  1  0
 17 36  1  0
 17 37  1  0
 18 38  1  0
 18 39  1  0
 20 40  1  0
A    1
 N1 
A    2
 C1 
A    3
 C2 
A    4
 C3 
A    5
CL1 
A    6
 C4 
A    7
 C5 
A    8
 C6 
A    9
 C7 
A   10
 C8 
A   11
 C9 
A   12
 C10
A   13
 C11
A   14
 N2 
A   15
 C12
A   16
 C13
A   17
 C14
A   18
 C15
A   19
 N3 
A   20
 C16
A   21
 H1 
A   22
 H2 
A   23
 H3 
A   24
 H4 
A   25
 H5 
A   26
 H6 
A   27
 H7 
A   28
 H8 
A   29
 H9 
A   30
 H10
A   31
 H11
A   32
 H12
A   33
 H13
A   34
 H14
A   35
 H15
A   36
 H16
A   37
 H17
A   38
 H18
A   39
 H19
A   40
 H20
M  END
>  <ref_pdb>  (343) 
x0051_0B

>  <ref_mols>  (343) 
x0589_0B,x0969_1B

>  <original SMILES>  (343) 
[H]c1nn2c(c1C([H])([H])N([H])C([H])([H])c1c([H])c([H])c(C([H])([H])[H])c([H])c1Cl)C([H])([H])C([H])([H])C([H])([H])C2([H])[H]

>  <index>  (343) 
666

>  <∆∆G>  (343) 
-5.777128

>  <∆G_bound>  (343) 
-4.983651

>  <∆G_unbound>  (343) 
0.793477

>  <comRMSD>  (343) 
0.59031

>  <N_constrained_atoms>  (343) 
18.0

>  <N_unconstrained_atoms>  (343) 
2.0

>  <runtime>  (343) 
55.309023

>  <LE>  (343) 
0.288856

>  <percent_hybrid>  (343) 
45.0

>  <dist>  (343) 
6.0

>  <ecfp4>  (343) 
0.347222

>  <daylight>  (343) 
0.333333

>  <topodist>  (343) 
2.0

>  <mces>  (343) 
21.0

>  <tdn>  (343) 
0.0

>  <tup>  (343) 
0.0

>  <rdn>  (343) 
0.0

>  <rup>  (343) 
0.0

>  <ldn>  (343) 
1.0

>  <lup>  (343) 
1.0

>  <mut>  (343) 
4.0

>  <maj>  (343) 
3.0

>  <min>  (343) 
1.0

>  <hyb>  (343) 
0.0

>  <sub>  (343) 
0.0

>  <query_index>  (343) 
379.0

>  <max_hit_Tanimoto>  (343) 
0.363946

>  <largest_ring>  (343) 
6

>  <N_interactions_kept>  (343) 
1.0

>  <N_interactions_lost>  (343) 
1.5

>  <interaction_uniqueness_metric>  (343) 
0.147945

>  <ad_hoc_penalty>  (343) 
-20.278572

>  <N_rotatable_bonds>  (343) 
5

>  <N_HA>  (343) 
20

>  <cluster>  (343) 
5608

>  <N_interactions>  (343) 
6

>  <Enamine>  (343) 
0

>  <Mcule>  (343) 
1

>  <N_PAINS>  (343) 
0

>  <UFF_Gibbs>  (343) 
59.513039

>  <strain_per_HA>  (343) 
2.975652

>  <saltbridge:HIS:51>  (343) 
0

>  <pistack:HIS:51>  (343) 
1

>  <hydroph_interaction:HIS:51>  (343) 
1

>  <hbond:ALA:132>  (343) 
0

>  <hbond:SER:135>  (343) 
0

>  <hydroph_interaction:TYR:150>  (343) 
0

>  <pistack:TYR:161>  (343) 
1

>  <hydroph_interaction:TYR:161>  (343) 
1

>  <hydroph_interaction:ASP:83>  (343) 
0

>  <hbond:TYR:130>  (343) 
0

>  <hydroph_interaction:ALA:132>  (343) 
0

>  <hbond:HIS:51>  (343) 
0

>  <hbond:ASP:129>  (343) 
0

>  <hbond:TYR:150>  (343) 
0

>  <hbond:GLY:151>  (343) 
0

>  <hbond:TYR:161>  (343) 
2

>  <hydroph_interaction:TYR:130>  (343) 
0

>  <hydroph_interaction:PRO:131>  (343) 
0

>  <hydroph_interaction:ASP:129>  (343) 
0

>  <saltbridge:ASP:75>  (343) 
0

>  <saltbridge:ASP:83>  (343) 
0

>  <hydroph_interaction:ASN:152>  (343) 
0

>  <halogenbond:TYR:150>  (343) 
0

>  <hbond:ASP:83>  (343) 
0

>  <hydroph_interaction:VAL:155>  (343) 
0

>  <pication:TYR:161>  (343) 
0

>  <hbond:PRO:131>  (343) 
0

>  <hbond:LEU:128>  (343) 
0

>  <saltbridge:ASP:129>  (343) 
0

>  <hbond:THR:134>  (343) 
0

>  <pication:HIS:51>  (343) 
0

>  <hbond:SER:81>  (343) 
0

>  <hbond:GLY:159>  (343) 
0

>  <hydroph_interaction:PRO:101>  (343) 
0

>  <hydroph_interaction:THR:134>  (343) 
0

>  <hbond:GLY:82>  (343) 
0

>  <hydroph_interaction:GLU:104>  (343) 
0

>  <hydroph_interaction:VAL:36>  (343) 
0

>  <hydroph_interaction:MET:49>  (343) 
0

>  <halogenbond:GLU:104>  (343) 
0

>  <hydroph_interaction:LYS:107>  (343) 
0

$$$$
CSSB00020651157
     RDKit          3D

 40 42  0  0  0  0  0  0  0  0999 V2000
   -8.9880    8.6490  -13.7560 O   0  0  0  0  0  0  0  0  0  0  0  0
   -9.2260    7.4340  -13.7140 C   0  0  0  0  0  0  0  0  0  0  0  0
   -9.6750    6.5940  -14.8650 C   0  0  0  0  0  0  0  0  0  0  0  0
   -8.6270    5.9480  -15.5760 C   0  0  0  0  0  0  0  0  0  0  0  0
   -8.9560    5.4220  -16.8060 C   0  0  0  0  0  0  0  0  0  0  0  0
   -8.1380    5.2120  -17.9060 C   0  0  0  0  0  0  0  0  0  0  0  0
   -8.9530    4.6860  -18.8960 C   0  0  0  0  0  0  0  0  0  0  0  0
  -10.2540    4.5860  -18.3680 C   0  0  0  0  0  0  0  0  0  0  0  0
  -10.2320    5.0340  -17.0840 O   0  0  0  0  0  0  0  0  0  0  0  0
   -9.0560    6.6690  -12.4640 C   0  0  0  0  0  0  0  0  0  0  0  0
   -8.8880    7.2440  -11.2140 C   0  0  0  0  0  0  0  0  0  0  0  0
   -8.7430    6.4190  -10.0940 C   0  0  0  0  0  0  0  0  0  0  0  0
   -8.7610    5.0180  -10.1950 C   0  0  0  0  0  0  0  0  0  0  0  0
   -8.9280    4.4720  -11.4670 C   0  0  0  0  0  0  0  0  0  0  0  0
   -9.0740    5.2780  -12.5880 C   0  0  0  0  0  0  0  0  0  0  0  0
   -8.6260    4.2330   -9.1280 N   0  0  0  0  0  0  0  0  0  0  0  0
   -8.9370    2.7950   -9.2130 C   0  0  0  0  0  0  0  0  0  0  0  0
   -9.6560    2.3560   -7.9380 C   0  0  0  0  0  0  0  0  0  0  0  0
   -8.9450    2.7180   -6.7560 O   0  0  0  0  0  0  0  0  0  0  0  0
   -8.7880    4.1300   -6.6640 C   0  0  0  0  0  0  0  0  0  0  0  0
   -8.0440    4.7230   -7.8660 C   0  0  0  0  0  0  0  0  0  0  0  0
  -10.3470    5.8150  -14.4820 H   0  0  0  0  0  0  0  0  0  0  0  0
  -10.2630    7.2180  -15.5350 H   0  0  0  0  0  0  0  0  0  0  0  0
   -7.8810    6.7200  -15.7900 H   0  0  0  0  0  0  0  0  0  0  0  0
   -8.0490    5.2520  -14.9690 H   0  0  0  0  0  0  0  0  0  0  0  0
   -7.0770    5.4290  -17.9600 H   0  0  0  0  0  0  0  0  0  0  0  0
   -8.6610    4.4020  -19.8980 H   0  0  0  0  0  0  0  0  0  0  0  0
  -11.2100    4.2570  -18.7160 H   0  0  0  0  0  0  0  0  0  0  0  0
   -8.8680    8.3200  -11.0680 H   0  0  0  0  0  0  0  0  0  0  0  0
   -8.6170    6.9020   -9.1300 H   0  0  0  0  0  0  0  0  0  0  0  0
   -8.9510    3.3950  -11.6190 H   0  0  0  0  0  0  0  0  0  0  0  0
   -9.2040    4.8080  -13.5610 H   0  0  0  0  0  0  0  0  0  0  0  0
   -9.6030    2.5780  -10.0580 H   0  0  0  0  0  0  0  0  0  0  0  0
   -8.0080    2.2270   -9.3370 H   0  0  0  0  0  0  0  0  0  0  0  0
  -10.6500    2.8100   -7.8800 H   0  0  0  0  0  0  0  0  0  0  0  0
   -9.8000    1.2780   -7.9310 H   0  0  0  0  0  0  0  0  0  0  0  0
   -9.7890    4.5680   -6.5770 H   0  0  0  0  0  0  0  0  0  0  0  0
   -8.2520    4.3450   -5.7320 H   0  0  0  0  0  0  0  0  0  0  0  0
   -6.9900    4.4340   -7.7790 H   0  0  0  0  0  0  0  0  0  0  0  0
   -8.1140    5.8160   -7.8420 H   0  0  0  0  0  0  0  0  0  0  0  0
  1  2  2  0
  2  3  1  0
  3  4  1  0
  4  5  1  0
  5  6  2  0
  6  7  1  0
  7  8  2  0
  8  9  1  0
  2 10  1  0
 10 11  2  0
 11 12  1  0
 12 13  2  0
 13 14  1  0
 14 15  2  0
 13 16  1  0
 16 17  1  0
 17 18  1  0
 18 19  1  0
 19 20  1  0
 20 21  1  0
  9  5  1  0
 15 10  1  0
 21 16  1  0
  3 22  1  0
  3 23  1  0
  4 24  1  0
  4 25  1  0
  6 26  1  0
  7 27  1  0
  8 28  1  0
 11 29  1  0
 12 30  1  0
 14 31  1  0
 15 32  1  0
 17 33  1  0
 17 34  1  0
 18 35  1  0
 18 36  1  0
 20 37  1  0
 20 38  1  0
 21 39  1  0
 21 40  1  0
A    1
 O1 
A    2
 C1 
A    3
 C2 
A    4
 C3 
A    5
 C4 
A    6
 C5 
A    7
 C6 
A    8
 C7 
A    9
 O2 
A   10
 C8 
A   11
 C9 
A   12
 C10
A   13
 C11
A   14
 C12
A   15
 C13
A   16
 N1 
A   17
 C14
A   18
 C15
A   19
 O3 
A   20
 C16
A   21
 C17
A   22
 H1 
A   23
 H2 
A   24
 H3 
A   25
 H4 
A   26
 H5 
A   27
 H6 
A   28
 H7 
A   29
 H8 
A   30
 H9 
A   31
 H10
A   32
 H11
A   33
 H12
A   34
 H13
A   35
 H14
A   36
 H15
A   37
 H16
A   38
 H17
A   39
 H18
A   40
 H19
M  END
>  <ref_pdb>  (344) 
x0051_0B

>  <ref_mols>  (344) 
x0386_0B,x0404_0B

>  <original SMILES>  (344) 
[H]c1oc(C([H])([H])C([H])([H])C(=O)c2c([H])c([H])c(N3C([H])([H])C([H])([H])OC([H])([H])C3([H])[H])c([H])c2[H])c([H])c1[H]

>  <index>  (344) 
516

>  <∆∆G>  (344) 
-6.008296

>  <∆G_bound>  (344) 
-5.516335

>  <∆G_unbound>  (344) 
0.491961

>  <comRMSD>  (344) 
0.605501

>  <N_constrained_atoms>  (344) 
22.0

>  <N_unconstrained_atoms>  (344) 
0.0

>  <runtime>  (344) 
56.832074

>  <LE>  (344) 
0.273104

>  <percent_hybrid>  (344) 
28.0

>  <dist>  (344) 
8.0

>  <ecfp4>  (344) 
0.213333

>  <daylight>  (344) 
0.18107

>  <topodist>  (344) 
3.0

>  <mces>  (344) 
23.0

>  <tdn>  (344) 
3.0

>  <tup>  (344) 
0.0

>  <rdn>  (344) 
0.0

>  <rup>  (344) 
0.0

>  <ldn>  (344) 
0.0

>  <lup>  (344) 
0.0

>  <mut>  (344) 
5.0

>  <maj>  (344) 
5.0

>  <min>  (344) 
0.0

>  <hyb>  (344) 
0.0

>  <sub>  (344) 
1.0

>  <query_index>  (344) 
109.0

>  <max_hit_Tanimoto>  (344) 
0.242138

>  <largest_ring>  (344) 
6

>  <N_interactions_kept>  (344) 
2.0

>  <N_interactions_lost>  (344) 
1.5

>  <interaction_uniqueness_metric>  (344) 
0.116545

>  <ad_hoc_penalty>  (344) 
-20.275971

>  <N_rotatable_bonds>  (344) 
5

>  <N_HA>  (344) 
21

>  <cluster>  (344) 
5748

>  <N_interactions>  (344) 
6

>  <Enamine>  (344) 
1

>  <Mcule>  (344) 
0

>  <N_PAINS>  (344) 
0

>  <UFF_Gibbs>  (344) 
99.16094

>  <strain_per_HA>  (344) 
4.72195

>  <saltbridge:HIS:51>  (344) 
0

>  <pistack:HIS:51>  (344) 
1

>  <hydroph_interaction:HIS:51>  (344) 
1

>  <hbond:ALA:132>  (344) 
0

>  <hbond:SER:135>  (344) 
0

>  <hydroph_interaction:TYR:150>  (344) 
1

>  <pistack:TYR:161>  (344) 
0

>  <hydroph_interaction:TYR:161>  (344) 
2

>  <hydroph_interaction:ASP:83>  (344) 
0

>  <hbond:TYR:130>  (344) 
0

>  <hydroph_interaction:ALA:132>  (344) 
1

>  <hbond:HIS:51>  (344) 
0

>  <hbond:ASP:129>  (344) 
0

>  <hbond:TYR:150>  (344) 
0

>  <hbond:GLY:151>  (344) 
0

>  <hbond:TYR:161>  (344) 
0

>  <hydroph_interaction:TYR:130>  (344) 
0

>  <hydroph_interaction:PRO:131>  (344) 
0

>  <hydroph_interaction:ASP:129>  (344) 
0

>  <saltbridge:ASP:75>  (344) 
0

>  <saltbridge:ASP:83>  (344) 
0

>  <hydroph_interaction:ASN:152>  (344) 
0

>  <halogenbond:TYR:150>  (344) 
0

>  <hbond:ASP:83>  (344) 
0

>  <hydroph_interaction:VAL:155>  (344) 
0

>  <pication:TYR:161>  (344) 
0

>  <hbond:PRO:131>  (344) 
0

>  <hbond:LEU:128>  (344) 
0

>  <saltbridge:ASP:129>  (344) 
0

>  <hbond:THR:134>  (344) 
0

>  <pication:HIS:51>  (344) 
0

>  <hbond:SER:81>  (344) 
0

>  <hbond:GLY:159>  (344) 
0

>  <hydroph_interaction:PRO:101>  (344) 
0

>  <hydroph_interaction:THR:134>  (344) 
0

>  <hbond:GLY:82>  (344) 
0

>  <hydroph_interaction:GLU:104>  (344) 
0

>  <hydroph_interaction:VAL:36>  (344) 
0

>  <hydroph_interaction:MET:49>  (344) 
0

>  <halogenbond:GLU:104>  (344) 
0

>  <hydroph_interaction:LYS:107>  (344) 
0

$$$$
MCULE-8625907228
     RDKit          3D

 44 47  0  0  0  0  0  0  0  0999 V2000
   -7.8140    7.2590  -14.5480 O   0  0  0  0  0  0  0  0  0  0  0  0
   -7.3560    5.9610  -15.0310 C   0  0  0  0  0  0  0  0  0  0  0  0
   -8.0260    5.5000  -16.3610 C   0  0  0  0  0  0  0  0  0  0  0  0
   -9.3780    5.1660  -16.4600 C   0  0  0  0  0  0  0  0  0  0  0  0
  -10.0040    4.7630  -17.6420 C   0  0  0  0  0  0  0  0  0  0  0  0
   -9.2540    4.6780  -18.8080 C   0  0  0  0  0  0  0  0  0  0  0  0
   -7.9040    5.0040  -18.7260 C   0  0  0  0  0  0  0  0  0  0  0  0
   -7.0260    4.9760  -19.7570 O   0  0  0  0  0  0  0  0  0  0  0  0
   -5.8730    5.5740  -19.1470 C   0  0  0  0  0  0  0  0  0  0  0  0
   -5.9860    5.6570  -17.7110 O   0  0  0  0  0  0  0  0  0  0  0  0
   -7.3100    5.3980  -17.5430 C   0  0  0  0  0  0  0  0  0  0  0  0
   -9.0230    7.2240  -13.9610 C   0  0  0  0  0  0  0  0  0  0  0  0
   -8.9520    6.5400  -12.7450 C   0  0  0  0  0  0  0  0  0  0  0  0
   -8.7830    7.2090  -11.5240 C   0  0  0  0  0  0  0  0  0  0  0  0
   -8.7130    6.4910  -10.3320 C   0  0  0  0  0  0  0  0  0  0  0  0
   -8.8150    4.9990  -10.3480 C   0  0  0  0  0  0  0  0  0  0  0  0
   -8.7490    4.2440   -9.1990 N   0  0  0  0  0  0  0  0  0  0  0  0
   -9.0020    2.7940   -9.2440 C   0  0  0  0  0  0  0  0  0  0  0  0
   -9.6840    2.3550   -7.9530 C   0  0  0  0  0  0  0  0  0  0  0  0
   -8.9690    2.7560   -6.7860 O   0  0  0  0  0  0  0  0  0  0  0  0
   -8.8290    4.1730   -6.7200 C   0  0  0  0  0  0  0  0  0  0  0  0
   -8.1400    4.7650   -7.9590 C   0  0  0  0  0  0  0  0  0  0  0  0
   -8.9840    4.4000  -11.6050 C   0  0  0  0  0  0  0  0  0  0  0  0
   -9.0530    5.1500  -12.7820 C   0  0  0  0  0  0  0  0  0  0  0  0
  -10.0360    7.6920  -14.4160 O   0  0  0  0  0  0  0  0  0  0  0  0
   -6.2740    6.0430  -15.1970 H   0  0  0  0  0  0  0  0  0  0  0  0
   -7.4740    5.1820  -14.2700 H   0  0  0  0  0  0  0  0  0  0  0  0
   -9.9870    5.2270  -15.5560 H   0  0  0  0  0  0  0  0  0  0  0  0
  -11.0580    4.5270  -17.6320 H   0  0  0  0  0  0  0  0  0  0  0  0
   -9.6980    4.3720  -19.7480 H   0  0  0  0  0  0  0  0  0  0  0  0
   -5.8240    6.5910  -19.5250 H   0  0  0  0  0  0  0  0  0  0  0  0
   -5.0180    4.9460  -19.3710 H   0  0  0  0  0  0  0  0  0  0  0  0
   -8.7040    8.2890  -11.4830 H   0  0  0  0  0  0  0  0  0  0  0  0
   -8.5830    7.0470   -9.4070 H   0  0  0  0  0  0  0  0  0  0  0  0
   -8.0750    2.2220   -9.3960 H   0  0  0  0  0  0  0  0  0  0  0  0
   -9.6750    2.5660  -10.0780 H   0  0  0  0  0  0  0  0  0  0  0  0
  -10.6910    2.7740   -7.8890 H   0  0  0  0  0  0  0  0  0  0  0  0
   -9.7910    1.2730   -7.9300 H   0  0  0  0  0  0  0  0  0  0  0  0
   -8.2480    4.3960   -5.8180 H   0  0  0  0  0  0  0  0  0  0  0  0
   -9.8360    4.5940   -6.6090 H   0  0  0  0  0  0  0  0  0  0  0  0
   -7.0870    4.5020   -7.9030 H   0  0  0  0  0  0  0  0  0  0  0  0
   -8.2320    5.8590   -7.9480 H   0  0  0  0  0  0  0  0  0  0  0  0
   -9.0680    3.3180  -11.7020 H   0  0  0  0  0  0  0  0  0  0  0  0
   -9.1860    4.6360  -13.7320 H   0  0  0  0  0  0  0  0  0  0  0  0
  1  2  1  0
  2  3  1  0
  3  4  2  0
  4  5  1  0
  5  6  2  0
  6  7  1  0
  7  8  1  0
  8  9  1  0
  9 10  1  0
 10 11  1  0
  1 12  1  0
 12 13  1  0
 13 14  2  0
 14 15  1  0
 15 16  2  0
 16 17  1  0
 17 18  1  0
 18 19  1  0
 19 20  1  0
 20 21  1  0
 21 22  1  0
 16 23  1  0
 23 24  2  0
 12 25  2  0
  3 11  1  0
 11  7  2  0
 13 24  1  0
 22 17  1  0
  2 26  1  0
  2 27  1  0
  4 28  1  0
  5 29  1  0
  6 30  1  0
  9 31  1  0
  9 32  1  0
 14 33  1  0
 15 34  1  0
 18 35  1  0
 18 36  1  0
 19 37  1  0
 19 38  1  0
 21 39  1  0
 21 40  1  0
 22 41  1  0
 22 42  1  0
 23 43  1  0
 24 44  1  0
A    1
 O1 
A    2
 C1 
A    3
 C2 
A    4
 C3 
A    5
 C4 
A    6
 C5 
A    7
 C6 
A    8
 O2 
A    9
 C7 
A   10
 O3 
A   11
 C8 
A   12
 C9 
A   13
 C10
A   14
 C11
A   15
 C12
A   16
 C13
A   17
 N1 
A   18
 C14
A   19
 C15
A   20
 O4 
A   21
 C16
A   22
 C17
A   23
 C18
A   24
 C19
A   25
 O5 
A   26
 H1 
A   27
 H2 
A   28
 H3 
A   29
 H4 
A   30
 H5 
A   31
 H6 
A   32
 H7 
A   33
 H8 
A   34
 H9 
A   35
 H10
A   36
 H11
A   37
 H12
A   38
 H13
A   39
 H14
A   40
 H15
A   41
 H16
A   42
 H17
A   43
 H18
A   44
 H19
M  END
>  <ref_pdb>  (345) 
x0051_0B

>  <ref_mols>  (345) 
x0089_0B,x0404_0B

>  <original SMILES>  (345) 
[H]c1c([H])c2c(c(C([H])([H])OC(=O)c3c([H])c([H])c(N4C([H])([H])C([H])([H])OC([H])([H])C4([H])[H])c([H])c3[H])c1[H])OC([H])([H])O2

>  <index>  (345) 
662

>  <∆∆G>  (345) 
-7.3429

>  <∆G_bound>  (345) 
-6.744654

>  <∆G_unbound>  (345) 
0.598245

>  <comRMSD>  (345) 
0.616007

>  <N_constrained_atoms>  (345) 
25.0

>  <N_unconstrained_atoms>  (345) 
1.0

>  <runtime>  (345) 
276.328109

>  <LE>  (345) 
0.282419

>  <percent_hybrid>  (345) 
40.0

>  <dist>  (345) 
12.0

>  <ecfp4>  (345) 
0.214286

>  <daylight>  (345) 
0.155556

>  <topodist>  (345) 
5.0

>  <mces>  (345) 
28.0

>  <tdn>  (345) 
5.0

>  <tup>  (345) 
0.0

>  <rdn>  (345) 
0.0

>  <rup>  (345) 
0.0

>  <ldn>  (345) 
0.0

>  <lup>  (345) 
0.0

>  <mut>  (345) 
6.0

>  <maj>  (345) 
6.0

>  <min>  (345) 
0.0

>  <hyb>  (345) 
1.0

>  <sub>  (345) 
0.0

>  <query_index>  (345) 
3.0

>  <max_hit_Tanimoto>  (345) 
0.217337

>  <largest_ring>  (345) 
6

>  <N_interactions_kept>  (345) 
2.0

>  <N_interactions_lost>  (345) 
2.5

>  <interaction_uniqueness_metric>  (345) 
0.201043

>  <ad_hoc_penalty>  (345) 
-20.272835

>  <N_rotatable_bonds>  (345) 
4

>  <N_HA>  (345) 
25

>  <cluster>  (345) 
5612

>  <N_interactions>  (345) 
6

>  <Enamine>  (345) 
0

>  <Mcule>  (345) 
1

>  <N_PAINS>  (345) 
0

>  <UFF_Gibbs>  (345) 
87.351581

>  <strain_per_HA>  (345) 
3.494063

>  <saltbridge:HIS:51>  (345) 
1

>  <pistack:HIS:51>  (345) 
1

>  <hydroph_interaction:HIS:51>  (345) 
1

>  <hbond:ALA:132>  (345) 
0

>  <hbond:SER:135>  (345) 
0

>  <hydroph_interaction:TYR:150>  (345) 
1

>  <pistack:TYR:161>  (345) 
0

>  <hydroph_interaction:TYR:161>  (345) 
1

>  <hydroph_interaction:ASP:83>  (345) 
0

>  <hbond:TYR:130>  (345) 
0

>  <hydroph_interaction:ALA:132>  (345) 
1

>  <hbond:HIS:51>  (345) 
0

>  <hbond:ASP:129>  (345) 
0

>  <hbond:TYR:150>  (345) 
0

>  <hbond:GLY:151>  (345) 
0

>  <hbond:TYR:161>  (345) 
0

>  <hydroph_interaction:TYR:130>  (345) 
0

>  <hydroph_interaction:PRO:131>  (345) 
0

>  <hydroph_interaction:ASP:129>  (345) 
0

>  <saltbridge:ASP:75>  (345) 
0

>  <saltbridge:ASP:83>  (345) 
0

>  <hydroph_interaction:ASN:152>  (345) 
0

>  <halogenbond:TYR:150>  (345) 
0

>  <hbond:ASP:83>  (345) 
0

>  <hydroph_interaction:VAL:155>  (345) 
0

>  <pication:TYR:161>  (345) 
0

>  <hbond:PRO:131>  (345) 
0

>  <hbond:LEU:128>  (345) 
0

>  <saltbridge:ASP:129>  (345) 
0

>  <hbond:THR:134>  (345) 
0

>  <pication:HIS:51>  (345) 
0

>  <hbond:SER:81>  (345) 
0

>  <hbond:GLY:159>  (345) 
0

>  <hydroph_interaction:PRO:101>  (345) 
0

>  <hydroph_interaction:THR:134>  (345) 
0

>  <hbond:GLY:82>  (345) 
0

>  <hydroph_interaction:GLU:104>  (345) 
0

>  <hydroph_interaction:VAL:36>  (345) 
0

>  <hydroph_interaction:MET:49>  (345) 
0

>  <halogenbond:GLU:104>  (345) 
0

>  <hydroph_interaction:LYS:107>  (345) 
0

$$$$
Z3100974166
     RDKit          3D

 43 46  0  0  0  0  0  0  0  0999 V2000
   -7.7690    7.1640  -12.2070 O   0  0  0  0  0  0  0  0  0  0  0  0
   -8.4530    6.1770  -11.9590 C   0  0  0  0  0  0  0  0  0  0  0  0
   -9.0050    5.4300  -12.9920 N   0  0  0  0  0  0  0  0  0  0  0  0
   -8.8170    5.8400  -14.3170 C   0  0  0  0  0  0  0  0  0  0  0  0
   -7.9360    5.0260  -15.0630 C   0  0  0  0  0  0  0  0  0  0  0  0
   -6.5680    5.3710  -15.0260 C   0  0  0  0  0  0  0  0  0  0  0  0
   -6.0260    6.1070  -16.0860 C   0  0  0  0  0  0  0  0  0  0  0  0
   -6.2180    5.5140  -17.3630 O   0  0  0  0  0  0  0  0  0  0  0  0
   -7.5160    5.2410  -17.5850 C   0  0  0  0  0  0  0  0  0  0  0  0
   -7.9600    5.2010  -19.0310 C   0  0  0  0  0  0  0  0  0  0  0  0
   -9.4740    4.8860  -19.2760 C   0  0  0  0  0  0  0  0  0  0  0  0
  -10.2580    4.6810  -18.1470 C   0  0  0  0  0  0  0  0  0  0  0  0
   -9.7360    4.7410  -16.8760 C   0  0  0  0  0  0  0  0  0  0  0  0
   -8.3950    5.0080  -16.5220 C   0  0  0  0  0  0  0  0  0  0  0  0
   -8.6720    5.8130  -10.5510 C   0  0  0  0  0  0  0  0  0  0  0  0
   -8.9480    4.5130   -9.8750 C   0  0  0  0  0  0  0  0  0  0  0  0
   -9.0970    3.1310  -10.4480 C   0  0  0  0  0  0  0  0  0  0  0  0
   -9.0060    2.1670   -9.3440 N   0  0  0  0  0  0  0  0  0  0  0  0
   -9.7760    2.5760   -8.1450 C   0  0  0  0  0  0  0  0  0  0  0  0
   -9.3140    3.7550   -7.5480 C   0  0  0  0  0  0  0  0  0  0  0  0
   -9.0500    4.7700   -8.5520 N   0  0  0  0  0  0  0  0  0  0  0  0
   -8.8850    6.0520   -8.2440 N   0  0  0  0  0  0  0  0  0  0  0  0
   -8.6630    6.6710   -9.4200 C   0  0  0  0  0  0  0  0  0  0  0  0
   -9.7680    4.7990  -12.7880 H   0  0  0  0  0  0  0  0  0  0  0  0
   -8.4080    6.8570  -14.2820 H   0  0  0  0  0  0  0  0  0  0  0  0
   -9.8000    5.8850  -14.8050 H   0  0  0  0  0  0  0  0  0  0  0  0
   -8.0590    3.9870  -14.7860 H   0  0  0  0  0  0  0  0  0  0  0  0
   -6.2650    5.7530  -14.0550 H   0  0  0  0  0  0  0  0  0  0  0  0
   -6.0680    4.4010  -15.0560 H   0  0  0  0  0  0  0  0  0  0  0  0
   -6.4670    7.1090  -16.1110 H   0  0  0  0  0  0  0  0  0  0  0  0
   -4.9470    6.2420  -15.9740 H   0  0  0  0  0  0  0  0  0  0  0  0
   -7.1760    5.3970  -19.7700 H   0  0  0  0  0  0  0  0  0  0  0  0
   -9.8900    4.8350  -20.2800 H   0  0  0  0  0  0  0  0  0  0  0  0
  -11.3110    4.4660  -18.2860 H   0  0  0  0  0  0  0  0  0  0  0  0
  -10.3560    4.5740  -15.9900 H   0  0  0  0  0  0  0  0  0  0  0  0
   -8.3330    2.9120  -11.1990 H   0  0  0  0  0  0  0  0  0  0  0  0
  -10.0720    3.0200  -10.9320 H   0  0  0  0  0  0  0  0  0  0  0  0
   -8.0230    2.1170   -9.1050 H   0  0  0  0  0  0  0  0  0  0  0  0
  -10.8140    2.7230   -8.4380 H   0  0  0  0  0  0  0  0  0  0  0  0
   -9.7800    1.7650   -7.4080 H   0  0  0  0  0  0  0  0  0  0  0  0
  -10.0560    4.1480   -6.8480 H   0  0  0  0  0  0  0  0  0  0  0  0
   -8.3750    3.5870   -7.0150 H   0  0  0  0  0  0  0  0  0  0  0  0
   -8.5000    7.7390   -9.3940 H   0  0  0  0  0  0  0  0  0  0  0  0
  1  2  2  0
  2  3  1  0
  3  4  1  0
  4  5  1  0
  5  6  1  0
  6  7  1  0
  7  8  1  0
  8  9  1  0
  9 10  2  0
 10 11  1  0
 11 12  2  0
 12 13  1  0
 13 14  2  0
  2 15  1  0
 15 16  2  0
 16 17  1  0
 17 18  1  0
 18 19  1  0
 19 20  1  0
 20 21  1  0
 21 22  1  0
 22 23  2  0
 14  5  1  0
 14  9  1  0
 23 15  1  0
 21 16  1  0
  3 24  1  0
  4 25  1  0
  4 26  1  0
  5 27  1  0
  6 28  1  0
  6 29  1  0
  7 30  1  0
  7 31  1  0
 10 32  1  0
 11 33  1  0
 12 34  1  0
 13 35  1  0
 17 36  1  0
 17 37  1  0
 18 38  1  0
 19 39  1  0
 19 40  1  0
 20 41  1  0
 20 42  1  0
 23 43  1  0
A    1
 O1 
A    2
 C1 
A    3
 N1 
A    4
 C2 
A    5
 C3 
A    6
 C4 
A    7
 C5 
A    8
 O2 
A    9
 C6 
A   10
 C7 
A   11
 C8 
A   12
 C9 
A   13
 C10
A   14
 C11
A   15
 C12
A   16
 C13
A   17
 C14
A   18
 N2 
A   19
 C15
A   20
 C16
A   21
 N3 
A   22
 N4 
A   23
 C17
A   24
 H1 
A   25
 H2 
A   26
 H3 
A   27
 H4 
A   28
 H5 
A   29
 H6 
A   30
 H7 
A   31
 H8 
A   32
 H9 
A   33
 H10
A   34
 H11
A   35
 H12
A   36
 H13
A   37
 H14
A   38
 H15
A   39
 H16
A   40
 H17
A   41
 H18
A   42
 H19
A   43
 H20
M  END
>  <ref_pdb>  (346) 
x0051_0B

>  <ref_mols>  (346) 
x0969_1B,x0455_0B

>  <original SMILES>  (346) 
[H]c1nn2c(c1C(=O)N([H])C([H])([H])C1([H])c3c([H])c([H])c([H])c([H])c3OC([H])([H])C1([H])[H])C([H])([H])N([H])C([H])([H])C2([H])[H]

>  <index>  (346) 
579

>  <∆∆G>  (346) 
-5.637119

>  <∆G_bound>  (346) 
-4.799894

>  <∆G_unbound>  (346) 
0.837226

>  <comRMSD>  (346) 
0.335143

>  <N_constrained_atoms>  (346) 
20.0

>  <N_unconstrained_atoms>  (346) 
3.0

>  <runtime>  (346) 
66.457251

>  <LE>  (346) 
0.245092

>  <percent_hybrid>  (346) 
50.0

>  <dist>  (346) 
5.0

>  <ecfp4>  (346) 
0.367089

>  <daylight>  (346) 
0.443077

>  <topodist>  (346) 
1.0

>  <mces>  (346) 
25.0

>  <tdn>  (346) 
0.0

>  <tup>  (346) 
1.0

>  <rdn>  (346) 
0.0

>  <rup>  (346) 
0.0

>  <ldn>  (346) 
0.0

>  <lup>  (346) 
0.0

>  <mut>  (346) 
3.0

>  <maj>  (346) 
3.0

>  <min>  (346) 
0.0

>  <hyb>  (346) 
1.0

>  <sub>  (346) 
0.0

>  <query_index>  (346) 
204.0

>  <max_hit_Tanimoto>  (346) 
0.447293

>  <largest_ring>  (346) 
6

>  <N_interactions_kept>  (346) 
0.5

>  <N_interactions_lost>  (346) 
2.0

>  <interaction_uniqueness_metric>  (346) 
0.220637

>  <ad_hoc_penalty>  (346) 
-20.236432

>  <N_rotatable_bonds>  (346) 
3

>  <N_HA>  (346) 
23

>  <cluster>  (346) 
5688

>  <N_interactions>  (346) 
6

>  <Enamine>  (346) 
1

>  <Mcule>  (346) 
0

>  <N_PAINS>  (346) 
0

>  <UFF_Gibbs>  (346) 
115.804142

>  <strain_per_HA>  (346) 
5.034963

>  <saltbridge:HIS:51>  (346) 
0

>  <pistack:HIS:51>  (346) 
1

>  <hydroph_interaction:HIS:51>  (346) 
0

>  <hbond:ALA:132>  (346) 
0

>  <hbond:SER:135>  (346) 
0

>  <hydroph_interaction:TYR:150>  (346) 
1

>  <pistack:TYR:161>  (346) 
0

>  <hydroph_interaction:TYR:161>  (346) 
2

>  <hydroph_interaction:ASP:83>  (346) 
0

>  <hbond:TYR:130>  (346) 
0

>  <hydroph_interaction:ALA:132>  (346) 
0

>  <hbond:HIS:51>  (346) 
0

>  <hbond:ASP:129>  (346) 
0

>  <hbond:TYR:150>  (346) 
0

>  <hbond:GLY:151>  (346) 
1

>  <hbond:TYR:161>  (346) 
0

>  <hydroph_interaction:TYR:130>  (346) 
0

>  <hydroph_interaction:PRO:131>  (346) 
0

>  <hydroph_interaction:ASP:129>  (346) 
0

>  <saltbridge:ASP:75>  (346) 
0

>  <saltbridge:ASP:83>  (346) 
0

>  <hydroph_interaction:ASN:152>  (346) 
0

>  <halogenbond:TYR:150>  (346) 
0

>  <hbond:ASP:83>  (346) 
1

>  <hydroph_interaction:VAL:155>  (346) 
0

>  <pication:TYR:161>  (346) 
0

>  <hbond:PRO:131>  (346) 
0

>  <hbond:LEU:128>  (346) 
0

>  <saltbridge:ASP:129>  (346) 
0

>  <hbond:THR:134>  (346) 
0

>  <pication:HIS:51>  (346) 
0

>  <hbond:SER:81>  (346) 
0

>  <hbond:GLY:159>  (346) 
0

>  <hydroph_interaction:PRO:101>  (346) 
0

>  <hydroph_interaction:THR:134>  (346) 
0

>  <hbond:GLY:82>  (346) 
0

>  <hydroph_interaction:GLU:104>  (346) 
0

>  <hydroph_interaction:VAL:36>  (346) 
0

>  <hydroph_interaction:MET:49>  (346) 
0

>  <halogenbond:GLU:104>  (346) 
0

>  <hydroph_interaction:LYS:107>  (346) 
0

$$$$
PV-004232476262
     RDKit          3D

 21 22  0  0  0  0  0  0  0  0999 V2000
   -5.8040    5.3890  -16.2290 C   0  0  0  0  0  0  0  0  0  0  0  0
   -5.6570    5.3650  -17.7510 C   0  0  0  0  0  0  0  0  0  0  0  0
   -4.2250    5.5310  -18.2280 C   0  0  0  0  0  0  0  0  0  0  0  0
   -3.9480    5.5350  -19.5360 C   0  0  0  0  0  0  0  0  0  0  0  0
   -2.6720    5.6890  -19.9150 F   0  0  0  0  0  0  0  0  0  0  0  0
   -4.8930    5.3940  -20.4950 N   0  0  0  0  0  0  0  0  0  0  0  0
   -6.2810    5.2280  -20.0420 C   0  0  0  0  0  0  0  0  0  0  0  0
   -6.6740    5.2100  -18.7030 C   0  0  0  0  0  0  0  0  0  0  0  0
   -8.0050    5.0390  -18.3680 C   0  0  0  0  0  0  0  0  0  0  0  0
   -8.4440    5.0670  -17.0670 C   0  0  0  0  0  0  0  0  0  0  0  0
   -9.7690    4.8730  -17.0030 O   0  0  0  0  0  0  0  0  0  0  0  0
  -10.2130    4.7180  -18.2730 C   0  0  0  0  0  0  0  0  0  0  0  0
   -9.1740    4.8090  -19.1580 C   0  0  0  0  0  0  0  0  0  0  0  0
   -4.8360    5.2850  -15.7260 H   0  0  0  0  0  0  0  0  0  0  0  0
   -6.4300    4.5650  -15.8780 H   0  0  0  0  0  0  0  0  0  0  0  0
   -6.2630    6.3250  -15.8920 H   0  0  0  0  0  0  0  0  0  0  0  0
   -3.4380    5.6470  -17.4870 H   0  0  0  0  0  0  0  0  0  0  0  0
   -7.0070    5.1130  -20.8450 H   0  0  0  0  0  0  0  0  0  0  0  0
   -7.9630    5.2070  -16.1110 H   0  0  0  0  0  0  0  0  0  0  0  0
  -11.2860    4.5520  -18.3810 H   0  0  0  0  0  0  0  0  0  0  0  0
   -9.2480    4.7210  -20.2340 H   0  0  0  0  0  0  0  0  0  0  0  0
  1  2  1  0
  2  3  2  0
  3  4  1  0
  4  5  1  0
  4  6  2  0
  6  7  1  0
  7  8  2  0
  8  9  1  0
  9 10  2  0
 10 11  1  0
 11 12  1  0
 12 13  2  0
  8  2  1  0
 13  9  1  0
  1 14  1  0
  1 15  1  0
  1 16  1  0
  3 17  1  0
  7 18  1  0
 10 19  1  0
 12 20  1  0
 13 21  1  0
A    1
 C1 
A    2
 C2 
A    3
 C3 
A    4
 C4 
A    5
 F1 
A    6
 N1 
A    7
 C5 
A    8
 C6 
A    9
 C7 
A   10
 C8 
A   11
 O1 
A   12
 C9 
A   13
 C10
A   14
 H1 
A   15
 H2 
A   16
 H3 
A   17
 H4 
A   18
 H5 
A   19
 H6 
A   20
 H7 
A   21
 H8 
M  END
>  <ref_pdb>  (347) 
x0051_0B

>  <ref_mols>  (347) 
x0680_0B,x0386_0B

>  <original SMILES>  (347) 
[H]c1nc(F)c([H])c(C([H])([H])[H])c1-c1c([H])oc([H])c1[H]

>  <index>  (347) 
362

>  <∆∆G>  (347) 
-6.46834

>  <∆G_bound>  (347) 
-6.581225

>  <∆G_unbound>  (347) 
-0.112886

>  <comRMSD>  (347) 
0.783491

>  <N_constrained_atoms>  (347) 
13.0

>  <N_unconstrained_atoms>  (347) 
1.0

>  <runtime>  (347) 
24.222119

>  <LE>  (347) 
0.462024

>  <percent_hybrid>  (347) 
25.0

>  <dist>  (347) 
2.0

>  <ecfp4>  (347) 
0.269231

>  <daylight>  (347) 
0.453237

>  <topodist>  (347) 
1.0

>  <mces>  (347) 
13.0

>  <tdn>  (347) 
0.0

>  <tup>  (347) 
1.0

>  <rdn>  (347) 
0.0

>  <rup>  (347) 
0.0

>  <ldn>  (347) 
0.0

>  <lup>  (347) 
0.0

>  <mut>  (347) 
1.0

>  <maj>  (347) 
1.0

>  <min>  (347) 
0.0

>  <hyb>  (347) 
0.0

>  <sub>  (347) 
1.0

>  <query_index>  (347) 
296.0

>  <max_hit_Tanimoto>  (347) 
0.170992

>  <largest_ring>  (347) 
0

>  <N_interactions_kept>  (347) 
3.0

>  <N_interactions_lost>  (347) 
1.0

>  <interaction_uniqueness_metric>  (347) 
0.031789

>  <ad_hoc_penalty>  (347) 
-20.235973

>  <N_rotatable_bonds>  (347) 
2

>  <N_HA>  (347) 
13

>  <cluster>  (347) 
5887

>  <N_interactions>  (347) 
4

>  <Enamine>  (347) 
1

>  <Mcule>  (347) 
0

>  <N_PAINS>  (347) 
0

>  <UFF_Gibbs>  (347) 
78.985563

>  <strain_per_HA>  (347) 
6.075813

>  <saltbridge:HIS:51>  (347) 
0

>  <pistack:HIS:51>  (347) 
0

>  <hydroph_interaction:HIS:51>  (347) 
0

>  <hbond:ALA:132>  (347) 
0

>  <hbond:SER:135>  (347) 
0

>  <hydroph_interaction:TYR:150>  (347) 
1

>  <pistack:TYR:161>  (347) 
0

>  <hydroph_interaction:TYR:161>  (347) 
3

>  <hydroph_interaction:ASP:83>  (347) 
0

>  <hbond:TYR:130>  (347) 
0

>  <hydroph_interaction:ALA:132>  (347) 
0

>  <hbond:HIS:51>  (347) 
0

>  <hbond:ASP:129>  (347) 
0

>  <hbond:TYR:150>  (347) 
0

>  <hbond:GLY:151>  (347) 
0

>  <hbond:TYR:161>  (347) 
0

>  <hydroph_interaction:TYR:130>  (347) 
0

>  <hydroph_interaction:PRO:131>  (347) 
0

>  <hydroph_interaction:ASP:129>  (347) 
0

>  <saltbridge:ASP:75>  (347) 
0

>  <saltbridge:ASP:83>  (347) 
0

>  <hydroph_interaction:ASN:152>  (347) 
0

>  <halogenbond:TYR:150>  (347) 
0

>  <hbond:ASP:83>  (347) 
0

>  <hydroph_interaction:VAL:155>  (347) 
0

>  <pication:TYR:161>  (347) 
0

>  <hbond:PRO:131>  (347) 
0

>  <hbond:LEU:128>  (347) 
0

>  <saltbridge:ASP:129>  (347) 
0

>  <hbond:THR:134>  (347) 
0

>  <pication:HIS:51>  (347) 
0

>  <hbond:SER:81>  (347) 
0

>  <hbond:GLY:159>  (347) 
0

>  <hydroph_interaction:PRO:101>  (347) 
0

>  <hydroph_interaction:THR:134>  (347) 
0

>  <hbond:GLY:82>  (347) 
0

>  <hydroph_interaction:GLU:104>  (347) 
0

>  <hydroph_interaction:VAL:36>  (347) 
0

>  <hydroph_interaction:MET:49>  (347) 
0

>  <halogenbond:GLU:104>  (347) 
0

>  <hydroph_interaction:LYS:107>  (347) 
0

$$$$
CSCS03437706644
     RDKit          3D

 33 35  0  0  0  0  0  0  0  0999 V2000
   -8.1720    5.8900   -8.0960 C   0  0  0  0  0  0  0  0  0  0  0  0
   -8.4170    5.6440   -9.5730 C   0  0  0  0  0  0  0  0  0  0  0  0
   -8.5050    4.2090  -10.0350 C   0  0  0  0  0  0  0  0  0  0  0  0
   -8.7510    3.9340  -11.5000 C   0  0  0  0  0  0  0  0  0  0  0  0
   -8.9010    5.1460  -12.4190 C   0  0  0  0  0  0  0  0  0  0  0  0
   -9.2220    4.8820  -14.1250 S   0  0  0  0  0  0  0  0  0  0  0  0
   -7.9980    5.6500  -15.2340 C   0  0  0  0  0  0  0  0  0  0  0  0
   -6.5460    5.2130  -15.1640 C   0  0  0  0  0  0  0  0  0  0  0  0
   -5.9580    5.6770  -16.8100 S   0  0  0  0  0  6  0  0  0  0  0  0
   -5.8280    7.0940  -16.9150 O   0  0  0  0  0  0  0  0  0  0  0  0
   -4.9420    4.7620  -17.2690 O   0  0  0  0  0  0  0  0  0  0  0  0
   -7.4670    5.2750  -17.5730 C   0  0  0  0  0  0  0  0  0  0  0  0
   -7.7250    4.9800  -18.9060 C   0  0  0  0  0  0  0  0  0  0  0  0
   -9.0300    4.6630  -19.2850 C   0  0  0  0  0  0  0  0  0  0  0  0
  -10.0350    4.6460  -18.3070 C   0  0  0  0  0  0  0  0  0  0  0  0
   -9.7320    4.9530  -16.9810 C   0  0  0  0  0  0  0  0  0  0  0  0
   -8.4510    5.2790  -16.6150 C   0  0  0  0  0  0  0  0  0  0  0  0
   -8.8020    6.4390  -11.8910 C   0  0  0  0  0  0  0  0  0  0  0  0
   -8.5680    6.6790  -10.5180 C   0  0  0  0  0  0  0  0  0  0  0  0
   -7.5140    5.1240   -7.6690 H   0  0  0  0  0  0  0  0  0  0  0  0
   -7.7290    6.8710   -7.9150 H   0  0  0  0  0  0  0  0  0  0  0  0
   -9.1200    5.8590   -7.5510 H   0  0  0  0  0  0  0  0  0  0  0  0
   -8.3960    3.3740   -9.3320 H   0  0  0  0  0  0  0  0  0  0  0  0
   -8.8270    2.9140  -11.8970 H   0  0  0  0  0  0  0  0  0  0  0  0
   -8.0680    6.7410  -15.1650 H   0  0  0  0  0  0  0  0  0  0  0  0
   -6.3110    4.1600  -15.0470 H   0  0  0  0  0  0  0  0  0  0  0  0
   -5.9780    5.7820  -14.4260 H   0  0  0  0  0  0  0  0  0  0  0  0
   -6.8990    5.0020  -19.6130 H   0  0  0  0  0  0  0  0  0  0  0  0
   -9.2600    4.4300  -20.3200 H   0  0  0  0  0  0  0  0  0  0  0  0
  -11.0620    4.3950  -18.5840 H   0  0  0  0  0  0  0  0  0  0  0  0
  -10.4990    4.9360  -16.2340 H   0  0  0  0  0  0  0  0  0  0  0  0
   -8.9110    7.2980  -12.5490 H   0  0  0  0  0  0  0  0  0  0  0  0
   -8.5060    7.7120  -10.1810 H   0  0  0  0  0  0  0  0  0  0  0  0
  1  2  1  0
  2  3  2  0
  3  4  1  0
  4  5  2  0
  5  6  1  0
  6  7  1  0
  7  8  1  0
  8  9  1  0
  9 10  2  0
  9 11  2  0
  9 12  1  0
 12 13  2  0
 13 14  1  0
 14 15  2  0
 15 16  1  0
 16 17  2  0
  5 18  1  0
 18 19  2  0
 19  2  1  0
 17  7  1  0
 17 12  1  0
  1 20  1  0
  1 21  1  0
  1 22  1  0
  3 23  1  0
  4 24  1  0
  7 25  1  0
  8 26  1  0
  8 27  1  0
 13 28  1  0
 14 29  1  0
 15 30  1  0
 16 31  1  0
 18 32  1  0
 19 33  1  0
A    1
 C1 
A    2
 C2 
A    3
 C3 
A    4
 C4 
A    5
 C5 
A    6
 S1 
A    7
 C6 
A    8
 C7 
A    9
 S2 
A   10
 O1 
A   11
 O2 
A   12
 C8 
A   13
 C9 
A   14
 C10
A   15
 C11
A   16
 C12
A   17
 C13
A   18
 C14
A   19
 C15
A   20
 H1 
A   21
 H2 
A   22
 H3 
A   23
 H4 
A   24
 H5 
A   25
 H6 
A   26
 H7 
A   27
 H8 
A   28
 H9 
A   29
 H10
A   30
 H11
A   31
 H12
A   32
 H13
A   33
 H14
M  END
>  <ref_pdb>  (348) 
x0051_0B

>  <ref_mols>  (348) 
x1098_0B,x0455_0B

>  <original SMILES>  (348) 
[H]c1c([H])c([H])c2c(c1[H])C([H])(Sc1c([H])c([H])c(C([H])([H])[H])c([H])c1[H])C([H])([H])S2(=O)=O

>  <index>  (348) 
582

>  <∆∆G>  (348) 
-7.652226

>  <∆G_bound>  (348) 
-7.56563

>  <∆G_unbound>  (348) 
0.086596

>  <comRMSD>  (348) 
0.682583

>  <N_constrained_atoms>  (348) 
18.0

>  <N_unconstrained_atoms>  (348) 
2.0

>  <runtime>  (348) 
72.365422

>  <LE>  (348) 
0.382611

>  <percent_hybrid>  (348) 
12.0

>  <dist>  (348) 
9.0

>  <ecfp4>  (348) 
0.097222

>  <daylight>  (348) 
0.126087

>  <topodist>  (348) 
3.0

>  <mces>  (348) 
20.0

>  <tdn>  (348) 
1.0

>  <tup>  (348) 
0.0

>  <rdn>  (348) 
0.0

>  <rup>  (348) 
0.0

>  <ldn>  (348) 
1.0

>  <lup>  (348) 
1.0

>  <mut>  (348) 
6.0

>  <maj>  (348) 
6.0

>  <min>  (348) 
0.0

>  <hyb>  (348) 
0.0

>  <sub>  (348) 
1.0

>  <query_index>  (348) 
72.0

>  <max_hit_Tanimoto>  (348) 
0.202128

>  <largest_ring>  (348) 
6

>  <N_interactions_kept>  (348) 
3.0

>  <N_interactions_lost>  (348) 
2.0

>  <interaction_uniqueness_metric>  (348) 
0.116343

>  <ad_hoc_penalty>  (348) 
-20.219672

>  <N_rotatable_bonds>  (348) 
3

>  <N_HA>  (348) 
19

>  <cluster>  (348) 
5686

>  <N_interactions>  (348) 
5

>  <Enamine>  (348) 
1

>  <Mcule>  (348) 
0

>  <N_PAINS>  (348) 
0

>  <UFF_Gibbs>  (348) 
73.453726

>  <strain_per_HA>  (348) 
3.865986

>  <saltbridge:HIS:51>  (348) 
0

>  <pistack:HIS:51>  (348) 
1

>  <hydroph_interaction:HIS:51>  (348) 
1

>  <hbond:ALA:132>  (348) 
0

>  <hbond:SER:135>  (348) 
0

>  <hydroph_interaction:TYR:150>  (348) 
1

>  <pistack:TYR:161>  (348) 
1

>  <hydroph_interaction:TYR:161>  (348) 
0

>  <hydroph_interaction:ASP:83>  (348) 
0

>  <hbond:TYR:130>  (348) 
0

>  <hydroph_interaction:ALA:132>  (348) 
1

>  <hbond:HIS:51>  (348) 
0

>  <hbond:ASP:129>  (348) 
0

>  <hbond:TYR:150>  (348) 
0

>  <hbond:GLY:151>  (348) 
0

>  <hbond:TYR:161>  (348) 
0

>  <hydroph_interaction:TYR:130>  (348) 
0

>  <hydroph_interaction:PRO:131>  (348) 
0

>  <hydroph_interaction:ASP:129>  (348) 
0

>  <saltbridge:ASP:75>  (348) 
0

>  <saltbridge:ASP:83>  (348) 
0

>  <hydroph_interaction:ASN:152>  (348) 
0

>  <halogenbond:TYR:150>  (348) 
0

>  <hbond:ASP:83>  (348) 
0

>  <hydroph_interaction:VAL:155>  (348) 
0

>  <pication:TYR:161>  (348) 
0

>  <hbond:PRO:131>  (348) 
0

>  <hbond:LEU:128>  (348) 
0

>  <saltbridge:ASP:129>  (348) 
0

>  <hbond:THR:134>  (348) 
0

>  <pication:HIS:51>  (348) 
0

>  <hbond:SER:81>  (348) 
0

>  <hbond:GLY:159>  (348) 
0

>  <hydroph_interaction:PRO:101>  (348) 
0

>  <hydroph_interaction:THR:134>  (348) 
0

>  <hbond:GLY:82>  (348) 
0

>  <hydroph_interaction:GLU:104>  (348) 
0

>  <hydroph_interaction:VAL:36>  (348) 
0

>  <hydroph_interaction:MET:49>  (348) 
0

>  <halogenbond:GLU:104>  (348) 
0

>  <hydroph_interaction:LYS:107>  (348) 
0

$$$$
ATYRMOMAEZWGPI-UHFFFAOYSA-N
     RDKit          3D

 54 57  0  0  0  0  0  0  0  0999 V2000
   -8.4880    6.8310  -14.1690 C   0  0  0  0  0  0  0  0  0  0  0  0
   -7.8380    5.9300  -15.0630 N   0  0  0  0  0  0  0  0  0  0  0  0
   -8.2890    5.5530  -16.4240 C   0  0  0  0  0  0  0  0  0  0  0  0
   -9.6500    5.1930  -16.5740 C   0  0  0  0  0  0  0  0  0  0  0  0
  -10.1780    4.8320  -17.8230 C   0  0  0  0  0  0  0  0  0  0  0  0
   -9.3170    4.8230  -19.0510 C   0  0  0  0  0  0  0  0  0  0  0  0
   -7.9420    5.2020  -18.7900 C   0  0  0  0  0  0  0  0  0  0  0  0
   -6.9120    5.2830  -19.8340 C   0  0  0  0  0  0  0  0  0  0  0  0
   -5.6280    5.6480  -19.1880 C   0  0  0  0  0  0  0  0  0  0  0  0
   -6.0230    5.8180  -17.7430 N   0  0  0  0  0  0  0  0  0  0  0  0
   -5.0250    5.7100  -16.7920 C   0  0  0  0  0  0  0  0  0  0  0  0
   -3.9210    4.9140  -17.1410 C   0  0  0  0  0  0  0  0  0  0  0  0
   -5.0200    6.2570  -15.6920 O   0  0  0  0  0  0  0  0  0  0  0  0
   -7.4070    5.5460  -17.5460 C   0  0  0  0  0  0  0  0  0  0  0  0
   -8.8890    7.9840  -14.3060 O   0  0  0  0  0  0  0  0  0  0  0  0
   -8.6230    6.2540  -12.8280 C   0  0  0  0  0  0  0  0  0  0  0  0
   -8.5430    7.1080  -11.5750 C   0  0  0  0  0  0  0  0  0  0  0  0
   -8.6500    6.4900  -10.3420 C   0  0  0  0  0  0  0  0  0  0  0  0
   -8.8450    4.9810  -10.2750 C   0  0  0  0  0  0  0  0  0  0  0  0
   -8.9400    4.3510   -9.0630 N   0  0  0  0  0  0  0  0  0  0  0  0
   -9.2180    2.9100   -9.0780 C   0  0  0  0  0  0  0  0  0  0  0  0
   -9.5460    2.4440   -7.6700 C   0  0  0  0  0  0  0  0  0  0  0  0
   -9.4900    3.1340   -6.5770 N   0  0  0  0  0  0  0  0  0  0  0  0
  -10.7990    3.5720   -6.0970 C   0  0  0  0  0  0  0  0  0  0  0  0
   -8.6190    4.2120   -6.6520 C   0  0  0  0  0  0  0  0  0  0  0  0
   -8.1060    4.8080   -7.9450 C   0  0  0  0  0  0  0  0  0  0  0  0
   -8.9210    4.2670  -11.4810 C   0  0  0  0  0  0  0  0  0  0  0  0
   -8.8130    4.8840  -12.7290 C   0  0  0  0  0  0  0  0  0  0  0  0
   -6.9990    5.4130  -14.8130 H   0  0  0  0  0  0  0  0  0  0  0  0
  -10.2190    5.2290  -15.6380 H   0  0  0  0  0  0  0  0  0  0  0  0
  -11.2340    4.5560  -17.9250 H   0  0  0  0  0  0  0  0  0  0  0  0
   -9.7550    4.5540  -19.9930 H   0  0  0  0  0  0  0  0  0  0  0  0
   -6.8320    4.3600  -20.4110 H   0  0  0  0  0  0  0  0  0  0  0  0
   -7.1390    6.0790  -20.5270 H   0  0  0  0  0  0  0  0  0  0  0  0
   -5.2570    6.5970  -19.5870 H   0  0  0  0  0  0  0  0  0  0  0  0
   -4.8060    4.9390  -19.2240 H   0  0  0  0  0  0  0  0  0  0  0  0
   -3.0580    5.5720  -17.2830 H   0  0  0  0  0  0  0  0  0  0  0  0
   -4.0980    4.4220  -18.0880 H   0  0  0  0  0  0  0  0  0  0  0  0
   -3.6130    4.1300  -16.4570 H   0  0  0  0  0  0  0  0  0  0  0  0
   -8.3970    8.1810  -11.6200 H   0  0  0  0  0  0  0  0  0  0  0  0
   -8.5890    7.0980   -9.4440 H   0  0  0  0  0  0  0  0  0  0  0  0
   -8.3470    2.3660   -9.4640 H   0  0  0  0  0  0  0  0  0  0  0  0
  -10.0810    2.6730   -9.7110 H   0  0  0  0  0  0  0  0  0  0  0  0
  -10.5140    1.9260   -7.7140 H   0  0  0  0  0  0  0  0  0  0  0  0
   -8.8340    1.6420   -7.4860 H   0  0  0  0  0  0  0  0  0  0  0  0
  -11.6200    3.0610   -6.6140 H   0  0  0  0  0  0  0  0  0  0  0  0
  -10.9150    3.3940   -5.0230 H   0  0  0  0  0  0  0  0  0  0  0  0
  -10.9040    4.6550   -6.2240 H   0  0  0  0  0  0  0  0  0  0  0  0
   -9.0770    5.0510   -6.1110 H   0  0  0  0  0  0  0  0  0  0  0  0
   -7.7360    3.9280   -6.0580 H   0  0  0  0  0  0  0  0  0  0  0  0
   -7.0680    4.4930   -8.1090 H   0  0  0  0  0  0  0  0  0  0  0  0
   -8.1220    5.9000   -7.8800 H   0  0  0  0  0  0  0  0  0  0  0  0
   -9.0650    3.1890  -11.4770 H   0  0  0  0  0  0  0  0  0  0  0  0
   -8.8740    4.2750  -13.6290 H   0  0  0  0  0  0  0  0  0  0  0  0
  1  2  1  0
  2  3  1  0
  3  4  2  0
  4  5  1  0
  5  6  2  0
  6  7  1  0
  7  8  1  0
  8  9  1  0
  9 10  1  0
 10 11  1  0
 11 12  1  0
 11 13  2  0
 10 14  1  0
  1 15  2  0
  1 16  1  0
 16 17  2  0
 17 18  1  0
 18 19  2  0
 19 20  1  0
 20 21  1  0
 21 22  1  0
 22 23  1  0
 23 24  1  0
 23 25  1  0
 25 26  1  0
 19 27  1  0
 27 28  2  0
 14  3  1  0
  7 14  2  0
 28 16  1  0
 26 20  1  0
  2 29  1  0
  4 30  1  0
  5 31  1  0
  6 32  1  0
  8 33  1  0
  8 34  1  0
  9 35  1  0
  9 36  1  0
 12 37  1  0
 12 38  1  0
 12 39  1  0
 17 40  1  0
 18 41  1  0
 21 42  1  0
 21 43  1  0
 22 44  1  0
 22 45  1  0
 24 46  1  0
 24 47  1  0
 24 48  1  0
 25 49  1  0
 25 50  1  0
 26 51  1  0
 26 52  1  0
 27 53  1  0
 28 54  1  0
A    1
 C1 
A    2
 N1 
A    3
 C2 
A    4
 C3 
A    5
 C4 
A    6
 C5 
A    7
 C6 
A    8
 C7 
A    9
 C8 
A   10
 N2 
A   11
 C9 
A   12
 C10
A   13
 O1 
A   14
 C11
A   15
 O2 
A   16
 C12
A   17
 C13
A   18
 C14
A   19
 C15
A   20
 N3 
A   21
 C16
A   22
 C17
A   23
 N4 
A   24
 C18
A   25
 C19
A   26
 C20
A   27
 C21
A   28
 C22
A   29
 H1 
A   30
 H2 
A   31
 H3 
A   32
 H4 
A   33
 H5 
A   34
 H6 
A   35
 H7 
A   36
 H8 
A   37
 H9 
A   38
 H10
A   39
 H11
A   40
 H12
A   41
 H13
A   42
 H14
A   43
 H15
A   44
 H16
A   45
 H17
A   46
 H18
A   47
 H19
A   48
 H20
A   49
 H21
A   50
 H22
A   51
 H23
A   52
 H24
A   53
 H25
A   54
 H26
M  END
>  <ref_pdb>  (349) 
x0051_0B

>  <ref_mols>  (349) 
x0490_0B,x0404_0B

>  <original SMILES>  (349) 
[H]c1c([H])c(N([H])C(=O)c2c([H])c([H])c(N3C([H])([H])C([H])([H])N(C([H])([H])[H])C([H])([H])C3([H])[H])c([H])c2[H])c2c(c1[H])C([H])([H])C([H])([H])N2C(=O)C([H])([H])[H]

>  <index>  (349) 
152

>  <∆∆G>  (349) 
-10.057607

>  <∆G_bound>  (349) 
-8.457036

>  <∆G_unbound>  (349) 
1.600571

>  <comRMSD>  (349) 
0.587688

>  <N_constrained_atoms>  (349) 
26.0

>  <N_unconstrained_atoms>  (349) 
2.0

>  <runtime>  (349) 
70.872479

>  <LE>  (349) 
0.3592

>  <percent_hybrid>  (349) 
43.0

>  <dist>  (349) 
9.0

>  <ecfp4>  (349) 
0.181818

>  <daylight>  (349) 
0.182836

>  <topodist>  (349) 
4.0

>  <mces>  (349) 
29.0

>  <tdn>  (349) 
1.0

>  <tup>  (349) 
2.0

>  <rdn>  (349) 
0.0

>  <rup>  (349) 
0.0

>  <ldn>  (349) 
1.0

>  <lup>  (349) 
0.0

>  <mut>  (349) 
2.0

>  <maj>  (349) 
2.0

>  <min>  (349) 
0.0

>  <hyb>  (349) 
3.0

>  <sub>  (349) 
1.0

>  <query_index>  (349) 
10.0

>  <max_hit_Tanimoto>  (349) 
0.24385

>  <largest_ring>  (349) 
0

>  <N_interactions_kept>  (349) 
2.5

>  <N_interactions_lost>  (349) 
2.0

>  <interaction_uniqueness_metric>  (349) 
0.162272

>  <ad_hoc_penalty>  (349) 
-20.15495

>  <N_rotatable_bonds>  (349) 
5

>  <N_HA>  (349) 
28

>  <cluster>  (349) 
6080

>  <N_interactions>  (349) 
6

>  <Enamine>  (349) 
0

>  <Mcule>  (349) 
1

>  <N_PAINS>  (349) 
0

>  <UFF_Gibbs>  (349) 
355.800396

>  <strain_per_HA>  (349) 
12.707157

>  <saltbridge:HIS:51>  (349) 
0

>  <pistack:HIS:51>  (349) 
1

>  <hydroph_interaction:HIS:51>  (349) 
0

>  <hbond:ALA:132>  (349) 
0

>  <hbond:SER:135>  (349) 
0

>  <hydroph_interaction:TYR:150>  (349) 
1

>  <pistack:TYR:161>  (349) 
0

>  <hydroph_interaction:TYR:161>  (349) 
3

>  <hydroph_interaction:ASP:83>  (349) 
0

>  <hbond:TYR:130>  (349) 
0

>  <hydroph_interaction:ALA:132>  (349) 
0

>  <hbond:HIS:51>  (349) 
0

>  <hbond:ASP:129>  (349) 
0

>  <hbond:TYR:150>  (349) 
0

>  <hbond:GLY:151>  (349) 
0

>  <hbond:TYR:161>  (349) 
0

>  <hydroph_interaction:TYR:130>  (349) 
0

>  <hydroph_interaction:PRO:131>  (349) 
0

>  <hydroph_interaction:ASP:129>  (349) 
0

>  <saltbridge:ASP:75>  (349) 
1

>  <saltbridge:ASP:83>  (349) 
0

>  <hydroph_interaction:ASN:152>  (349) 
0

>  <halogenbond:TYR:150>  (349) 
0

>  <hbond:ASP:83>  (349) 
0

>  <hydroph_interaction:VAL:155>  (349) 
0

>  <pication:TYR:161>  (349) 
0

>  <hbond:PRO:131>  (349) 
0

>  <hbond:LEU:128>  (349) 
0

>  <saltbridge:ASP:129>  (349) 
0

>  <hbond:THR:134>  (349) 
0

>  <pication:HIS:51>  (349) 
0

>  <hbond:SER:81>  (349) 
0

>  <hbond:GLY:159>  (349) 
0

>  <hydroph_interaction:PRO:101>  (349) 
0

>  <hydroph_interaction:THR:134>  (349) 
0

>  <hbond:GLY:82>  (349) 
0

>  <hydroph_interaction:GLU:104>  (349) 
0

>  <hydroph_interaction:VAL:36>  (349) 
0

>  <hydroph_interaction:MET:49>  (349) 
0

>  <halogenbond:GLU:104>  (349) 
0

>  <hydroph_interaction:LYS:107>  (349) 
0

$$$$
CSCS03437721506
     RDKit          3D

 35 38  0  0  0  0  0  0  0  0999 V2000
   -9.1230    4.9980  -13.9930 C   0  0  0  0  0  0  0  0  0  0  0  0
   -9.2750    6.4270  -12.8940 S   0  0  0  0  0  0  0  0  0  0  0  0
   -7.9590    5.8760  -11.7900 C   0  0  0  0  0  0  0  0  0  0  0  0
   -8.3820    5.7320  -10.3300 C   0  0  0  0  0  0  0  0  0  0  0  0
   -8.4410    6.9720   -9.4880 C   0  0  0  0  0  0  0  0  0  0  0  0
   -8.8920    6.6240   -7.8990 S   0  0  0  0  0  0  0  0  0  0  0  0
   -9.0420    4.9210   -8.1910 C   0  0  0  0  0  0  0  0  0  0  0  0
   -9.4200    4.0260   -7.1850 C   0  0  0  0  0  0  0  0  0  0  0  0
   -9.4640    2.6290   -7.6980 C   0  0  0  0  0  0  0  0  0  0  0  0
   -9.1390    2.2620   -9.1030 C   0  0  0  0  0  0  0  0  0  0  0  0
   -8.7950    3.2540   -9.9850 C   0  0  0  0  0  0  0  0  0  0  0  0
   -8.7350    4.5680   -9.5660 C   0  0  0  0  0  0  0  0  0  0  0  0
   -8.1680    5.1930  -15.1390 C   0  0  0  0  0  0  0  0  0  0  0  0
   -6.8360    5.5180  -15.0650 C   0  0  0  0  0  0  0  0  0  0  0  0
   -6.0790    5.6550  -16.5840 S   0  0  0  0  0  0  0  0  0  0  0  0
   -7.5430    5.2660  -17.4160 C   0  0  0  0  0  0  0  0  0  0  0  0
   -7.7710    5.1610  -18.7880 C   0  0  0  0  0  0  0  0  0  0  0  0
   -9.0460    4.8350  -19.2590 C   0  0  0  0  0  0  0  0  0  0  0  0
  -10.0730    4.6210  -18.3310 C   0  0  0  0  0  0  0  0  0  0  0  0
   -9.8160    4.7280  -16.9860 C   0  0  0  0  0  0  0  0  0  0  0  0
   -8.5720    5.0480  -16.5030 C   0  0  0  0  0  0  0  0  0  0  0  0
   -8.8550    4.1250  -13.3900 H   0  0  0  0  0  0  0  0  0  0  0  0
  -10.1220    4.8140  -14.4060 H   0  0  0  0  0  0  0  0  0  0  0  0
   -7.1330    6.5880  -11.8530 H   0  0  0  0  0  0  0  0  0  0  0  0
   -7.5730    4.9100  -12.1370 H   0  0  0  0  0  0  0  0  0  0  0  0
   -8.2150    7.9710   -9.8530 H   0  0  0  0  0  0  0  0  0  0  0  0
   -9.6490    4.3090   -6.1620 H   0  0  0  0  0  0  0  0  0  0  0  0
   -9.7410    1.8150   -7.0220 H   0  0  0  0  0  0  0  0  0  0  0  0
   -9.1640    1.2660   -9.4210 H   0  0  0  0  0  0  0  0  0  0  0  0
   -8.5610    2.9940  -11.0130 H   0  0  0  0  0  0  0  0  0  0  0  0
   -6.3080    5.6750  -14.1280 H   0  0  0  0  0  0  0  0  0  0  0  0
   -6.9600    5.3320  -19.4940 H   0  0  0  0  0  0  0  0  0  0  0  0
   -9.2250    4.7540  -20.3280 H   0  0  0  0  0  0  0  0  0  0  0  0
  -11.0750    4.3710  -18.6630 H   0  0  0  0  0  0  0  0  0  0  0  0
  -10.6140    4.5530  -16.2830 H   0  0  0  0  0  0  0  0  0  0  0  0
  1  2  1  0
  2  3  1  0
  3  4  1  0
  4  5  2  0
  5  6  1  0
  6  7  1  0
  7  8  2  0
  8  9  1  0
  9 10  2  0
 10 11  1  0
 11 12  2  0
  1 13  1  0
 13 14  2  0
 14 15  1  0
 15 16  1  0
 16 17  2  0
 17 18  1  0
 18 19  2  0
 19 20  1  0
 20 21  2  0
 12  4  1  0
 12  7  1  0
 21 13  1  0
 21 16  1  0
  1 22  1  0
  1 23  1  0
  3 24  1  0
  3 25  1  0
  5 26  1  0
  8 27  1  0
  9 28  1  0
 10 29  1  0
 11 30  1  0
 14 31  1  0
 17 32  1  0
 18 33  1  0
 19 34  1  0
 20 35  1  0
A    1
 C1 
A    2
 S1 
A    3
 C2 
A    4
 C3 
A    5
 C4 
A    6
 S2 
A    7
 C5 
A    8
 C6 
A    9
 C7 
A   10
 C8 
A   11
 C9 
A   12
 C10
A   13
 C11
A   14
 C12
A   15
 S3 
A   16
 C13
A   17
 C14
A   18
 C15
A   19
 C16
A   20
 C17
A   21
 C18
A   22
 H1 
A   23
 H2 
A   24
 H3 
A   25
 H4 
A   26
 H5 
A   27
 H6 
A   28
 H7 
A   29
 H8 
A   30
 H9 
A   31
 H10
A   32
 H11
A   33
 H12
A   34
 H13
A   35
 H14
M  END
>  <ref_pdb>  (350) 
x0051_0B

>  <ref_mols>  (350) 
x0969_1B,x0455_0B

>  <original SMILES>  (350) 
[H]c1sc2c([H])c([H])c([H])c([H])c2c1C([H])([H])SC([H])([H])c1c([H])sc2c([H])c([H])c([H])c([H])c12

>  <index>  (350) 
669

>  <∆∆G>  (350) 
-6.734695

>  <∆G_bound>  (350) 
-6.809392

>  <∆G_unbound>  (350) 
-0.074697

>  <comRMSD>  (350) 
0.492812

>  <N_constrained_atoms>  (350) 
19.0

>  <N_unconstrained_atoms>  (350) 
2.0

>  <runtime>  (350) 
39.046196

>  <LE>  (350) 
0.3207

>  <percent_hybrid>  (350) 
48.0

>  <dist>  (350) 
12.0

>  <ecfp4>  (350) 
0.097222

>  <daylight>  (350) 
0.073333

>  <topodist>  (350) 
1.0

>  <mces>  (350) 
24.0

>  <tdn>  (350) 
0.0

>  <tup>  (350) 
0.0

>  <rdn>  (350) 
0.0

>  <rup>  (350) 
0.0

>  <ldn>  (350) 
1.0

>  <lup>  (350) 
0.0

>  <mut>  (350) 
6.0

>  <maj>  (350) 
5.0

>  <min>  (350) 
1.0

>  <hyb>  (350) 
5.0

>  <sub>  (350) 
0.0

>  <query_index>  (350) 
204.0

>  <max_hit_Tanimoto>  (350) 
0.128889

>  <largest_ring>  (350) 
6

>  <N_interactions_kept>  (350) 
2.0

>  <N_interactions_lost>  (350) 
0.5

>  <interaction_uniqueness_metric>  (350) 
0.055716

>  <ad_hoc_penalty>  (350) 
-20.137961

>  <N_rotatable_bonds>  (350) 
4

>  <N_HA>  (350) 
21

>  <cluster>  (350) 
5605

>  <N_interactions>  (350) 
3

>  <Enamine>  (350) 
1

>  <Mcule>  (350) 
0

>  <N_PAINS>  (350) 
0

>  <UFF_Gibbs>  (350) 
44.296139

>  <strain_per_HA>  (350) 
2.10934

>  <saltbridge:HIS:51>  (350) 
0

>  <pistack:HIS:51>  (350) 
2

>  <hydroph_interaction:HIS:51>  (350) 
0

>  <hbond:ALA:132>  (350) 
0

>  <hbond:SER:135>  (350) 
0

>  <hydroph_interaction:TYR:150>  (350) 
1

>  <pistack:TYR:161>  (350) 
0

>  <hydroph_interaction:TYR:161>  (350) 
0

>  <hydroph_interaction:ASP:83>  (350) 
0

>  <hbond:TYR:130>  (350) 
0

>  <hydroph_interaction:ALA:132>  (350) 
0

>  <hbond:HIS:51>  (350) 
0

>  <hbond:ASP:129>  (350) 
0

>  <hbond:TYR:150>  (350) 
0

>  <hbond:GLY:151>  (350) 
0

>  <hbond:TYR:161>  (350) 
0

>  <hydroph_interaction:TYR:130>  (350) 
0

>  <hydroph_interaction:PRO:131>  (350) 
0

>  <hydroph_interaction:ASP:129>  (350) 
0

>  <saltbridge:ASP:75>  (350) 
0

>  <saltbridge:ASP:83>  (350) 
0

>  <hydroph_interaction:ASN:152>  (350) 
0

>  <halogenbond:TYR:150>  (350) 
0

>  <hbond:ASP:83>  (350) 
0

>  <hydroph_interaction:VAL:155>  (350) 
0

>  <pication:TYR:161>  (350) 
0

>  <hbond:PRO:131>  (350) 
0

>  <hbond:LEU:128>  (350) 
0

>  <saltbridge:ASP:129>  (350) 
0

>  <hbond:THR:134>  (350) 
0

>  <pication:HIS:51>  (350) 
0

>  <hbond:SER:81>  (350) 
0

>  <hbond:GLY:159>  (350) 
0

>  <hydroph_interaction:PRO:101>  (350) 
0

>  <hydroph_interaction:THR:134>  (350) 
0

>  <hbond:GLY:82>  (350) 
0

>  <hydroph_interaction:GLU:104>  (350) 
0

>  <hydroph_interaction:VAL:36>  (350) 
0

>  <hydroph_interaction:MET:49>  (350) 
0

>  <halogenbond:GLU:104>  (350) 
0

>  <hydroph_interaction:LYS:107>  (350) 
0

$$$$
RIFDEYZNUXHVFN-UHFFFAOYSA-N
     RDKit          3D

 38 40  0  0  0  0  0  0  0  0999 V2000
   -7.7260    5.5250  -15.0000 C   0  0  0  0  0  0  0  0  0  0  0  0
   -8.6220    5.4580  -13.9250 N   0  0  0  0  0  0  0  0  0  0  0  0
   -9.1010    6.7350  -13.3790 C   0  0  0  0  0  0  0  0  0  0  0  0
   -7.9110    7.6560  -13.0420 C   0  0  0  0  0  0  0  0  0  0  0  0
   -7.9950    9.1190  -13.4950 C   0  0  0  0  0  0  0  0  0  0  0  0
   -9.3890    9.7200  -13.5730 C   0  0  0  0  0  0  0  0  0  0  0  0
  -10.5610    8.7730  -13.7520 C   0  0  0  0  0  0  0  0  0  0  0  0
  -10.1500    7.3350  -14.0420 C   0  0  0  0  0  0  0  0  0  0  0  0
   -6.5290    5.7710  -14.8660 O   0  0  0  0  0  0  0  0  0  0  0  0
   -8.2110    5.2920  -16.3760 C   0  0  0  0  0  0  0  0  0  0  0  0
   -7.3620    5.3660  -17.4850 C   0  0  0  0  0  0  0  0  0  0  0  0
   -7.9110    5.1160  -18.8210 C   0  0  0  0  0  0  0  0  0  0  0  0
   -6.9850    5.1900  -20.0090 C   0  0  0  0  0  0  0  0  0  0  0  0
   -5.6470    5.4900  -19.8990 C   0  0  0  0  0  0  0  0  0  0  0  0
   -5.0230    5.7620  -18.5480 C   0  0  0  0  0  0  0  0  0  0  0  0
   -5.9910    5.6720  -17.3580 C   0  0  0  0  0  0  0  0  0  0  0  0
   -9.2630    4.8150  -18.9600 C   0  0  0  0  0  0  0  0  0  0  0  0
  -10.0850    4.7520  -17.8420 C   0  0  0  0  0  0  0  0  0  0  0  0
   -9.5650    4.9860  -16.5570 C   0  0  0  0  0  0  0  0  0  0  0  0
   -9.2720    4.6780  -13.9030 H   0  0  0  0  0  0  0  0  0  0  0  0
   -9.5330    6.4590  -12.4060 H   0  0  0  0  0  0  0  0  0  0  0  0
   -7.7230    7.6340  -11.9630 H   0  0  0  0  0  0  0  0  0  0  0  0
   -7.0040    7.2240  -13.4840 H   0  0  0  0  0  0  0  0  0  0  0  0
   -7.5010    9.2130  -14.4690 H   0  0  0  0  0  0  0  0  0  0  0  0
   -7.4070    9.7340  -12.8020 H   0  0  0  0  0  0  0  0  0  0  0  0
   -9.5570   10.3000  -12.6610 H   0  0  0  0  0  0  0  0  0  0  0  0
   -9.4080   10.4580  -14.3850 H   0  0  0  0  0  0  0  0  0  0  0  0
  -11.1580    8.7970  -12.8310 H   0  0  0  0  0  0  0  0  0  0  0  0
  -11.2180    9.1300  -14.5540 H   0  0  0  0  0  0  0  0  0  0  0  0
   -9.9840    7.2110  -15.1170 H   0  0  0  0  0  0  0  0  0  0  0  0
  -11.0400    6.7240  -13.8870 H   0  0  0  0  0  0  0  0  0  0  0  0
   -7.4200    4.9900  -20.9930 H   0  0  0  0  0  0  0  0  0  0  0  0
   -5.0190    5.5320  -20.7970 H   0  0  0  0  0  0  0  0  0  0  0  0
   -3.9550    5.9930  -18.5180 H   0  0  0  0  0  0  0  0  0  0  0  0
   -5.5070    5.8700  -16.3980 H   0  0  0  0  0  0  0  0  0  0  0  0
   -9.6830    4.6300  -19.9430 H   0  0  0  0  0  0  0  0  0  0  0  0
  -11.1400    4.5200  -17.9670 H   0  0  0  0  0  0  0  0  0  0  0  0
  -10.2210    4.9290  -15.6930 H   0  0  0  0  0  0  0  0  0  0  0  0
  1  2  1  0
  2  3  1  0
  3  4  1  0
  4  5  1  0
  5  6  1  0
  6  7  1  0
  7  8  1  0
  1  9  2  0
  1 10  1  0
 10 11  1  0
 11 12  1  0
 12 13  2  0
 13 14  1  0
 14 15  2  0
 15 16  1  0
 12 17  1  0
 17 18  2  0
 18 19  1  0
  8  3  1  0
 10 19  2  0
 11 16  2  0
  2 20  1  0
  3 21  1  0
  4 22  1  0
  4 23  1  0
  5 24  1  0
  5 25  1  0
  6 26  1  0
  6 27  1  0
  7 28  1  0
  7 29  1  0
  8 30  1  0
  8 31  1  0
 13 32  1  0
 14 33  1  0
 15 34  1  0
 16 35  1  0
 17 36  1  0
 18 37  1  0
 19 38  1  0
A    1
 C1 
A    2
 N1 
A    3
 C2 
A    4
 C3 
A    5
 C4 
A    6
 C5 
A    7
 C6 
A    8
 C7 
A    9
 O1 
A   10
 C8 
A   11
 C9 
A   12
 C10
A   13
 C11
A   14
 C12
A   15
 C13
A   16
 C14
A   17
 C15
A   18
 C16
A   19
 C17
A   20
 H1 
A   21
 H2 
A   22
 H3 
A   23
 H4 
A   24
 H5 
A   25
 H6 
A   26
 H7 
A   27
 H8 
A   28
 H9 
A   29
 H10
A   30
 H11
A   31
 H12
A   32
 H13
A   33
 H14
A   34
 H15
A   35
 H16
A   36
 H17
A   37
 H18
A   38
 H19
M  END
>  <ref_pdb>  (351) 
x0051_0B

>  <ref_mols>  (351) 
x0429_0B,x0951_0B

>  <original SMILES>  (351) 
[H]c1c([H])c([H])c2c(C(=O)N([H])C3([H])C([H])([H])C([H])([H])C([H])([H])C([H])([H])C3([H])[H])c([H])c([H])c([H])c2c1[H]

>  <index>  (351) 
451

>  <∆∆G>  (351) 
-7.766974

>  <∆G_bound>  (351) 
-7.252442

>  <∆G_unbound>  (351) 
0.514533

>  <comRMSD>  (351) 
0.338944

>  <N_constrained_atoms>  (351) 
16.0

>  <N_unconstrained_atoms>  (351) 
4.0

>  <runtime>  (351) 
56.031305

>  <LE>  (351) 
0.388349

>  <percent_hybrid>  (351) 
45.0

>  <dist>  (351) 
7.0

>  <ecfp4>  (351) 
0.132353

>  <daylight>  (351) 
0.302013

>  <topodist>  (351) 
3.0

>  <mces>  (351) 
21.0

>  <tdn>  (351) 
2.0

>  <tup>  (351) 
0.0

>  <rdn>  (351) 
1.0

>  <rup>  (351) 
0.0

>  <ldn>  (351) 
0.0

>  <lup>  (351) 
0.0

>  <mut>  (351) 
3.0

>  <maj>  (351) 
3.0

>  <min>  (351) 
0.0

>  <hyb>  (351) 
1.0

>  <sub>  (351) 
2.0

>  <query_index>  (351) 
76.0

>  <max_hit_Tanimoto>  (351) 
0.159379

>  <largest_ring>  (351) 
0

>  <N_interactions_kept>  (351) 
0.0

>  <N_interactions_lost>  (351) 
3.0

>  <interaction_uniqueness_metric>  (351) 
0.104266

>  <ad_hoc_penalty>  (351) 
-20.101053

>  <N_rotatable_bonds>  (351) 
2

>  <N_HA>  (351) 
19

>  <cluster>  (351) 
5809

>  <N_interactions>  (351) 
7

>  <Enamine>  (351) 
0

>  <Mcule>  (351) 
1

>  <N_PAINS>  (351) 
0

>  <UFF_Gibbs>  (351) 
107.246698

>  <strain_per_HA>  (351) 
5.644563

>  <saltbridge:HIS:51>  (351) 
0

>  <pistack:HIS:51>  (351) 
0

>  <hydroph_interaction:HIS:51>  (351) 
0

>  <hbond:ALA:132>  (351) 
0

>  <hbond:SER:135>  (351) 
0

>  <hydroph_interaction:TYR:150>  (351) 
1

>  <pistack:TYR:161>  (351) 
1

>  <hydroph_interaction:TYR:161>  (351) 
3

>  <hydroph_interaction:ASP:83>  (351) 
0

>  <hbond:TYR:130>  (351) 
0

>  <hydroph_interaction:ALA:132>  (351) 
1

>  <hbond:HIS:51>  (351) 
0

>  <hbond:ASP:129>  (351) 
0

>  <hbond:TYR:150>  (351) 
0

>  <hbond:GLY:151>  (351) 
1

>  <hbond:TYR:161>  (351) 
0

>  <hydroph_interaction:TYR:130>  (351) 
0

>  <hydroph_interaction:PRO:131>  (351) 
0

>  <hydroph_interaction:ASP:129>  (351) 
0

>  <saltbridge:ASP:75>  (351) 
0

>  <saltbridge:ASP:83>  (351) 
0

>  <hydroph_interaction:ASN:152>  (351) 
0

>  <halogenbond:TYR:150>  (351) 
0

>  <hbond:ASP:83>  (351) 
0

>  <hydroph_interaction:VAL:155>  (351) 
0

>  <pication:TYR:161>  (351) 
0

>  <hbond:PRO:131>  (351) 
0

>  <hbond:LEU:128>  (351) 
0

>  <saltbridge:ASP:129>  (351) 
0

>  <hbond:THR:134>  (351) 
0

>  <pication:HIS:51>  (351) 
0

>  <hbond:SER:81>  (351) 
0

>  <hbond:GLY:159>  (351) 
0

>  <hydroph_interaction:PRO:101>  (351) 
0

>  <hydroph_interaction:THR:134>  (351) 
0

>  <hbond:GLY:82>  (351) 
0

>  <hydroph_interaction:GLU:104>  (351) 
0

>  <hydroph_interaction:VAL:36>  (351) 
0

>  <hydroph_interaction:MET:49>  (351) 
0

>  <halogenbond:GLU:104>  (351) 
0

>  <hydroph_interaction:LYS:107>  (351) 
0

$$$$
BVIDOPBENIRTLO-UHFFFAOYSA-N
     RDKit          3D

 47 49  0  0  0  0  0  0  0  0999 V2000
   -8.9200    6.3520  -14.3700 C   0  0  0  0  0  0  0  0  0  0  0  0
   -9.0380    5.3010  -15.3480 N   0  0  0  0  0  0  0  0  0  0  0  0
   -8.3260    5.2360  -16.5550 C   0  0  0  0  0  0  0  0  0  0  0  0
   -6.8110    5.4040  -16.5140 C   0  0  0  0  0  0  0  0  0  0  0  0
   -6.0420    5.6110  -15.2110 C   0  0  0  0  0  0  0  0  0  0  0  0
   -6.0890    5.3650  -17.7120 C   0  0  0  0  0  0  0  0  0  0  0  0
   -6.7690    5.1560  -19.0600 C   0  0  0  0  0  0  0  0  0  0  0  0
   -8.1390    4.9870  -19.0990 C   0  0  0  0  0  0  0  0  0  0  0  0
   -8.9500    5.0220  -17.8080 C   0  0  0  0  0  0  0  0  0  0  0  0
  -10.4100    4.8150  -17.9740 C   0  0  0  0  0  0  0  0  0  0  0  0
   -8.8270    7.6800  -14.5580 O   0  0  0  0  0  0  0  0  0  0  0  0
   -8.8660    5.9270  -12.9690 C   0  0  0  0  0  0  0  0  0  0  0  0
   -8.7860    6.8060  -11.8830 C   0  0  0  0  0  0  0  0  0  0  0  0
   -8.7300    6.2180  -10.5130 C   0  0  0  0  0  0  0  0  0  0  0  0
   -8.7580    4.8240  -10.3580 C   0  0  0  0  0  0  0  0  0  0  0  0
   -8.7080    4.2360   -9.1340 N   0  0  0  0  0  0  0  0  0  0  0  0
   -8.8360    2.7890   -9.0150 C   0  0  0  0  0  0  0  0  0  0  0  0
   -9.7260    2.4990   -7.8310 C   0  0  0  0  0  0  0  0  0  0  0  0
   -9.2640    3.2570   -6.5890 C   0  0  0  0  0  0  0  0  0  0  0  0
   -8.8750    4.7110   -6.8010 C   0  0  0  0  0  0  0  0  0  0  0  0
   -8.0080    4.8740   -8.0320 C   0  0  0  0  0  0  0  0  0  0  0  0
   -8.8400    4.0390  -11.4990 C   0  0  0  0  0  0  0  0  0  0  0  0
   -8.8930    4.5690  -12.7700 C   0  0  0  0  0  0  0  0  0  0  0  0
   -9.4380    4.4150  -15.0360 H   0  0  0  0  0  0  0  0  0  0  0  0
   -6.4200    4.9620  -14.4130 H   0  0  0  0  0  0  0  0  0  0  0  0
   -4.9820    5.3640  -15.3510 H   0  0  0  0  0  0  0  0  0  0  0  0
   -6.1410    6.6460  -14.8680 H   0  0  0  0  0  0  0  0  0  0  0  0
   -5.0000    5.4780  -17.7910 H   0  0  0  0  0  0  0  0  0  0  0  0
   -6.1760    5.1340  -19.9810 H   0  0  0  0  0  0  0  0  0  0  0  0
   -8.6300    4.8270  -20.0590 H   0  0  0  0  0  0  0  0  0  0  0  0
  -10.8130    4.4780  -17.0320 H   0  0  0  0  0  0  0  0  0  0  0  0
  -10.9490    5.6820  -18.3520 H   0  0  0  0  0  0  0  0  0  0  0  0
  -10.5760    4.0310  -18.7030 H   0  0  0  0  0  0  0  0  0  0  0  0
   -8.7620    7.8850  -12.0070 H   0  0  0  0  0  0  0  0  0  0  0  0
   -8.6690    6.8830   -9.6540 H   0  0  0  0  0  0  0  0  0  0  0  0
   -7.8720    2.2730   -8.9390 H   0  0  0  0  0  0  0  0  0  0  0  0
   -9.3150    2.3980   -9.9220 H   0  0  0  0  0  0  0  0  0  0  0  0
  -10.7590    2.7750   -8.0540 H   0  0  0  0  0  0  0  0  0  0  0  0
   -9.7340    1.4280   -7.6290 H   0  0  0  0  0  0  0  0  0  0  0  0
  -10.0930    3.2640   -5.8740 H   0  0  0  0  0  0  0  0  0  0  0  0
   -8.4260    2.7270   -6.1280 H   0  0  0  0  0  0  0  0  0  0  0  0
   -9.7830    5.3160   -6.9020 H   0  0  0  0  0  0  0  0  0  0  0  0
   -8.3380    5.0790   -5.9210 H   0  0  0  0  0  0  0  0  0  0  0  0
   -7.0420    4.3720   -7.8810 H   0  0  0  0  0  0  0  0  0  0  0  0
   -7.7860    5.9340   -8.1960 H   0  0  0  0  0  0  0  0  0  0  0  0
   -8.8670    2.9560  -11.4340 H   0  0  0  0  0  0  0  0  0  0  0  0
   -8.9540    3.9020  -13.6190 H   0  0  0  0  0  0  0  0  0  0  0  0
  1  2  1  0
  2  3  1  0
  3  4  2  0
  4  5  1  0
  4  6  1  0
  6  7  2  0
  7  8  1  0
  8  9  2  0
  9 10  1  0
  1 11  2  0
  1 12  1  0
 12 13  2  0
 13 14  1  0
 14 15  2  0
 15 16  1  0
 16 17  1  0
 17 18  1  0
 18 19  1  0
 19 20  1  0
 20 21  1  0
 15 22  1  0
 22 23  2  0
  9  3  1  0
 23 12  1  0
 21 16  1  0
  2 24  1  0
  5 25  1  0
  5 26  1  0
  5 27  1  0
  6 28  1  0
  7 29  1  0
  8 30  1  0
 10 31  1  0
 10 32  1  0
 10 33  1  0
 13 34  1  0
 14 35  1  0
 17 36  1  0
 17 37  1  0
 18 38  1  0
 18 39  1  0
 19 40  1  0
 19 41  1  0
 20 42  1  0
 20 43  1  0
 21 44  1  0
 21 45  1  0
 22 46  1  0
 23 47  1  0
A    1
 C1 
A    2
 N1 
A    3
 C2 
A    4
 C3 
A    5
 C4 
A    6
 C5 
A    7
 C6 
A    8
 C7 
A    9
 C8 
A   10
 C9 
A   11
 O1 
A   12
 C10
A   13
 C11
A   14
 C12
A   15
 C13
A   16
 N2 
A   17
 C14
A   18
 C15
A   19
 C16
A   20
 C17
A   21
 C18
A   22
 C19
A   23
 C20
A   24
 H1 
A   25
 H2 
A   26
 H3 
A   27
 H4 
A   28
 H5 
A   29
 H6 
A   30
 H7 
A   31
 H8 
A   32
 H9 
A   33
 H10
A   34
 H11
A   35
 H12
A   36
 H13
A   37
 H14
A   38
 H15
A   39
 H16
A   40
 H17
A   41
 H18
A   42
 H19
A   43
 H20
A   44
 H21
A   45
 H22
A   46
 H23
A   47
 H24
M  END
>  <ref_pdb>  (352) 
x0051_0B

>  <ref_mols>  (352) 
x0404_0B,x0605_0B

>  <original SMILES>  (352) 
[H]c1c([H])c(C([H])([H])[H])c(N([H])C(=O)c2c([H])c([H])c(N3C([H])([H])C([H])([H])C([H])([H])C([H])([H])C3([H])[H])c([H])c2[H])c(C([H])([H])[H])c1[H]

>  <index>  (352) 
410

>  <∆∆G>  (352) 
-9.739076

>  <∆G_bound>  (352) 
-9.870416

>  <∆G_unbound>  (352) 
-0.131339

>  <comRMSD>  (352) 
0.601106

>  <N_constrained_atoms>  (352) 
23.0

>  <N_unconstrained_atoms>  (352) 
1.0

>  <runtime>  (352) 
71.067965

>  <LE>  (352) 
0.405795

>  <percent_hybrid>  (352) 
40.0

>  <dist>  (352) 
7.0

>  <ecfp4>  (352) 
0.289855

>  <daylight>  (352) 
0.264368

>  <topodist>  (352) 
3.0

>  <mces>  (352) 
25.0

>  <tdn>  (352) 
2.0

>  <tup>  (352) 
0.0

>  <rdn>  (352) 
0.0

>  <rup>  (352) 
0.0

>  <ldn>  (352) 
1.0

>  <lup>  (352) 
0.0

>  <mut>  (352) 
2.0

>  <maj>  (352) 
2.0

>  <min>  (352) 
0.0

>  <hyb>  (352) 
2.0

>  <sub>  (352) 
0.0

>  <query_index>  (352) 
352.0

>  <max_hit_Tanimoto>  (352) 
0.253894

>  <largest_ring>  (352) 
0

>  <N_interactions_kept>  (352) 
1.0

>  <N_interactions_lost>  (352) 
3.0

>  <interaction_uniqueness_metric>  (352) 
0.183404

>  <ad_hoc_penalty>  (352) 
-20.091452

>  <N_rotatable_bonds>  (352) 
5

>  <N_HA>  (352) 
23

>  <cluster>  (352) 
524

>  <N_interactions>  (352) 
7

>  <Enamine>  (352) 
0

>  <Mcule>  (352) 
1

>  <N_PAINS>  (352) 
0

>  <UFF_Gibbs>  (352) 
164.398118

>  <strain_per_HA>  (352) 
7.147744

>  <saltbridge:HIS:51>  (352) 
0

>  <pistack:HIS:51>  (352) 
1

>  <hydroph_interaction:HIS:51>  (352) 
1

>  <hbond:ALA:132>  (352) 
0

>  <hbond:SER:135>  (352) 
0

>  <hydroph_interaction:TYR:150>  (352) 
1

>  <pistack:TYR:161>  (352) 
1

>  <hydroph_interaction:TYR:161>  (352) 
1

>  <hydroph_interaction:ASP:83>  (352) 
0

>  <hbond:TYR:130>  (352) 
0

>  <hydroph_interaction:ALA:132>  (352) 
0

>  <hbond:HIS:51>  (352) 
0

>  <hbond:ASP:129>  (352) 
0

>  <hbond:TYR:150>  (352) 
0

>  <hbond:GLY:151>  (352) 
1

>  <hbond:TYR:161>  (352) 
1

>  <hydroph_interaction:TYR:130>  (352) 
0

>  <hydroph_interaction:PRO:131>  (352) 
0

>  <hydroph_interaction:ASP:129>  (352) 
0

>  <saltbridge:ASP:75>  (352) 
0

>  <saltbridge:ASP:83>  (352) 
0

>  <hydroph_interaction:ASN:152>  (352) 
0

>  <halogenbond:TYR:150>  (352) 
0

>  <hbond:ASP:83>  (352) 
0

>  <hydroph_interaction:VAL:155>  (352) 
0

>  <pication:TYR:161>  (352) 
0

>  <hbond:PRO:131>  (352) 
0

>  <hbond:LEU:128>  (352) 
0

>  <saltbridge:ASP:129>  (352) 
0

>  <hbond:THR:134>  (352) 
0

>  <pication:HIS:51>  (352) 
0

>  <hbond:SER:81>  (352) 
0

>  <hbond:GLY:159>  (352) 
0

>  <hydroph_interaction:PRO:101>  (352) 
0

>  <hydroph_interaction:THR:134>  (352) 
0

>  <hbond:GLY:82>  (352) 
0

>  <hydroph_interaction:GLU:104>  (352) 
0

>  <hydroph_interaction:VAL:36>  (352) 
0

>  <hydroph_interaction:MET:49>  (352) 
0

>  <halogenbond:GLU:104>  (352) 
0

>  <hydroph_interaction:LYS:107>  (352) 
0

$$$$
PV-002737628761
     RDKit          3D

 23 24  0  0  0  0  0  0  0  0999 V2000
   -5.8440    5.3410  -16.1960 C   0  0  0  0  0  0  0  0  0  0  0  0
   -5.6120    5.3270  -17.7010 C   0  0  0  0  0  0  0  0  0  0  0  0
   -4.1470    5.4690  -18.1360 C   0  0  0  0  0  0  0  0  0  0  0  0
   -3.9390    5.4570  -19.6610 C   0  0  0  0  0  0  0  0  0  0  0  0
   -2.5250    5.5950  -20.0510 N   0  0  0  0  0  0  0  0  0  0  0  0
   -4.9250    5.3360  -20.5780 N   0  0  0  0  0  0  0  0  0  0  0  0
   -6.2040    5.2060  -20.1420 C   0  0  0  0  0  0  0  0  0  0  0  0
   -6.6210    5.1920  -18.6710 C   0  0  0  0  0  0  0  0  0  0  0  0
   -8.0640    5.0280  -18.3380 C   0  0  0  0  0  0  0  0  0  0  0  0
   -8.5250    5.0300  -17.0270 C   0  0  0  0  0  0  0  0  0  0  0  0
   -9.9180    4.8590  -16.9500 O   0  0  0  0  0  0  0  0  0  0  0  0
  -10.2580    4.7600  -18.2520 C   0  0  0  0  0  0  0  0  0  0  0  0
   -9.2180    4.8470  -19.1550 C   0  0  0  0  0  0  0  0  0  0  0  0
   -4.8860    5.2480  -15.6740 H   0  0  0  0  0  0  0  0  0  0  0  0
   -6.4720    4.5100  -15.8730 H   0  0  0  0  0  0  0  0  0  0  0  0
   -6.3120    6.2750  -15.8710 H   0  0  0  0  0  0  0  0  0  0  0  0
   -3.3200    5.5720  -17.4400 H   0  0  0  0  0  0  0  0  0  0  0  0
   -2.1470    6.4970  -19.7910 H   0  0  0  0  0  0  0  0  0  0  0  0
   -2.4360    5.4210  -21.0480 H   0  0  0  0  0  0  0  0  0  0  0  0
   -6.9410    5.1090  -20.9350 H   0  0  0  0  0  0  0  0  0  0  0  0
   -7.9960    5.1370  -16.0930 H   0  0  0  0  0  0  0  0  0  0  0  0
  -11.2760    4.6200  -18.6330 H   0  0  0  0  0  0  0  0  0  0  0  0
   -9.2840    4.7910  -20.2340 H   0  0  0  0  0  0  0  0  0  0  0  0
  1  2  1  0
  2  3  2  0
  3  4  1  0
  4  5  1  0
  4  6  2  0
  6  7  1  0
  7  8  2  0
  8  9  1  0
  9 10  2  0
 10 11  1  0
 11 12  1  0
 12 13  2  0
  8  2  1  0
 13  9  1  0
  1 14  1  0
  1 15  1  0
  1 16  1  0
  3 17  1  0
  5 18  1  0
  5 19  1  0
  7 20  1  0
 10 21  1  0
 12 22  1  0
 13 23  1  0
A    1
 C1 
A    2
 C2 
A    3
 C3 
A    4
 C4 
A    5
 N1 
A    6
 N2 
A    7
 C5 
A    8
 C6 
A    9
 C7 
A   10
 C8 
A   11
 O1 
A   12
 C9 
A   13
 C10
A   14
 H1 
A   15
 H2 
A   16
 H3 
A   17
 H4 
A   18
 H5 
A   19
 H6 
A   20
 H7 
A   21
 H8 
A   22
 H9 
A   23
 H10
M  END
>  <ref_pdb>  (353) 
x0051_0B

>  <ref_mols>  (353) 
x0680_0B,x0386_0B

>  <original SMILES>  (353) 
[H]c1nc(N([H])[H])c([H])c(C([H])([H])[H])c1-c1c([H])oc([H])c1[H]

>  <index>  (353) 
264

>  <∆∆G>  (353) 
-6.451253

>  <∆G_bound>  (353) 
-6.55483

>  <∆G_unbound>  (353) 
-0.103576

>  <comRMSD>  (353) 
0.78996

>  <N_constrained_atoms>  (353) 
13.0

>  <N_unconstrained_atoms>  (353) 
1.0

>  <runtime>  (353) 
21.371244

>  <LE>  (353) 
0.460804

>  <percent_hybrid>  (353) 
25.0

>  <dist>  (353) 
2.0

>  <ecfp4>  (353) 
0.269231

>  <daylight>  (353) 
0.453237

>  <topodist>  (353) 
1.0

>  <mces>  (353) 
13.0

>  <tdn>  (353) 
0.0

>  <tup>  (353) 
1.0

>  <rdn>  (353) 
0.0

>  <rup>  (353) 
0.0

>  <ldn>  (353) 
0.0

>  <lup>  (353) 
0.0

>  <mut>  (353) 
1.0

>  <maj>  (353) 
1.0

>  <min>  (353) 
0.0

>  <hyb>  (353) 
0.0

>  <sub>  (353) 
1.0

>  <query_index>  (353) 
296.0

>  <max_hit_Tanimoto>  (353) 
0.183801

>  <largest_ring>  (353) 
0

>  <N_interactions_kept>  (353) 
3.0

>  <N_interactions_lost>  (353) 
1.0

>  <interaction_uniqueness_metric>  (353) 
0.034305

>  <ad_hoc_penalty>  (353) 
-20.069755

>  <N_rotatable_bonds>  (353) 
3

>  <N_HA>  (353) 
13

>  <cluster>  (353) 
5976

>  <N_interactions>  (353) 
5

>  <Enamine>  (353) 
1

>  <Mcule>  (353) 
0

>  <N_PAINS>  (353) 
0

>  <UFF_Gibbs>  (353) 
107.300777

>  <strain_per_HA>  (353) 
8.253906

>  <saltbridge:HIS:51>  (353) 
0

>  <pistack:HIS:51>  (353) 
0

>  <hydroph_interaction:HIS:51>  (353) 
0

>  <hbond:ALA:132>  (353) 
0

>  <hbond:SER:135>  (353) 
0

>  <hydroph_interaction:TYR:150>  (353) 
1

>  <pistack:TYR:161>  (353) 
0

>  <hydroph_interaction:TYR:161>  (353) 
4

>  <hydroph_interaction:ASP:83>  (353) 
0

>  <hbond:TYR:130>  (353) 
0

>  <hydroph_interaction:ALA:132>  (353) 
0

>  <hbond:HIS:51>  (353) 
0

>  <hbond:ASP:129>  (353) 
0

>  <hbond:TYR:150>  (353) 
0

>  <hbond:GLY:151>  (353) 
0

>  <hbond:TYR:161>  (353) 
0

>  <hydroph_interaction:TYR:130>  (353) 
0

>  <hydroph_interaction:PRO:131>  (353) 
0

>  <hydroph_interaction:ASP:129>  (353) 
0

>  <saltbridge:ASP:75>  (353) 
0

>  <saltbridge:ASP:83>  (353) 
0

>  <hydroph_interaction:ASN:152>  (353) 
0

>  <halogenbond:TYR:150>  (353) 
0

>  <hbond:ASP:83>  (353) 
0

>  <hydroph_interaction:VAL:155>  (353) 
0

>  <pication:TYR:161>  (353) 
0

>  <hbond:PRO:131>  (353) 
0

>  <hbond:LEU:128>  (353) 
0

>  <saltbridge:ASP:129>  (353) 
0

>  <hbond:THR:134>  (353) 
0

>  <pication:HIS:51>  (353) 
0

>  <hbond:SER:81>  (353) 
0

>  <hbond:GLY:159>  (353) 
0

>  <hydroph_interaction:PRO:101>  (353) 
0

>  <hydroph_interaction:THR:134>  (353) 
0

>  <hbond:GLY:82>  (353) 
0

>  <hydroph_interaction:GLU:104>  (353) 
0

>  <hydroph_interaction:VAL:36>  (353) 
0

>  <hydroph_interaction:MET:49>  (353) 
0

>  <halogenbond:GLU:104>  (353) 
0

>  <hydroph_interaction:LYS:107>  (353) 
0

$$$$
MCULE-6139782932
     RDKit          3D

 28 30  0  0  0  0  0  0  0  0999 V2000
   -3.9120    5.8230  -16.4350 C   0  0  0  0  0  0  0  0  0  0  0  0
   -4.9980    4.9830  -17.0600 C   0  0  0  0  0  0  0  0  0  0  0  0
   -6.0490    5.9800  -17.5520 C   0  0  0  0  0  0  0  0  0  0  0  0
   -7.4720    5.5300  -17.5300 C   0  0  0  0  0  0  0  0  0  0  0  0
   -7.9010    5.2810  -18.8330 C   0  0  0  0  0  0  0  0  0  0  0  0
   -9.1900    4.8560  -19.0980 C   0  0  0  0  0  0  0  0  0  0  0  0
  -10.0560    4.6820  -18.0270 C   0  0  0  0  0  0  0  0  0  0  0  0
   -9.6250    4.9270  -16.7130 C   0  0  0  0  0  0  0  0  0  0  0  0
   -8.3240    5.3540  -16.4580 C   0  0  0  0  0  0  0  0  0  0  0  0
   -6.9070    5.5050  -19.8140 N   0  0  0  0  0  0  0  0  0  0  0  0
   -5.8970    6.2850  -19.0670 C   0  0  0  0  0  0  0  0  0  0  0  0
   -5.8440    7.2250  -16.6640 C   0  0  0  0  0  0  0  0  0  0  0  0
   -4.6930    6.9040  -15.7210 C   0  0  0  0  0  0  0  0  0  0  0  0
   -3.3320    5.2330  -15.7150 H   0  0  0  0  0  0  0  0  0  0  0  0
   -3.2190    6.2260  -17.1790 H   0  0  0  0  0  0  0  0  0  0  0  0
   -4.5680    4.4250  -17.8980 H   0  0  0  0  0  0  0  0  0  0  0  0
   -5.3950    4.2640  -16.3470 H   0  0  0  0  0  0  0  0  0  0  0  0
   -9.5070    4.6700  -20.1180 H   0  0  0  0  0  0  0  0  0  0  0  0
  -11.0750    4.3540  -18.2110 H   0  0  0  0  0  0  0  0  0  0  0  0
  -10.3110    4.7820  -15.8840 H   0  0  0  0  0  0  0  0  0  0  0  0
   -8.0030    5.5420  -15.4390 H   0  0  0  0  0  0  0  0  0  0  0  0
   -6.5420    4.5960  -20.0970 H   0  0  0  0  0  0  0  0  0  0  0  0
   -4.8940    6.0580  -19.4480 H   0  0  0  0  0  0  0  0  0  0  0  0
   -6.0900    7.3460  -19.2750 H   0  0  0  0  0  0  0  0  0  0  0  0
   -5.5670    8.0950  -17.2740 H   0  0  0  0  0  0  0  0  0  0  0  0
   -6.7430    7.5030  -16.1040 H   0  0  0  0  0  0  0  0  0  0  0  0
   -5.0630    6.5640  -14.7490 H   0  0  0  0  0  0  0  0  0  0  0  0
   -4.0630    7.7850  -15.5490 H   0  0  0  0  0  0  0  0  0  0  0  0
  1  2  1  0
  2  3  1  0
  3  4  1  0
  4  5  1  0
  5  6  2  0
  6  7  1  0
  7  8  2  0
  8  9  1  0
  5 10  1  0
 10 11  1  0
  3 12  1  0
 12 13  1  0
 13  1  1  0
 11  3  1  0
  9  4  2  0
  1 14  1  0
  1 15  1  0
  2 16  1  0
  2 17  1  0
  6 18  1  0
  7 19  1  0
  8 20  1  0
  9 21  1  0
 10 22  1  0
 11 23  1  0
 11 24  1  0
 12 25  1  0
 12 26  1  0
 13 27  1  0
 13 28  1  0
A    1
 C1 
A    2
 C2 
A    3
 C3 
A    4
 C4 
A    5
 C5 
A    6
 C6 
A    7
 C7 
A    8
 C8 
A    9
 C9 
A   10
 N1 
A   11
 C10
A   12
 C11
A   13
 C12
A   14
 H1 
A   15
 H2 
A   16
 H3 
A   17
 H4 
A   18
 H5 
A   19
 H6 
A   20
 H7 
A   21
 H8 
A   22
 H9 
A   23
 H10
A   24
 H11
A   25
 H12
A   26
 H13
A   27
 H14
A   28
 H15
M  END
>  <ref_pdb>  (354) 
x0051_0B

>  <ref_mols>  (354) 
x0490_0B,x0227_0B

>  <original SMILES>  (354) 
[H]c1c([H])c([H])c2c(c1[H])N([H])C([H])([H])C21C([H])([H])C([H])([H])C([H])([H])C1([H])[H]

>  <index>  (354) 
746

>  <∆∆G>  (354) 
-5.613241

>  <∆G_bound>  (354) 
-5.529737

>  <∆G_unbound>  (354) 
0.083504

>  <comRMSD>  (354) 
0.629885

>  <N_constrained_atoms>  (354) 
15.0

>  <N_unconstrained_atoms>  (354) 
0.0

>  <runtime>  (354) 
25.927847

>  <LE>  (354) 
0.374216

>  <percent_hybrid>  (354) 
34.0

>  <dist>  (354) 
1.0

>  <ecfp4>  (354) 
0.473684

>  <daylight>  (354) 
0.964286

>  <topodist>  (354) 
1.0

>  <mces>  (354) 
15.0

>  <tdn>  (354) 
1.0

>  <tup>  (354) 
0.0

>  <rdn>  (354) 
0.0

>  <rup>  (354) 
0.0

>  <ldn>  (354) 
0.0

>  <lup>  (354) 
0.0

>  <mut>  (354) 
0.0

>  <maj>  (354) 
0.0

>  <min>  (354) 
0.0

>  <hyb>  (354) 
0.0

>  <sub>  (354) 
1.0

>  <query_index>  (354) 
171.0

>  <max_hit_Tanimoto>  (354) 
0.345428

>  <largest_ring>  (354) 
6

>  <N_interactions_kept>  (354) 
2.0

>  <N_interactions_lost>  (354) 
3.0

>  <interaction_uniqueness_metric>  (354) 
0.078124

>  <ad_hoc_penalty>  (354) 
-20.065235

>  <N_rotatable_bonds>  (354) 
0

>  <N_HA>  (354) 
13

>  <cluster>  (354) 
5536

>  <N_interactions>  (354) 
6

>  <Enamine>  (354) 
0

>  <Mcule>  (354) 
1

>  <N_PAINS>  (354) 
0

>  <UFF_Gibbs>  (354) 
21.871176

>  <strain_per_HA>  (354) 
1.682398

>  <saltbridge:HIS:51>  (354) 
0

>  <pistack:HIS:51>  (354) 
0

>  <hydroph_interaction:HIS:51>  (354) 
0

>  <hbond:ALA:132>  (354) 
0

>  <hbond:SER:135>  (354) 
0

>  <hydroph_interaction:TYR:150>  (354) 
1

>  <pistack:TYR:161>  (354) 
0

>  <hydroph_interaction:TYR:161>  (354) 
3

>  <hydroph_interaction:ASP:83>  (354) 
0

>  <hbond:TYR:130>  (354) 
1

>  <hydroph_interaction:ALA:132>  (354) 
1

>  <hbond:HIS:51>  (354) 
0

>  <hbond:ASP:129>  (354) 
0

>  <hbond:TYR:150>  (354) 
0

>  <hbond:GLY:151>  (354) 
0

>  <hbond:TYR:161>  (354) 
0

>  <hydroph_interaction:TYR:130>  (354) 
0

>  <hydroph_interaction:PRO:131>  (354) 
0

>  <hydroph_interaction:ASP:129>  (354) 
0

>  <saltbridge:ASP:75>  (354) 
0

>  <saltbridge:ASP:83>  (354) 
0

>  <hydroph_interaction:ASN:152>  (354) 
0

>  <halogenbond:TYR:150>  (354) 
0

>  <hbond:ASP:83>  (354) 
0

>  <hydroph_interaction:VAL:155>  (354) 
0

>  <pication:TYR:161>  (354) 
0

>  <hbond:PRO:131>  (354) 
0

>  <hbond:LEU:128>  (354) 
0

>  <saltbridge:ASP:129>  (354) 
0

>  <hbond:THR:134>  (354) 
0

>  <pication:HIS:51>  (354) 
0

>  <hbond:SER:81>  (354) 
0

>  <hbond:GLY:159>  (354) 
0

>  <hydroph_interaction:PRO:101>  (354) 
0

>  <hydroph_interaction:THR:134>  (354) 
0

>  <hbond:GLY:82>  (354) 
0

>  <hydroph_interaction:GLU:104>  (354) 
0

>  <hydroph_interaction:VAL:36>  (354) 
0

>  <hydroph_interaction:MET:49>  (354) 
0

>  <halogenbond:GLU:104>  (354) 
0

>  <hydroph_interaction:LYS:107>  (354) 
0

$$$$
MCULE-1782747924
     RDKit          3D

 40 42  0  0  0  0  0  0  0  0999 V2000
   -8.9080    2.5520   -6.9030 O   0  0  0  0  0  0  0  0  0  0  0  0
   -9.5970    2.3870   -7.9070 C   0  0  0  0  0  0  0  0  0  0  0  0
   -8.9680    2.9630   -8.9330 C   0  0  0  0  0  0  0  0  0  0  0  0
   -8.8210    4.2770   -8.9830 N   0  0  0  0  0  0  0  0  0  0  0  0
   -8.2100    4.7550   -7.7330 C   0  0  0  0  0  0  0  0  0  0  0  0
   -8.7630    3.9320   -6.5710 C   0  0  0  0  0  0  0  0  0  0  0  0
   -8.8090    4.9640  -10.1190 C   0  0  0  0  0  0  0  0  0  0  0  0
   -8.6900    6.3100  -10.1620 C   0  0  0  0  0  0  0  0  0  0  0  0
   -8.6740    7.1100  -11.3600 C   0  0  0  0  0  0  0  0  0  0  0  0
   -8.7960    6.4810  -12.7330 C   0  0  0  0  0  0  0  0  0  0  0  0
   -8.9150    5.1070  -12.6510 C   0  0  0  0  0  0  0  0  0  0  0  0
   -8.9230    4.3310  -11.3600 C   0  0  0  0  0  0  0  0  0  0  0  0
   -8.8110    7.1140  -14.0560 C   0  0  0  0  0  0  0  0  0  0  0  0
   -9.5820    6.2970  -15.0370 C   0  0  0  0  0  0  0  0  0  0  0  0
   -8.9140    5.7980  -16.3370 C   0  0  0  0  0  0  0  0  0  0  0  0
   -7.4510    6.1800  -16.6510 C   0  0  0  0  0  0  0  0  0  0  0  0
   -6.8880    5.6930  -17.9790 C   0  0  0  0  0  0  0  0  0  0  0  0
   -7.6980    4.9380  -18.8310 C   0  0  0  0  0  0  0  0  0  0  0  0
   -9.1320    4.5810  -18.4350 C   0  0  0  0  0  0  0  0  0  0  0  0
   -9.6570    5.0170  -17.2320 C   0  0  0  0  0  0  0  0  0  0  0  0
   -8.2540    8.2050  -14.2350 O   0  0  0  0  0  0  0  0  0  0  0  0
   -9.6670    1.3160   -7.9900 H   0  0  0  0  0  0  0  0  0  0  0  0
  -10.5630    2.8040   -7.6500 H   0  0  0  0  0  0  0  0  0  0  0  0
   -7.9870    2.5360   -9.1470 H   0  0  0  0  0  0  0  0  0  0  0  0
   -9.5380    2.6330   -9.8070 H   0  0  0  0  0  0  0  0  0  0  0  0
   -8.4740    5.8040   -7.5460 H   0  0  0  0  0  0  0  0  0  0  0  0
   -7.1160    4.7010   -7.7610 H   0  0  0  0  0  0  0  0  0  0  0  0
   -8.0890    3.9990   -5.7090 H   0  0  0  0  0  0  0  0  0  0  0  0
   -9.7460    4.3070   -6.2650 H   0  0  0  0  0  0  0  0  0  0  0  0
   -8.6010    6.8080   -9.1870 H   0  0  0  0  0  0  0  0  0  0  0  0
   -8.5740    8.2000  -11.2780 H   0  0  0  0  0  0  0  0  0  0  0  0
   -9.0120    4.5380  -13.5850 H   0  0  0  0  0  0  0  0  0  0  0  0
   -9.0280    3.2470  -11.5000 H   0  0  0  0  0  0  0  0  0  0  0  0
  -10.4650    6.8810  -15.3210 H   0  0  0  0  0  0  0  0  0  0  0  0
   -9.9840    5.4160  -14.5180 H   0  0  0  0  0  0  0  0  0  0  0  0
   -6.9260    6.7830  -15.9030 H   0  0  0  0  0  0  0  0  0  0  0  0
   -5.8710    5.9330  -18.2630 H   0  0  0  0  0  0  0  0  0  0  0  0
   -7.2870    4.6020  -19.7810 H   0  0  0  0  0  0  0  0  0  0  0  0
   -9.7420    3.9850  -19.1040 H   0  0  0  0  0  0  0  0  0  0  0  0
  -10.6730    4.7410  -17.0030 H   0  0  0  0  0  0  0  0  0  0  0  0
  1  2  1  0
  2  3  1  0
  3  4  1  0
  4  5  1  0
  5  6  1  0
  4  7  1  0
  7  8  2  0
  8  9  1  0
  9 10  2  0
 10 11  1  0
 11 12  2  0
 10 13  1  0
 13 14  1  0
 14 15  1  0
 15 16  2  0
 16 17  1  0
 17 18  2  0
 18 19  1  0
 19 20  2  0
 13 21  2  0
  6  1  1  0
 12  7  1  0
 20 15  1  0
  2 22  1  0
  2 23  1  0
  3 24  1  0
  3 25  1  0
  5 26  1  0
  5 27  1  0
  6 28  1  0
  6 29  1  0
  8 30  1  0
  9 31  1  0
 11 32  1  0
 12 33  1  0
 14 34  1  0
 14 35  1  0
 16 36  1  0
 17 37  1  0
 18 38  1  0
 19 39  1  0
 20 40  1  0
A    1
 O1 
A    2
 C1 
A    3
 C2 
A    4
 N1 
A    5
 C3 
A    6
 C4 
A    7
 C5 
A    8
 C6 
A    9
 C7 
A   10
 C8 
A   11
 C9 
A   12
 C10
A   13
 C11
A   14
 C12
A   15
 C13
A   16
 C14
A   17
 C15
A   18
 C16
A   19
 C17
A   20
 C18
A   21
 O2 
A   22
 H1 
A   23
 H2 
A   24
 H3 
A   25
 H4 
A   26
 H5 
A   27
 H6 
A   28
 H7 
A   29
 H8 
A   30
 H9 
A   31
 H10
A   32
 H11
A   33
 H12
A   34
 H13
A   35
 H14
A   36
 H15
A   37
 H16
A   38
 H17
A   39
 H18
A   40
 H19
M  END
>  <ref_pdb>  (355) 
x0051_0B

>  <ref_mols>  (355) 
x0589_0B,x0404_0B

>  <original SMILES>  (355) 
[H]c1c([H])c([H])c(C([H])([H])C(=O)c2c([H])c([H])c(N3C([H])([H])C([H])([H])OC([H])([H])C3([H])[H])c([H])c2[H])c([H])c1[H]

>  <index>  (355) 
221

>  <∆∆G>  (355) 
-6.734488

>  <∆G_bound>  (355) 
-6.32188

>  <∆G_unbound>  (355) 
0.412608

>  <comRMSD>  (355) 
0.646607

>  <N_constrained_atoms>  (355) 
23.0

>  <N_unconstrained_atoms>  (355) 
0.0

>  <runtime>  (355) 
90.848674

>  <LE>  (355) 
0.292804

>  <percent_hybrid>  (355) 
35.0

>  <dist>  (355) 
7.0

>  <ecfp4>  (355) 
0.202899

>  <daylight>  (355) 
0.231638

>  <topodist>  (355) 
4.0

>  <mces>  (355) 
23.0

>  <tdn>  (355) 
3.0

>  <tup>  (355) 
0.0

>  <rdn>  (355) 
0.0

>  <rup>  (355) 
0.0

>  <ldn>  (355) 
1.0

>  <lup>  (355) 
0.0

>  <mut>  (355) 
3.0

>  <maj>  (355) 
3.0

>  <min>  (355) 
0.0

>  <hyb>  (355) 
0.0

>  <sub>  (355) 
2.0

>  <query_index>  (355) 
29.0

>  <max_hit_Tanimoto>  (355) 
0.265568

>  <largest_ring>  (355) 
0

>  <N_interactions_kept>  (355) 
2.0

>  <N_interactions_lost>  (355) 
1.5

>  <interaction_uniqueness_metric>  (355) 
0.116545

>  <ad_hoc_penalty>  (355) 
-20.060829

>  <N_rotatable_bonds>  (355) 
4

>  <N_HA>  (355) 
21

>  <cluster>  (355) 
6017

>  <N_interactions>  (355) 
6

>  <Enamine>  (355) 
0

>  <Mcule>  (355) 
1

>  <N_PAINS>  (355) 
0

>  <UFF_Gibbs>  (355) 
217.121008

>  <strain_per_HA>  (355) 
10.339096

>  <saltbridge:HIS:51>  (355) 
0

>  <pistack:HIS:51>  (355) 
1

>  <hydroph_interaction:HIS:51>  (355) 
1

>  <hbond:ALA:132>  (355) 
0

>  <hbond:SER:135>  (355) 
0

>  <hydroph_interaction:TYR:150>  (355) 
1

>  <pistack:TYR:161>  (355) 
0

>  <hydroph_interaction:TYR:161>  (355) 
2

>  <hydroph_interaction:ASP:83>  (355) 
0

>  <hbond:TYR:130>  (355) 
0

>  <hydroph_interaction:ALA:132>  (355) 
1

>  <hbond:HIS:51>  (355) 
0

>  <hbond:ASP:129>  (355) 
0

>  <hbond:TYR:150>  (355) 
0

>  <hbond:GLY:151>  (355) 
0

>  <hbond:TYR:161>  (355) 
0

>  <hydroph_interaction:TYR:130>  (355) 
0

>  <hydroph_interaction:PRO:131>  (355) 
0

>  <hydroph_interaction:ASP:129>  (355) 
0

>  <saltbridge:ASP:75>  (355) 
0

>  <saltbridge:ASP:83>  (355) 
0

>  <hydroph_interaction:ASN:152>  (355) 
0

>  <halogenbond:TYR:150>  (355) 
0

>  <hbond:ASP:83>  (355) 
0

>  <hydroph_interaction:VAL:155>  (355) 
0

>  <pication:TYR:161>  (355) 
0

>  <hbond:PRO:131>  (355) 
0

>  <hbond:LEU:128>  (355) 
0

>  <saltbridge:ASP:129>  (355) 
0

>  <hbond:THR:134>  (355) 
0

>  <pication:HIS:51>  (355) 
0

>  <hbond:SER:81>  (355) 
0

>  <hbond:GLY:159>  (355) 
0

>  <hydroph_interaction:PRO:101>  (355) 
0

>  <hydroph_interaction:THR:134>  (355) 
0

>  <hbond:GLY:82>  (355) 
0

>  <hydroph_interaction:GLU:104>  (355) 
0

>  <hydroph_interaction:VAL:36>  (355) 
0

>  <hydroph_interaction:MET:49>  (355) 
0

>  <halogenbond:GLU:104>  (355) 
0

>  <hydroph_interaction:LYS:107>  (355) 
0

$$$$
CQYMJEGQZGOJIN-UHFFFAOYSA-N
     RDKit          3D

 31 32  0  0  0  0  0  0  0  0999 V2000
   -6.4440    5.1480  -20.3680 C   0  0  0  0  0  0  0  0  0  0  0  0
   -6.7230    5.9530  -19.3480 N   0  0  0  0  0  0  0  0  0  0  0  0
   -7.7290    5.5630  -18.3990 C   0  0  0  0  0  0  0  0  0  0  0  0
   -9.0450    5.0650  -18.9910 C   0  0  0  0  0  0  0  0  0  0  0  0
  -10.0350    4.7280  -17.9070 C   0  0  0  0  0  0  0  0  0  0  0  0
   -9.6220    4.8970  -16.4440 C   0  0  0  0  0  0  0  0  0  0  0  0
   -8.3670    5.3490  -16.0560 C   0  0  0  0  0  0  0  0  0  0  0  0
   -7.9430    5.5090  -14.7340 C   0  0  0  0  0  0  0  0  0  0  0  0
   -8.9420    5.4050  -13.8380 O   0  0  0  0  0  0  0  0  0  0  0  0
   -9.4830    6.6670  -13.4640 C   0  0  0  0  0  0  0  0  0  0  0  0
   -6.7710    5.7310  -14.4640 O   0  0  0  0  0  0  0  0  0  0  0  0
   -7.4440    5.6770  -17.0380 C   0  0  0  0  0  0  0  0  0  0  0  0
   -7.1860    4.3300  -20.9000 O   0  0  0  0  0  0  0  0  0  0  0  0
   -5.0670    5.3200  -20.8760 C   0  0  0  0  0  0  0  0  0  0  0  0
   -3.9410    5.3610  -20.0490 C   0  0  0  0  0  0  0  0  0  0  0  0
   -3.9870    5.2110  -18.1650 Br  0  0  0  0  0  0  0  0  0  0  0  0
   -2.7010    5.5170  -20.6210 C   0  0  0  0  0  0  0  0  0  0  0  0
   -2.5150    5.6520  -22.0750 N   0  0  0  0  0  0  0  0  0  0  0  0
   -3.6500    5.6110  -22.8030 C   0  0  0  0  0  0  0  0  0  0  0  0
   -4.9170    5.4500  -22.2530 C   0  0  0  0  0  0  0  0  0  0  0  0
   -5.8600    6.1440  -18.8400 H   0  0  0  0  0  0  0  0  0  0  0  0
   -9.2790    4.9660  -20.0460 H   0  0  0  0  0  0  0  0  0  0  0  0
  -11.0520    4.3630  -18.0820 H   0  0  0  0  0  0  0  0  0  0  0  0
  -10.3410    4.6510  -15.6570 H   0  0  0  0  0  0  0  0  0  0  0  0
   -9.5870    6.6800  -12.3760 H   0  0  0  0  0  0  0  0  0  0  0  0
  -10.4740    6.8020  -13.9090 H   0  0  0  0  0  0  0  0  0  0  0  0
   -8.8060    7.4790  -13.7610 H   0  0  0  0  0  0  0  0  0  0  0  0
   -6.4580    6.0430  -16.7220 H   0  0  0  0  0  0  0  0  0  0  0  0
   -1.8010    5.5500  -20.0160 H   0  0  0  0  0  0  0  0  0  0  0  0
   -3.5160    5.7120  -23.8770 H   0  0  0  0  0  0  0  0  0  0  0  0
   -5.7880    5.4260  -22.8970 H   0  0  0  0  0  0  0  0  0  0  0  0
  1  2  1  0
  2  3  1  0
  3  4  2  0
  4  5  1  0
  5  6  2  0
  6  7  1  0
  7  8  1  0
  8  9  1  0
  9 10  1  0
  8 11  2  0
  7 12  2  0
  1 13  2  0
  1 14  1  0
 14 15  2  0
 15 16  1  0
 15 17  1  0
 17 18  2  0
 18 19  1  0
 19 20  2  0
  3 12  1  0
 20 14  1  0
  2 21  1  0
  4 22  1  0
  5 23  1  0
  6 24  1  0
 10 25  1  0
 10 26  1  0
 10 27  1  0
 12 28  1  0
 17 29  1  0
 19 30  1  0
 20 31  1  0
A    1
 C1 
A    2
 N1 
A    3
 C2 
A    4
 C3 
A    5
 C4 
A    6
 C5 
A    7
 C6 
A    8
 C7 
A    9
 O1 
A   10
 C8 
A   11
 O2 
A   12
 C9 
A   13
 O3 
A   14
 C10
A   15
 C11
A   16
BR1 
A   17
 C12
A   18
 N2 
A   19
 C13
A   20
 C14
A   21
 H1 
A   22
 H2 
A   23
 H3 
A   24
 H4 
A   25
 H5 
A   26
 H6 
A   27
 H7 
A   28
 H8 
A   29
 H9 
A   30
 H10
A   31
 H11
M  END
>  <ref_pdb>  (356) 
x0051_0B

>  <ref_mols>  (356) 
x0852_0B,x0951_0B

>  <original SMILES>  (356) 
[H]c1nc([H])c(Br)c(C(=O)N([H])c2c([H])c([H])c([H])c(C(=O)OC([H])([H])[H])c2[H])c1[H]

>  <index>  (356) 
500

>  <∆∆G>  (356) 
-6.294751

>  <∆G_bound>  (356) 
-5.699902

>  <∆G_unbound>  (356) 
0.594848

>  <comRMSD>  (356) 
0.510487

>  <N_constrained_atoms>  (356) 
23.0

>  <N_unconstrained_atoms>  (356) 
0.0

>  <runtime>  (356) 
43.459951

>  <LE>  (356) 
0.273685

>  <percent_hybrid>  (356) 
32.0

>  <dist>  (356) 
7.0

>  <ecfp4>  (356) 
0.306667

>  <daylight>  (356) 
0.357466

>  <topodist>  (356) 
4.0

>  <mces>  (356) 
21.0

>  <tdn>  (356) 
2.0

>  <tup>  (356) 
0.0

>  <rdn>  (356) 
1.0

>  <rup>  (356) 
0.0

>  <ldn>  (356) 
1.0

>  <lup>  (356) 
0.0

>  <mut>  (356) 
3.0

>  <maj>  (356) 
2.0

>  <min>  (356) 
1.0

>  <hyb>  (356) 
0.0

>  <sub>  (356) 
2.0

>  <query_index>  (356) 
95.0

>  <max_hit_Tanimoto>  (356) 
0.395047

>  <largest_ring>  (356) 
6

>  <N_interactions_kept>  (356) 
3.0

>  <N_interactions_lost>  (356) 
3.0

>  <interaction_uniqueness_metric>  (356) 
0.203248

>  <ad_hoc_penalty>  (356) 
-20.048202

>  <N_rotatable_bonds>  (356) 
4

>  <N_HA>  (356) 
20

>  <cluster>  (356) 
5761

>  <N_interactions>  (356) 
8

>  <Enamine>  (356) 
0

>  <Mcule>  (356) 
1

>  <N_PAINS>  (356) 
0

>  <UFF_Gibbs>  (356) 
117.921267

>  <strain_per_HA>  (356) 
5.896063

>  <saltbridge:HIS:51>  (356) 
1

>  <pistack:HIS:51>  (356) 
0

>  <hydroph_interaction:HIS:51>  (356) 
0

>  <hbond:ALA:132>  (356) 
0

>  <hbond:SER:135>  (356) 
0

>  <hydroph_interaction:TYR:150>  (356) 
1

>  <pistack:TYR:161>  (356) 
0

>  <hydroph_interaction:TYR:161>  (356) 
3

>  <hydroph_interaction:ASP:83>  (356) 
0

>  <hbond:TYR:130>  (356) 
1

>  <hydroph_interaction:ALA:132>  (356) 
1

>  <hbond:HIS:51>  (356) 
0

>  <hbond:ASP:129>  (356) 
0

>  <hbond:TYR:150>  (356) 
0

>  <hbond:GLY:151>  (356) 
0

>  <hbond:TYR:161>  (356) 
0

>  <hydroph_interaction:TYR:130>  (356) 
0

>  <hydroph_interaction:PRO:131>  (356) 
0

>  <hydroph_interaction:ASP:129>  (356) 
1

>  <saltbridge:ASP:75>  (356) 
0

>  <saltbridge:ASP:83>  (356) 
0

>  <hydroph_interaction:ASN:152>  (356) 
0

>  <halogenbond:TYR:150>  (356) 
0

>  <hbond:ASP:83>  (356) 
0

>  <hydroph_interaction:VAL:155>  (356) 
0

>  <pication:TYR:161>  (356) 
0

>  <hbond:PRO:131>  (356) 
0

>  <hbond:LEU:128>  (356) 
0

>  <saltbridge:ASP:129>  (356) 
0

>  <hbond:THR:134>  (356) 
0

>  <pication:HIS:51>  (356) 
0

>  <hbond:SER:81>  (356) 
0

>  <hbond:GLY:159>  (356) 
0

>  <hydroph_interaction:PRO:101>  (356) 
0

>  <hydroph_interaction:THR:134>  (356) 
0

>  <hbond:GLY:82>  (356) 
0

>  <hydroph_interaction:GLU:104>  (356) 
0

>  <hydroph_interaction:VAL:36>  (356) 
0

>  <hydroph_interaction:MET:49>  (356) 
0

>  <halogenbond:GLU:104>  (356) 
0

>  <hydroph_interaction:LYS:107>  (356) 
0

$$$$
Z3577257414
     RDKit          3D

 43 46  0  0  0  0  0  0  0  0999 V2000
   -8.6580    7.3250  -13.2530 O   0  0  0  0  0  0  0  0  0  0  0  0
   -8.6240    6.1450  -13.5940 C   0  0  0  0  0  0  0  0  0  0  0  0
   -8.8060    5.1070  -12.6370 N   0  0  0  0  0  0  0  0  0  0  0  0
   -8.8330    5.2840  -11.2060 C   0  0  0  0  0  0  0  0  0  0  0  0
   -9.0080    4.2020  -10.1390 C   0  0  0  0  0  0  0  0  0  0  0  0
   -9.1740    2.8630  -10.3760 C   0  0  0  0  0  0  0  0  0  0  0  0
   -9.4760    2.1110   -9.2170 C   0  0  0  0  0  0  0  0  0  0  0  0
   -9.6310    2.7650   -7.9730 C   0  0  0  0  0  0  0  0  0  0  0  0
   -9.1100    4.0530   -7.7010 C   0  0  0  0  0  0  0  0  0  0  0  0
   -8.9730    4.7950   -8.9390 N   0  0  0  0  0  0  0  0  0  0  0  0
   -8.7990    6.1300   -9.0040 N   0  0  0  0  0  0  0  0  0  0  0  0
   -8.7180    6.4230  -10.3410 C   0  0  0  0  0  0  0  0  0  0  0  0
   -8.3630    5.8650  -15.0370 C   0  0  0  0  0  0  0  0  0  0  0  0
   -8.9960    5.1640  -16.0700 C   0  0  0  0  0  0  0  0  0  0  0  0
   -8.3640    5.2010  -17.3270 N   0  0  0  0  0  0  0  0  0  0  0  0
   -7.2570    5.9310  -17.2530 C   0  0  0  0  0  0  0  0  0  0  0  0
   -6.2390    6.2890  -18.3570 C   0  0  0  0  0  0  0  0  0  0  0  0
   -6.8510    6.8790  -19.6250 C   0  0  0  0  0  0  0  0  0  0  0  0
   -5.8500    6.8220  -20.7650 C   0  0  0  0  0  0  0  0  0  0  0  0
   -4.4970    6.8250  -20.3060 O   0  0  0  0  0  0  0  0  0  0  0  0
   -4.1410    5.6740  -19.5450 C   0  0  0  0  0  0  0  0  0  0  0  0
   -5.3180    5.1470  -18.7390 C   0  0  0  0  0  0  0  0  0  0  0  0
   -6.9460    6.5630  -15.6990 S   0  0  0  0  0  0  0  0  0  0  0  0
   -9.1290    4.2020  -12.9570 H   0  0  0  0  0  0  0  0  0  0  0  0
   -8.1990    2.4890  -10.7060 H   0  0  0  0  0  0  0  0  0  0  0  0
   -9.8170    2.6410  -11.2250 H   0  0  0  0  0  0  0  0  0  0  0  0
  -10.2590    1.3900   -9.3920 H   0  0  0  0  0  0  0  0  0  0  0  0
   -8.6160    1.4580   -9.0780 H   0  0  0  0  0  0  0  0  0  0  0  0
   -9.2080    2.0980   -7.2120 H   0  0  0  0  0  0  0  0  0  0  0  0
  -10.6980    2.7980   -7.7380 H   0  0  0  0  0  0  0  0  0  0  0  0
   -9.7180    4.7050   -7.0840 H   0  0  0  0  0  0  0  0  0  0  0  0
   -8.1210    4.0790   -7.2520 H   0  0  0  0  0  0  0  0  0  0  0  0
   -8.5770    7.4620  -10.6180 H   0  0  0  0  0  0  0  0  0  0  0  0
   -9.9200    4.6070  -15.9910 H   0  0  0  0  0  0  0  0  0  0  0  0
   -5.5780    7.0610  -17.9400 H   0  0  0  0  0  0  0  0  0  0  0  0
   -7.0990    7.9270  -19.4820 H   0  0  0  0  0  0  0  0  0  0  0  0
   -7.7770    6.3520  -19.8700 H   0  0  0  0  0  0  0  0  0  0  0  0
   -6.0060    5.9260  -21.3770 H   0  0  0  0  0  0  0  0  0  0  0  0
   -5.9810    7.6860  -21.4270 H   0  0  0  0  0  0  0  0  0  0  0  0
   -3.7950    4.9250  -20.2600 H   0  0  0  0  0  0  0  0  0  0  0  0
   -3.2880    5.9240  -18.9030 H   0  0  0  0  0  0  0  0  0  0  0  0
   -4.9740    4.6020  -17.8600 H   0  0  0  0  0  0  0  0  0  0  0  0
   -5.8920    4.4590  -19.3690 H   0  0  0  0  0  0  0  0  0  0  0  0
  1  2  2  0
  2  3  1  0
  3  4  1  0
  4  5  2  0
  5  6  1  0
  6  7  1  0
  7  8  1  0
  8  9  1  0
  9 10  1  0
 10 11  1  0
 11 12  2  0
  2 13  1  0
 13 14  2  0
 14 15  1  0
 15 16  2  0
 16 17  1  0
 17 18  1  0
 18 19  1  0
 19 20  1  0
 20 21  1  0
 21 22  1  0
 16 23  1  0
 12  4  1  0
 10  5  1  0
 23 13  1  0
 22 17  1  0
  3 24  1  0
  6 25  1  0
  6 26  1  0
  7 27  1  0
  7 28  1  0
  8 29  1  0
  8 30  1  0
  9 31  1  0
  9 32  1  0
 12 33  1  0
 14 34  1  0
 17 35  1  0
 18 36  1  0
 18 37  1  0
 19 38  1  0
 19 39  1  0
 21 40  1  0
 21 41  1  0
 22 42  1  0
 22 43  1  0
A    1
 O1 
A    2
 C1 
A    3
 N1 
A    4
 C2 
A    5
 C3 
A    6
 C4 
A    7
 C5 
A    8
 C6 
A    9
 C7 
A   10
 N2 
A   11
 N3 
A   12
 C8 
A   13
 C9 
A   14
 C10
A   15
 N4 
A   16
 C11
A   17
 C12
A   18
 C13
A   19
 C14
A   20
 O2 
A   21
 C15
A   22
 C16
A   23
 S1 
A   24
 H1 
A   25
 H2 
A   26
 H3 
A   27
 H4 
A   28
 H5 
A   29
 H6 
A   30
 H7 
A   31
 H8 
A   32
 H9 
A   33
 H10
A   34
 H11
A   35
 H12
A   36
 H13
A   37
 H14
A   38
 H15
A   39
 H16
A   40
 H17
A   41
 H18
A   42
 H19
A   43
 H20
M  END
>  <ref_pdb>  (357) 
x0051_0B

>  <ref_mols>  (357) 
x0917_1B,x0969_1B

>  <original SMILES>  (357) 
[H]c1nc(C2([H])C([H])([H])C([H])([H])OC([H])([H])C2([H])[H])sc1C(=O)N([H])c1c([H])nn2c1C([H])([H])C([H])([H])C([H])([H])C2([H])[H]

>  <index>  (357) 
586

>  <∆∆G>  (357) 
-5.093161

>  <∆G_bound>  (357) 
-4.429848

>  <∆G_unbound>  (357) 
0.663313

>  <comRMSD>  (357) 
0.636535

>  <N_constrained_atoms>  (357) 
24.0

>  <N_unconstrained_atoms>  (357) 
0.0

>  <runtime>  (357) 
76.804519

>  <LE>  (357) 
0.212215

>  <percent_hybrid>  (357) 
40.0

>  <dist>  (357) 
10.0

>  <ecfp4>  (357) 
0.215909

>  <daylight>  (357) 
0.292191

>  <topodist>  (357) 
2.0

>  <mces>  (357) 
26.0

>  <tdn>  (357) 
2.0

>  <tup>  (357) 
0.0

>  <rdn>  (357) 
0.0

>  <rup>  (357) 
0.0

>  <ldn>  (357) 
0.0

>  <lup>  (357) 
0.0

>  <mut>  (357) 
6.0

>  <maj>  (357) 
6.0

>  <min>  (357) 
0.0

>  <hyb>  (357) 
2.0

>  <sub>  (357) 
0.0

>  <query_index>  (357) 
298.0

>  <max_hit_Tanimoto>  (357) 
0.259916

>  <largest_ring>  (357) 
6

>  <N_interactions_kept>  (357) 
1.0

>  <N_interactions_lost>  (357) 
2.0

>  <interaction_uniqueness_metric>  (357) 
0.147635

>  <ad_hoc_penalty>  (357) 
-20.019532

>  <N_rotatable_bonds>  (357) 
3

>  <N_HA>  (357) 
23

>  <cluster>  (357) 
5682

>  <N_interactions>  (357) 
6

>  <Enamine>  (357) 
1

>  <Mcule>  (357) 
0

>  <N_PAINS>  (357) 
0

>  <UFF_Gibbs>  (357) 
98.268876

>  <strain_per_HA>  (357) 
4.27256

>  <saltbridge:HIS:51>  (357) 
0

>  <pistack:HIS:51>  (357) 
1

>  <hydroph_interaction:HIS:51>  (357) 
1

>  <hbond:ALA:132>  (357) 
0

>  <hbond:SER:135>  (357) 
0

>  <hydroph_interaction:TYR:150>  (357) 
0

>  <pistack:TYR:161>  (357) 
1

>  <hydroph_interaction:TYR:161>  (357) 
1

>  <hydroph_interaction:ASP:83>  (357) 
0

>  <hbond:TYR:130>  (357) 
0

>  <hydroph_interaction:ALA:132>  (357) 
1

>  <hbond:HIS:51>  (357) 
0

>  <hbond:ASP:129>  (357) 
0

>  <hbond:TYR:150>  (357) 
0

>  <hbond:GLY:151>  (357) 
1

>  <hbond:TYR:161>  (357) 
0

>  <hydroph_interaction:TYR:130>  (357) 
0

>  <hydroph_interaction:PRO:131>  (357) 
0

>  <hydroph_interaction:ASP:129>  (357) 
0

>  <saltbridge:ASP:75>  (357) 
0

>  <saltbridge:ASP:83>  (357) 
0

>  <hydroph_interaction:ASN:152>  (357) 
0

>  <halogenbond:TYR:150>  (357) 
0

>  <hbond:ASP:83>  (357) 
0

>  <hydroph_interaction:VAL:155>  (357) 
0

>  <pication:TYR:161>  (357) 
0

>  <hbond:PRO:131>  (357) 
0

>  <hbond:LEU:128>  (357) 
0

>  <saltbridge:ASP:129>  (357) 
0

>  <hbond:THR:134>  (357) 
0

>  <pication:HIS:51>  (357) 
0

>  <hbond:SER:81>  (357) 
0

>  <hbond:GLY:159>  (357) 
0

>  <hydroph_interaction:PRO:101>  (357) 
0

>  <hydroph_interaction:THR:134>  (357) 
0

>  <hbond:GLY:82>  (357) 
0

>  <hydroph_interaction:GLU:104>  (357) 
0

>  <hydroph_interaction:VAL:36>  (357) 
0

>  <hydroph_interaction:MET:49>  (357) 
0

>  <halogenbond:GLU:104>  (357) 
0

>  <hydroph_interaction:LYS:107>  (357) 
0

$$$$
Z3553180198
     RDKit          3D

 41 44  0  0  0  0  0  0  0  0999 V2000
   -6.3840    5.0890  -20.2420 C   0  0  0  0  0  0  0  0  0  0  0  0
   -6.5610    5.1650  -18.9230 N   0  0  0  0  0  0  0  0  0  0  0  0
   -5.4060    5.4070  -18.2860 N   0  0  0  0  0  0  0  0  0  0  0  0
   -5.7240    5.4580  -16.9870 N   0  0  0  0  0  0  0  0  0  0  0  0
   -7.0860    5.2460  -16.8400 C   0  0  0  0  0  0  0  0  0  0  0  0
   -7.9040    5.2080  -15.6950 C   0  0  0  0  0  0  0  0  0  0  0  0
   -7.3220    5.4130  -14.4150 C   0  0  0  0  0  0  0  0  0  0  0  0
   -8.1760    4.9240  -13.3100 O   0  0  0  0  0  0  0  0  0  0  0  0
   -8.7520    5.9250  -12.5270 C   0  0  0  0  0  0  0  0  0  0  0  0
   -9.2490    6.9090  -13.0670 O   0  0  0  0  0  0  0  0  0  0  0  0
   -8.7680    5.8370  -10.9910 C   0  0  0  0  0  0  0  0  0  0  0  0
   -8.9060    4.5750  -10.1490 C   0  0  0  0  0  0  0  0  0  0  0  0
   -9.0420    3.1320  -10.5070 C   0  0  0  0  0  0  0  0  0  0  0  0
   -9.3520    2.1520   -9.3590 C   0  0  0  0  0  0  0  0  0  0  0  0
   -9.5880    2.7920   -7.9940 C   0  0  0  0  0  0  0  0  0  0  0  0
   -9.0110    4.1540   -7.6650 C   0  0  0  0  0  0  0  0  0  0  0  0
   -8.8910    5.0050   -8.8300 N   0  0  0  0  0  0  0  0  0  0  0  0
   -8.7470    6.3620   -8.7480 C   0  0  0  0  0  0  0  0  0  0  0  0
   -8.6720    6.8960  -10.0390 C   0  0  0  0  0  0  0  0  0  0  0  0
   -9.2760    4.9680  -15.9350 C   0  0  0  0  0  0  0  0  0  0  0  0
   -9.7900    4.7730  -17.2300 C   0  0  0  0  0  0  0  0  0  0  0  0
   -8.9780    4.8080  -18.3560 C   0  0  0  0  0  0  0  0  0  0  0  0
   -7.6400    5.0510  -18.1130 C   0  0  0  0  0  0  0  0  0  0  0  0
   -5.3580    4.7920  -20.4800 H   0  0  0  0  0  0  0  0  0  0  0  0
   -6.5930    6.0610  -20.6990 H   0  0  0  0  0  0  0  0  0  0  0  0
   -7.0720    4.3460  -20.6590 H   0  0  0  0  0  0  0  0  0  0  0  0
   -6.3650    4.9110  -14.2790 H   0  0  0  0  0  0  0  0  0  0  0  0
   -7.1160    6.4460  -14.1600 H   0  0  0  0  0  0  0  0  0  0  0  0
   -8.1190    2.7920  -10.9860 H   0  0  0  0  0  0  0  0  0  0  0  0
   -9.8330    3.0430  -11.2590 H   0  0  0  0  0  0  0  0  0  0  0  0
   -8.7200    1.2780   -9.3130 H   0  0  0  0  0  0  0  0  0  0  0  0
  -10.3210    1.7440   -9.5970 H   0  0  0  0  0  0  0  0  0  0  0  0
  -10.6700    2.8280   -7.8380 H   0  0  0  0  0  0  0  0  0  0  0  0
   -9.2130    2.0960   -7.2350 H   0  0  0  0  0  0  0  0  0  0  0  0
   -9.6650    4.6820   -6.9640 H   0  0  0  0  0  0  0  0  0  0  0  0
   -8.0210    4.0570   -7.2160 H   0  0  0  0  0  0  0  0  0  0  0  0
   -8.7100    6.8570   -7.7870 H   0  0  0  0  0  0  0  0  0  0  0  0
   -8.5620    7.9490  -10.2730 H   0  0  0  0  0  0  0  0  0  0  0  0
   -9.9650    4.9310  -15.0870 H   0  0  0  0  0  0  0  0  0  0  0  0
  -10.8470    4.5910  -17.3650 H   0  0  0  0  0  0  0  0  0  0  0  0
   -9.3780    4.6560  -19.3540 H   0  0  0  0  0  0  0  0  0  0  0  0
  1  2  1  0
  2  3  1  0
  3  4  2  0
  4  5  1  0
  5  6  2  0
  6  7  1  0
  7  8  1  0
  8  9  1  0
  9 10  2  0
  9 11  1  0
 11 12  2  0
 12 13  1  0
 13 14  1  0
 14 15  1  0
 15 16  1  0
 16 17  1  0
 17 18  1  0
 18 19  2  0
  6 20  1  0
 20 21  2  0
 21 22  1  0
 22 23  2  0
 23  2  1  0
 23  5  1  0
 19 11  1  0
 17 12  1  0
  1 24  1  0
  1 25  1  0
  1 26  1  0
  7 27  1  0
  7 28  1  0
 13 29  1  0
 13 30  1  0
 14 31  1  0
 14 32  1  0
 15 33  1  0
 15 34  1  0
 16 35  1  0
 16 36  1  0
 18 37  1  0
 19 38  1  0
 20 39  1  0
 21 40  1  0
 22 41  1  0
A    1
 C1 
A    2
 N1 
A    3
 N2 
A    4
 N3 
A    5
 C2 
A    6
 C3 
A    7
 C4 
A    8
 O1 
A    9
 C5 
A   10
 O2 
A   11
 C6 
A   12
 C7 
A   13
 C8 
A   14
 C9 
A   15
 C10
A   16
 C11
A   17
 N4 
A   18
 C12
A   19
 C13
A   20
 C14
A   21
 C15
A   22
 C16
A   23
 C17
A   24
 H1 
A   25
 H2 
A   26
 H3 
A   27
 H4 
A   28
 H5 
A   29
 H6 
A   30
 H7 
A   31
 H8 
A   32
 H9 
A   33
 H10
A   34
 H11
A   35
 H12
A   36
 H13
A   37
 H14
A   38
 H15
A   39
 H16
A   40
 H17
A   41
 H18
M  END
>  <ref_pdb>  (358) 
x0051_0B

>  <ref_mols>  (358) 
x0969_1B,x0435_0B

>  <original SMILES>  (358) 
[H]c1c([H])c([H])c2c(nnn2C([H])([H])[H])c1C([H])([H])OC(=O)c1c([H])c([H])n2c1C([H])([H])C([H])([H])C([H])([H])C2([H])[H]

>  <index>  (358) 
640

>  <∆∆G>  (358) 
-6.52204

>  <∆G_bound>  (358) 
-6.059121

>  <∆G_unbound>  (358) 
0.462919

>  <comRMSD>  (358) 
0.455673

>  <N_constrained_atoms>  (358) 
20.0

>  <N_unconstrained_atoms>  (358) 
3.0

>  <runtime>  (358) 
61.534674

>  <LE>  (358) 
0.283567

>  <percent_hybrid>  (358) 
50.0

>  <dist>  (358) 
7.0

>  <ecfp4>  (358) 
0.106383

>  <daylight>  (358) 
0.300292

>  <topodist>  (358) 
1.0

>  <mces>  (358) 
25.0

>  <tdn>  (358) 
0.0

>  <tup>  (358) 
1.0

>  <rdn>  (358) 
0.0

>  <rup>  (358) 
0.0

>  <ldn>  (358) 
0.0

>  <lup>  (358) 
0.0

>  <mut>  (358) 
5.0

>  <maj>  (358) 
5.0

>  <min>  (358) 
0.0

>  <hyb>  (358) 
1.0

>  <sub>  (358) 
0.0

>  <query_index>  (358) 
343.0

>  <max_hit_Tanimoto>  (358) 
0.223929

>  <largest_ring>  (358) 
6

>  <N_interactions_kept>  (358) 
2.0

>  <N_interactions_lost>  (358) 
1.5

>  <interaction_uniqueness_metric>  (358) 
0.172651

>  <ad_hoc_penalty>  (358) 
-20.011472

>  <N_rotatable_bonds>  (358) 
4

>  <N_HA>  (358) 
23

>  <cluster>  (358) 
5633

>  <N_interactions>  (358) 
5

>  <Enamine>  (358) 
1

>  <Mcule>  (358) 
0

>  <N_PAINS>  (358) 
0

>  <UFF_Gibbs>  (358) 
85.826902

>  <strain_per_HA>  (358) 
3.731604

>  <saltbridge:HIS:51>  (358) 
1

>  <pistack:HIS:51>  (358) 
1

>  <hydroph_interaction:HIS:51>  (358) 
1

>  <hbond:ALA:132>  (358) 
0

>  <hbond:SER:135>  (358) 
0

>  <hydroph_interaction:TYR:150>  (358) 
0

>  <pistack:TYR:161>  (358) 
2

>  <hydroph_interaction:TYR:161>  (358) 
0

>  <hydroph_interaction:ASP:83>  (358) 
0

>  <hbond:TYR:130>  (358) 
0

>  <hydroph_interaction:ALA:132>  (358) 
0

>  <hbond:HIS:51>  (358) 
0

>  <hbond:ASP:129>  (358) 
0

>  <hbond:TYR:150>  (358) 
0

>  <hbond:GLY:151>  (358) 
0

>  <hbond:TYR:161>  (358) 
0

>  <hydroph_interaction:TYR:130>  (358) 
0

>  <hydroph_interaction:PRO:131>  (358) 
0

>  <hydroph_interaction:ASP:129>  (358) 
0

>  <saltbridge:ASP:75>  (358) 
0

>  <saltbridge:ASP:83>  (358) 
0

>  <hydroph_interaction:ASN:152>  (358) 
0

>  <halogenbond:TYR:150>  (358) 
0

>  <hbond:ASP:83>  (358) 
0

>  <hydroph_interaction:VAL:155>  (358) 
0

>  <pication:TYR:161>  (358) 
0

>  <hbond:PRO:131>  (358) 
0

>  <hbond:LEU:128>  (358) 
0

>  <saltbridge:ASP:129>  (358) 
0

>  <hbond:THR:134>  (358) 
0

>  <pication:HIS:51>  (358) 
0

>  <hbond:SER:81>  (358) 
0

>  <hbond:GLY:159>  (358) 
0

>  <hydroph_interaction:PRO:101>  (358) 
0

>  <hydroph_interaction:THR:134>  (358) 
0

>  <hbond:GLY:82>  (358) 
0

>  <hydroph_interaction:GLU:104>  (358) 
0

>  <hydroph_interaction:VAL:36>  (358) 
0

>  <hydroph_interaction:MET:49>  (358) 
0

>  <halogenbond:GLU:104>  (358) 
0

>  <hydroph_interaction:LYS:107>  (358) 
0

$$$$
Z1319493543
     RDKit          3D

 46 50  0  0  0  0  0  0  0  0999 V2000
   -4.4230    5.3540  -21.0640 O   0  0  0  0  0  0  0  0  0  0  0  0
   -5.2580    6.2080  -20.7700 C   0  0  0  0  0  0  0  0  0  0  0  0
   -5.4900    7.3380  -21.7440 C   0  0  0  0  0  0  0  0  0  0  0  0
   -6.0160    7.0800  -23.0450 C   0  0  0  0  0  0  0  0  0  0  0  0
   -6.2350    8.1030  -23.9640 C   0  0  0  0  0  0  0  0  0  0  0  0
   -5.9320    9.5020  -23.6380 C   0  0  0  0  0  0  0  0  0  0  0  0
   -6.1830   10.4770  -24.6190 C   0  0  0  0  0  0  0  0  0  0  0  0
   -5.6040   10.0530  -26.1800 S   0  0  0  0  0  0  0  0  0  0  0  0
   -7.0770    9.4340  -26.8010 C   0  0  0  0  0  0  0  0  0  0  0  0
   -7.4070    8.1610  -27.2070 N   0  0  0  0  0  0  0  0  0  0  0  0
   -8.6860    8.1230  -27.6230 C   0  0  0  0  0  0  0  0  0  0  0  0
   -9.3170    6.9940  -28.0810 C   0  0  0  0  0  0  0  0  0  0  0  0
  -10.6450    7.1830  -28.4460 C   0  0  0  0  0  0  0  0  0  0  0  0
  -11.2570    8.4550  -28.3430 C   0  0  0  0  0  0  0  0  0  0  0  0
  -10.6070    9.6070  -27.8800 C   0  0  0  0  0  0  0  0  0  0  0  0
   -9.2680    9.3760  -27.5180 C   0  0  0  0  0  0  0  0  0  0  0  0
   -8.2450   10.2070  -27.0020 N   0  0  0  0  0  0  0  0  0  0  0  0
   -5.4110    9.8050  -22.3730 C   0  0  0  0  0  0  0  0  0  0  0  0
   -5.1760    8.6530  -21.3640 C   0  0  0  0  0  0  0  0  0  0  0  0
   -5.9550    6.1100  -19.5300 N   0  0  0  0  0  0  0  0  0  0  0  0
   -5.1040    5.8170  -18.3580 C   0  0  0  0  0  0  0  0  0  0  0  0
   -5.6850    6.2540  -17.1550 C   0  0  0  0  0  0  0  0  0  0  0  0
   -7.0250    5.7300  -17.0500 N   0  0  0  0  0  0  0  0  0  0  0  0
   -7.7720    5.4880  -15.9490 C   0  0  0  0  0  0  0  0  0  0  0  0
   -8.9120    5.0210  -16.3230 N   0  0  0  0  0  0  0  0  0  0  0  0
   -8.9060    4.9550  -17.6660 N   0  0  0  0  0  0  0  0  0  0  0  0
   -7.7600    5.3870  -18.1190 C   0  0  0  0  0  0  0  0  0  0  0  0
   -7.3070    5.5100  -19.4410 C   0  0  0  0  0  0  0  0  0  0  0  0
   -6.2540    6.0610  -23.3300 H   0  0  0  0  0  0  0  0  0  0  0  0
   -6.6410    7.8480  -24.9400 H   0  0  0  0  0  0  0  0  0  0  0  0
   -7.2530   10.6320  -24.7000 H   0  0  0  0  0  0  0  0  0  0  0  0
   -5.7750   11.4460  -24.3090 H   0  0  0  0  0  0  0  0  0  0  0  0
   -8.8140    6.0350  -28.1450 H   0  0  0  0  0  0  0  0  0  0  0  0
  -11.2220    6.3370  -28.8180 H   0  0  0  0  0  0  0  0  0  0  0  0
  -12.3000    8.5510  -28.6420 H   0  0  0  0  0  0  0  0  0  0  0  0
  -11.0960   10.5740  -27.8100 H   0  0  0  0  0  0  0  0  0  0  0  0
   -8.3230   11.1920  -26.7990 H   0  0  0  0  0  0  0  0  0  0  0  0
   -5.1740   10.8320  -22.0930 H   0  0  0  0  0  0  0  0  0  0  0  0
   -4.7730    8.8650  -20.3760 H   0  0  0  0  0  0  0  0  0  0  0  0
   -4.1160    6.2740  -18.4800 H   0  0  0  0  0  0  0  0  0  0  0  0
   -4.9560    4.7310  -18.3340 H   0  0  0  0  0  0  0  0  0  0  0  0
   -5.1070    5.9100  -16.2920 H   0  0  0  0  0  0  0  0  0  0  0  0
   -5.7720    7.3470  -17.1240 H   0  0  0  0  0  0  0  0  0  0  0  0
   -7.4500    5.6620  -14.9310 H   0  0  0  0  0  0  0  0  0  0  0  0
   -7.3700    4.5420  -19.9410 H   0  0  0  0  0  0  0  0  0  0  0  0
   -7.9770    6.2050  -19.9370 H   0  0  0  0  0  0  0  0  0  0  0  0
  1  2  2  0
  2  3  1  0
  3  4  2  0
  4  5  1  0
  5  6  2  0
  6  7  1  0
  7  8  1  0
  8  9  1  0
  9 10  2  0
 10 11  1  0
 11 12  2  0
 12 13  1  0
 13 14  2  0
 14 15  1  0
 15 16  2  0
 16 17  1  0
  6 18  1  0
 18 19  2  0
  2 20  1  0
 20 21  1  0
 21 22  1  0
 22 23  1  0
 23 24  1  0
 24 25  2  0
 25 26  1  0
 26 27  2  0
 27 28  1  0
 19  3  1  0
 17  9  1  0
 16 11  1  0
 28 20  1  0
 27 23  1  0
  4 29  1  0
  5 30  1  0
  7 31  1  0
  7 32  1  0
 12 33  1  0
 13 34  1  0
 14 35  1  0
 15 36  1  0
 17 37  1  0
 18 38  1  0
 19 39  1  0
 21 40  1  0
 21 41  1  0
 22 42  1  0
 22 43  1  0
 24 44  1  0
 28 45  1  0
 28 46  1  0
A    1
 O1 
A    2
 C1 
A    3
 C2 
A    4
 C3 
A    5
 C4 
A    6
 C5 
A    7
 C6 
A    8
 S1 
A    9
 C7 
A   10
 N1 
A   11
 C8 
A   12
 C9 
A   13
 C10
A   14
 C11
A   15
 C12
A   16
 C13
A   17
 N2 
A   18
 C14
A   19
 C15
A   20
 N3 
A   21
 C16
A   22
 C17
A   23
 N4 
A   24
 C18
A   25
 N5 
A   26
 N6 
A   27
 C19
A   28
 C20
A   29
 H1 
A   30
 H2 
A   31
 H3 
A   32
 H4 
A   33
 H5 
A   34
 H6 
A   35
 H7 
A   36
 H8 
A   37
 H9 
A   38
 H10
A   39
 H11
A   40
 H12
A   41
 H13
A   42
 H14
A   43
 H15
A   44
 H16
A   45
 H17
A   46
 H18
M  END
>  <ref_pdb>  (359) 
x0051_0B

>  <ref_mols>  (359) 
x0846_1B,x0969_0B

>  <original SMILES>  (359) 
[H]c1c([H])c(C([H])([H])Sc2nc3c([H])c([H])c([H])c([H])c3n2[H])c([H])c([H])c1C(=O)N1C([H])([H])c2nnc([H])n2C([H])([H])C1([H])[H]

>  <index>  (359) 
730

>  <∆∆G>  (359) 
-7.160735

>  <∆G_bound>  (359) 
-6.343259

>  <∆G_unbound>  (359) 
0.817475

>  <comRMSD>  (359) 
0.999332

>  <N_constrained_atoms>  (359) 
27.0

>  <N_unconstrained_atoms>  (359) 
2.0

>  <runtime>  (359) 
34.972685

>  <LE>  (359) 
0.246922

>  <percent_hybrid>  (359) 
34.0

>  <dist>  (359) 
8.0

>  <ecfp4>  (359) 
0.216495

>  <daylight>  (359) 
0.314286

>  <topodist>  (359) 
3.0

>  <mces>  (359) 
31.0

>  <tdn>  (359) 
2.0

>  <tup>  (359) 
1.0

>  <rdn>  (359) 
0.0

>  <rup>  (359) 
0.0

>  <ldn>  (359) 
0.0

>  <lup>  (359) 
0.0

>  <mut>  (359) 
5.0

>  <maj>  (359) 
5.0

>  <min>  (359) 
0.0

>  <hyb>  (359) 
0.0

>  <sub>  (359) 
1.0

>  <query_index>  (359) 
45.0

>  <max_hit_Tanimoto>  (359) 
0.271992

>  <largest_ring>  (359) 
6

>  <N_interactions_kept>  (359) 
0.5

>  <N_interactions_lost>  (359) 
2.0

>  <interaction_uniqueness_metric>  (359) 
0.199509

>  <ad_hoc_penalty>  (359) 
-20.005286

>  <N_rotatable_bonds>  (359) 
4

>  <N_HA>  (359) 
28

>  <cluster>  (359) 
5551

>  <N_interactions>  (359) 
5

>  <Enamine>  (359) 
1

>  <Mcule>  (359) 
0

>  <N_PAINS>  (359) 
0

>  <UFF_Gibbs>  (359) 
87.894655

>  <strain_per_HA>  (359) 
3.139095

>  <saltbridge:HIS:51>  (359) 
0

>  <pistack:HIS:51>  (359) 
0

>  <hydroph_interaction:HIS:51>  (359) 
0

>  <hbond:ALA:132>  (359) 
0

>  <hbond:SER:135>  (359) 
0

>  <hydroph_interaction:TYR:150>  (359) 
0

>  <pistack:TYR:161>  (359) 
1

>  <hydroph_interaction:TYR:161>  (359) 
0

>  <hydroph_interaction:ASP:83>  (359) 
0

>  <hbond:TYR:130>  (359) 
0

>  <hydroph_interaction:ALA:132>  (359) 
0

>  <hbond:HIS:51>  (359) 
0

>  <hbond:ASP:129>  (359) 
1

>  <hbond:TYR:150>  (359) 
0

>  <hbond:GLY:151>  (359) 
0

>  <hbond:TYR:161>  (359) 
1

>  <hydroph_interaction:TYR:130>  (359) 
1

>  <hydroph_interaction:PRO:131>  (359) 
1

>  <hydroph_interaction:ASP:129>  (359) 
0

>  <saltbridge:ASP:75>  (359) 
0

>  <saltbridge:ASP:83>  (359) 
0

>  <hydroph_interaction:ASN:152>  (359) 
0

>  <halogenbond:TYR:150>  (359) 
0

>  <hbond:ASP:83>  (359) 
0

>  <hydroph_interaction:VAL:155>  (359) 
0

>  <pication:TYR:161>  (359) 
0

>  <hbond:PRO:131>  (359) 
0

>  <hbond:LEU:128>  (359) 
0

>  <saltbridge:ASP:129>  (359) 
0

>  <hbond:THR:134>  (359) 
0

>  <pication:HIS:51>  (359) 
0

>  <hbond:SER:81>  (359) 
0

>  <hbond:GLY:159>  (359) 
0

>  <hydroph_interaction:PRO:101>  (359) 
0

>  <hydroph_interaction:THR:134>  (359) 
0

>  <hbond:GLY:82>  (359) 
0

>  <hydroph_interaction:GLU:104>  (359) 
0

>  <hydroph_interaction:VAL:36>  (359) 
0

>  <hydroph_interaction:MET:49>  (359) 
0

>  <halogenbond:GLU:104>  (359) 
0

>  <hydroph_interaction:LYS:107>  (359) 
0

$$$$
AGMJXXWYKUZLMT-UHFFFAOYSA-N
     RDKit          3D

 39 40  0  0  0  0  0  0  0  0999 V2000
   -5.6760    5.8560  -17.8400 C   0  0  0  0  0  0  0  0  0  0  0  0
   -5.1110    5.9400  -16.5770 N   0  0  0  0  0  0  0  0  0  0  0  0
   -5.1670    7.1140  -15.7550 C   0  0  0  0  0  0  0  0  0  0  0  0
   -5.1880    8.3430  -16.4440 C   0  0  0  0  0  0  0  0  0  0  0  0
   -3.9720    9.1800  -16.3300 C   0  0  0  0  0  0  0  0  0  0  0  0
   -4.0580    7.0850  -14.6750 C   0  0  0  0  0  0  0  0  0  0  0  0
   -3.8880    5.8100  -14.1210 C   0  0  0  0  0  0  0  0  0  0  0  0
   -3.7820    4.7630  -15.0090 C   0  0  0  0  0  0  0  0  0  0  0  0
   -3.9190    5.1010  -16.3460 C   0  0  0  0  0  0  0  0  0  0  0  0
   -5.0660    6.0440  -18.8880 O   0  0  0  0  0  0  0  0  0  0  0  0
   -7.1580    5.4950  -17.8470 C   0  0  0  0  0  0  0  0  0  0  0  0
   -7.9270    5.4170  -16.5390 C   0  0  0  0  0  0  0  0  0  0  0  0
   -7.2500    5.6880  -15.3900 O   0  0  0  0  0  0  0  0  0  0  0  0
   -7.4970    4.8590  -14.2670 C   0  0  0  0  0  0  0  0  0  0  0  0
   -9.2940    5.0710  -16.5980 C   0  0  0  0  0  0  0  0  0  0  0  0
  -10.0290    4.7730  -17.9290 C   0  0  0  0  0  0  0  0  0  0  0  0
   -9.2750    4.8620  -19.0910 C   0  0  0  0  0  0  0  0  0  0  0  0
   -7.8010    5.2340  -19.0420 C   0  0  0  0  0  0  0  0  0  0  0  0
   -6.1080    7.0660  -15.2060 H   0  0  0  0  0  0  0  0  0  0  0  0
   -5.5470    8.3060  -17.4630 H   0  0  0  0  0  0  0  0  0  0  0  0
   -5.9790    8.9200  -15.9430 H   0  0  0  0  0  0  0  0  0  0  0  0
   -4.0760   10.0940  -16.9270 H   0  0  0  0  0  0  0  0  0  0  0  0
   -3.8080    9.4960  -15.2930 H   0  0  0  0  0  0  0  0  0  0  0  0
   -3.0960    8.6230  -16.6820 H   0  0  0  0  0  0  0  0  0  0  0  0
   -4.2990    7.7810  -13.8660 H   0  0  0  0  0  0  0  0  0  0  0  0
   -3.1110    7.4000  -15.1240 H   0  0  0  0  0  0  0  0  0  0  0  0
   -2.9960    5.8230  -13.4820 H   0  0  0  0  0  0  0  0  0  0  0  0
   -4.7370    5.5810  -13.4600 H   0  0  0  0  0  0  0  0  0  0  0  0
   -4.5270    3.9950  -14.7630 H   0  0  0  0  0  0  0  0  0  0  0  0
   -2.8110    4.2690  -14.8960 H   0  0  0  0  0  0  0  0  0  0  0  0
   -3.0450    5.6810  -16.6610 H   0  0  0  0  0  0  0  0  0  0  0  0
   -3.9580    4.2060  -16.9710 H   0  0  0  0  0  0  0  0  0  0  0  0
   -7.6120    5.4500  -13.3520 H   0  0  0  0  0  0  0  0  0  0  0  0
   -8.3680    4.2210  -14.4350 H   0  0  0  0  0  0  0  0  0  0  0  0
   -6.6260    4.2070  -14.1370 H   0  0  0  0  0  0  0  0  0  0  0  0
   -9.8890    5.0010  -15.6930 H   0  0  0  0  0  0  0  0  0  0  0  0
  -11.0800    4.5110  -17.9560 H   0  0  0  0  0  0  0  0  0  0  0  0
   -9.7360    4.6670  -20.0620 H   0  0  0  0  0  0  0  0  0  0  0  0
   -7.3380    5.2650  -20.0350 H   0  0  0  0  0  0  0  0  0  0  0  0
  1  2  1  0
  2  3  1  0
  3  4  1  0
  4  5  1  0
  3  6  1  0
  6  7  1  0
  7  8  1  0
  8  9  1  0
  1 10  2  0
  1 11  1  0
 11 12  2  0
 12 13  1  0
 13 14  1  0
 12 15  1  0
 15 16  2  0
 16 17  1  0
 17 18  2  0
  9  2  1  0
 18 11  1  0
  3 19  1  0
  4 20  1  0
  4 21  1  0
  5 22  1  0
  5 23  1  0
  5 24  1  0
  6 25  1  0
  6 26  1  0
  7 27  1  0
  7 28  1  0
  8 29  1  0
  8 30  1  0
  9 31  1  0
  9 32  1  0
 14 33  1  0
 14 34  1  0
 14 35  1  0
 15 36  1  0
 16 37  1  0
 17 38  1  0
 18 39  1  0
A    1
 C1 
A    2
 N1 
A    3
 C2 
A    4
 C3 
A    5
 C4 
A    6
 C5 
A    7
 C6 
A    8
 C7 
A    9
 C8 
A   10
 O1 
A   11
 C9 
A   12
 C10
A   13
 O2 
A   14
 C11
A   15
 C12
A   16
 C13
A   17
 C14
A   18
 C15
A   19
 H1 
A   20
 H2 
A   21
 H3 
A   22
 H4 
A   23
 H5 
A   24
 H6 
A   25
 H7 
A   26
 H8 
A   27
 H9 
A   28
 H10
A   29
 H11
A   30
 H12
A   31
 H13
A   32
 H14
A   33
 H15
A   34
 H16
A   35
 H17
A   36
 H18
A   37
 H19
A   38
 H20
A   39
 H21
M  END
>  <ref_pdb>  (360) 
x0051_0B

>  <ref_mols>  (360) 
x0429_0B,x0472_0B

>  <original SMILES>  (360) 
[H]c1c([H])c([H])c(C(=O)N2C([H])([H])C([H])([H])C([H])([H])C([H])([H])C2([H])C([H])([H])C([H])([H])[H])c(OC([H])([H])[H])c1[H]

>  <index>  (360) 
236

>  <∆∆G>  (360) 
-6.925445

>  <∆G_bound>  (360) 
-6.213284

>  <∆G_unbound>  (360) 
0.712161

>  <comRMSD>  (360) 
0.899727

>  <N_constrained_atoms>  (360) 
18.0

>  <N_unconstrained_atoms>  (360) 
3.0

>  <runtime>  (360) 
36.849491

>  <LE>  (360) 
0.329783

>  <percent_hybrid>  (360) 
38.0

>  <dist>  (360) 
6.0

>  <ecfp4>  (360) 
0.138889

>  <daylight>  (360) 
0.144231

>  <topodist>  (360) 
2.0

>  <mces>  (360) 
19.0

>  <tdn>  (360) 
0.0

>  <tup>  (360) 
0.0

>  <rdn>  (360) 
2.0

>  <rup>  (360) 
0.0

>  <ldn>  (360) 
0.0

>  <lup>  (360) 
0.0

>  <mut>  (360) 
3.0

>  <maj>  (360) 
3.0

>  <min>  (360) 
0.0

>  <hyb>  (360) 
1.0

>  <sub>  (360) 
1.0

>  <query_index>  (360) 
189.0

>  <max_hit_Tanimoto>  (360) 
0.230409

>  <largest_ring>  (360) 
0

>  <N_interactions_kept>  (360) 
3.0

>  <N_interactions_lost>  (360) 
0.5

>  <interaction_uniqueness_metric>  (360) 
0.053763

>  <ad_hoc_penalty>  (360) 
-19.915272

>  <N_rotatable_bonds>  (360) 
5

>  <N_HA>  (360) 
18

>  <cluster>  (360) 
6004

>  <N_interactions>  (360) 
5

>  <Enamine>  (360) 
0

>  <Mcule>  (360) 
1

>  <N_PAINS>  (360) 
0

>  <UFF_Gibbs>  (360) 
166.801078

>  <strain_per_HA>  (360) 
9.266727

>  <saltbridge:HIS:51>  (360) 
0

>  <pistack:HIS:51>  (360) 
0

>  <hydroph_interaction:HIS:51>  (360) 
0

>  <hbond:ALA:132>  (360) 
0

>  <hbond:SER:135>  (360) 
0

>  <hydroph_interaction:TYR:150>  (360) 
1

>  <pistack:TYR:161>  (360) 
0

>  <hydroph_interaction:TYR:161>  (360) 
3

>  <hydroph_interaction:ASP:83>  (360) 
0

>  <hbond:TYR:130>  (360) 
0

>  <hydroph_interaction:ALA:132>  (360) 
1

>  <hbond:HIS:51>  (360) 
0

>  <hbond:ASP:129>  (360) 
0

>  <hbond:TYR:150>  (360) 
0

>  <hbond:GLY:151>  (360) 
0

>  <hbond:TYR:161>  (360) 
0

>  <hydroph_interaction:TYR:130>  (360) 
0

>  <hydroph_interaction:PRO:131>  (360) 
0

>  <hydroph_interaction:ASP:129>  (360) 
0

>  <saltbridge:ASP:75>  (360) 
0

>  <saltbridge:ASP:83>  (360) 
0

>  <hydroph_interaction:ASN:152>  (360) 
0

>  <halogenbond:TYR:150>  (360) 
0

>  <hbond:ASP:83>  (360) 
0

>  <hydroph_interaction:VAL:155>  (360) 
0

>  <pication:TYR:161>  (360) 
0

>  <hbond:PRO:131>  (360) 
0

>  <hbond:LEU:128>  (360) 
0

>  <saltbridge:ASP:129>  (360) 
0

>  <hbond:THR:134>  (360) 
0

>  <pication:HIS:51>  (360) 
0

>  <hbond:SER:81>  (360) 
0

>  <hbond:GLY:159>  (360) 
0

>  <hydroph_interaction:PRO:101>  (360) 
0

>  <hydroph_interaction:THR:134>  (360) 
0

>  <hbond:GLY:82>  (360) 
0

>  <hydroph_interaction:GLU:104>  (360) 
0

>  <hydroph_interaction:VAL:36>  (360) 
0

>  <hydroph_interaction:MET:49>  (360) 
0

>  <halogenbond:GLU:104>  (360) 
0

>  <hydroph_interaction:LYS:107>  (360) 
0

$$$$
Z1467040886
     RDKit          3D

 55 59  0  0  0  0  0  0  0  0999 V2000
   -7.9710    5.1930  -15.0670 C   0  0  0  0  0  0  0  0  0  0  0  0
   -8.3820    5.0940  -16.4990 C   0  0  0  0  0  0  0  0  0  0  0  0
   -9.6900    4.8620  -16.7730 C   0  0  0  0  0  0  0  0  0  0  0  0
  -10.2060    4.7460  -18.2060 C   0  0  0  0  0  0  0  0  0  0  0  0
   -9.2230    4.8940  -19.3160 C   0  0  0  0  0  0  0  0  0  0  0  0
   -7.8870    5.1310  -18.9490 C   0  0  0  0  0  0  0  0  0  0  0  0
   -7.5080    5.2230  -17.5990 C   0  0  0  0  0  0  0  0  0  0  0  0
   -6.1580    5.4500  -17.6580 N   0  0  0  0  0  0  0  0  0  0  0  0
   -5.2840    5.6130  -16.5340 C   0  0  0  0  0  0  0  0  0  0  0  0
   -5.7710    5.4970  -18.9610 C   0  0  0  0  0  0  0  0  0  0  0  0
   -4.3550    5.7430  -19.3610 C   0  0  0  0  0  0  0  0  0  0  0  0
   -4.3660    6.6960  -20.4290 N   0  0  0  0  0  0  0  0  0  0  0  0
   -5.1060    6.4530  -21.5540 C   0  0  0  0  0  0  0  0  0  0  0  0
   -5.4790    5.3400  -21.8970 O   0  0  0  0  0  0  0  0  0  0  0  0
   -5.4030    7.5480  -22.3050 C   0  0  0  0  0  0  0  0  0  0  0  0
   -6.1350    7.2830  -23.5990 C   0  0  0  0  0  0  0  0  0  0  0  0
   -6.4500    8.4920  -24.4200 C   0  0  0  0  0  0  0  0  0  0  0  0
   -6.0520    9.7370  -23.9440 C   0  0  0  0  0  0  0  0  0  0  0  0
   -6.3870   11.1900  -24.8890 S   0  0  0  0  0  0  0  0  0  0  0  0
   -6.1950   10.5000  -26.5700 C   0  0  0  0  0  0  0  0  0  0  0  0
   -7.3110    9.7740  -27.0050 C   0  0  0  0  0  0  0  0  0  0  0  0
   -7.3590    8.4920  -27.3270 N   0  0  0  0  0  0  0  0  0  0  0  0
   -8.6650    8.2470  -27.6810 C   0  0  0  0  0  0  0  0  0  0  0  0
   -9.2840    7.0630  -28.1000 C   0  0  0  0  0  0  0  0  0  0  0  0
  -10.6550    7.0880  -28.3930 C   0  0  0  0  0  0  0  0  0  0  0  0
  -11.3910    8.2700  -28.2740 C   0  0  0  0  0  0  0  0  0  0  0  0
  -10.7890    9.4620  -27.8630 C   0  0  0  0  0  0  0  0  0  0  0  0
   -9.4230    9.4070  -27.5750 C   0  0  0  0  0  0  0  0  0  0  0  0
   -8.5420   10.3550  -27.1510 N   0  0  0  0  0  0  0  0  0  0  0  0
   -5.3750    9.9140  -22.7250 C   0  0  0  0  0  0  0  0  0  0  0  0
   -5.0510    8.8360  -21.9080 C   0  0  0  0  0  0  0  0  0  0  0  0
   -6.7960    5.3020  -19.7710 N   0  0  0  0  0  0  0  0  0  0  0  0
   -7.8030    6.2410  -14.8030 H   0  0  0  0  0  0  0  0  0  0  0  0
   -8.7540    4.7780  -14.4230 H   0  0  0  0  0  0  0  0  0  0  0  0
   -7.0510    4.6340  -14.8830 H   0  0  0  0  0  0  0  0  0  0  0  0
  -10.3880    4.7550  -15.9480 H   0  0  0  0  0  0  0  0  0  0  0  0
  -11.2570    4.5620  -18.4130 H   0  0  0  0  0  0  0  0  0  0  0  0
   -9.5130    4.8240  -20.3580 H   0  0  0  0  0  0  0  0  0  0  0  0
   -5.4670    4.8420  -15.7910 H   0  0  0  0  0  0  0  0  0  0  0  0
   -4.2570    5.5560  -16.8860 H   0  0  0  0  0  0  0  0  0  0  0  0
   -5.4850    6.5760  -16.0610 H   0  0  0  0  0  0  0  0  0  0  0  0
   -3.8260    6.2180  -18.5280 H   0  0  0  0  0  0  0  0  0  0  0  0
   -3.7980    4.8560  -19.6380 H   0  0  0  0  0  0  0  0  0  0  0  0
   -3.5340    7.2640  -20.5040 H   0  0  0  0  0  0  0  0  0  0  0  0
   -6.4180    6.2850  -23.9200 H   0  0  0  0  0  0  0  0  0  0  0  0
   -6.9740    8.3500  -25.3560 H   0  0  0  0  0  0  0  0  0  0  0  0
   -5.2860    9.8920  -26.6230 H   0  0  0  0  0  0  0  0  0  0  0  0
   -6.0440   11.3470  -27.2480 H   0  0  0  0  0  0  0  0  0  0  0  0
   -8.7090    6.1490  -28.1890 H   0  0  0  0  0  0  0  0  0  0  0  0
  -11.1480    6.1750  -28.7160 H   0  0  0  0  0  0  0  0  0  0  0  0
  -12.4560    8.2650  -28.5060 H   0  0  0  0  0  0  0  0  0  0  0  0
  -11.3620   10.3780  -27.7720 H   0  0  0  0  0  0  0  0  0  0  0  0
   -8.7550   11.3250  -26.9670 H   0  0  0  0  0  0  0  0  0  0  0  0
   -5.0880   10.9120  -22.3980 H   0  0  0  0  0  0  0  0  0  0  0  0
   -4.5270    9.0240  -20.9770 H   0  0  0  0  0  0  0  0  0  0  0  0
  1  2  1  0
  2  3  2  0
  3  4  1  0
  4  5  2  0
  5  6  1  0
  6  7  2  0
  7  8  1  0
  8  9  1  0
  8 10  1  0
 10 11  1  0
 11 12  1  0
 12 13  1  0
 13 14  2  0
 13 15  1  0
 15 16  2  0
 16 17  1  0
 17 18  2  0
 18 19  1  0
 19 20  1  0
 20 21  1  0
 21 22  2  0
 22 23  1  0
 23 24  2  0
 24 25  1  0
 25 26  2  0
 26 27  1  0
 27 28  2  0
 28 29  1  0
 18 30  1  0
 30 31  2  0
 10 32  2  0
  7  2  1  0
 32  6  1  0
 31 15  1  0
 29 21  1  0
 28 23  1  0
  1 33  1  0
  1 34  1  0
  1 35  1  0
  3 36  1  0
  4 37  1  0
  5 38  1  0
  9 39  1  0
  9 40  1  0
  9 41  1  0
 11 42  1  0
 11 43  1  0
 12 44  1  0
 16 45  1  0
 17 46  1  0
 20 47  1  0
 20 48  1  0
 24 49  1  0
 25 50  1  0
 26 51  1  0
 27 52  1  0
 29 53  1  0
 30 54  1  0
 31 55  1  0
A    1
 C1 
A    2
 C2 
A    3
 C3 
A    4
 C4 
A    5
 C5 
A    6
 C6 
A    7
 C7 
A    8
 N1 
A    9
 C8 
A   10
 C9 
A   11
 C10
A   12
 N2 
A   13
 C11
A   14
 O1 
A   15
 C12
A   16
 C13
A   17
 C14
A   18
 C15
A   19
 S1 
A   20
 C16
A   21
 C17
A   22
 N3 
A   23
 C18
A   24
 C19
A   25
 C20
A   26
 C21
A   27
 C22
A   28
 C23
A   29
 N4 
A   30
 C24
A   31
 C25
A   32
 N5 
A   33
 H1 
A   34
 H2 
A   35
 H3 
A   36
 H4 
A   37
 H5 
A   38
 H6 
A   39
 H7 
A   40
 H8 
A   41
 H9 
A   42
 H10
A   43
 H11
A   44
 H12
A   45
 H13
A   46
 H14
A   47
 H15
A   48
 H16
A   49
 H17
A   50
 H18
A   51
 H19
A   52
 H20
A   53
 H21
A   54
 H22
A   55
 H23
M  END
>  <ref_pdb>  (361) 
x0051_0B

>  <ref_mols>  (361) 
x0846_1B,x0490_0B

>  <original SMILES>  (361) 
[H]c1c([H])c(C(=O)N([H])C([H])([H])c2nc3c([H])c([H])c([H])c(C([H])([H])[H])c3n2C([H])([H])[H])c([H])c([H])c1SC([H])([H])c1nc2c([H])c([H])c([H])c([H])c2n1[H]

>  <index>  (361) 
651

>  <∆∆G>  (361) 
-9.879505

>  <∆G_bound>  (361) 
-9.12737

>  <∆G_unbound>  (361) 
0.752135

>  <comRMSD>  (361) 
0.650442

>  <N_constrained_atoms>  (361) 
29.0

>  <N_unconstrained_atoms>  (361) 
4.0

>  <runtime>  (361) 
52.175129

>  <LE>  (361) 
0.299379

>  <percent_hybrid>  (361) 
38.0

>  <dist>  (361) 
8.0

>  <ecfp4>  (361) 
0.234043

>  <daylight>  (361) 
0.340336

>  <topodist>  (361) 
5.0

>  <mces>  (361) 
33.0

>  <tdn>  (361) 
2.0

>  <tup>  (361) 
2.0

>  <rdn>  (361) 
0.0

>  <rup>  (361) 
0.0

>  <ldn>  (361) 
0.0

>  <lup>  (361) 
1.0

>  <mut>  (361) 
3.0

>  <maj>  (361) 
3.0

>  <min>  (361) 
0.0

>  <hyb>  (361) 
0.0

>  <sub>  (361) 
3.0

>  <query_index>  (361) 
51.0

>  <max_hit_Tanimoto>  (361) 
0.312357

>  <largest_ring>  (361) 
6

>  <N_interactions_kept>  (361) 
0.0

>  <N_interactions_lost>  (361) 
3.0

>  <interaction_uniqueness_metric>  (361) 
0.210454

>  <ad_hoc_penalty>  (361) 
-19.90193

>  <N_rotatable_bonds>  (361) 
8

>  <N_HA>  (361) 
32

>  <cluster>  (361) 
5623

>  <N_interactions>  (361) 
8

>  <Enamine>  (361) 
1

>  <Mcule>  (361) 
0

>  <N_PAINS>  (361) 
0

>  <UFF_Gibbs>  (361) 
129.856982

>  <strain_per_HA>  (361) 
4.058031

>  <saltbridge:HIS:51>  (361) 
0

>  <pistack:HIS:51>  (361) 
0

>  <hydroph_interaction:HIS:51>  (361) 
0

>  <hbond:ALA:132>  (361) 
0

>  <hbond:SER:135>  (361) 
0

>  <hydroph_interaction:TYR:150>  (361) 
1

>  <pistack:TYR:161>  (361) 
1

>  <hydroph_interaction:TYR:161>  (361) 
2

>  <hydroph_interaction:ASP:83>  (361) 
0

>  <hbond:TYR:130>  (361) 
1

>  <hydroph_interaction:ALA:132>  (361) 
0

>  <hbond:HIS:51>  (361) 
0

>  <hbond:ASP:129>  (361) 
1

>  <hbond:TYR:150>  (361) 
0

>  <hbond:GLY:151>  (361) 
0

>  <hbond:TYR:161>  (361) 
0

>  <hydroph_interaction:TYR:130>  (361) 
1

>  <hydroph_interaction:PRO:131>  (361) 
1

>  <hydroph_interaction:ASP:129>  (361) 
0

>  <saltbridge:ASP:75>  (361) 
0

>  <saltbridge:ASP:83>  (361) 
0

>  <hydroph_interaction:ASN:152>  (361) 
0

>  <halogenbond:TYR:150>  (361) 
0

>  <hbond:ASP:83>  (361) 
0

>  <hydroph_interaction:VAL:155>  (361) 
0

>  <pication:TYR:161>  (361) 
0

>  <hbond:PRO:131>  (361) 
0

>  <hbond:LEU:128>  (361) 
0

>  <saltbridge:ASP:129>  (361) 
0

>  <hbond:THR:134>  (361) 
0

>  <pication:HIS:51>  (361) 
0

>  <hbond:SER:81>  (361) 
0

>  <hbond:GLY:159>  (361) 
0

>  <hydroph_interaction:PRO:101>  (361) 
0

>  <hydroph_interaction:THR:134>  (361) 
0

>  <hbond:GLY:82>  (361) 
0

>  <hydroph_interaction:GLU:104>  (361) 
0

>  <hydroph_interaction:VAL:36>  (361) 
0

>  <hydroph_interaction:MET:49>  (361) 
0

>  <halogenbond:GLU:104>  (361) 
0

>  <hydroph_interaction:LYS:107>  (361) 
0

$$$$
CSSS00047322340
     RDKit          3D

 38 40  0  0  0  0  0  0  0  0999 V2000
   -8.6100    4.3920  -20.1030 Cl  0  0  0  0  0  0  0  0  0  0  0  0
   -8.3280    4.9550  -18.5410 C   0  0  0  0  0  0  0  0  0  0  0  0
   -9.3550    4.8130  -17.6180 C   0  0  0  0  0  0  0  0  0  0  0  0
   -9.1370    5.2830  -16.3350 C   0  0  0  0  0  0  0  0  0  0  0  0
   -7.8100    5.9290  -15.9790 C   0  0  0  0  0  0  0  0  0  0  0  0
   -7.5280    6.4540  -14.7030 N   0  0  0  0  0  0  0  0  0  0  0  0
   -8.7560    7.3870  -14.0190 S   0  0  0  0  0  6  0  0  0  0  0  0
   -8.2870    8.7320  -13.7540 O   0  0  0  0  0  0  0  0  0  0  0  0
   -9.9600    7.1410  -14.7550 O   0  0  0  0  0  0  0  0  0  0  0  0
   -8.8350    6.4890  -12.5290 C   0  0  0  0  0  0  0  0  0  0  0  0
   -8.7360    7.1340  -11.3050 C   0  0  0  0  0  0  0  0  0  0  0  0
   -8.7850    6.3880  -10.1350 C   0  0  0  0  0  0  0  0  0  0  0  0
   -8.9320    4.9970  -10.1640 C   0  0  0  0  0  0  0  0  0  0  0  0
   -9.0330    4.3760  -11.4120 C   0  0  0  0  0  0  0  0  0  0  0  0
   -8.9870    5.1080  -12.5910 C   0  0  0  0  0  0  0  0  0  0  0  0
   -8.9800    4.2380   -8.9900 N   0  0  0  0  0  0  0  0  0  0  0  0
   -9.4090    2.8580   -9.0010 C   0  0  0  0  0  0  0  0  0  0  0  0
   -9.7970    2.5210   -7.5580 C   0  0  0  0  0  0  0  0  0  0  0  0
   -9.2790    3.6620   -6.7000 C   0  0  0  0  0  0  0  0  0  0  0  0
   -8.8660    4.7520   -7.6920 C   0  0  0  0  0  0  0  0  0  0  0  0
   -8.5210    5.8690   -7.3310 O   0  0  0  0  0  0  0  0  0  0  0  0
   -6.8600    6.0100  -16.9570 C   0  0  0  0  0  0  0  0  0  0  0  0
   -7.1000    5.5360  -18.2270 C   0  0  0  0  0  0  0  0  0  0  0  0
   -5.8410    5.6980  -19.3880 Cl  0  0  0  0  0  0  0  0  0  0  0  0
  -10.3010    4.3560  -17.8870 H   0  0  0  0  0  0  0  0  0  0  0  0
   -9.8620    5.2410  -15.5150 H   0  0  0  0  0  0  0  0  0  0  0  0
   -6.6210    6.9000  -14.5620 H   0  0  0  0  0  0  0  0  0  0  0  0
   -8.6170    8.2170  -11.2470 H   0  0  0  0  0  0  0  0  0  0  0  0
   -8.7040    6.9220   -9.1920 H   0  0  0  0  0  0  0  0  0  0  0  0
   -9.1520    3.2970  -11.4900 H   0  0  0  0  0  0  0  0  0  0  0  0
   -9.0690    4.5700  -13.5310 H   0  0  0  0  0  0  0  0  0  0  0  0
   -8.6480    2.1680   -9.3710 H   0  0  0  0  0  0  0  0  0  0  0  0
  -10.3020    2.7600   -9.6200 H   0  0  0  0  0  0  0  0  0  0  0  0
   -9.3820    1.5580   -7.2760 H   0  0  0  0  0  0  0  0  0  0  0  0
  -10.8820    2.4500   -7.4600 H   0  0  0  0  0  0  0  0  0  0  0  0
   -8.4250    3.3550   -6.0870 H   0  0  0  0  0  0  0  0  0  0  0  0
  -10.0500    4.0370   -6.0210 H   0  0  0  0  0  0  0  0  0  0  0  0
   -5.8620    6.4490  -16.8310 H   0  0  0  0  0  0  0  0  0  0  0  0
  1  2  1  0
  2  3  2  0
  3  4  1  0
  4  5  2  0
  5  6  1  0
  6  7  1  0
  7  8  2  0
  7  9  2  0
  7 10  1  0
 10 11  2  0
 11 12  1  0
 12 13  2  0
 13 14  1  0
 14 15  2  0
 13 16  1  0
 16 17  1  0
 17 18  1  0
 18 19  1  0
 19 20  1  0
 20 21  2  0
  5 22  1  0
 22 23  2  0
 23 24  1  0
 23  2  1  0
 15 10  1  0
 20 16  1  0
  3 25  1  0
  4 26  1  0
  6 27  1  0
 11 28  1  0
 12 29  1  0
 14 30  1  0
 15 31  1  0
 17 32  1  0
 17 33  1  0
 18 34  1  0
 18 35  1  0
 19 36  1  0
 19 37  1  0
 22 38  1  0
A    1
CL1 
A    2
 C1 
A    3
 C2 
A    4
 C3 
A    5
 C4 
A    6
 N1 
A    7
 S1 
A    8
 O1 
A    9
 O2 
A   10
 C5 
A   11
 C6 
A   12
 C7 
A   13
 C8 
A   14
 C9 
A   15
 C10
A   16
 N2 
A   17
 C11
A   18
 C12
A   19
 C13
A   20
 C14
A   21
 O3 
A   22
 C15
A   23
 C16
A   24
CL2 
A   25
 H1 
A   26
 H2 
A   27
 H3 
A   28
 H4 
A   29
 H5 
A   30
 H6 
A   31
 H7 
A   32
 H8 
A   33
 H9 
A   34
 H10
A   35
 H11
A   36
 H12
A   37
 H13
A   38
 H14
M  END
>  <ref_pdb>  (362) 
x0051_0B

>  <ref_mols>  (362) 
x0589_0B,x0404_0B

>  <original SMILES>  (362) 
[H]c1c([H])c(N([H])S(=O)(=O)c2c([H])c([H])c(N3C(=O)C([H])([H])C([H])([H])C3([H])[H])c([H])c2[H])c([H])c(Cl)c1Cl

>  <index>  (362) 
866

>  <∆∆G>  (362) 
-5.440011

>  <∆G_bound>  (362) 
-5.36242

>  <∆G_unbound>  (362) 
0.077591

>  <comRMSD>  (362) 
0.606355

>  <N_constrained_atoms>  (362) 
23.0

>  <N_unconstrained_atoms>  (362) 
3.0

>  <runtime>  (362) 
82.936665

>  <LE>  (362) 
0.209231

>  <percent_hybrid>  (362) 
35.0

>  <dist>  (362) 
9.0

>  <ecfp4>  (362) 
0.1875

>  <daylight>  (362) 
0.270936

>  <topodist>  (362) 
5.0

>  <mces>  (362) 
24.0

>  <tdn>  (362) 
1.0

>  <tup>  (362) 
2.0

>  <rdn>  (362) 
0.0

>  <rup>  (362) 
0.0

>  <ldn>  (362) 
2.0

>  <lup>  (362) 
0.0

>  <mut>  (362) 
2.0

>  <maj>  (362) 
1.0

>  <min>  (362) 
1.0

>  <hyb>  (362) 
2.0

>  <sub>  (362) 
2.0

>  <query_index>  (362) 
29.0

>  <max_hit_Tanimoto>  (362) 
0.331909

>  <largest_ring>  (362) 
6

>  <N_interactions_kept>  (362) 
2.0

>  <N_interactions_lost>  (362) 
1.5

>  <interaction_uniqueness_metric>  (362) 
0.251435

>  <ad_hoc_penalty>  (362) 
-19.866054

>  <N_rotatable_bonds>  (362) 
4

>  <N_HA>  (362) 
24

>  <cluster>  (362) 
5425

>  <N_interactions>  (362) 
5

>  <Enamine>  (362) 
1

>  <Mcule>  (362) 
0

>  <N_PAINS>  (362) 
0

>  <UFF_Gibbs>  (362) 
69.95017

>  <strain_per_HA>  (362) 
2.91459

>  <saltbridge:HIS:51>  (362) 
0

>  <pistack:HIS:51>  (362) 
1

>  <hydroph_interaction:HIS:51>  (362) 
1

>  <hbond:ALA:132>  (362) 
0

>  <hbond:SER:135>  (362) 
0

>  <hydroph_interaction:TYR:150>  (362) 
0

>  <pistack:TYR:161>  (362) 
0

>  <hydroph_interaction:TYR:161>  (362) 
1

>  <hydroph_interaction:ASP:83>  (362) 
0

>  <hbond:TYR:130>  (362) 
0

>  <hydroph_interaction:ALA:132>  (362) 
1

>  <hbond:HIS:51>  (362) 
0

>  <hbond:ASP:129>  (362) 
0

>  <hbond:TYR:150>  (362) 
0

>  <hbond:GLY:151>  (362) 
0

>  <hbond:TYR:161>  (362) 
0

>  <hydroph_interaction:TYR:130>  (362) 
0

>  <hydroph_interaction:PRO:131>  (362) 
0

>  <hydroph_interaction:ASP:129>  (362) 
0

>  <saltbridge:ASP:75>  (362) 
0

>  <saltbridge:ASP:83>  (362) 
0

>  <hydroph_interaction:ASN:152>  (362) 
0

>  <halogenbond:TYR:150>  (362) 
1

>  <hbond:ASP:83>  (362) 
0

>  <hydroph_interaction:VAL:155>  (362) 
0

>  <pication:TYR:161>  (362) 
0

>  <hbond:PRO:131>  (362) 
0

>  <hbond:LEU:128>  (362) 
0

>  <saltbridge:ASP:129>  (362) 
0

>  <hbond:THR:134>  (362) 
0

>  <pication:HIS:51>  (362) 
0

>  <hbond:SER:81>  (362) 
0

>  <hbond:GLY:159>  (362) 
0

>  <hydroph_interaction:PRO:101>  (362) 
0

>  <hydroph_interaction:THR:134>  (362) 
0

>  <hbond:GLY:82>  (362) 
0

>  <hydroph_interaction:GLU:104>  (362) 
0

>  <hydroph_interaction:VAL:36>  (362) 
0

>  <hydroph_interaction:MET:49>  (362) 
0

>  <halogenbond:GLU:104>  (362) 
0

>  <hydroph_interaction:LYS:107>  (362) 
0

$$$$
Z846935254
     RDKit          3D

 40 41  0  0  0  0  0  0  0  0999 V2000
   -7.8140    5.4610  -14.9410 C   0  0  0  0  0  0  0  0  0  0  0  0
   -8.1970    5.2990  -16.4040 C   0  0  0  0  0  0  0  0  0  0  0  0
   -9.6310    4.9780  -16.5930 C   0  0  0  0  0  0  0  0  0  0  0  0
  -10.0910    4.8000  -17.9030 C   0  0  0  0  0  0  0  0  0  0  0  0
   -9.2160    4.9270  -18.9800 C   0  0  0  0  0  0  0  0  0  0  0  0
   -7.8600    5.2360  -18.7830 C   0  0  0  0  0  0  0  0  0  0  0  0
   -7.3340    5.4220  -17.4990 C   0  0  0  0  0  0  0  0  0  0  0  0
   -5.9700    5.7240  -17.2630 N   0  0  0  0  0  0  0  0  0  0  0  0
   -4.8330    5.6450  -18.0700 C   0  0  0  0  0  0  0  0  0  0  0  0
   -3.4440    4.7940  -17.7120 S   0  0  0  0  0  0  0  0  0  0  0  0
   -4.9960    6.4220  -19.2410 N   0  0  0  0  0  0  0  0  0  0  0  0
   -5.9120    7.5560  -19.1650 C   0  0  0  0  0  0  0  0  0  0  0  0
   -5.7070    8.2510  -20.5050 C   0  0  0  0  0  0  0  0  0  0  0  0
   -5.0200    7.2130  -21.3540 C   0  0  0  0  0  0  0  0  0  0  0  0
   -4.8430    6.0110  -20.6820 C   0  0  0  0  0  0  0  0  0  0  0  0
   -3.5380    5.3360  -21.0990 C   0  0  0  0  0  0  0  0  0  0  0  0
   -3.7970    4.5000  -22.3380 C   0  0  0  0  0  0  0  0  0  0  0  0
   -2.3810    6.2670  -21.4460 C   0  0  0  0  0  0  0  0  0  0  0  0
   -6.9870    4.7870  -14.7030 H   0  0  0  0  0  0  0  0  0  0  0  0
   -7.4970    6.4900  -14.7490 H   0  0  0  0  0  0  0  0  0  0  0  0
   -8.6640    5.2200  -14.2990 H   0  0  0  0  0  0  0  0  0  0  0  0
  -10.2730    4.8880  -15.7250 H   0  0  0  0  0  0  0  0  0  0  0  0
  -11.1370    4.5620  -18.0930 H   0  0  0  0  0  0  0  0  0  0  0  0
   -9.5880    4.7860  -19.9930 H   0  0  0  0  0  0  0  0  0  0  0  0
   -7.2080    5.3280  -19.6450 H   0  0  0  0  0  0  0  0  0  0  0  0
   -5.7150    5.8360  -16.2900 H   0  0  0  0  0  0  0  0  0  0  0  0
   -5.6020    8.1990  -18.3330 H   0  0  0  0  0  0  0  0  0  0  0  0
   -6.9630    7.2670  -19.0520 H   0  0  0  0  0  0  0  0  0  0  0  0
   -5.0020    9.0750  -20.3430 H   0  0  0  0  0  0  0  0  0  0  0  0
   -6.5980    8.6690  -20.9610 H   0  0  0  0  0  0  0  0  0  0  0  0
   -5.6680    7.0140  -22.2150 H   0  0  0  0  0  0  0  0  0  0  0  0
   -4.1270    7.6790  -21.7830 H   0  0  0  0  0  0  0  0  0  0  0  0
   -5.6810    5.3550  -20.9440 H   0  0  0  0  0  0  0  0  0  0  0  0
   -3.1800    4.7160  -20.2740 H   0  0  0  0  0  0  0  0  0  0  0  0
   -3.6680    5.0990  -23.2450 H   0  0  0  0  0  0  0  0  0  0  0  0
   -4.8280    4.1290  -22.3200 H   0  0  0  0  0  0  0  0  0  0  0  0
   -3.1130    3.6480  -22.4000 H   0  0  0  0  0  0  0  0  0  0  0  0
   -2.2560    7.0290  -20.6710 H   0  0  0  0  0  0  0  0  0  0  0  0
   -2.5580    6.7840  -22.3920 H   0  0  0  0  0  0  0  0  0  0  0  0
   -1.4330    5.7230  -21.5070 H   0  0  0  0  0  0  0  0  0  0  0  0
  1  2  1  0
  2  3  2  0
  3  4  1  0
  4  5  2  0
  5  6  1  0
  6  7  2  0
  7  8  1  0
  8  9  1  0
  9 10  2  0
  9 11  1  0
 11 12  1  0
 12 13  1  0
 13 14  1  0
 14 15  1  0
 15 16  1  0
 16 17  1  0
 16 18  1  0
  7  2  1  0
 15 11  1  0
  1 19  1  0
  1 20  1  0
  1 21  1  0
  3 22  1  0
  4 23  1  0
  5 24  1  0
  6 25  1  0
  8 26  1  0
 12 27  1  0
 12 28  1  0
 13 29  1  0
 13 30  1  0
 14 31  1  0
 14 32  1  0
 15 33  1  0
 16 34  1  0
 17 35  1  0
 17 36  1  0
 17 37  1  0
 18 38  1  0
 18 39  1  0
 18 40  1  0
A    1
 C1 
A    2
 C2 
A    3
 C3 
A    4
 C4 
A    5
 C5 
A    6
 C6 
A    7
 C7 
A    8
 N1 
A    9
 C8 
A   10
 S1 
A   11
 N2 
A   12
 C9 
A   13
 C10
A   14
 C11
A   15
 C12
A   16
 C13
A   17
 C14
A   18
 C15
A   19
 H1 
A   20
 H2 
A   21
 H3 
A   22
 H4 
A   23
 H5 
A   24
 H6 
A   25
 H7 
A   26
 H8 
A   27
 H9 
A   28
 H10
A   29
 H11
A   30
 H12
A   31
 H13
A   32
 H14
A   33
 H15
A   34
 H16
A   35
 H17
A   36
 H18
A   37
 H19
A   38
 H20
A   39
 H21
A   40
 H22
M  END
>  <ref_pdb>  (363) 
x0051_0B

>  <ref_mols>  (363) 
x0229_0B,x0904_0B

>  <original SMILES>  (363) 
[H]c1c([H])c([H])c(C([H])([H])[H])c(N([H])C(=S)N2C([H])([H])C([H])([H])C([H])([H])C2([H])C([H])(C([H])([H])[H])C([H])([H])[H])c1[H]

>  <index>  (363) 
484

>  <∆∆G>  (363) 
-8.156419

>  <∆G_bound>  (363) 
-8.208108

>  <∆G_unbound>  (363) 
-0.051689

>  <comRMSD>  (363) 
0.708291

>  <N_constrained_atoms>  (363) 
21.0

>  <N_unconstrained_atoms>  (363) 
1.0

>  <runtime>  (363) 
42.700281

>  <LE>  (363) 
0.370746

>  <percent_hybrid>  (363) 
47.0

>  <dist>  (363) 
5.0

>  <ecfp4>  (363) 
0.205882

>  <daylight>  (363) 
0.254438

>  <topodist>  (363) 
2.0

>  <mces>  (363) 
19.0

>  <tdn>  (363) 
1.0

>  <tup>  (363) 
0.0

>  <rdn>  (363) 
1.0

>  <rup>  (363) 
0.0

>  <ldn>  (363) 
0.0

>  <lup>  (363) 
0.0

>  <mut>  (363) 
3.0

>  <maj>  (363) 
2.0

>  <min>  (363) 
1.0

>  <hyb>  (363) 
0.0

>  <sub>  (363) 
2.0

>  <query_index>  (363) 
66.0

>  <max_hit_Tanimoto>  (363) 
0.275391

>  <largest_ring>  (363) 
0

>  <N_interactions_kept>  (363) 
2.0

>  <N_interactions_lost>  (363) 
1.5

>  <interaction_uniqueness_metric>  (363) 
0.068525

>  <ad_hoc_penalty>  (363) 
-19.86347

>  <N_rotatable_bonds>  (363) 
5

>  <N_HA>  (363) 
18

>  <cluster>  (363) 
5777

>  <N_interactions>  (363) 
5

>  <Enamine>  (363) 
1

>  <Mcule>  (363) 
0

>  <N_PAINS>  (363) 
0

>  <UFF_Gibbs>  (363) 
89.130074

>  <strain_per_HA>  (363) 
4.951671

>  <saltbridge:HIS:51>  (363) 
0

>  <pistack:HIS:51>  (363) 
0

>  <hydroph_interaction:HIS:51>  (363) 
0

>  <hbond:ALA:132>  (363) 
0

>  <hbond:SER:135>  (363) 
0

>  <hydroph_interaction:TYR:150>  (363) 
1

>  <pistack:TYR:161>  (363) 
0

>  <hydroph_interaction:TYR:161>  (363) 
3

>  <hydroph_interaction:ASP:83>  (363) 
0

>  <hbond:TYR:130>  (363) 
0

>  <hydroph_interaction:ALA:132>  (363) 
0

>  <hbond:HIS:51>  (363) 
0

>  <hbond:ASP:129>  (363) 
0

>  <hbond:TYR:150>  (363) 
0

>  <hbond:GLY:151>  (363) 
0

>  <hbond:TYR:161>  (363) 
0

>  <hydroph_interaction:TYR:130>  (363) 
0

>  <hydroph_interaction:PRO:131>  (363) 
0

>  <hydroph_interaction:ASP:129>  (363) 
1

>  <saltbridge:ASP:75>  (363) 
0

>  <saltbridge:ASP:83>  (363) 
0

>  <hydroph_interaction:ASN:152>  (363) 
0

>  <halogenbond:TYR:150>  (363) 
0

>  <hbond:ASP:83>  (363) 
0

>  <hydroph_interaction:VAL:155>  (363) 
0

>  <pication:TYR:161>  (363) 
0

>  <hbond:PRO:131>  (363) 
0

>  <hbond:LEU:128>  (363) 
0

>  <saltbridge:ASP:129>  (363) 
0

>  <hbond:THR:134>  (363) 
0

>  <pication:HIS:51>  (363) 
0

>  <hbond:SER:81>  (363) 
0

>  <hbond:GLY:159>  (363) 
0

>  <hydroph_interaction:PRO:101>  (363) 
0

>  <hydroph_interaction:THR:134>  (363) 
0

>  <hbond:GLY:82>  (363) 
0

>  <hydroph_interaction:GLU:104>  (363) 
0

>  <hydroph_interaction:VAL:36>  (363) 
0

>  <hydroph_interaction:MET:49>  (363) 
0

>  <halogenbond:GLU:104>  (363) 
0

>  <hydroph_interaction:LYS:107>  (363) 
0

$$$$
ZGOOZLPRAWTXJJ-UHFFFAOYSA-N
     RDKit          3D

 42 44  0  0  0  0  0  0  0  0999 V2000
   -7.4250    5.6310  -14.3440 C   0  0  0  0  0  0  0  0  0  0  0  0
   -7.7720    4.9110  -13.1530 N   0  0  0  0  0  0  0  0  0  0  0  0
   -9.0040    5.2750  -12.4010 C   0  0  0  0  0  0  0  0  0  0  0  0
   -8.9230    5.4480  -10.8490 C   0  0  0  0  0  0  0  0  0  0  0  0
   -8.9760    4.3400  -10.0010 C   0  0  0  0  0  0  0  0  0  0  0  0
   -8.9130    4.8050   -8.7120 N   0  0  0  0  0  0  0  0  0  0  0  0
   -8.9620    4.0260   -7.5960 C   0  0  0  0  0  0  0  0  0  0  0  0
   -9.2800    2.6990   -7.8310 C   0  0  0  0  0  0  0  0  0  0  0  0
   -8.6550    2.2450   -9.1260 C   0  0  0  0  0  0  0  0  0  0  0  0
   -9.0810    2.9690  -10.2310 C   0  0  0  0  0  0  0  0  0  0  0  0
   -8.8040    6.1800   -8.7160 N   0  0  0  0  0  0  0  0  0  0  0  0
   -8.8130    6.5810  -10.0410 C   0  0  0  0  0  0  0  0  0  0  0  0
   -6.6010    6.5470  -14.2830 O   0  0  0  0  0  0  0  0  0  0  0  0
   -8.0410    5.3170  -15.6990 C   0  0  0  0  0  0  0  0  0  0  0  0
   -7.1750    5.2720  -16.9490 C   0  0  0  0  0  0  0  0  0  0  0  0
   -5.8290    5.4940  -16.9730 O   0  0  0  0  0  0  0  0  0  0  0  0
   -5.1700    5.4890  -18.2410 C   0  0  0  0  0  0  0  0  0  0  0  0
   -6.1330    5.5850  -19.4210 C   0  0  0  0  0  0  0  0  0  0  0  0
   -7.7100    5.0060  -18.1800 N   0  0  0  0  0  0  0  0  0  0  0  0
   -9.0270    4.7610  -18.2970 C   0  0  0  0  0  0  0  0  0  0  0  0
   -9.8430    4.7830  -17.2080 C   0  0  0  0  0  0  0  0  0  0  0  0
   -9.3920    5.0560  -15.9210 C   0  0  0  0  0  0  0  0  0  0  0  0
   -7.3820    3.9900  -12.9950 H   0  0  0  0  0  0  0  0  0  0  0  0
   -9.7060    4.4660  -12.6330 H   0  0  0  0  0  0  0  0  0  0  0  0
   -9.4280    6.1800  -12.8510 H   0  0  0  0  0  0  0  0  0  0  0  0
   -9.6700    4.5630   -6.9670 H   0  0  0  0  0  0  0  0  0  0  0  0
   -7.9950    4.1820   -7.1270 H   0  0  0  0  0  0  0  0  0  0  0  0
   -9.1200    2.0380   -6.9870 H   0  0  0  0  0  0  0  0  0  0  0  0
  -10.3680    2.6560   -7.9660 H   0  0  0  0  0  0  0  0  0  0  0  0
   -8.9110    1.2100   -9.2450 H   0  0  0  0  0  0  0  0  0  0  0  0
   -7.5770    2.1900   -9.0100 H   0  0  0  0  0  0  0  0  0  0  0  0
   -8.5700    2.5680  -11.1140 H   0  0  0  0  0  0  0  0  0  0  0  0
  -10.1300    2.7300  -10.4040 H   0  0  0  0  0  0  0  0  0  0  0  0
   -8.7430    7.6570  -10.2200 H   0  0  0  0  0  0  0  0  0  0  0  0
   -4.3820    6.2450  -18.2970 H   0  0  0  0  0  0  0  0  0  0  0  0
   -4.6460    4.5360  -18.3040 H   0  0  0  0  0  0  0  0  0  0  0  0
   -5.5620    5.8640  -20.3110 H   0  0  0  0  0  0  0  0  0  0  0  0
   -6.5820    4.6130  -19.6290 H   0  0  0  0  0  0  0  0  0  0  0  0
   -6.9320    6.3170  -19.3540 H   0  0  0  0  0  0  0  0  0  0  0  0
   -9.3970    4.5450  -19.2980 H   0  0  0  0  0  0  0  0  0  0  0  0
  -10.9030    4.5790  -17.3560 H   0  0  0  0  0  0  0  0  0  0  0  0
  -10.1770    5.0380  -15.1480 H   0  0  0  0  0  0  0  0  0  0  0  0
  1  2  1  0
  2  3  1  0
  3  4  1  0
  4  5  2  0
  5  6  1  0
  6  7  1  0
  7  8  1  0
  8  9  1  0
  9 10  1  0
  6 11  1  0
 11 12  2  0
  1 13  2  0
  1 14  1  0
 14 15  2  0
 15 16  1  0
 16 17  1  0
 17 18  1  0
 15 19  1  0
 19 20  2  0
 20 21  1  0
 21 22  2  0
 12  4  1  0
 10  5  1  0
 22 14  1  0
  2 23  1  0
  3 24  1  0
  3 25  1  0
  7 26  1  0
  7 27  1  0
  8 28  1  0
  8 29  1  0
  9 30  1  0
  9 31  1  0
 10 32  1  0
 10 33  1  0
 12 34  1  0
 17 35  1  0
 17 36  1  0
 18 37  1  0
 18 38  1  0
 18 39  1  0
 20 40  1  0
 21 41  1  0
 22 42  1  0
A    1
 C1 
A    2
 N1 
A    3
 C2 
A    4
 C3 
A    5
 C4 
A    6
 N2 
A    7
 C5 
A    8
 C6 
A    9
 C7 
A   10
 C8 
A   11
 N3 
A   12
 C9 
A   13
 O1 
A   14
 C10
A   15
 C11
A   16
 O2 
A   17
 C12
A   18
 C13
A   19
 N4 
A   20
 C14
A   21
 C15
A   22
 C16
A   23
 H1 
A   24
 H2 
A   25
 H3 
A   26
 H4 
A   27
 H5 
A   28
 H6 
A   29
 H7 
A   30
 H8 
A   31
 H9 
A   32
 H10
A   33
 H11
A   34
 H12
A   35
 H13
A   36
 H14
A   37
 H15
A   38
 H16
A   39
 H17
A   40
 H18
A   41
 H19
A   42
 H20
M  END
>  <ref_pdb>  (364) 
x0051_0B

>  <ref_mols>  (364) 
x0435_0B,x0969_1B

>  <original SMILES>  (364) 
[H]c1nc(OC([H])([H])C([H])([H])[H])c(C(=O)N([H])C([H])([H])c2c([H])nn3c2C([H])([H])C([H])([H])C([H])([H])C3([H])[H])c([H])c1[H]

>  <index>  (364) 
207

>  <∆∆G>  (364) 
-7.542696

>  <∆G_bound>  (364) 
-6.225377

>  <∆G_unbound>  (364) 
1.317319

>  <comRMSD>  (364) 
0.557512

>  <N_constrained_atoms>  (364) 
20.0

>  <N_unconstrained_atoms>  (364) 
3.0

>  <runtime>  (364) 
41.659139

>  <LE>  (364) 
0.327943

>  <percent_hybrid>  (364) 
50.0

>  <dist>  (364) 
10.0

>  <ecfp4>  (364) 
0.204545

>  <daylight>  (364) 
0.361446

>  <topodist>  (364) 
3.0

>  <mces>  (364) 
23.0

>  <tdn>  (364) 
1.0

>  <tup>  (364) 
1.0

>  <rdn>  (364) 
1.0

>  <rup>  (364) 
0.0

>  <ldn>  (364) 
0.0

>  <lup>  (364) 
0.0

>  <mut>  (364) 
5.0

>  <maj>  (364) 
5.0

>  <min>  (364) 
0.0

>  <hyb>  (364) 
2.0

>  <sub>  (364) 
0.0

>  <query_index>  (364) 
311.0

>  <max_hit_Tanimoto>  (364) 
0.323392

>  <largest_ring>  (364) 
0

>  <N_interactions_kept>  (364) 
3.0

>  <N_interactions_lost>  (364) 
0.5

>  <interaction_uniqueness_metric>  (364) 
0.201593

>  <ad_hoc_penalty>  (364) 
-19.861769

>  <N_rotatable_bonds>  (364) 
6

>  <N_HA>  (364) 
22

>  <cluster>  (364) 
6030

>  <N_interactions>  (364) 
5

>  <Enamine>  (364) 
0

>  <Mcule>  (364) 
1

>  <N_PAINS>  (364) 
0

>  <UFF_Gibbs>  (364) 
255.674526

>  <strain_per_HA>  (364) 
11.621569

>  <saltbridge:HIS:51>  (364) 
0

>  <pistack:HIS:51>  (364) 
1

>  <hydroph_interaction:HIS:51>  (364) 
1

>  <hbond:ALA:132>  (364) 
0

>  <hbond:SER:135>  (364) 
0

>  <hydroph_interaction:TYR:150>  (364) 
0

>  <pistack:TYR:161>  (364) 
0

>  <hydroph_interaction:TYR:161>  (364) 
1

>  <hydroph_interaction:ASP:83>  (364) 
1

>  <hbond:TYR:130>  (364) 
0

>  <hydroph_interaction:ALA:132>  (364) 
0

>  <hbond:HIS:51>  (364) 
0

>  <hbond:ASP:129>  (364) 
0

>  <hbond:TYR:150>  (364) 
0

>  <hbond:GLY:151>  (364) 
0

>  <hbond:TYR:161>  (364) 
1

>  <hydroph_interaction:TYR:130>  (364) 
0

>  <hydroph_interaction:PRO:131>  (364) 
0

>  <hydroph_interaction:ASP:129>  (364) 
0

>  <saltbridge:ASP:75>  (364) 
0

>  <saltbridge:ASP:83>  (364) 
0

>  <hydroph_interaction:ASN:152>  (364) 
0

>  <halogenbond:TYR:150>  (364) 
0

>  <hbond:ASP:83>  (364) 
0

>  <hydroph_interaction:VAL:155>  (364) 
0

>  <pication:TYR:161>  (364) 
0

>  <hbond:PRO:131>  (364) 
0

>  <hbond:LEU:128>  (364) 
0

>  <saltbridge:ASP:129>  (364) 
0

>  <hbond:THR:134>  (364) 
0

>  <pication:HIS:51>  (364) 
0

>  <hbond:SER:81>  (364) 
0

>  <hbond:GLY:159>  (364) 
0

>  <hydroph_interaction:PRO:101>  (364) 
0

>  <hydroph_interaction:THR:134>  (364) 
0

>  <hbond:GLY:82>  (364) 
0

>  <hydroph_interaction:GLU:104>  (364) 
0

>  <hydroph_interaction:VAL:36>  (364) 
0

>  <hydroph_interaction:MET:49>  (364) 
0

>  <halogenbond:GLU:104>  (364) 
0

>  <hydroph_interaction:LYS:107>  (364) 
0

$$$$
MCULE-8998858896
     RDKit          3D

 48 50  0  0  0  0  0  0  0  0999 V2000
   -8.2570    6.9140  -14.8580 O   0  0  0  0  0  0  0  0  0  0  0  0
   -8.5930    5.5760  -15.3140 C   0  0  0  0  0  0  0  0  0  0  0  0
   -8.0430    5.3580  -16.6920 C   0  0  0  0  0  0  0  0  0  0  0  0
   -6.5670    5.5430  -16.8610 C   0  0  0  0  0  0  0  0  0  0  0  0
   -5.9870    5.3710  -18.1130 C   0  0  0  0  0  0  0  0  0  0  0  0
   -6.7820    5.0290  -19.2080 C   0  0  0  0  0  0  0  0  0  0  0  0
   -8.1650    4.8490  -19.0470 C   0  0  0  0  0  0  0  0  0  0  0  0
   -8.7900    5.0060  -17.8130 C   0  0  0  0  0  0  0  0  0  0  0  0
  -10.2670    4.7850  -17.7720 C   0  0  0  0  0  0  0  0  0  0  0  0
   -9.0930    7.3810  -13.9370 C   0  0  0  0  0  0  0  0  0  0  0  0
   -9.0160    6.5130  -12.6990 C   0  0  0  0  0  0  0  0  0  0  0  0
   -8.8180    7.1970  -11.5070 C   0  0  0  0  0  0  0  0  0  0  0  0
   -8.7320    6.4930  -10.3180 C   0  0  0  0  0  0  0  0  0  0  0  0
   -8.8380    5.0940  -10.2820 C   0  0  0  0  0  0  0  0  0  0  0  0
   -8.7540    4.4170   -9.0990 N   0  0  0  0  0  0  0  0  0  0  0  0
   -8.9900    2.9540   -9.0450 C   0  0  0  0  0  0  0  0  0  0  0  0
   -9.6960    2.5990   -7.8940 C   0  0  0  0  0  0  0  0  0  0  0  0
   -9.2090    3.2820   -6.6870 N   0  0  0  0  0  0  0  0  0  0  0  0
   -7.8270    3.0350   -6.4550 C   0  0  0  0  0  0  0  0  0  0  0  0
   -9.2940    4.7180   -6.8050 C   0  0  0  0  0  0  0  0  0  0  0  0
   -8.5090    5.1610   -7.8500 C   0  0  0  0  0  0  0  0  0  0  0  0
   -9.0370    4.4320  -11.4990 C   0  0  0  0  0  0  0  0  0  0  0  0
   -9.1260    5.1240  -12.7000 C   0  0  0  0  0  0  0  0  0  0  0  0
   -9.8110    8.3340  -14.0680 O   0  0  0  0  0  0  0  0  0  0  0  0
   -8.0950    4.8660  -14.6420 H   0  0  0  0  0  0  0  0  0  0  0  0
   -9.6630    5.3600  -15.2300 H   0  0  0  0  0  0  0  0  0  0  0  0
   -5.9450    5.8140  -16.0120 H   0  0  0  0  0  0  0  0  0  0  0  0
   -4.9140    5.5040  -18.2410 H   0  0  0  0  0  0  0  0  0  0  0  0
   -6.3300    4.8980  -20.1880 H   0  0  0  0  0  0  0  0  0  0  0  0
   -8.7510    4.5790  -19.9230 H   0  0  0  0  0  0  0  0  0  0  0  0
  -10.8240    5.6940  -17.9890 H   0  0  0  0  0  0  0  0  0  0  0  0
  -10.5720    4.4350  -16.7850 H   0  0  0  0  0  0  0  0  0  0  0  0
  -10.5400    4.0270  -18.5020 H   0  0  0  0  0  0  0  0  0  0  0  0
   -8.7290    8.2820  -11.4980 H   0  0  0  0  0  0  0  0  0  0  0  0
   -8.5780    7.0650   -9.4070 H   0  0  0  0  0  0  0  0  0  0  0  0
   -8.0420    2.4010   -9.0280 H   0  0  0  0  0  0  0  0  0  0  0  0
   -9.5530    2.6390   -9.9320 H   0  0  0  0  0  0  0  0  0  0  0  0
  -10.7580    2.8130   -8.0270 H   0  0  0  0  0  0  0  0  0  0  0  0
   -9.6090    1.5120   -7.7770 H   0  0  0  0  0  0  0  0  0  0  0  0
   -7.6980    2.0180   -6.1130 H   0  0  0  0  0  0  0  0  0  0  0  0
   -7.2350    3.1940   -7.3610 H   0  0  0  0  0  0  0  0  0  0  0  0
   -7.4400    3.6890   -5.6830 H   0  0  0  0  0  0  0  0  0  0  0  0
  -10.3160    5.0440   -6.7000 H   0  0  0  0  0  0  0  0  0  0  0  0
   -8.8130    5.0930   -5.8940 H   0  0  0  0  0  0  0  0  0  0  0  0
   -8.7390    6.2240   -7.9820 H   0  0  0  0  0  0  0  0  0  0  0  0
   -7.4470    5.0750   -7.5830 H   0  0  0  0  0  0  0  0  0  0  0  0
   -9.1290    3.3490  -11.5370 H   0  0  0  0  0  0  0  0  0  0  0  0
   -9.2840    4.5620  -13.6190 H   0  0  0  0  0  0  0  0  0  0  0  0
  1  2  1  0
  2  3  1  0
  3  4  2  0
  4  5  1  0
  5  6  2  0
  6  7  1  0
  7  8  2  0
  8  9  1  0
  1 10  1  0
 10 11  1  0
 11 12  2  0
 12 13  1  0
 13 14  2  0
 14 15  1  0
 15 16  1  0
 16 17  1  0
 17 18  1  0
 18 19  1  0
 18 20  1  0
 20 21  1  0
 14 22  1  0
 22 23  2  0
 10 24  2  0
  3  8  1  0
 11 23  1  0
 21 15  1  0
  2 25  1  0
  2 26  1  0
  4 27  1  0
  5 28  1  0
  6 29  1  0
  7 30  1  0
  9 31  1  0
  9 32  1  0
  9 33  1  0
 12 34  1  0
 13 35  1  0
 16 36  1  0
 16 37  1  0
 17 38  1  0
 17 39  1  0
 19 40  1  0
 19 41  1  0
 19 42  1  0
 20 43  1  0
 20 44  1  0
 21 45  1  0
 21 46  1  0
 22 47  1  0
 23 48  1  0
A    1
 O1 
A    2
 C1 
A    3
 C2 
A    4
 C3 
A    5
 C4 
A    6
 C5 
A    7
 C6 
A    8
 C7 
A    9
 C8 
A   10
 C9 
A   11
 C10
A   12
 C11
A   13
 C12
A   14
 C13
A   15
 N1 
A   16
 C14
A   17
 C15
A   18
 N2 
A   19
 C16
A   20
 C17
A   21
 C18
A   22
 C19
A   23
 C20
A   24
 O2 
A   25
 H1 
A   26
 H2 
A   27
 H3 
A   28
 H4 
A   29
 H5 
A   30
 H6 
A   31
 H7 
A   32
 H8 
A   33
 H9 
A   34
 H10
A   35
 H11
A   36
 H12
A   37
 H13
A   38
 H14
A   39
 H15
A   40
 H16
A   41
 H17
A   42
 H18
A   43
 H19
A   44
 H20
A   45
 H21
A   46
 H22
A   47
 H23
A   48
 H24
M  END
>  <ref_pdb>  (365) 
x0051_0B

>  <ref_mols>  (365) 
x0605_0B,x0404_0B

>  <original SMILES>  (365) 
[H]c1c([H])c([H])c(C([H])([H])OC(=O)c2c([H])c([H])c(N3C([H])([H])C([H])([H])N(C([H])([H])[H])C([H])([H])C3([H])[H])c([H])c2[H])c(C([H])([H])[H])c1[H]

>  <index>  (365) 
351

>  <∆∆G>  (365) 
-8.959608

>  <∆G_bound>  (365) 
-8.521184

>  <∆G_unbound>  (365) 
0.438424

>  <comRMSD>  (365) 
0.804741

>  <N_constrained_atoms>  (365) 
24.0

>  <N_unconstrained_atoms>  (365) 
2.0

>  <runtime>  (365) 
99.24785

>  <LE>  (365) 
0.3446

>  <percent_hybrid>  (365) 
38.0

>  <dist>  (365) 
7.0

>  <ecfp4>  (365) 
0.25

>  <daylight>  (365) 
0.28655

>  <topodist>  (365) 
4.0

>  <mces>  (365) 
25.0

>  <tdn>  (365) 
3.0

>  <tup>  (365) 
1.0

>  <rdn>  (365) 
0.0

>  <rup>  (365) 
0.0

>  <ldn>  (365) 
0.0

>  <lup>  (365) 
0.0

>  <mut>  (365) 
3.0

>  <maj>  (365) 
3.0

>  <min>  (365) 
0.0

>  <hyb>  (365) 
0.0

>  <sub>  (365) 
2.0

>  <query_index>  (365) 
27.0

>  <max_hit_Tanimoto>  (365) 
0.333333

>  <largest_ring>  (365) 
0

>  <N_interactions_kept>  (365) 
1.0

>  <N_interactions_lost>  (365) 
3.0

>  <interaction_uniqueness_metric>  (365) 
0.316184

>  <ad_hoc_penalty>  (365) 
-19.697901

>  <N_rotatable_bonds>  (365) 
6

>  <N_HA>  (365) 
24

>  <cluster>  (365) 
5898

>  <N_interactions>  (365) 
8

>  <Enamine>  (365) 
0

>  <Mcule>  (365) 
1

>  <N_PAINS>  (365) 
0

>  <UFF_Gibbs>  (365) 
231.310553

>  <strain_per_HA>  (365) 
9.63794

>  <saltbridge:HIS:51>  (365) 
1

>  <pistack:HIS:51>  (365) 
1

>  <hydroph_interaction:HIS:51>  (365) 
1

>  <hbond:ALA:132>  (365) 
0

>  <hbond:SER:135>  (365) 
0

>  <hydroph_interaction:TYR:150>  (365) 
1

>  <pistack:TYR:161>  (365) 
1

>  <hydroph_interaction:TYR:161>  (365) 
1

>  <hydroph_interaction:ASP:83>  (365) 
0

>  <hbond:TYR:130>  (365) 
0

>  <hydroph_interaction:ALA:132>  (365) 
1

>  <hbond:HIS:51>  (365) 
0

>  <hbond:ASP:129>  (365) 
0

>  <hbond:TYR:150>  (365) 
0

>  <hbond:GLY:151>  (365) 
0

>  <hbond:TYR:161>  (365) 
0

>  <hydroph_interaction:TYR:130>  (365) 
0

>  <hydroph_interaction:PRO:131>  (365) 
0

>  <hydroph_interaction:ASP:129>  (365) 
0

>  <saltbridge:ASP:75>  (365) 
1

>  <saltbridge:ASP:83>  (365) 
0

>  <hydroph_interaction:ASN:152>  (365) 
0

>  <halogenbond:TYR:150>  (365) 
0

>  <hbond:ASP:83>  (365) 
0

>  <hydroph_interaction:VAL:155>  (365) 
0

>  <pication:TYR:161>  (365) 
0

>  <hbond:PRO:131>  (365) 
0

>  <hbond:LEU:128>  (365) 
0

>  <saltbridge:ASP:129>  (365) 
0

>  <hbond:THR:134>  (365) 
0

>  <pication:HIS:51>  (365) 
0

>  <hbond:SER:81>  (365) 
0

>  <hbond:GLY:159>  (365) 
0

>  <hydroph_interaction:PRO:101>  (365) 
0

>  <hydroph_interaction:THR:134>  (365) 
0

>  <hbond:GLY:82>  (365) 
0

>  <hydroph_interaction:GLU:104>  (365) 
0

>  <hydroph_interaction:VAL:36>  (365) 
0

>  <hydroph_interaction:MET:49>  (365) 
0

>  <halogenbond:GLU:104>  (365) 
0

>  <hydroph_interaction:LYS:107>  (365) 
0

$$$$
OSNVYHDCLRXUKH-UHFFFAOYSA-N
     RDKit          3D

 47 50  0  0  0  0  0  0  0  0999 V2000
   -7.2480    9.6690  -26.6080 C   0  0  0  0  0  0  0  0  0  0  0  0
   -6.1620   10.1460  -25.9040 N   0  0  0  0  0  0  0  0  0  0  0  0
   -6.1270   10.4540  -24.5070 C   0  0  0  0  0  0  0  0  0  0  0  0
   -5.7640    9.3710  -23.6970 C   0  0  0  0  0  0  0  0  0  0  0  0
   -6.2380    8.1090  -24.0210 C   0  0  0  0  0  0  0  0  0  0  0  0
   -5.9040    6.9910  -23.2980 C   0  0  0  0  0  0  0  0  0  0  0  0
   -5.0060    7.1230  -22.1310 C   0  0  0  0  0  0  0  0  0  0  0  0
   -4.6320    5.9930  -21.4270 O   0  0  0  0  0  0  0  0  0  0  0  0
   -4.9220    5.7850  -20.1130 C   0  0  0  0  0  0  0  0  0  0  0  0
   -3.9030    5.4680  -19.2150 C   0  0  0  0  0  0  0  0  0  0  0  0
   -4.2060    5.2700  -17.8810 C   0  0  0  0  0  0  0  0  0  0  0  0
   -5.6200    5.3990  -17.4270 C   0  0  0  0  0  0  0  0  0  0  0  0
   -5.9610    5.2140  -16.0910 C   0  0  0  0  0  0  0  0  0  0  0  0
   -6.6030    5.7120  -18.3750 C   0  0  0  0  0  0  0  0  0  0  0  0
   -6.2500    5.9010  -19.7080 C   0  0  0  0  0  0  0  0  0  0  0  0
   -4.5410    8.4050  -21.7830 C   0  0  0  0  0  0  0  0  0  0  0  0
   -4.9220    9.5220  -22.5660 C   0  0  0  0  0  0  0  0  0  0  0  0
   -7.5020    8.3750  -26.9670 N   0  0  0  0  0  0  0  0  0  0  0  0
   -8.7350    8.2000  -27.6510 C   0  0  0  0  0  0  0  0  0  0  0  0
   -9.3930    9.3860  -27.7960 C   0  0  0  0  0  0  0  0  0  0  0  0
  -10.6250    9.4520  -28.3980 C   0  0  0  0  0  0  0  0  0  0  0  0
  -11.3560    8.2580  -28.3180 C   0  0  0  0  0  0  0  0  0  0  0  0
  -10.6670    7.1630  -28.8800 C   0  0  0  0  0  0  0  0  0  0  0  0
   -9.3110    6.9280  -28.1620 C   0  0  0  0  0  0  0  0  0  0  0  0
   -8.5170   10.7080  -27.1490 S   0  0  0  0  0  0  0  0  0  0  0  0
   -5.3960   10.5300  -26.4480 H   0  0  0  0  0  0  0  0  0  0  0  0
   -5.4140   11.2690  -24.3720 H   0  0  0  0  0  0  0  0  0  0  0  0
   -7.1190   10.7940  -24.2040 H   0  0  0  0  0  0  0  0  0  0  0  0
   -6.8900    8.0700  -24.8970 H   0  0  0  0  0  0  0  0  0  0  0  0
   -6.2890    6.0330  -23.5900 H   0  0  0  0  0  0  0  0  0  0  0  0
   -2.8690    5.3780  -19.5590 H   0  0  0  0  0  0  0  0  0  0  0  0
   -3.4110    5.0240  -17.1790 H   0  0  0  0  0  0  0  0  0  0  0  0
   -5.8530    6.1430  -15.5170 H   0  0  0  0  0  0  0  0  0  0  0  0
   -5.3100    4.4580  -15.6440 H   0  0  0  0  0  0  0  0  0  0  0  0
   -7.0020    4.8900  -16.0060 H   0  0  0  0  0  0  0  0  0  0  0  0
   -7.6460    5.8110  -18.0770 H   0  0  0  0  0  0  0  0  0  0  0  0
   -7.0150    6.1460  -20.4360 H   0  0  0  0  0  0  0  0  0  0  0  0
   -3.8880    8.5390  -20.9280 H   0  0  0  0  0  0  0  0  0  0  0  0
   -4.5540   10.5110  -22.2990 H   0  0  0  0  0  0  0  0  0  0  0  0
  -10.5270    9.7360  -29.4520 H   0  0  0  0  0  0  0  0  0  0  0  0
  -11.2070   10.2450  -27.9100 H   0  0  0  0  0  0  0  0  0  0  0  0
  -11.4220    8.0240  -27.2500 H   0  0  0  0  0  0  0  0  0  0  0  0
  -12.3990    8.3550  -28.5940 H   0  0  0  0  0  0  0  0  0  0  0  0
  -11.2650    6.2700  -29.0460 H   0  0  0  0  0  0  0  0  0  0  0  0
  -10.4090    7.4810  -29.8960 H   0  0  0  0  0  0  0  0  0  0  0  0
   -8.5990    6.4730  -28.8610 H   0  0  0  0  0  0  0  0  0  0  0  0
   -9.4660    6.2180  -27.3480 H   0  0  0  0  0  0  0  0  0  0  0  0
  1  2  1  0
  2  3  1  0
  3  4  1  0
  4  5  2  0
  5  6  1  0
  6  7  2  0
  7  8  1  0
  8  9  1  0
  9 10  2  0
 10 11  1  0
 11 12  2  0
 12 13  1  0
 12 14  1  0
 14 15  2  0
  7 16  1  0
 16 17  2  0
  1 18  2  0
 18 19  1  0
 19 20  2  0
 20 21  1  0
 21 22  1  0
 22 23  1  0
 23 24  1  0
 20 25  1  0
 25  1  1  0
 17  4  1  0
 15  9  1  0
 24 19  1  0
  2 26  1  0
  3 27  1  0
  3 28  1  0
  5 29  1  0
  6 30  1  0
 10 31  1  0
 11 32  1  0
 13 33  1  0
 13 34  1  0
 13 35  1  0
 14 36  1  0
 15 37  1  0
 16 38  1  0
 17 39  1  0
 21 40  1  0
 21 41  1  0
 22 42  1  0
 22 43  1  0
 23 44  1  0
 23 45  1  0
 24 46  1  0
 24 47  1  0
A    1
 C1 
A    2
 N1 
A    3
 C2 
A    4
 C3 
A    5
 C4 
A    6
 C5 
A    7
 C6 
A    8
 O1 
A    9
 C7 
A   10
 C8 
A   11
 C9 
A   12
 C10
A   13
 C11
A   14
 C12
A   15
 C13
A   16
 C14
A   17
 C15
A   18
 N2 
A   19
 C16
A   20
 C17
A   21
 C18
A   22
 C19
A   23
 C20
A   24
 C21
A   25
 S1 
A   26
 H1 
A   27
 H2 
A   28
 H3 
A   29
 H4 
A   30
 H5 
A   31
 H6 
A   32
 H7 
A   33
 H8 
A   34
 H9 
A   35
 H10
A   36
 H11
A   37
 H12
A   38
 H13
A   39
 H14
A   40
 H15
A   41
 H16
A   42
 H17
A   43
 H18
A   44
 H19
A   45
 H20
A   46
 H21
A   47
 H22
M  END
>  <ref_pdb>  (366) 
x0051_0B

>  <ref_mols>  (366) 
x0846_1B,x0680_0B

>  <original SMILES>  (366) 
[H]c1c([H])c(C([H])([H])[H])c([H])c([H])c1Oc1c([H])c([H])c(C([H])([H])N([H])c2nc3c(s2)C([H])([H])C([H])([H])C([H])([H])C3([H])[H])c([H])c1[H]

>  <index>  (366) 
566

>  <∆∆G>  (366) 
-6.965319

>  <∆G_bound>  (366) 
-6.994718

>  <∆G_unbound>  (366) 
-0.029399

>  <comRMSD>  (366) 
0.545017

>  <N_constrained_atoms>  (366) 
26.0

>  <N_unconstrained_atoms>  (366) 
1.0

>  <runtime>  (366) 
52.179769

>  <LE>  (366) 
0.257975

>  <percent_hybrid>  (366) 
31.0

>  <dist>  (366) 
10.0

>  <ecfp4>  (366) 
0.195122

>  <daylight>  (366) 
0.302419

>  <topodist>  (366) 
5.0

>  <mces>  (366) 
28.0

>  <tdn>  (366) 
5.0

>  <tup>  (366) 
0.0

>  <rdn>  (366) 
0.0

>  <rup>  (366) 
0.0

>  <ldn>  (366) 
0.0

>  <lup>  (366) 
0.0

>  <mut>  (366) 
1.0

>  <maj>  (366) 
1.0

>  <min>  (366) 
0.0

>  <hyb>  (366) 
4.0

>  <sub>  (366) 
2.0

>  <query_index>  (366) 
100.0

>  <max_hit_Tanimoto>  (366) 
0.251685

>  <largest_ring>  (366) 
6

>  <N_interactions_kept>  (366) 
3.5

>  <N_interactions_lost>  (366) 
0.5

>  <interaction_uniqueness_metric>  (366) 
0.018782

>  <ad_hoc_penalty>  (366) 
-19.694343

>  <N_rotatable_bonds>  (366) 
6

>  <N_HA>  (366) 
25

>  <cluster>  (366) 
5700

>  <N_interactions>  (366) 
4

>  <Enamine>  (366) 
0

>  <Mcule>  (366) 
1

>  <N_PAINS>  (366) 
0

>  <UFF_Gibbs>  (366) 
88.223473

>  <strain_per_HA>  (366) 
3.528939

>  <saltbridge:HIS:51>  (366) 
0

>  <pistack:HIS:51>  (366) 
0

>  <hydroph_interaction:HIS:51>  (366) 
0

>  <hbond:ALA:132>  (366) 
0

>  <hbond:SER:135>  (366) 
0

>  <hydroph_interaction:TYR:150>  (366) 
0

>  <pistack:TYR:161>  (366) 
0

>  <hydroph_interaction:TYR:161>  (366) 
4

>  <hydroph_interaction:ASP:83>  (366) 
0

>  <hbond:TYR:130>  (366) 
0

>  <hydroph_interaction:ALA:132>  (366) 
0

>  <hbond:HIS:51>  (366) 
0

>  <hbond:ASP:129>  (366) 
0

>  <hbond:TYR:150>  (366) 
0

>  <hbond:GLY:151>  (366) 
0

>  <hbond:TYR:161>  (366) 
0

>  <hydroph_interaction:TYR:130>  (366) 
0

>  <hydroph_interaction:PRO:131>  (366) 
0

>  <hydroph_interaction:ASP:129>  (366) 
0

>  <saltbridge:ASP:75>  (366) 
0

>  <saltbridge:ASP:83>  (366) 
0

>  <hydroph_interaction:ASN:152>  (366) 
0

>  <halogenbond:TYR:150>  (366) 
0

>  <hbond:ASP:83>  (366) 
0

>  <hydroph_interaction:VAL:155>  (366) 
0

>  <pication:TYR:161>  (366) 
0

>  <hbond:PRO:131>  (366) 
0

>  <hbond:LEU:128>  (366) 
0

>  <saltbridge:ASP:129>  (366) 
0

>  <hbond:THR:134>  (366) 
0

>  <pication:HIS:51>  (366) 
0

>  <hbond:SER:81>  (366) 
0

>  <hbond:GLY:159>  (366) 
0

>  <hydroph_interaction:PRO:101>  (366) 
0

>  <hydroph_interaction:THR:134>  (366) 
0

>  <hbond:GLY:82>  (366) 
0

>  <hydroph_interaction:GLU:104>  (366) 
0

>  <hydroph_interaction:VAL:36>  (366) 
0

>  <hydroph_interaction:MET:49>  (366) 
0

>  <halogenbond:GLU:104>  (366) 
0

>  <hydroph_interaction:LYS:107>  (366) 
0

$$$$
MRPCXMFFWBVRCI-UHFFFAOYSA-N
     RDKit          3D

 43 46  0  0  0  0  0  0  0  0999 V2000
   -7.1360    9.6930  -26.7990 C   0  0  0  0  0  0  0  0  0  0  0  0
   -5.9910   10.1100  -26.1460 N   0  0  0  0  0  0  0  0  0  0  0  0
   -6.0860   10.5630  -24.7320 C   0  0  0  0  0  0  0  0  0  0  0  0
   -5.6760    9.4280  -23.7780 C   0  0  0  0  0  0  0  0  0  0  0  0
   -6.2530    8.0650  -24.1070 C   0  0  0  0  0  0  0  0  0  0  0  0
   -5.8390    6.9430  -23.2230 C   0  0  0  0  0  0  0  0  0  0  0  0
   -4.9770    7.1220  -22.1600 C   0  0  0  0  0  0  0  0  0  0  0  0
   -4.5950    6.0280  -21.4080 O   0  0  0  0  0  0  0  0  0  0  0  0
   -4.9880    5.8320  -20.1220 C   0  0  0  0  0  0  0  0  0  0  0  0
   -6.2930    5.9390  -19.6790 C   0  0  0  0  0  0  0  0  0  0  0  0
   -6.6260    5.7340  -18.3250 C   0  0  0  0  0  0  0  0  0  0  0  0
   -5.5840    5.4140  -17.4290 C   0  0  0  0  0  0  0  0  0  0  0  0
   -5.8610    5.2000  -16.0110 C   0  0  0  0  0  0  0  0  0  0  0  0
   -4.2680    5.2990  -17.8980 C   0  0  0  0  0  0  0  0  0  0  0  0
   -3.9740    5.5070  -19.2330 C   0  0  0  0  0  0  0  0  0  0  0  0
   -4.4880    8.4170  -21.8780 C   0  0  0  0  0  0  0  0  0  0  0  0
   -4.8250    9.5400  -22.6620 C   0  0  0  0  0  0  0  0  0  0  0  0
   -7.3230    8.4230  -27.3130 N   0  0  0  0  0  0  0  0  0  0  0  0
   -8.6170    8.3070  -27.8360 C   0  0  0  0  0  0  0  0  0  0  0  0
   -9.3050    7.1270  -28.4920 C   0  0  0  0  0  0  0  0  0  0  0  0
  -10.6350    7.2250  -28.9020 C   0  0  0  0  0  0  0  0  0  0  0  0
  -11.3380    8.4140  -28.7290 C   0  0  0  0  0  0  0  0  0  0  0  0
  -10.7220    9.5330  -28.1570 C   0  0  0  0  0  0  0  0  0  0  0  0
   -9.3980    9.4620  -27.7340 C   0  0  0  0  0  0  0  0  0  0  0  0
   -8.4820   10.7180  -27.0310 S   0  0  0  0  0  0  0  0  0  0  0  0
   -8.4230    5.6900  -28.7280 Cl  0  0  0  0  0  0  0  0  0  0  0  0
   -5.2080   10.4440  -26.6970 H   0  0  0  0  0  0  0  0  0  0  0  0
   -5.3850   11.3980  -24.6130 H   0  0  0  0  0  0  0  0  0  0  0  0
   -7.0960   10.8960  -24.4720 H   0  0  0  0  0  0  0  0  0  0  0  0
   -6.9230    7.9930  -24.9680 H   0  0  0  0  0  0  0  0  0  0  0  0
   -6.2130    5.9440  -23.4170 H   0  0  0  0  0  0  0  0  0  0  0  0
   -7.0180    6.1950  -20.4540 H   0  0  0  0  0  0  0  0  0  0  0  0
   -7.6570    5.8280  -17.9920 H   0  0  0  0  0  0  0  0  0  0  0  0
   -6.9000    4.8770  -15.8870 H   0  0  0  0  0  0  0  0  0  0  0  0
   -5.2470    4.3950  -15.5910 H   0  0  0  0  0  0  0  0  0  0  0  0
   -5.7160    6.0840  -15.3870 H   0  0  0  0  0  0  0  0  0  0  0  0
   -3.4590    5.0460  -17.2080 H   0  0  0  0  0  0  0  0  0  0  0  0
   -2.9500    5.4170  -19.5860 H   0  0  0  0  0  0  0  0  0  0  0  0
   -3.8080    8.6520  -21.0500 H   0  0  0  0  0  0  0  0  0  0  0  0
   -4.3560   10.4690  -22.3200 H   0  0  0  0  0  0  0  0  0  0  0  0
  -11.1240    6.3710  -29.3640 H   0  0  0  0  0  0  0  0  0  0  0  0
  -12.3780    8.4800  -29.0500 H   0  0  0  0  0  0  0  0  0  0  0  0
  -11.2830   10.4570  -28.0410 H   0  0  0  0  0  0  0  0  0  0  0  0
  1  2  1  0
  2  3  1  0
  3  4  1  0
  4  5  2  0
  5  6  1  0
  6  7  2  0
  7  8  1  0
  8  9  1  0
  9 10  2  0
 10 11  1  0
 11 12  2  0
 12 13  1  0
 12 14  1  0
 14 15  2  0
  7 16  1  0
 16 17  2  0
  1 18  2  0
 18 19  1  0
 19 20  2  0
 20 21  1  0
 21 22  2  0
 22 23  1  0
 23 24  2  0
 24 25  1  0
 20 26  1  0
 25  1  1  0
 17  4  1  0
 15  9  1  0
 24 19  1  0
  2 27  1  0
  3 28  1  0
  3 29  1  0
  5 30  1  0
  6 31  1  0
 10 32  1  0
 11 33  1  0
 13 34  1  0
 13 35  1  0
 13 36  1  0
 14 37  1  0
 15 38  1  0
 16 39  1  0
 17 40  1  0
 21 41  1  0
 22 42  1  0
 23 43  1  0
A    1
 C1 
A    2
 N1 
A    3
 C2 
A    4
 C3 
A    5
 C4 
A    6
 C5 
A    7
 C6 
A    8
 O1 
A    9
 C7 
A   10
 C8 
A   11
 C9 
A   12
 C10
A   13
 C11
A   14
 C12
A   15
 C13
A   16
 C14
A   17
 C15
A   18
 N2 
A   19
 C16
A   20
 C17
A   21
 C18
A   22
 C19
A   23
 C20
A   24
 C21
A   25
 S1 
A   26
CL1 
A   27
 H1 
A   28
 H2 
A   29
 H3 
A   30
 H4 
A   31
 H5 
A   32
 H6 
A   33
 H7 
A   34
 H8 
A   35
 H9 
A   36
 H10
A   37
 H11
A   38
 H12
A   39
 H13
A   40
 H14
A   41
 H15
A   42
 H16
A   43
 H17
M  END
>  <ref_pdb>  (367) 
x0051_0B

>  <ref_mols>  (367) 
x0846_1B,x0680_0B

>  <original SMILES>  (367) 
[H]c1c([H])c(C([H])([H])[H])c([H])c([H])c1Oc1c([H])c([H])c(C([H])([H])N([H])c2nc3c(Cl)c([H])c([H])c([H])c3s2)c([H])c1[H]

>  <index>  (367) 
736

>  <∆∆G>  (367) 
-6.291014

>  <∆G_bound>  (367) 
-6.375779

>  <∆G_unbound>  (367) 
-0.084765

>  <comRMSD>  (367) 
0.549692

>  <N_constrained_atoms>  (367) 
26.0

>  <N_unconstrained_atoms>  (367) 
2.0

>  <runtime>  (367) 
59.566102

>  <LE>  (367) 
0.224679

>  <percent_hybrid>  (367) 
31.0

>  <dist>  (367) 
7.0

>  <ecfp4>  (367) 
0.214286

>  <daylight>  (367) 
0.42233

>  <topodist>  (367) 
6.0

>  <mces>  (367) 
28.0

>  <tdn>  (367) 
5.0

>  <tup>  (367) 
1.0

>  <rdn>  (367) 
0.0

>  <rup>  (367) 
0.0

>  <ldn>  (367) 
0.0

>  <lup>  (367) 
0.0

>  <mut>  (367) 
1.0

>  <maj>  (367) 
1.0

>  <min>  (367) 
0.0

>  <hyb>  (367) 
0.0

>  <sub>  (367) 
3.0

>  <query_index>  (367) 
100.0

>  <max_hit_Tanimoto>  (367) 
0.311916

>  <largest_ring>  (367) 
6

>  <N_interactions_kept>  (367) 
3.0

>  <N_interactions_lost>  (367) 
1.0

>  <interaction_uniqueness_metric>  (367) 
0.07262

>  <ad_hoc_penalty>  (367) 
-19.656815

>  <N_rotatable_bonds>  (367) 
6

>  <N_HA>  (367) 
26

>  <cluster>  (367) 
466

>  <N_interactions>  (367) 
5

>  <Enamine>  (367) 
0

>  <Mcule>  (367) 
1

>  <N_PAINS>  (367) 
0

>  <UFF_Gibbs>  (367) 
56.69423

>  <strain_per_HA>  (367) 
2.180547

>  <saltbridge:HIS:51>  (367) 
0

>  <pistack:HIS:51>  (367) 
0

>  <hydroph_interaction:HIS:51>  (367) 
0

>  <hbond:ALA:132>  (367) 
0

>  <hbond:SER:135>  (367) 
0

>  <hydroph_interaction:TYR:150>  (367) 
0

>  <pistack:TYR:161>  (367) 
0

>  <hydroph_interaction:TYR:161>  (367) 
4

>  <hydroph_interaction:ASP:83>  (367) 
0

>  <hbond:TYR:130>  (367) 
0

>  <hydroph_interaction:ALA:132>  (367) 
0

>  <hbond:HIS:51>  (367) 
0

>  <hbond:ASP:129>  (367) 
0

>  <hbond:TYR:150>  (367) 
0

>  <hbond:GLY:151>  (367) 
0

>  <hbond:TYR:161>  (367) 
0

>  <hydroph_interaction:TYR:130>  (367) 
0

>  <hydroph_interaction:PRO:131>  (367) 
1

>  <hydroph_interaction:ASP:129>  (367) 
0

>  <saltbridge:ASP:75>  (367) 
0

>  <saltbridge:ASP:83>  (367) 
0

>  <hydroph_interaction:ASN:152>  (367) 
0

>  <halogenbond:TYR:150>  (367) 
0

>  <hbond:ASP:83>  (367) 
0

>  <hydroph_interaction:VAL:155>  (367) 
0

>  <pication:TYR:161>  (367) 
0

>  <hbond:PRO:131>  (367) 
0

>  <hbond:LEU:128>  (367) 
0

>  <saltbridge:ASP:129>  (367) 
0

>  <hbond:THR:134>  (367) 
0

>  <pication:HIS:51>  (367) 
0

>  <hbond:SER:81>  (367) 
0

>  <hbond:GLY:159>  (367) 
0

>  <hydroph_interaction:PRO:101>  (367) 
0

>  <hydroph_interaction:THR:134>  (367) 
0

>  <hbond:GLY:82>  (367) 
0

>  <hydroph_interaction:GLU:104>  (367) 
0

>  <hydroph_interaction:VAL:36>  (367) 
0

>  <hydroph_interaction:MET:49>  (367) 
0

>  <halogenbond:GLU:104>  (367) 
0

>  <hydroph_interaction:LYS:107>  (367) 
0

$$$$
CSSB00000184963
     RDKit          3D

 22 23  0  0  0  0  0  0  0  0999 V2000
   -6.9880    5.3450  -20.1120 O   0  0  0  0  0  0  0  0  0  0  0  0
   -7.8560    5.1710  -19.0630 C   0  0  0  0  0  0  0  0  0  0  0  0
   -9.2680    4.8580  -19.3590 C   0  0  0  0  0  0  0  0  0  0  0  0
  -10.1970    4.6800  -18.1810 C   0  0  0  0  0  0  0  0  0  0  0  0
   -9.6800    4.8150  -16.8980 C   0  0  0  0  0  0  0  0  0  0  0  0
   -8.3060    5.1180  -16.6740 C   0  0  0  0  0  0  0  0  0  0  0  0
   -7.4300    5.2870  -17.7440 C   0  0  0  0  0  0  0  0  0  0  0  0
   -6.0760    5.5850  -17.5080 N   0  0  0  0  0  0  0  0  0  0  0  0
   -5.8180    6.1680  -16.1920 C   0  0  0  0  0  0  0  0  0  0  0  0
   -6.4530    5.2550  -15.1220 C   0  0  0  0  0  0  0  0  0  0  0  0
   -7.8330    5.2510  -15.2480 C   0  0  0  0  0  0  0  0  0  0  0  0
   -7.5590    5.7660  -20.8050 H   0  0  0  0  0  0  0  0  0  0  0  0
   -9.5360    4.7800  -20.4160 H   0  0  0  0  0  0  0  0  0  0  0  0
  -11.2440    4.4550  -18.3380 H   0  0  0  0  0  0  0  0  0  0  0  0
  -10.3400    4.6870  -16.0450 H   0  0  0  0  0  0  0  0  0  0  0  0
   -5.7440    6.2010  -18.2510 H   0  0  0  0  0  0  0  0  0  0  0  0
   -6.1880    7.1900  -16.2230 H   0  0  0  0  0  0  0  0  0  0  0  0
   -4.7370    6.2820  -16.1350 H   0  0  0  0  0  0  0  0  0  0  0  0
   -6.0540    5.3910  -14.1220 H   0  0  0  0  0  0  0  0  0  0  0  0
   -6.1380    4.2370  -15.3260 H   0  0  0  0  0  0  0  0  0  0  0  0
   -8.2570    6.1540  -14.7990 H   0  0  0  0  0  0  0  0  0  0  0  0
   -8.2440    4.4110  -14.6740 H   0  0  0  0  0  0  0  0  0  0  0  0
  1  2  1  0
  2  3  2  0
  3  4  1  0
  4  5  2  0
  5  6  1  0
  6  7  2  0
  7  8  1  0
  8  9  1  0
  9 10  1  0
 10 11  1  0
  7  2  1  0
 11  6  1  0
  1 12  1  0
  3 13  1  0
  4 14  1  0
  5 15  1  0
  8 16  1  0
  9 17  1  0
  9 18  1  0
 10 19  1  0
 10 20  1  0
 11 21  1  0
 11 22  1  0
A    1
 O1 
A    2
 C1 
A    3
 C2 
A    4
 C3 
A    5
 C4 
A    6
 C5 
A    7
 C6 
A    8
 N1 
A    9
 C7 
A   10
 C8 
A   11
 C9 
A   12
 H1 
A   13
 H2 
A   14
 H3 
A   15
 H4 
A   16
 H5 
A   17
 H6 
A   18
 H7 
A   19
 H8 
A   20
 H9 
A   21
 H10
A   22
 H11
M  END
>  <ref_pdb>  (368) 
x0051_0B

>  <ref_mols>  (368) 
x0455_0B,x0382_0B

>  <original SMILES>  (368) 
[H]Oc1c([H])c([H])c([H])c2c1N([H])C([H])([H])C([H])([H])C2([H])[H]

>  <index>  (368) 
511

>  <∆∆G>  (368) 
-6.251436

>  <∆G_bound>  (368) 
-6.090521

>  <∆G_unbound>  (368) 
0.160915

>  <comRMSD>  (368) 
0.386203

>  <N_constrained_atoms>  (368) 
11.0

>  <N_unconstrained_atoms>  (368) 
0.0

>  <runtime>  (368) 
18.505506

>  <LE>  (368) 
0.568312

>  <percent_hybrid>  (368) 
20.0

>  <dist>  (368) 
2.0

>  <ecfp4>  (368) 
0.365854

>  <daylight>  (368) 
0.361842

>  <topodist>  (368) 
1.0

>  <mces>  (368) 
12.0

>  <tdn>  (368) 
0.0

>  <tup>  (368) 
0.0

>  <rdn>  (368) 
0.0

>  <rup>  (368) 
0.0

>  <ldn>  (368) 
1.0

>  <lup>  (368) 
0.0

>  <mut>  (368) 
1.0

>  <maj>  (368) 
1.0

>  <min>  (368) 
0.0

>  <hyb>  (368) 
0.0

>  <sub>  (368) 
0.0

>  <query_index>  (368) 
293.0

>  <max_hit_Tanimoto>  (368) 
0.335017

>  <largest_ring>  (368) 
6

>  <N_interactions_kept>  (368) 
0.0

>  <N_interactions_lost>  (368) 
1.5

>  <interaction_uniqueness_metric>  (368) 
0.053165

>  <ad_hoc_penalty>  (368) 
-19.649458

>  <N_rotatable_bonds>  (368) 
1

>  <N_HA>  (368) 
11

>  <cluster>  (368) 
5752

>  <N_interactions>  (368) 
4

>  <Enamine>  (368) 
1

>  <Mcule>  (368) 
0

>  <N_PAINS>  (368) 
0

>  <UFF_Gibbs>  (368) 
51.734886

>  <strain_per_HA>  (368) 
4.703171

>  <saltbridge:HIS:51>  (368) 
0

>  <pistack:HIS:51>  (368) 
0

>  <hydroph_interaction:HIS:51>  (368) 
0

>  <hbond:ALA:132>  (368) 
0

>  <hbond:SER:135>  (368) 
0

>  <hydroph_interaction:TYR:150>  (368) 
1

>  <pistack:TYR:161>  (368) 
0

>  <hydroph_interaction:TYR:161>  (368) 
2

>  <hydroph_interaction:ASP:83>  (368) 
0

>  <hbond:TYR:130>  (368) 
1

>  <hydroph_interaction:ALA:132>  (368) 
0

>  <hbond:HIS:51>  (368) 
0

>  <hbond:ASP:129>  (368) 
0

>  <hbond:TYR:150>  (368) 
0

>  <hbond:GLY:151>  (368) 
0

>  <hbond:TYR:161>  (368) 
0

>  <hydroph_interaction:TYR:130>  (368) 
0

>  <hydroph_interaction:PRO:131>  (368) 
0

>  <hydroph_interaction:ASP:129>  (368) 
0

>  <saltbridge:ASP:75>  (368) 
0

>  <saltbridge:ASP:83>  (368) 
0

>  <hydroph_interaction:ASN:152>  (368) 
0

>  <halogenbond:TYR:150>  (368) 
0

>  <hbond:ASP:83>  (368) 
0

>  <hydroph_interaction:VAL:155>  (368) 
0

>  <pication:TYR:161>  (368) 
0

>  <hbond:PRO:131>  (368) 
0

>  <hbond:LEU:128>  (368) 
0

>  <saltbridge:ASP:129>  (368) 
0

>  <hbond:THR:134>  (368) 
0

>  <pication:HIS:51>  (368) 
0

>  <hbond:SER:81>  (368) 
0

>  <hbond:GLY:159>  (368) 
0

>  <hydroph_interaction:PRO:101>  (368) 
0

>  <hydroph_interaction:THR:134>  (368) 
0

>  <hbond:GLY:82>  (368) 
0

>  <hydroph_interaction:GLU:104>  (368) 
0

>  <hydroph_interaction:VAL:36>  (368) 
0

>  <hydroph_interaction:MET:49>  (368) 
0

>  <halogenbond:GLU:104>  (368) 
0

>  <hydroph_interaction:LYS:107>  (368) 
0

$$$$
PV-002242340498
     RDKit          3D

 50 54  0  0  0  0  0  0  0  0999 V2000
   -4.0450    5.0380  -17.6570 C   0  0  0  0  0  0  0  0  0  0  0  0
   -5.1100    6.1330  -17.8130 C   0  0  0  0  0  0  0  0  0  0  0  0
   -5.9820    6.2960  -16.7350 C   0  0  0  0  0  0  0  0  0  0  0  0
   -7.1850    5.7850  -16.9080 N   0  0  0  0  0  0  0  0  0  0  0  0
   -7.9500    5.6800  -15.7670 N   0  0  0  0  0  0  0  0  0  0  0  0
   -9.0770    5.1360  -16.2680 C   0  0  0  0  0  0  0  0  0  0  0  0
   -9.0230    4.8910  -17.7630 C   0  0  0  0  0  0  0  0  0  0  0  0
   -7.7360    5.3560  -18.0780 C   0  0  0  0  0  0  0  0  0  0  0  0
   -7.0860    5.4060  -19.3100 C   0  0  0  0  0  0  0  0  0  0  0  0
   -5.8180    6.2000  -19.1500 N   0  0  0  0  0  0  0  0  0  0  0  0
   -5.1400    6.3530  -20.3640 C   0  0  0  0  0  0  0  0  0  0  0  0
   -4.2100    5.6030  -20.6440 O   0  0  0  0  0  0  0  0  0  0  0  0
   -5.4620    7.3540  -21.2940 C   0  0  0  0  0  0  0  0  0  0  0  0
   -5.4980    8.7120  -20.9350 C   0  0  0  0  0  0  0  0  0  0  0  0
   -5.8120    9.6280  -21.9380 C   0  0  0  0  0  0  0  0  0  0  0  0
   -6.1160    9.2600  -23.3680 C   0  0  0  0  0  0  0  0  0  0  0  0
   -6.4370   10.1220  -24.4020 O   0  0  0  0  0  0  0  0  0  0  0  0
   -6.1050    9.8270  -25.7820 C   0  0  0  0  0  0  0  0  0  0  0  0
   -7.2720    9.2870  -26.5530 C   0  0  0  0  0  0  0  0  0  0  0  0
   -7.4840    7.9820  -26.9870 C   0  0  0  0  0  0  0  0  0  0  0  0
   -8.7040    7.9630  -27.6170 N   0  0  0  0  0  0  0  0  0  0  0  0
   -9.4090    6.9310  -28.2110 C   0  0  0  0  0  0  0  0  0  0  0  0
  -10.6600    7.2060  -28.7320 C   0  0  0  0  0  0  0  0  0  0  0  0
  -11.1980    8.5730  -28.6590 C   0  0  0  0  0  0  0  0  0  0  0  0
  -10.3950    9.5290  -28.0670 C   0  0  0  0  0  0  0  0  0  0  0  0
   -9.1890    9.2410  -27.5550 C   0  0  0  0  0  0  0  0  0  0  0  0
   -8.3280   10.1100  -26.9170 N   0  0  0  0  0  0  0  0  0  0  0  0
   -6.0650    7.8920  -23.6520 C   0  0  0  0  0  0  0  0  0  0  0  0
   -5.7380    6.9510  -22.6180 C   0  0  0  0  0  0  0  0  0  0  0  0
   -4.3520    4.3300  -16.8870 H   0  0  0  0  0  0  0  0  0  0  0  0
   -3.0860    5.4550  -17.3430 H   0  0  0  0  0  0  0  0  0  0  0  0
   -3.8830    4.5400  -18.6110 H   0  0  0  0  0  0  0  0  0  0  0  0
   -4.5180    7.0570  -17.8430 H   0  0  0  0  0  0  0  0  0  0  0  0
   -6.1170    7.3520  -16.4790 H   0  0  0  0  0  0  0  0  0  0  0  0
   -5.5540    5.8080  -15.8490 H   0  0  0  0  0  0  0  0  0  0  0  0
   -9.9050    4.9240  -15.5810 H   0  0  0  0  0  0  0  0  0  0  0  0
   -9.7750    4.4710  -18.4270 H   0  0  0  0  0  0  0  0  0  0  0  0
   -6.7530    4.4660  -19.7580 H   0  0  0  0  0  0  0  0  0  0  0  0
   -7.6700    5.8620  -20.0930 H   0  0  0  0  0  0  0  0  0  0  0  0
   -5.2860    9.0260  -19.9170 H   0  0  0  0  0  0  0  0  0  0  0  0
   -5.8490   10.6960  -21.6970 H   0  0  0  0  0  0  0  0  0  0  0  0
   -5.7340   10.7530  -26.2340 H   0  0  0  0  0  0  0  0  0  0  0  0
   -5.2680    9.1160  -25.7730 H   0  0  0  0  0  0  0  0  0  0  0  0
   -6.8820    7.0890  -26.8880 H   0  0  0  0  0  0  0  0  0  0  0  0
   -8.9460    5.9370  -28.2340 H   0  0  0  0  0  0  0  0  0  0  0  0
  -11.2630    6.4370  -29.2010 H   0  0  0  0  0  0  0  0  0  0  0  0
  -12.1800    8.7940  -29.0680 H   0  0  0  0  0  0  0  0  0  0  0  0
  -10.8280   10.5360  -28.0410 H   0  0  0  0  0  0  0  0  0  0  0  0
   -6.2720    7.5410  -24.6590 H   0  0  0  0  0  0  0  0  0  0  0  0
   -5.7030    5.8930  -22.8640 H   0  0  0  0  0  0  0  0  0  0  0  0
  1  2  1  0
  2  3  1  0
  3  4  1  0
  4  5  1  0
  5  6  2  0
  6  7  1  0
  7  8  2  0
  8  9  1  0
  9 10  1  0
 10 11  1  0
 11 12  2  0
 11 13  1  0
 13 14  2  0
 14 15  1  0
 15 16  2  0
 16 17  1  0
 17 18  1  0
 18 19  1  0
 19 20  2  0
 20 21  1  0
 21 22  1  0
 22 23  2  0
 23 24  1  0
 24 25  2  0
 25 26  1  0
 26 27  2  0
 16 28  1  0
 28 29  2  0
 10  2  1  0
  8  4  1  0
 29 13  1  0
 27 19  1  0
 26 21  1  0
  1 30  1  0
  1 31  1  0
  1 32  1  0
  2 33  1  0
  3 34  1  0
  3 35  1  0
  6 36  1  0
  7 37  1  0
  9 38  1  0
  9 39  1  0
 14 40  1  0
 15 41  1  0
 18 42  1  0
 18 43  1  0
 20 44  1  0
 22 45  1  0
 23 46  1  0
 24 47  1  0
 25 48  1  0
 28 49  1  0
 29 50  1  0
A    1
 C1 
A    2
 C2 
A    3
 C3 
A    4
 N1 
A    5
 N2 
A    6
 C4 
A    7
 C5 
A    8
 C6 
A    9
 C7 
A   10
 N3 
A   11
 C8 
A   12
 O1 
A   13
 C9 
A   14
 C10
A   15
 C11
A   16
 C12
A   17
 O2 
A   18
 C13
A   19
 C14
A   20
 C15
A   21
 N4 
A   22
 C16
A   23
 C17
A   24
 C18
A   25
 C19
A   26
 C20
A   27
 N5 
A   28
 C21
A   29
 C22
A   30
 H1 
A   31
 H2 
A   32
 H3 
A   33
 H4 
A   34
 H5 
A   35
 H6 
A   36
 H7 
A   37
 H8 
A   38
 H9 
A   39
 H10
A   40
 H11
A   41
 H12
A   42
 H13
A   43
 H14
A   44
 H15
A   45
 H16
A   46
 H17
A   47
 H18
A   48
 H19
A   49
 H20
A   50
 H21
M  END
>  <ref_pdb>  (369) 
x0051_0B

>  <ref_mols>  (369) 
x0846_1B,x0969_0B

>  <original SMILES>  (369) 
[H]c1nn2c(c1[H])C([H])([H])N(C(=O)c1c([H])c([H])c(OC([H])([H])c3nc4c([H])c([H])c([H])c([H])n4c3[H])c([H])c1[H])C([H])(C([H])([H])[H])C2([H])[H]

>  <index>  (369) 
626

>  <∆∆G>  (369) 
-7.825967

>  <∆G_bound>  (369) 
-7.92271

>  <∆G_unbound>  (369) 
-0.096743

>  <comRMSD>  (369) 
0.536085

>  <N_constrained_atoms>  (369) 
26.0

>  <N_unconstrained_atoms>  (369) 
6.0

>  <runtime>  (369) 
37.54655

>  <LE>  (369) 
0.244561

>  <percent_hybrid>  (369) 
39.0

>  <dist>  (369) 
9.0

>  <ecfp4>  (369) 
0.136364

>  <daylight>  (369) 
0.449541

>  <topodist>  (369) 
4.0

>  <mces>  (369) 
31.0

>  <tdn>  (369) 
2.0

>  <tup>  (369) 
2.0

>  <rdn>  (369) 
0.0

>  <rup>  (369) 
0.0

>  <ldn>  (369) 
0.0

>  <lup>  (369) 
0.0

>  <mut>  (369) 
5.0

>  <maj>  (369) 
5.0

>  <min>  (369) 
0.0

>  <hyb>  (369) 
0.0

>  <sub>  (369) 
3.0

>  <query_index>  (369) 
45.0

>  <max_hit_Tanimoto>  (369) 
0.345125

>  <largest_ring>  (369) 
6

>  <N_interactions_kept>  (369) 
1.5

>  <N_interactions_lost>  (369) 
1.0

>  <interaction_uniqueness_metric>  (369) 
0.118418

>  <ad_hoc_penalty>  (369) 
-19.630662

>  <N_rotatable_bonds>  (369) 
5

>  <N_HA>  (369) 
29

>  <cluster>  (369) 
5647

>  <N_interactions>  (369) 
4

>  <Enamine>  (369) 
1

>  <Mcule>  (369) 
0

>  <N_PAINS>  (369) 
0

>  <UFF_Gibbs>  (369) 
109.060983

>  <strain_per_HA>  (369) 
3.760724

>  <saltbridge:HIS:51>  (369) 
0

>  <pistack:HIS:51>  (369) 
0

>  <hydroph_interaction:HIS:51>  (369) 
0

>  <hbond:ALA:132>  (369) 
0

>  <hbond:SER:135>  (369) 
0

>  <hydroph_interaction:TYR:150>  (369) 
0

>  <pistack:TYR:161>  (369) 
0

>  <hydroph_interaction:TYR:161>  (369) 
2

>  <hydroph_interaction:ASP:83>  (369) 
0

>  <hbond:TYR:130>  (369) 
0

>  <hydroph_interaction:ALA:132>  (369) 
0

>  <hbond:HIS:51>  (369) 
0

>  <hbond:ASP:129>  (369) 
0

>  <hbond:TYR:150>  (369) 
0

>  <hbond:GLY:151>  (369) 
0

>  <hbond:TYR:161>  (369) 
0

>  <hydroph_interaction:TYR:130>  (369) 
1

>  <hydroph_interaction:PRO:131>  (369) 
1

>  <hydroph_interaction:ASP:129>  (369) 
0

>  <saltbridge:ASP:75>  (369) 
0

>  <saltbridge:ASP:83>  (369) 
0

>  <hydroph_interaction:ASN:152>  (369) 
0

>  <halogenbond:TYR:150>  (369) 
0

>  <hbond:ASP:83>  (369) 
0

>  <hydroph_interaction:VAL:155>  (369) 
0

>  <pication:TYR:161>  (369) 
0

>  <hbond:PRO:131>  (369) 
0

>  <hbond:LEU:128>  (369) 
0

>  <saltbridge:ASP:129>  (369) 
0

>  <hbond:THR:134>  (369) 
0

>  <pication:HIS:51>  (369) 
0

>  <hbond:SER:81>  (369) 
0

>  <hbond:GLY:159>  (369) 
0

>  <hydroph_interaction:PRO:101>  (369) 
0

>  <hydroph_interaction:THR:134>  (369) 
0

>  <hbond:GLY:82>  (369) 
0

>  <hydroph_interaction:GLU:104>  (369) 
0

>  <hydroph_interaction:VAL:36>  (369) 
0

>  <hydroph_interaction:MET:49>  (369) 
0

>  <halogenbond:GLU:104>  (369) 
0

>  <hydroph_interaction:LYS:107>  (369) 
0

$$$$
CSSB00016177368
     RDKit          3D

 30 32  0  0  0  0  0  0  0  0999 V2000
   -4.6700    5.3960  -20.3800 C   0  0  0  0  0  0  0  0  0  0  0  0
   -5.8830    6.0930  -19.8000 C   0  0  0  0  0  0  0  0  0  0  0  0
   -5.5940    6.4600  -18.3070 C   0  0  0  0  0  0  0  0  0  0  0  0
   -6.0860    5.4930  -17.3160 N   0  0  0  0  0  0  0  0  0  0  0  0
   -5.6620    5.7810  -15.9470 C   0  0  0  0  0  0  0  0  0  0  0  0
   -6.5870    5.2890  -14.8550 C   0  0  0  0  0  0  0  0  0  0  0  0
   -7.9580    5.2110  -15.1310 C   0  0  0  0  0  0  0  0  0  0  0  0
   -8.3700    5.1060  -16.4540 C   0  0  0  0  0  0  0  0  0  0  0  0
   -9.7180    4.8570  -16.7400 C   0  0  0  0  0  0  0  0  0  0  0  0
  -10.2320    4.7360  -18.0490 C   0  0  0  0  0  0  0  0  0  0  0  0
   -9.4020    4.8590  -19.1580 C   0  0  0  0  0  0  0  0  0  0  0  0
   -7.9410    5.1270  -18.9020 C   0  0  0  0  0  0  0  0  0  0  0  0
   -7.0800    5.2560  -20.0720 N   0  0  0  0  0  0  0  0  0  0  0  0
   -7.4460    5.2470  -17.5020 C   0  0  0  0  0  0  0  0  0  0  0  0
   -4.0330    6.1060  -20.9160 H   0  0  0  0  0  0  0  0  0  0  0  0
   -4.0670    4.9540  -19.5820 H   0  0  0  0  0  0  0  0  0  0  0  0
   -4.9570    4.6080  -21.0860 H   0  0  0  0  0  0  0  0  0  0  0  0
   -6.0050    7.0310  -20.3600 H   0  0  0  0  0  0  0  0  0  0  0  0
   -6.0520    7.4360  -18.1110 H   0  0  0  0  0  0  0  0  0  0  0  0
   -4.5070    6.5870  -18.1990 H   0  0  0  0  0  0  0  0  0  0  0  0
   -4.6510    5.4010  -15.7630 H   0  0  0  0  0  0  0  0  0  0  0  0
   -5.5480    6.8690  -15.8420 H   0  0  0  0  0  0  0  0  0  0  0  0
   -6.2320    4.3250  -14.4770 H   0  0  0  0  0  0  0  0  0  0  0  0
   -6.5070    5.9880  -14.0070 H   0  0  0  0  0  0  0  0  0  0  0  0
   -8.3510    4.3250  -14.6160 H   0  0  0  0  0  0  0  0  0  0  0  0
   -8.4700    6.0720  -14.6860 H   0  0  0  0  0  0  0  0  0  0  0  0
  -10.4050    4.7510  -15.9060 H   0  0  0  0  0  0  0  0  0  0  0  0
  -11.2910    4.5440  -18.1960 H   0  0  0  0  0  0  0  0  0  0  0  0
   -9.7800    4.7720  -20.1710 H   0  0  0  0  0  0  0  0  0  0  0  0
   -7.6330    5.6000  -20.8610 H   0  0  0  0  0  0  0  0  0  0  0  0
  1  2  1  0
  2  3  1  0
  3  4  1  0
  4  5  1  0
  5  6  1  0
  6  7  1  0
  7  8  1  0
  8  9  1  0
  9 10  2  0
 10 11  1  0
 11 12  2  0
 12 13  1  0
 12 14  1  0
 13  2  1  0
 14  4  1  0
 14  8  2  0
  1 15  1  0
  1 16  1  0
  1 17  1  0
  2 18  1  0
  3 19  1  0
  3 20  1  0
  5 21  1  0
  5 22  1  0
  6 23  1  0
  6 24  1  0
  7 25  1  0
  7 26  1  0
  9 27  1  0
 10 28  1  0
 11 29  1  0
 13 30  1  0
A    1
 C1 
A    2
 C2 
A    3
 C3 
A    4
 N1 
A    5
 C4 
A    6
 C5 
A    7
 C6 
A    8
 C7 
A    9
 C8 
A   10
 C9 
A   11
 C10
A   12
 C11
A   13
 N2 
A   14
 C12
A   15
 H1 
A   16
 H2 
A   17
 H3 
A   18
 H4 
A   19
 H5 
A   20
 H6 
A   21
 H7 
A   22
 H8 
A   23
 H9 
A   24
 H10
A   25
 H11
A   26
 H12
A   27
 H13
A   28
 H14
A   29
 H15
A   30
 H16
M  END
>  <ref_pdb>  (370) 
x0051_0B

>  <ref_mols>  (370) 
x0443_0B,x0455_0B

>  <original SMILES>  (370) 
[H]c1c([H])c2c3c(c1[H])C([H])([H])C([H])([H])C([H])([H])N3C([H])([H])C([H])(C([H])([H])[H])N2[H]

>  <index>  (370) 
494

>  <∆∆G>  (370) 
-6.315481

>  <∆G_bound>  (370) 
-6.139626

>  <∆G_unbound>  (370) 
0.175855

>  <comRMSD>  (370) 
0.527893

>  <N_constrained_atoms>  (370) 
14.0

>  <N_unconstrained_atoms>  (370) 
1.0

>  <runtime>  (370) 
29.390246

>  <LE>  (370) 
0.421032

>  <percent_hybrid>  (370) 
43.0

>  <dist>  (370) 
2.0

>  <ecfp4>  (370) 
0.5

>  <daylight>  (370) 
0.56338

>  <topodist>  (370) 
1.0

>  <mces>  (370) 
15.0

>  <tdn>  (370) 
0.0

>  <tup>  (370) 
0.0

>  <rdn>  (370) 
0.0

>  <rup>  (370) 
0.0

>  <ldn>  (370) 
0.0

>  <lup>  (370) 
1.0

>  <mut>  (370) 
1.0

>  <maj>  (370) 
1.0

>  <min>  (370) 
0.0

>  <hyb>  (370) 
0.0

>  <sub>  (370) 
0.0

>  <query_index>  (370) 
244.0

>  <max_hit_Tanimoto>  (370) 
0.26844

>  <largest_ring>  (370) 
0

>  <N_interactions_kept>  (370) 
1.0

>  <N_interactions_lost>  (370) 
2.0

>  <interaction_uniqueness_metric>  (370) 
0.05615

>  <ad_hoc_penalty>  (370) 
-19.621424

>  <N_rotatable_bonds>  (370) 
1

>  <N_HA>  (370) 
14

>  <cluster>  (370) 
5767

>  <N_interactions>  (370) 
5

>  <Enamine>  (370) 
1

>  <Mcule>  (370) 
0

>  <N_PAINS>  (370) 
0

>  <UFF_Gibbs>  (370) 
70.230422

>  <strain_per_HA>  (370) 
5.016459

>  <saltbridge:HIS:51>  (370) 
0

>  <pistack:HIS:51>  (370) 
0

>  <hydroph_interaction:HIS:51>  (370) 
0

>  <hbond:ALA:132>  (370) 
0

>  <hbond:SER:135>  (370) 
0

>  <hydroph_interaction:TYR:150>  (370) 
1

>  <pistack:TYR:161>  (370) 
0

>  <hydroph_interaction:TYR:161>  (370) 
3

>  <hydroph_interaction:ASP:83>  (370) 
0

>  <hbond:TYR:130>  (370) 
1

>  <hydroph_interaction:ALA:132>  (370) 
0

>  <hbond:HIS:51>  (370) 
0

>  <hbond:ASP:129>  (370) 
0

>  <hbond:TYR:150>  (370) 
0

>  <hbond:GLY:151>  (370) 
0

>  <hbond:TYR:161>  (370) 
0

>  <hydroph_interaction:TYR:130>  (370) 
0

>  <hydroph_interaction:PRO:131>  (370) 
0

>  <hydroph_interaction:ASP:129>  (370) 
0

>  <saltbridge:ASP:75>  (370) 
0

>  <saltbridge:ASP:83>  (370) 
0

>  <hydroph_interaction:ASN:152>  (370) 
0

>  <halogenbond:TYR:150>  (370) 
0

>  <hbond:ASP:83>  (370) 
0

>  <hydroph_interaction:VAL:155>  (370) 
0

>  <pication:TYR:161>  (370) 
0

>  <hbond:PRO:131>  (370) 
0

>  <hbond:LEU:128>  (370) 
0

>  <saltbridge:ASP:129>  (370) 
0

>  <hbond:THR:134>  (370) 
0

>  <pication:HIS:51>  (370) 
0

>  <hbond:SER:81>  (370) 
0

>  <hbond:GLY:159>  (370) 
0

>  <hydroph_interaction:PRO:101>  (370) 
0

>  <hydroph_interaction:THR:134>  (370) 
0

>  <hbond:GLY:82>  (370) 
0

>  <hydroph_interaction:GLU:104>  (370) 
0

>  <hydroph_interaction:VAL:36>  (370) 
0

>  <hydroph_interaction:MET:49>  (370) 
0

>  <halogenbond:GLU:104>  (370) 
0

>  <hydroph_interaction:LYS:107>  (370) 
0

$$$$
MCULE-3730648290
     RDKit          3D

 55 58  0  0  0  0  0  0  0  0999 V2000
   -6.5160    5.8280  -18.5650 C   0  0  0  0  0  0  0  0  0  0  0  0
   -5.1810    5.1410  -18.5340 C   0  0  0  0  0  0  0  0  0  0  0  0
   -4.3200    5.3560  -19.6080 C   0  0  0  0  0  0  0  0  0  0  0  0
   -4.6800    6.1830  -20.6860 C   0  0  0  0  0  0  0  0  0  0  0  0
   -5.9210    6.8390  -20.7370 C   0  0  0  0  0  0  0  0  0  0  0  0
   -6.8250    6.6720  -19.7090 C   0  0  0  0  0  0  0  0  0  0  0  0
   -7.5080    5.7560  -17.5420 C   0  0  0  0  0  0  0  0  0  0  0  0
   -8.8050    5.2180  -17.6060 C   0  0  0  0  0  0  0  0  0  0  0  0
   -9.4040    4.5410  -18.8310 C   0  0  0  0  0  0  0  0  0  0  0  0
   -9.6750    5.3280  -16.4870 N   0  0  0  0  0  0  0  0  0  0  0  0
   -9.1620    5.9720  -15.4330 C   0  0  0  0  0  0  0  0  0  0  0  0
   -9.9810    6.1850  -14.3980 N   0  0  0  0  0  0  0  0  0  0  0  0
   -9.5930    7.1480  -13.5240 C   0  0  0  0  0  0  0  0  0  0  0  0
   -9.2770    6.5280  -12.3610 C   0  0  0  0  0  0  0  0  0  0  0  0
   -9.0680    7.2370  -11.1880 C   0  0  0  0  0  0  0  0  0  0  0  0
   -8.7730    6.5470  -10.0390 C   0  0  0  0  0  0  0  0  0  0  0  0
   -8.6840    5.0220  -10.0970 C   0  0  0  0  0  0  0  0  0  0  0  0
   -8.4140    4.2850   -9.0040 N   0  0  0  0  0  0  0  0  0  0  0  0
   -8.8700    2.8750   -8.9930 C   0  0  0  0  0  0  0  0  0  0  0  0
   -9.7380    2.6030   -7.7610 C   0  0  0  0  0  0  0  0  0  0  0  0
   -9.2510    3.3040   -6.5720 N   0  0  0  0  0  0  0  0  0  0  0  0
   -7.8810    2.9540   -6.4240 C   0  0  0  0  0  0  0  0  0  0  0  0
   -9.1550    4.7310   -6.8000 C   0  0  0  0  0  0  0  0  0  0  0  0
   -8.1450    4.9890   -7.7300 C   0  0  0  0  0  0  0  0  0  0  0  0
   -8.8980    4.4090  -11.3210 C   0  0  0  0  0  0  0  0  0  0  0  0
   -9.1870    5.1370  -12.4250 C   0  0  0  0  0  0  0  0  0  0  0  0
   -9.4820    8.3710  -13.6600 O   0  0  0  0  0  0  0  0  0  0  0  0
   -7.9010    6.4630  -15.3230 C   0  0  0  0  0  0  0  0  0  0  0  0
   -7.0770    6.3480  -16.3810 C   0  0  0  0  0  0  0  0  0  0  0  0
   -4.8880    4.5050  -17.7050 H   0  0  0  0  0  0  0  0  0  0  0  0
   -3.3410    4.8910  -19.6460 H   0  0  0  0  0  0  0  0  0  0  0  0
   -3.9690    6.3150  -21.4990 H   0  0  0  0  0  0  0  0  0  0  0  0
   -6.1440    7.4670  -21.5950 H   0  0  0  0  0  0  0  0  0  0  0  0
   -7.7670    7.1800  -19.7650 H   0  0  0  0  0  0  0  0  0  0  0  0
  -10.3380    4.9810  -19.1720 H   0  0  0  0  0  0  0  0  0  0  0  0
   -9.6520    3.5290  -18.5650 H   0  0  0  0  0  0  0  0  0  0  0  0
   -8.7830    4.4870  -19.7230 H   0  0  0  0  0  0  0  0  0  0  0  0
  -10.3840    5.3230  -14.0540 H   0  0  0  0  0  0  0  0  0  0  0  0
   -9.1450    8.3220  -11.1800 H   0  0  0  0  0  0  0  0  0  0  0  0
   -8.6100    7.0790   -9.1050 H   0  0  0  0  0  0  0  0  0  0  0  0
   -8.0220    2.1800   -8.9600 H   0  0  0  0  0  0  0  0  0  0  0  0
   -9.4500    2.6670   -9.9000 H   0  0  0  0  0  0  0  0  0  0  0  0
   -9.7060    1.5290   -7.5460 H   0  0  0  0  0  0  0  0  0  0  0  0
  -10.7820    2.8250   -7.9890 H   0  0  0  0  0  0  0  0  0  0  0  0
   -7.3650    3.0700   -7.3800 H   0  0  0  0  0  0  0  0  0  0  0  0
   -7.7720    1.9440   -6.0940 H   0  0  0  0  0  0  0  0  0  0  0  0
   -7.3790    3.6230   -5.7190 H   0  0  0  0  0  0  0  0  0  0  0  0
   -8.8390    5.2170   -5.8660 H   0  0  0  0  0  0  0  0  0  0  0  0
  -10.1380    5.1140   -7.0080 H   0  0  0  0  0  0  0  0  0  0  0  0
   -7.1190    4.7740   -7.4370 H   0  0  0  0  0  0  0  0  0  0  0  0
   -8.1910    6.0690   -7.9030 H   0  0  0  0  0  0  0  0  0  0  0  0
   -8.8450    3.3270  -11.4230 H   0  0  0  0  0  0  0  0  0  0  0  0
   -9.3510    4.6010  -13.3570 H   0  0  0  0  0  0  0  0  0  0  0  0
   -7.5430    6.9580  -14.4290 H   0  0  0  0  0  0  0  0  0  0  0  0
   -6.0720    6.7530  -16.3130 H   0  0  0  0  0  0  0  0  0  0  0  0
  1  2  2  0
  2  3  1  0
  3  4  2  0
  4  5  1  0
  5  6  2  0
  1  7  1  0
  7  8  2  0
  8  9  1  0
  8 10  1  0
 10 11  2  0
 11 12  1  0
 12 13  1  0
 13 14  1  0
 14 15  2  0
 15 16  1  0
 16 17  2  0
 17 18  1  0
 18 19  1  0
 19 20  1  0
 20 21  1  0
 21 22  1  0
 21 23  1  0
 23 24  1  0
 17 25  1  0
 25 26  2  0
 13 27  2  0
 11 28  1  0
 28 29  2  0
  6  1  1  0
 29  7  1  0
 14 26  1  0
 24 18  1  0
  2 30  1  0
  3 31  1  0
  4 32  1  0
  5 33  1  0
  6 34  1  0
  9 35  1  0
  9 36  1  0
  9 37  1  0
 12 38  1  0
 15 39  1  0
 16 40  1  0
 19 41  1  0
 19 42  1  0
 20 43  1  0
 20 44  1  0
 22 45  1  0
 22 46  1  0
 22 47  1  0
 23 48  1  0
 23 49  1  0
 24 50  1  0
 24 51  1  0
 25 52  1  0
 26 53  1  0
 28 54  1  0
 29 55  1  0
A    1
 C1 
A    2
 C2 
A    3
 C3 
A    4
 C4 
A    5
 C5 
A    6
 C6 
A    7
 C7 
A    8
 C8 
A    9
 C9 
A   10
 N1 
A   11
 C10
A   12
 N2 
A   13
 C11
A   14
 C12
A   15
 C13
A   16
 C14
A   17
 C15
A   18
 N3 
A   19
 C16
A   20
 C17
A   21
 N4 
A   22
 C18
A   23
 C19
A   24
 C20
A   25
 C21
A   26
 C22
A   27
 O1 
A   28
 C23
A   29
 C24
A   30
 H1 
A   31
 H2 
A   32
 H3 
A   33
 H4 
A   34
 H5 
A   35
 H6 
A   36
 H7 
A   37
 H8 
A   38
 H9 
A   39
 H10
A   40
 H11
A   41
 H12
A   42
 H13
A   43
 H14
A   44
 H15
A   45
 H16
A   46
 H17
A   47
 H18
A   48
 H19
A   49
 H20
A   50
 H21
A   51
 H22
A   52
 H23
A   53
 H24
A   54
 H25
A   55
 H26
M  END
>  <ref_pdb>  (371) 
x0051_0B

>  <ref_mols>  (371) 
x0404_0B,x0803_0B

>  <original SMILES>  (371) 
[H]c1c(N([H])C(=O)c2c([H])c([H])c(N3C([H])([H])C([H])([H])N(C([H])([H])[H])C([H])([H])C3([H])[H])c([H])c2[H])nc(C([H])([H])[H])c(-c2c([H])c([H])c([H])c([H])c2[H])c1[H]

>  <index>  (371) 
101

>  <∆∆G>  (371) 
-8.380845

>  <∆G_bound>  (371) 
-8.3984

>  <∆G_unbound>  (371) 
-0.017555

>  <comRMSD>  (371) 
0.890279

>  <N_constrained_atoms>  (371) 
27.0

>  <N_unconstrained_atoms>  (371) 
3.0

>  <runtime>  (371) 
107.001637

>  <LE>  (371) 
0.279361

>  <percent_hybrid>  (371) 
45.0

>  <dist>  (371) 
12.0

>  <ecfp4>  (371) 
0.176471

>  <daylight>  (371) 
0.195804

>  <topodist>  (371) 
3.0

>  <mces>  (371) 
30.0

>  <tdn>  (371) 
1.0

>  <tup>  (371) 
1.0

>  <rdn>  (371) 
0.0

>  <rup>  (371) 
0.0

>  <ldn>  (371) 
0.0

>  <lup>  (371) 
1.0

>  <mut>  (371) 
3.0

>  <maj>  (371) 
3.0

>  <min>  (371) 
0.0

>  <hyb>  (371) 
6.0

>  <sub>  (371) 
1.0

>  <query_index>  (371) 
94.0

>  <max_hit_Tanimoto>  (371) 
0.247446

>  <largest_ring>  (371) 
0

>  <N_interactions_kept>  (371) 
4.0

>  <N_interactions_lost>  (371) 
3.0

>  <interaction_uniqueness_metric>  (371) 
0.28932

>  <ad_hoc_penalty>  (371) 
-19.561367

>  <N_rotatable_bonds>  (371) 
6

>  <N_HA>  (371) 
29

>  <cluster>  (371) 
529

>  <N_interactions>  (371) 
10

>  <Enamine>  (371) 
0

>  <Mcule>  (371) 
1

>  <N_PAINS>  (371) 
0

>  <UFF_Gibbs>  (371) 
507.935462

>  <strain_per_HA>  (371) 
17.515016

>  <saltbridge:HIS:51>  (371) 
0

>  <pistack:HIS:51>  (371) 
1

>  <hydroph_interaction:HIS:51>  (371) 
1

>  <hbond:ALA:132>  (371) 
0

>  <hbond:SER:135>  (371) 
2

>  <hydroph_interaction:TYR:150>  (371) 
1

>  <pistack:TYR:161>  (371) 
0

>  <hydroph_interaction:TYR:161>  (371) 
3

>  <hydroph_interaction:ASP:83>  (371) 
0

>  <hbond:TYR:130>  (371) 
0

>  <hydroph_interaction:ALA:132>  (371) 
1

>  <hbond:HIS:51>  (371) 
0

>  <hbond:ASP:129>  (371) 
0

>  <hbond:TYR:150>  (371) 
0

>  <hbond:GLY:151>  (371) 
0

>  <hbond:TYR:161>  (371) 
0

>  <hydroph_interaction:TYR:130>  (371) 
0

>  <hydroph_interaction:PRO:131>  (371) 
0

>  <hydroph_interaction:ASP:129>  (371) 
0

>  <saltbridge:ASP:75>  (371) 
1

>  <saltbridge:ASP:83>  (371) 
0

>  <hydroph_interaction:ASN:152>  (371) 
0

>  <halogenbond:TYR:150>  (371) 
0

>  <hbond:ASP:83>  (371) 
0

>  <hydroph_interaction:VAL:155>  (371) 
0

>  <pication:TYR:161>  (371) 
0

>  <hbond:PRO:131>  (371) 
0

>  <hbond:LEU:128>  (371) 
0

>  <saltbridge:ASP:129>  (371) 
0

>  <hbond:THR:134>  (371) 
0

>  <pication:HIS:51>  (371) 
0

>  <hbond:SER:81>  (371) 
0

>  <hbond:GLY:159>  (371) 
0

>  <hydroph_interaction:PRO:101>  (371) 
0

>  <hydroph_interaction:THR:134>  (371) 
0

>  <hbond:GLY:82>  (371) 
0

>  <hydroph_interaction:GLU:104>  (371) 
0

>  <hydroph_interaction:VAL:36>  (371) 
0

>  <hydroph_interaction:MET:49>  (371) 
0

>  <halogenbond:GLU:104>  (371) 
0

>  <hydroph_interaction:LYS:107>  (371) 
0

$$$$
MCULE-2757584494
     RDKit          3D

 26 28  0  0  0  0  0  0  0  0999 V2000
   -8.3790    5.6110  -14.9230 C   0  0  0  0  0  0  0  0  0  0  0  0
   -7.7880    6.6470  -14.6340 O   0  0  0  0  0  0  0  0  0  0  0  0
   -8.8810    4.7090  -14.0000 N   0  0  0  0  0  0  0  0  0  0  0  0
   -8.8570    4.9830  -12.6490 C   0  0  0  0  0  0  0  0  0  0  0  0
   -8.7190    4.1900  -11.5150 C   0  0  0  0  0  0  0  0  0  0  0  0
   -8.7450    4.8870  -10.3750 N   0  0  0  0  0  0  0  0  0  0  0  0
   -8.9060    6.2040  -10.7740 O   0  0  0  0  0  0  0  0  0  0  0  0
   -8.9730    6.2480  -12.1290 C   0  0  0  0  0  0  0  0  0  0  0  0
   -8.5650    5.3160  -16.3530 C   0  0  0  0  0  0  0  0  0  0  0  0
   -9.7670    4.7970  -16.8230 C   0  0  0  0  0  0  0  0  0  0  0  0
   -9.9530    4.5340  -18.1840 C   0  0  0  0  0  0  0  0  0  0  0  0
   -8.9220    4.7850  -19.0830 C   0  0  0  0  0  0  0  0  0  0  0  0
   -7.7190    5.3050  -18.5850 C   0  0  0  0  0  0  0  0  0  0  0  0
   -7.5290    5.5710  -17.2420 C   0  0  0  0  0  0  0  0  0  0  0  0
   -6.1400    6.1160  -17.0620 C   0  0  0  0  0  0  0  0  0  0  0  0
   -5.6010    6.1430  -18.3070 C   0  0  0  0  0  0  0  0  0  0  0  0
   -6.5380    5.6580  -19.2110 N   0  0  0  0  0  0  0  0  0  0  0  0
   -9.3070    3.8440  -14.3240 H   0  0  0  0  0  0  0  0  0  0  0  0
   -8.6000    3.1080  -11.5390 H   0  0  0  0  0  0  0  0  0  0  0  0
   -9.1000    7.2410  -12.5500 H   0  0  0  0  0  0  0  0  0  0  0  0
  -10.5570    4.6000  -16.1160 H   0  0  0  0  0  0  0  0  0  0  0  0
  -10.8920    4.1360  -18.5480 H   0  0  0  0  0  0  0  0  0  0  0  0
   -9.0620    4.5810  -20.1430 H   0  0  0  0  0  0  0  0  0  0  0  0
   -5.6530    6.4300  -16.1470 H   0  0  0  0  0  0  0  0  0  0  0  0
   -4.6250    6.4620  -18.6490 H   0  0  0  0  0  0  0  0  0  0  0  0
   -6.3800    5.5730  -20.2060 H   0  0  0  0  0  0  0  0  0  0  0  0
  1  2  2  0
  1  3  1  0
  3  4  1  0
  4  5  1  0
  5  6  2  0
  6  7  1  0
  7  8  1  0
  1  9  1  0
  9 10  2  0
 10 11  1  0
 11 12  2  0
 12 13  1  0
 13 14  2  0
 14 15  1  0
 15 16  2  0
 16 17  1  0
  4  8  2  0
  9 14  1  0
 17 13  1  0
  3 18  1  0
  5 19  1  0
  8 20  1  0
 10 21  1  0
 11 22  1  0
 12 23  1  0
 15 24  1  0
 16 25  1  0
 17 26  1  0
A    1
 C1 
A    2
 O1 
A    3
 N1 
A    4
 C2 
A    5
 C3 
A    6
 N2 
A    7
 O2 
A    8
 C4 
A    9
 C5 
A   10
 C6 
A   11
 C7 
A   12
 C8 
A   13
 C9 
A   14
 C10
A   15
 C11
A   16
 C12
A   17
 N3 
A   18
 H1 
A   19
 H2 
A   20
 H3 
A   21
 H4 
A   22
 H5 
A   23
 H6 
A   24
 H7 
A   25
 H8 
A   26
 H9 
M  END
>  <ref_pdb>  (372) 
x0051_0B

>  <ref_mols>  (372) 
x1098_0B,x0386_0B

>  <original SMILES>  (372) 
[H]c1noc([H])c1N([H])C(=O)c1c([H])c([H])c([H])c2c1c([H])c([H])n2[H]

>  <index>  (372) 
823

>  <∆∆G>  (372) 
-6.836686

>  <∆G_bound>  (372) 
-6.427852

>  <∆G_unbound>  (372) 
0.408835

>  <comRMSD>  (372) 
0.662635

>  <N_constrained_atoms>  (372) 
19.0

>  <N_unconstrained_atoms>  (372) 
0.0

>  <runtime>  (372) 
47.135659

>  <LE>  (372) 
0.359826

>  <percent_hybrid>  (372) 
8.0

>  <dist>  (372) 
7.0

>  <ecfp4>  (372) 
0.289855

>  <daylight>  (372) 
0.274194

>  <topodist>  (372) 
4.0

>  <mces>  (372) 
18.0

>  <tdn>  (372) 
3.0

>  <tup>  (372) 
0.0

>  <rdn>  (372) 
0.0

>  <rup>  (372) 
1.0

>  <ldn>  (372) 
0.0

>  <lup>  (372) 
0.0

>  <mut>  (372) 
2.0

>  <maj>  (372) 
2.0

>  <min>  (372) 
0.0

>  <hyb>  (372) 
1.0

>  <sub>  (372) 
2.0

>  <query_index>  (372) 
61.0

>  <max_hit_Tanimoto>  (372) 
0.333333

>  <largest_ring>  (372) 
6

>  <N_interactions_kept>  (372) 
1.5

>  <N_interactions_lost>  (372) 
3.5

>  <interaction_uniqueness_metric>  (372) 
0.164058

>  <ad_hoc_penalty>  (372) 
-19.527435

>  <N_rotatable_bonds>  (372) 
2

>  <N_HA>  (372) 
17

>  <cluster>  (372) 
5465

>  <N_interactions>  (372) 
7

>  <Enamine>  (372) 
0

>  <Mcule>  (372) 
1

>  <N_PAINS>  (372) 
0

>  <UFF_Gibbs>  (372) 
40.751164

>  <strain_per_HA>  (372) 
2.397127

>  <saltbridge:HIS:51>  (372) 
0

>  <pistack:HIS:51>  (372) 
1

>  <hydroph_interaction:HIS:51>  (372) 
0

>  <hbond:ALA:132>  (372) 
0

>  <hbond:SER:135>  (372) 
0

>  <hydroph_interaction:TYR:150>  (372) 
1

>  <pistack:TYR:161>  (372) 
2

>  <hydroph_interaction:TYR:161>  (372) 
0

>  <hydroph_interaction:ASP:83>  (372) 
0

>  <hbond:TYR:130>  (372) 
0

>  <hydroph_interaction:ALA:132>  (372) 
1

>  <hbond:HIS:51>  (372) 
0

>  <hbond:ASP:129>  (372) 
0

>  <hbond:TYR:150>  (372) 
0

>  <hbond:GLY:151>  (372) 
1

>  <hbond:TYR:161>  (372) 
1

>  <hydroph_interaction:TYR:130>  (372) 
0

>  <hydroph_interaction:PRO:131>  (372) 
0

>  <hydroph_interaction:ASP:129>  (372) 
0

>  <saltbridge:ASP:75>  (372) 
0

>  <saltbridge:ASP:83>  (372) 
0

>  <hydroph_interaction:ASN:152>  (372) 
0

>  <halogenbond:TYR:150>  (372) 
0

>  <hbond:ASP:83>  (372) 
0

>  <hydroph_interaction:VAL:155>  (372) 
0

>  <pication:TYR:161>  (372) 
0

>  <hbond:PRO:131>  (372) 
0

>  <hbond:LEU:128>  (372) 
0

>  <saltbridge:ASP:129>  (372) 
0

>  <hbond:THR:134>  (372) 
0

>  <pication:HIS:51>  (372) 
0

>  <hbond:SER:81>  (372) 
0

>  <hbond:GLY:159>  (372) 
0

>  <hydroph_interaction:PRO:101>  (372) 
0

>  <hydroph_interaction:THR:134>  (372) 
0

>  <hbond:GLY:82>  (372) 
0

>  <hydroph_interaction:GLU:104>  (372) 
0

>  <hydroph_interaction:VAL:36>  (372) 
0

>  <hydroph_interaction:MET:49>  (372) 
0

>  <halogenbond:GLU:104>  (372) 
0

>  <hydroph_interaction:LYS:107>  (372) 
0

$$$$
MCULE-8664309059
     RDKit          3D

 28 29  0  0  0  0  0  0  0  0999 V2000
   -6.0350    5.6860  -17.9670 N   0  0  0  0  0  0  0  0  0  0  0  0
   -5.2040    5.4480  -16.8100 C   0  0  0  0  0  0  0  0  0  0  0  0
   -3.7600    5.3160  -17.2690 C   0  0  0  0  0  0  0  0  0  0  0  0
   -2.7510    5.0960  -16.1650 C   0  0  0  0  0  0  0  0  0  0  0  0
   -2.9770    4.0630  -15.1500 N   0  0  0  0  0  0  0  0  0  0  0  0
   -7.4500    5.3650  -17.8430 C   0  0  0  0  0  0  0  0  0  0  0  0
   -8.1820    5.2460  -16.6690 C   0  0  0  0  0  0  0  0  0  0  0  0
   -9.5140    4.9410  -16.8280 C   0  0  0  0  0  0  0  0  0  0  0  0
  -10.2020    4.7400  -18.1180 C   0  0  0  0  0  0  0  0  0  0  0  0
   -9.4220    4.8680  -19.2810 C   0  0  0  0  0  0  0  0  0  0  0  0
   -8.0150    5.1870  -19.0740 C   0  0  0  0  0  0  0  0  0  0  0  0
   -6.8940    5.3920  -20.0490 C   0  0  0  0  0  0  0  0  0  0  0  0
   -5.6960    5.5430  -19.3060 C   0  0  0  0  0  0  0  0  0  0  0  0
   -4.5660    5.5480  -19.7710 O   0  0  0  0  0  0  0  0  0  0  0  0
   -5.2990    6.3070  -16.1370 H   0  0  0  0  0  0  0  0  0  0  0  0
   -5.5040    4.5490  -16.2630 H   0  0  0  0  0  0  0  0  0  0  0  0
   -3.4860    6.2130  -17.8350 H   0  0  0  0  0  0  0  0  0  0  0  0
   -3.6830    4.4780  -17.9690 H   0  0  0  0  0  0  0  0  0  0  0  0
   -1.8060    4.8660  -16.6640 H   0  0  0  0  0  0  0  0  0  0  0  0
   -2.5970    6.0410  -15.6350 H   0  0  0  0  0  0  0  0  0  0  0  0
   -3.9640    4.0500  -14.8870 H   0  0  0  0  0  0  0  0  0  0  0  0
   -2.4550    4.2900  -14.3020 H   0  0  0  0  0  0  0  0  0  0  0  0
   -7.7420    5.3830  -15.6750 H   0  0  0  0  0  0  0  0  0  0  0  0
  -10.1420    4.8340  -15.9370 H   0  0  0  0  0  0  0  0  0  0  0  0
  -11.2710    4.5070  -18.1090 H   0  0  0  0  0  0  0  0  0  0  0  0
   -9.8220    4.7430  -20.2770 H   0  0  0  0  0  0  0  0  0  0  0  0
   -6.9340    6.3290  -20.5840 H   0  0  0  0  0  0  0  0  0  0  0  0
   -6.8470    4.6140  -20.8080 H   0  0  0  0  0  0  0  0  0  0  0  0
  1  2  1  0
  2  3  1  0
  3  4  1  0
  4  5  1  0
  1  6  1  0
  6  7  2  0
  7  8  1  0
  8  9  2  0
  9 10  1  0
 10 11  2  0
 11 12  1  0
 12 13  1  0
 13 14  2  0
 13  1  1  0
  6 11  1  0
  2 15  1  0
  2 16  1  0
  3 17  1  0
  3 18  1  0
  4 19  1  0
  4 20  1  0
  5 21  1  0
  5 22  1  0
  7 23  1  0
  8 24  1  0
  9 25  1  0
 10 26  1  0
 12 27  1  0
 12 28  1  0
A    1
 N1 
A    2
 C1 
A    3
 C2 
A    4
 C3 
A    5
 N2 
A    6
 C4 
A    7
 C5 
A    8
 C6 
A    9
 C7 
A   10
 C8 
A   11
 C9 
A   12
 C10
A   13
 C11
A   14
 O1 
A   15
 H1 
A   16
 H2 
A   17
 H3 
A   18
 H4 
A   19
 H5 
A   20
 H6 
A   21
 H7 
A   22
 H8 
A   23
 H9 
A   24
 H10
A   25
 H11
A   26
 H12
A   27
 H13
A   28
 H14
M  END
>  <ref_pdb>  (373) 
x0051_0B

>  <ref_mols>  (373) 
x0490_0B,x0472_0B

>  <original SMILES>  (373) 
[H]c1c([H])c([H])c2c(c1[H])N(C([H])([H])C([H])([H])C([H])([H])N([H])[H])C(=O)C2([H])[H]

>  <index>  (373) 
596

>  <∆∆G>  (373) 
-7.106316

>  <∆G_bound>  (373) 
-6.743967

>  <∆G_unbound>  (373) 
0.362349

>  <comRMSD>  (373) 
0.536702

>  <N_constrained_atoms>  (373) 
16.0

>  <N_unconstrained_atoms>  (373) 
1.0

>  <runtime>  (373) 
23.915314

>  <LE>  (373) 
0.418019

>  <percent_hybrid>  (373) 
38.0

>  <dist>  (373) 
3.0

>  <ecfp4>  (373) 
0.2

>  <daylight>  (373) 
0.09396

>  <topodist>  (373) 
2.0

>  <mces>  (373) 
14.0

>  <tdn>  (373) 
1.0

>  <tup>  (373) 
1.0

>  <rdn>  (373) 
0.0

>  <rup>  (373) 
0.0

>  <ldn>  (373) 
0.0

>  <lup>  (373) 
0.0

>  <mut>  (373) 
1.0

>  <maj>  (373) 
1.0

>  <min>  (373) 
0.0

>  <hyb>  (373) 
0.0

>  <sub>  (373) 
2.0

>  <query_index>  (373) 
228.0

>  <max_hit_Tanimoto>  (373) 
0.200458

>  <largest_ring>  (373) 
6

>  <N_interactions_kept>  (373) 
3.0

>  <N_interactions_lost>  (373) 
1.0

>  <interaction_uniqueness_metric>  (373) 
0.031789

>  <ad_hoc_penalty>  (373) 
-19.511183

>  <N_rotatable_bonds>  (373) 
4

>  <N_HA>  (373) 
14

>  <cluster>  (373) 
5673

>  <N_interactions>  (373) 
4

>  <Enamine>  (373) 
0

>  <Mcule>  (373) 
1

>  <N_PAINS>  (373) 
0

>  <UFF_Gibbs>  (373) 
46.815967

>  <strain_per_HA>  (373) 
3.343998

>  <saltbridge:HIS:51>  (373) 
0

>  <pistack:HIS:51>  (373) 
0

>  <hydroph_interaction:HIS:51>  (373) 
0

>  <hbond:ALA:132>  (373) 
0

>  <hbond:SER:135>  (373) 
0

>  <hydroph_interaction:TYR:150>  (373) 
1

>  <pistack:TYR:161>  (373) 
0

>  <hydroph_interaction:TYR:161>  (373) 
3

>  <hydroph_interaction:ASP:83>  (373) 
0

>  <hbond:TYR:130>  (373) 
0

>  <hydroph_interaction:ALA:132>  (373) 
0

>  <hbond:HIS:51>  (373) 
0

>  <hbond:ASP:129>  (373) 
0

>  <hbond:TYR:150>  (373) 
0

>  <hbond:GLY:151>  (373) 
0

>  <hbond:TYR:161>  (373) 
0

>  <hydroph_interaction:TYR:130>  (373) 
0

>  <hydroph_interaction:PRO:131>  (373) 
0

>  <hydroph_interaction:ASP:129>  (373) 
0

>  <saltbridge:ASP:75>  (373) 
0

>  <saltbridge:ASP:83>  (373) 
0

>  <hydroph_interaction:ASN:152>  (373) 
0

>  <halogenbond:TYR:150>  (373) 
0

>  <hbond:ASP:83>  (373) 
0

>  <hydroph_interaction:VAL:155>  (373) 
0

>  <pication:TYR:161>  (373) 
0

>  <hbond:PRO:131>  (373) 
0

>  <hbond:LEU:128>  (373) 
0

>  <saltbridge:ASP:129>  (373) 
0

>  <hbond:THR:134>  (373) 
0

>  <pication:HIS:51>  (373) 
0

>  <hbond:SER:81>  (373) 
0

>  <hbond:GLY:159>  (373) 
0

>  <hydroph_interaction:PRO:101>  (373) 
0

>  <hydroph_interaction:THR:134>  (373) 
0

>  <hbond:GLY:82>  (373) 
0

>  <hydroph_interaction:GLU:104>  (373) 
0

>  <hydroph_interaction:VAL:36>  (373) 
0

>  <hydroph_interaction:MET:49>  (373) 
0

>  <halogenbond:GLU:104>  (373) 
0

>  <hydroph_interaction:LYS:107>  (373) 
0

$$$$
CSSS00000054624
     RDKit          3D

 23 24  0  0  0  0  0  0  0  0999 V2000
   -6.1670    5.3430  -19.8230 O   0  0  0  0  0  0  0  0  0  0  0  0
   -6.4000    5.3600  -18.6270 C   0  0  0  0  0  0  0  0  0  0  0  0
   -5.3720    5.6180  -17.6360 N   0  0  0  0  0  0  0  0  0  0  0  0
   -4.0460    5.3560  -17.8990 C   0  0  0  0  0  0  0  0  0  0  0  0
   -3.3140    5.3060  -16.5550 C   0  0  0  0  0  0  0  0  0  0  0  0
   -3.2990    4.2630  -15.4860 C   0  0  0  0  0  0  0  0  0  0  0  0
   -5.4170    6.6770  -16.7060 C   0  0  0  0  0  0  0  0  0  0  0  0
   -6.4250    6.6350  -15.5610 C   0  0  0  0  0  0  0  0  0  0  0  0
   -7.2740    5.0610  -15.4060 S   0  0  0  0  0  0  0  0  0  0  0  0
   -8.1690    5.0220  -16.8470 C   0  0  0  0  0  0  0  0  0  0  0  0
   -7.7670    5.1400  -18.1710 C   0  0  0  0  0  0  0  0  0  0  0  0
   -8.8240    5.0230  -19.0590 C   0  0  0  0  0  0  0  0  0  0  0  0
  -10.0420    4.8360  -18.4490 C   0  0  0  0  0  0  0  0  0  0  0  0
   -9.8540    4.8050  -16.7630 S   0  0  0  0  0  0  0  0  0  0  0  0
   -4.0050    4.3870  -18.3870 H   0  0  0  0  0  0  0  0  0  0  0  0
   -3.6300    6.1450  -18.5310 H   0  0  0  0  0  0  0  0  0  0  0  0
   -4.1890    4.0580  -14.8950 H   0  0  0  0  0  0  0  0  0  0  0  0
   -5.4380    7.5850  -17.3040 H   0  0  0  0  0  0  0  0  0  0  0  0
   -4.4220    6.7280  -16.2440 H   0  0  0  0  0  0  0  0  0  0  0  0
   -7.2150    7.3840  -15.5440 H   0  0  0  0  0  0  0  0  0  0  0  0
   -5.8720    6.7810  -14.6280 H   0  0  0  0  0  0  0  0  0  0  0  0
   -8.7150    5.0790  -20.1340 H   0  0  0  0  0  0  0  0  0  0  0  0
  -10.9850    4.7330  -18.9710 H   0  0  0  0  0  0  0  0  0  0  0  0
  1  2  2  0
  2  3  1  0
  3  4  1  0
  4  5  1  0
  5  6  3  0
  3  7  1  0
  7  8  1  0
  8  9  1  0
  9 10  1  0
 10 11  2  0
 11 12  1  0
 12 13  2  0
 13 14  1  0
 11  2  1  0
 14 10  1  0
  4 15  1  0
  4 16  1  0
  6 17  1  0
  7 18  1  0
  7 19  1  0
  8 20  1  0
  8 21  1  0
 12 22  1  0
 13 23  1  0
A    1
 O1 
A    2
 C1 
A    3
 N1 
A    4
 C2 
A    5
 C3 
A    6
 C4 
A    7
 C5 
A    8
 C6 
A    9
 S1 
A   10
 C7 
A   11
 C8 
A   12
 C9 
A   13
 C10
A   14
 S2 
A   15
 H1 
A   16
 H2 
A   17
 H3 
A   18
 H4 
A   19
 H5 
A   20
 H6 
A   21
 H7 
A   22
 H8 
A   23
 H9 
M  END
>  <ref_pdb>  (374) 
x0051_0B

>  <ref_mols>  (374) 
x0472_0B,x0386_0B

>  <original SMILES>  (374) 
[H]C#CC([H])([H])N1C(=O)c2c(sc([H])c2[H])SC([H])([H])C1([H])[H]

>  <index>  (374) 
35

>  <∆∆G>  (374) 
-6.251578

>  <∆G_bound>  (374) 
-5.992064

>  <∆G_unbound>  (374) 
0.259515

>  <comRMSD>  (374) 
0.475958

>  <N_constrained_atoms>  (374) 
14.0

>  <N_unconstrained_atoms>  (374) 
1.0

>  <runtime>  (374) 
23.543343

>  <LE>  (374) 
0.416772

>  <percent_hybrid>  (374) 
13.0

>  <dist>  (374) 
6.0

>  <ecfp4>  (374) 
0.16129

>  <daylight>  (374) 
0.268041

>  <topodist>  (374) 
2.0

>  <mces>  (374) 
14.0

>  <tdn>  (374) 
1.0

>  <tup>  (374) 
0.0

>  <rdn>  (374) 
0.0

>  <rup>  (374) 
0.0

>  <ldn>  (374) 
0.0

>  <lup>  (374) 
1.0

>  <mut>  (374) 
2.0

>  <maj>  (374) 
2.0

>  <min>  (374) 
0.0

>  <hyb>  (374) 
2.0

>  <sub>  (374) 
1.0

>  <query_index>  (374) 
75.0

>  <max_hit_Tanimoto>  (374) 
0.281111

>  <largest_ring>  (374) 
0

>  <N_interactions_kept>  (374) 
3.0

>  <N_interactions_lost>  (374) 
0.0

>  <interaction_uniqueness_metric>  (374) 
0.049434

>  <ad_hoc_penalty>  (374) 
-19.49891

>  <N_rotatable_bonds>  (374) 
1

>  <N_HA>  (374) 
14

>  <cluster>  (374) 
6184

>  <N_interactions>  (374) 
4

>  <Enamine>  (374) 
1

>  <Mcule>  (374) 
0

>  <N_PAINS>  (374) 
0

>  <UFF_Gibbs>  (374) 
277.558525

>  <strain_per_HA>  (374) 
19.825609

>  <saltbridge:HIS:51>  (374) 
0

>  <pistack:HIS:51>  (374) 
0

>  <hydroph_interaction:HIS:51>  (374) 
0

>  <hbond:ALA:132>  (374) 
0

>  <hbond:SER:135>  (374) 
0

>  <hydroph_interaction:TYR:150>  (374) 
0

>  <pistack:TYR:161>  (374) 
0

>  <hydroph_interaction:TYR:161>  (374) 
3

>  <hydroph_interaction:ASP:83>  (374) 
0

>  <hbond:TYR:130>  (374) 
0

>  <hydroph_interaction:ALA:132>  (374) 
0

>  <hbond:HIS:51>  (374) 
0

>  <hbond:ASP:129>  (374) 
0

>  <hbond:TYR:150>  (374) 
0

>  <hbond:GLY:151>  (374) 
0

>  <hbond:TYR:161>  (374) 
0

>  <hydroph_interaction:TYR:130>  (374) 
0

>  <hydroph_interaction:PRO:131>  (374) 
0

>  <hydroph_interaction:ASP:129>  (374) 
0

>  <saltbridge:ASP:75>  (374) 
0

>  <saltbridge:ASP:83>  (374) 
0

>  <hydroph_interaction:ASN:152>  (374) 
0

>  <halogenbond:TYR:150>  (374) 
0

>  <hbond:ASP:83>  (374) 
0

>  <hydroph_interaction:VAL:155>  (374) 
1

>  <pication:TYR:161>  (374) 
0

>  <hbond:PRO:131>  (374) 
0

>  <hbond:LEU:128>  (374) 
0

>  <saltbridge:ASP:129>  (374) 
0

>  <hbond:THR:134>  (374) 
0

>  <pication:HIS:51>  (374) 
0

>  <hbond:SER:81>  (374) 
0

>  <hbond:GLY:159>  (374) 
0

>  <hydroph_interaction:PRO:101>  (374) 
0

>  <hydroph_interaction:THR:134>  (374) 
0

>  <hbond:GLY:82>  (374) 
0

>  <hydroph_interaction:GLU:104>  (374) 
0

>  <hydroph_interaction:VAL:36>  (374) 
0

>  <hydroph_interaction:MET:49>  (374) 
0

>  <halogenbond:GLU:104>  (374) 
0

>  <hydroph_interaction:LYS:107>  (374) 
0

$$$$
MCULE-2101012942
     RDKit          3D

 26 27  0  0  0  0  0  0  0  0999 V2000
   -3.7480    4.1820  -15.6750 C   0  0  0  0  0  0  0  0  0  0  0  0
   -3.9450    5.0040  -16.9270 C   0  0  0  0  0  0  0  0  0  0  0  0
   -5.2620    5.7880  -16.8090 C   0  0  0  0  0  0  0  0  0  0  0  0
   -6.0700    5.6200  -17.9870 N   0  0  0  0  0  0  0  0  0  0  0  0
   -7.3890    5.4000  -17.7980 C   0  0  0  0  0  0  0  0  0  0  0  0
   -7.9780    5.2480  -19.1390 C   0  0  0  0  0  0  0  0  0  0  0  0
   -9.4300    4.9790  -19.1860 C   0  0  0  0  0  0  0  0  0  0  0  0
  -10.2420    4.8690  -18.0770 C   0  0  0  0  0  0  0  0  0  0  0  0
   -9.5860    5.0380  -16.8250 C   0  0  0  0  0  0  0  0  0  0  0  0
   -8.1980    5.2990  -16.6570 C   0  0  0  0  0  0  0  0  0  0  0  0
   -6.9580    5.3990  -20.0540 N   0  0  0  0  0  0  0  0  0  0  0  0
   -5.8400    5.6150  -19.3530 C   0  0  0  0  0  0  0  0  0  0  0  0
   -4.6220    5.8020  -19.8830 N   0  0  0  0  0  0  0  0  0  0  0  0
   -3.0540    4.6740  -14.9880 H   0  0  0  0  0  0  0  0  0  0  0  0
   -4.6940    4.0680  -15.1400 H   0  0  0  0  0  0  0  0  0  0  0  0
   -3.3580    3.1910  -15.9070 H   0  0  0  0  0  0  0  0  0  0  0  0
   -3.1150    5.7020  -17.0660 H   0  0  0  0  0  0  0  0  0  0  0  0
   -3.9770    4.3620  -17.8110 H   0  0  0  0  0  0  0  0  0  0  0  0
   -5.0720    6.8580  -16.6720 H   0  0  0  0  0  0  0  0  0  0  0  0
   -5.8460    5.4530  -15.9430 H   0  0  0  0  0  0  0  0  0  0  0  0
   -9.8650    4.8650  -20.1700 H   0  0  0  0  0  0  0  0  0  0  0  0
  -11.3020    4.6700  -18.1630 H   0  0  0  0  0  0  0  0  0  0  0  0
  -10.1770    4.9630  -15.9210 H   0  0  0  0  0  0  0  0  0  0  0  0
   -7.7260    5.4190  -15.6920 H   0  0  0  0  0  0  0  0  0  0  0  0
   -3.8420    5.2560  -19.5370 H   0  0  0  0  0  0  0  0  0  0  0  0
   -4.6380    5.8120  -20.9020 H   0  0  0  0  0  0  0  0  0  0  0  0
  1  2  1  0
  2  3  1  0
  3  4  1  0
  4  5  1  0
  5  6  2  0
  6  7  1  0
  7  8  2  0
  8  9  1  0
  9 10  2  0
  6 11  1  0
 11 12  2  0
 12 13  1  0
 12  4  1  0
 10  5  1  0
  1 14  1  0
  1 15  1  0
  1 16  1  0
  2 17  1  0
  2 18  1  0
  3 19  1  0
  3 20  1  0
  7 21  1  0
  8 22  1  0
  9 23  1  0
 10 24  1  0
 13 25  1  0
 13 26  1  0
A    1
 C1 
A    2
 C2 
A    3
 C3 
A    4
 N1 
A    5
 C4 
A    6
 C5 
A    7
 C6 
A    8
 C7 
A    9
 C8 
A   10
 C9 
A   11
 N2 
A   12
 C10
A   13
 N3 
A   14
 H1 
A   15
 H2 
A   16
 H3 
A   17
 H4 
A   18
 H5 
A   19
 H6 
A   20
 H7 
A   21
 H8 
A   22
 H9 
A   23
 H10
A   24
 H11
A   25
 H12
A   26
 H13
M  END
>  <ref_pdb>  (375) 
x0051_0B

>  <ref_mols>  (375) 
x0490_0B,x0089_0B

>  <original SMILES>  (375) 
[H]c1c([H])c([H])c2c(nc(N([H])[H])n2C([H])([H])C([H])([H])C([H])([H])[H])c1[H]

>  <index>  (375) 
519

>  <∆∆G>  (375) 
-5.668255

>  <∆G_bound>  (375) 
-5.573419

>  <∆G_unbound>  (375) 
0.094835

>  <comRMSD>  (375) 
0.657079

>  <N_constrained_atoms>  (375) 
13.0

>  <N_unconstrained_atoms>  (375) 
1.0

>  <runtime>  (375) 
22.499909

>  <LE>  (375) 
0.404875

>  <percent_hybrid>  (375) 
50.0

>  <dist>  (375) 
2.0

>  <ecfp4>  (375) 
0.4

>  <daylight>  (375) 
0.719626

>  <topodist>  (375) 
2.0

>  <mces>  (375) 
14.0

>  <tdn>  (375) 
1.0

>  <tup>  (375) 
0.0

>  <rdn>  (375) 
1.0

>  <rup>  (375) 
0.0

>  <ldn>  (375) 
0.0

>  <lup>  (375) 
0.0

>  <mut>  (375) 
0.0

>  <maj>  (375) 
0.0

>  <min>  (375) 
0.0

>  <hyb>  (375) 
0.0

>  <sub>  (375) 
2.0

>  <query_index>  (375) 
184.0

>  <max_hit_Tanimoto>  (375) 
0.664544

>  <largest_ring>  (375) 
6

>  <N_interactions_kept>  (375) 
2.0

>  <N_interactions_lost>  (375) 
2.0

>  <interaction_uniqueness_metric>  (375) 
0.089447

>  <ad_hoc_penalty>  (375) 
-19.420335

>  <N_rotatable_bonds>  (375) 
4

>  <N_HA>  (375) 
13

>  <cluster>  (375) 
5745

>  <N_interactions>  (375) 
7

>  <Enamine>  (375) 
0

>  <Mcule>  (375) 
1

>  <N_PAINS>  (375) 
0

>  <UFF_Gibbs>  (375) 
66.792859

>  <strain_per_HA>  (375) 
5.137912

>  <saltbridge:HIS:51>  (375) 
0

>  <pistack:HIS:51>  (375) 
0

>  <hydroph_interaction:HIS:51>  (375) 
0

>  <hbond:ALA:132>  (375) 
0

>  <hbond:SER:135>  (375) 
0

>  <hydroph_interaction:TYR:150>  (375) 
1

>  <pistack:TYR:161>  (375) 
0

>  <hydroph_interaction:TYR:161>  (375) 
4

>  <hydroph_interaction:ASP:83>  (375) 
0

>  <hbond:TYR:130>  (375) 
0

>  <hydroph_interaction:ALA:132>  (375) 
1

>  <hbond:HIS:51>  (375) 
0

>  <hbond:ASP:129>  (375) 
0

>  <hbond:TYR:150>  (375) 
0

>  <hbond:GLY:151>  (375) 
0

>  <hbond:TYR:161>  (375) 
0

>  <hydroph_interaction:TYR:130>  (375) 
0

>  <hydroph_interaction:PRO:131>  (375) 
0

>  <hydroph_interaction:ASP:129>  (375) 
0

>  <saltbridge:ASP:75>  (375) 
0

>  <saltbridge:ASP:83>  (375) 
0

>  <hydroph_interaction:ASN:152>  (375) 
0

>  <halogenbond:TYR:150>  (375) 
0

>  <hbond:ASP:83>  (375) 
0

>  <hydroph_interaction:VAL:155>  (375) 
1

>  <pication:TYR:161>  (375) 
0

>  <hbond:PRO:131>  (375) 
0

>  <hbond:LEU:128>  (375) 
0

>  <saltbridge:ASP:129>  (375) 
0

>  <hbond:THR:134>  (375) 
0

>  <pication:HIS:51>  (375) 
0

>  <hbond:SER:81>  (375) 
0

>  <hbond:GLY:159>  (375) 
0

>  <hydroph_interaction:PRO:101>  (375) 
0

>  <hydroph_interaction:THR:134>  (375) 
0

>  <hbond:GLY:82>  (375) 
0

>  <hydroph_interaction:GLU:104>  (375) 
0

>  <hydroph_interaction:VAL:36>  (375) 
0

>  <hydroph_interaction:MET:49>  (375) 
0

>  <halogenbond:GLU:104>  (375) 
0

>  <hydroph_interaction:LYS:107>  (375) 
0

$$$$
CSCS00000317877
     RDKit          3D

 34 35  0  0  0  0  0  0  0  0999 V2000
   -4.5630    4.4340  -14.9980 C   0  0  0  0  0  0  0  0  0  0  0  0
   -3.2360    4.4870  -15.7350 C   0  0  0  0  0  0  0  0  0  0  0  0
   -2.0280    4.5990  -14.8010 C   0  0  0  0  0  0  0  0  0  0  0  0
   -3.1990    5.5770  -16.7060 N   0  0  0  0  0  0  0  0  0  0  0  0
   -3.9940    5.6060  -17.8360 C   0  0  0  0  0  0  0  0  0  0  0  0
   -3.5000    5.5600  -18.9580 O   0  0  0  0  0  0  0  0  0  0  0  0
   -5.3710    5.7190  -17.6230 N   0  0  0  0  0  0  0  0  0  0  0  0
   -5.7190    6.4030  -16.3720 C   0  0  0  0  0  0  0  0  0  0  0  0
   -7.0770    6.0210  -15.7900 C   0  0  0  0  0  0  0  0  0  0  0  0
   -8.0810    5.5320  -16.8400 C   0  0  0  0  0  0  0  0  0  0  0  0
   -7.7300    5.4980  -18.1880 C   0  0  0  0  0  0  0  0  0  0  0  0
   -8.7720    5.0180  -18.9710 C   0  0  0  0  0  0  0  0  0  0  0  0
   -9.9080    4.6970  -18.2390 C   0  0  0  0  0  0  0  0  0  0  0  0
   -9.6530    5.0000  -16.5650 S   0  0  0  0  0  0  0  0  0  0  0  0
   -6.3870    5.9390  -18.6840 C   0  0  0  0  0  0  0  0  0  0  0  0
   -6.1000    5.3490  -19.9100 C   0  0  0  0  0  0  0  0  0  0  0  0
   -5.4030    4.3750  -15.6950 H   0  0  0  0  0  0  0  0  0  0  0  0
   -4.7030    5.2980  -14.3470 H   0  0  0  0  0  0  0  0  0  0  0  0
   -4.5940    3.5480  -14.3560 H   0  0  0  0  0  0  0  0  0  0  0  0
   -3.1320    3.5520  -16.2880 H   0  0  0  0  0  0  0  0  0  0  0  0
   -1.7650    3.6450  -14.3320 H   0  0  0  0  0  0  0  0  0  0  0  0
   -1.1760    4.9470  -15.3990 H   0  0  0  0  0  0  0  0  0  0  0  0
   -2.2040    5.3540  -14.0260 H   0  0  0  0  0  0  0  0  0  0  0  0
   -2.3050    6.0320  -16.7910 H   0  0  0  0  0  0  0  0  0  0  0  0
   -5.7390    7.4740  -16.6170 H   0  0  0  0  0  0  0  0  0  0  0  0
   -4.9310    6.2760  -15.6240 H   0  0  0  0  0  0  0  0  0  0  0  0
   -6.9470    5.2270  -15.0450 H   0  0  0  0  0  0  0  0  0  0  0  0
   -7.5180    6.8760  -15.2680 H   0  0  0  0  0  0  0  0  0  0  0  0
   -8.7240    4.9010  -20.0480 H   0  0  0  0  0  0  0  0  0  0  0  0
  -10.8520    4.3130  -18.5890 H   0  0  0  0  0  0  0  0  0  0  0  0
   -6.4600    7.0210  -18.8390 H   0  0  0  0  0  0  0  0  0  0  0  0
   -5.1250    4.8530  -19.8930 H   0  0  0  0  0  0  0  0  0  0  0  0
   -6.8450    4.6020  -20.1900 H   0  0  0  0  0  0  0  0  0  0  0  0
   -6.0760    6.1000  -20.7070 H   0  0  0  0  0  0  0  0  0  0  0  0
  1  2  1  0
  2  3  1  0
  2  4  1  0
  4  5  1  0
  5  6  2  0
  5  7  1  0
  7  8  1  0
  8  9  1  0
  9 10  1  0
 10 11  2  0
 11 12  1  0
 12 13  2  0
 13 14  1  0
 11 15  1  0
 15 16  1  0
 15  7  1  0
 14 10  1  0
  1 17  1  0
  1 18  1  0
  1 19  1  0
  2 20  1  0
  3 21  1  0
  3 22  1  0
  3 23  1  0
  4 24  1  0
  8 25  1  0
  8 26  1  0
  9 27  1  0
  9 28  1  0
 12 29  1  0
 13 30  1  0
 15 31  1  0
 16 32  1  0
 16 33  1  0
 16 34  1  0
A    1
 C1 
A    2
 C2 
A    3
 C3 
A    4
 N1 
A    5
 C4 
A    6
 O1 
A    7
 N2 
A    8
 C5 
A    9
 C6 
A   10
 C7 
A   11
 C8 
A   12
 C9 
A   13
 C10
A   14
 S1 
A   15
 C11
A   16
 C12
A   17
 H1 
A   18
 H2 
A   19
 H3 
A   20
 H4 
A   21
 H5 
A   22
 H6 
A   23
 H7 
A   24
 H8 
A   25
 H9 
A   26
 H10
A   27
 H11
A   28
 H12
A   29
 H13
A   30
 H14
A   31
 H15
A   32
 H16
A   33
 H17
A   34
 H18
M  END
>  <ref_pdb>  (376) 
x0051_0B

>  <ref_mols>  (376) 
x0472_0B,x0386_0B

>  <original SMILES>  (376) 
[H]c1sc2c(c1[H])C([H])(C([H])([H])[H])N(C(=O)N([H])C([H])(C([H])([H])[H])C([H])([H])[H])C([H])([H])C2([H])[H]

>  <index>  (376) 
176

>  <∆∆G>  (376) 
-8.176671

>  <∆G_bound>  (376) 
-8.130684

>  <∆G_unbound>  (376) 
0.045988

>  <comRMSD>  (376) 
0.432073

>  <N_constrained_atoms>  (376) 
14.0

>  <N_unconstrained_atoms>  (376) 
2.0

>  <runtime>  (376) 
23.973982

>  <LE>  (376) 
0.511042

>  <percent_hybrid>  (376) 
13.0

>  <dist>  (376) 
6.0

>  <ecfp4>  (376) 
0.37037

>  <daylight>  (376) 
0.640523

>  <topodist>  (376) 
2.0

>  <mces>  (376) 
15.0

>  <tdn>  (376) 
0.0

>  <tup>  (376) 
1.0

>  <rdn>  (376) 
0.0

>  <rup>  (376) 
0.0

>  <ldn>  (376) 
0.0

>  <lup>  (376) 
1.0

>  <mut>  (376) 
3.0

>  <maj>  (376) 
3.0

>  <min>  (376) 
0.0

>  <hyb>  (376) 
1.0

>  <sub>  (376) 
1.0

>  <query_index>  (376) 
75.0

>  <max_hit_Tanimoto>  (376) 
0.533816

>  <largest_ring>  (376) 
0

>  <N_interactions_kept>  (376) 
3.0

>  <N_interactions_lost>  (376) 
0.0

>  <interaction_uniqueness_metric>  (376) 
0.046449

>  <ad_hoc_penalty>  (376) 
-19.370686

>  <N_rotatable_bonds>  (376) 
4

>  <N_HA>  (376) 
16

>  <cluster>  (376) 
6060

>  <N_interactions>  (376) 
3

>  <Enamine>  (376) 
1

>  <Mcule>  (376) 
0

>  <N_PAINS>  (376) 
0

>  <UFF_Gibbs>  (376) 
182.753932

>  <strain_per_HA>  (376) 
11.422121

>  <saltbridge:HIS:51>  (376) 
0

>  <pistack:HIS:51>  (376) 
0

>  <hydroph_interaction:HIS:51>  (376) 
0

>  <hbond:ALA:132>  (376) 
0

>  <hbond:SER:135>  (376) 
0

>  <hydroph_interaction:TYR:150>  (376) 
0

>  <pistack:TYR:161>  (376) 
0

>  <hydroph_interaction:TYR:161>  (376) 
2

>  <hydroph_interaction:ASP:83>  (376) 
0

>  <hbond:TYR:130>  (376) 
0

>  <hydroph_interaction:ALA:132>  (376) 
0

>  <hbond:HIS:51>  (376) 
0

>  <hbond:ASP:129>  (376) 
0

>  <hbond:TYR:150>  (376) 
0

>  <hbond:GLY:151>  (376) 
0

>  <hbond:TYR:161>  (376) 
0

>  <hydroph_interaction:TYR:130>  (376) 
0

>  <hydroph_interaction:PRO:131>  (376) 
0

>  <hydroph_interaction:ASP:129>  (376) 
0

>  <saltbridge:ASP:75>  (376) 
0

>  <saltbridge:ASP:83>  (376) 
0

>  <hydroph_interaction:ASN:152>  (376) 
0

>  <halogenbond:TYR:150>  (376) 
0

>  <hbond:ASP:83>  (376) 
0

>  <hydroph_interaction:VAL:155>  (376) 
1

>  <pication:TYR:161>  (376) 
0

>  <hbond:PRO:131>  (376) 
0

>  <hbond:LEU:128>  (376) 
0

>  <saltbridge:ASP:129>  (376) 
0

>  <hbond:THR:134>  (376) 
0

>  <pication:HIS:51>  (376) 
0

>  <hbond:SER:81>  (376) 
0

>  <hbond:GLY:159>  (376) 
0

>  <hydroph_interaction:PRO:101>  (376) 
0

>  <hydroph_interaction:THR:134>  (376) 
0

>  <hbond:GLY:82>  (376) 
0

>  <hydroph_interaction:GLU:104>  (376) 
0

>  <hydroph_interaction:VAL:36>  (376) 
0

>  <hydroph_interaction:MET:49>  (376) 
0

>  <halogenbond:GLU:104>  (376) 
0

>  <hydroph_interaction:LYS:107>  (376) 
0

$$$$
CSSS00000080862
     RDKit          3D

 24 26  0  0  0  0  0  0  0  0999 V2000
  -10.1730    4.9370  -17.4760 N   0  0  0  0  0  0  0  0  0  0  0  0
   -8.9230    4.9470  -18.1060 C   0  0  0  0  0  0  0  0  0  0  0  0
   -7.6430    5.1510  -17.3990 C   0  0  0  0  0  0  0  0  0  0  0  0
   -7.6380    5.3450  -16.0170 C   0  0  0  0  0  0  0  0  0  0  0  0
   -6.4380    5.5050  -15.3340 C   0  0  0  0  0  0  0  0  0  0  0  0
   -5.2570    5.4560  -16.0700 C   0  0  0  0  0  0  0  0  0  0  0  0
   -3.8700    5.5450  -15.6290 C   0  0  0  0  0  0  0  0  0  0  0  0
   -3.0190    5.4340  -16.8100 C   0  0  0  0  0  0  0  0  0  0  0  0
   -3.9060    5.2820  -17.8820 C   0  0  0  0  0  0  0  0  0  0  0  0
   -5.2380    5.2910  -17.4300 N   0  0  0  0  0  0  0  0  0  0  0  0
   -6.4410    5.1370  -18.1490 C   0  0  0  0  0  0  0  0  0  0  0  0
   -6.4590    4.9490  -19.5270 C   0  0  0  0  0  0  0  0  0  0  0  0
   -7.6700    4.7570  -20.1730 C   0  0  0  0  0  0  0  0  0  0  0  0
   -8.8890    4.7580  -19.4700 C   0  0  0  0  0  0  0  0  0  0  0  0
  -10.7560    5.6940  -17.8190 H   0  0  0  0  0  0  0  0  0  0  0  0
  -10.0550    5.0340  -16.4660 H   0  0  0  0  0  0  0  0  0  0  0  0
   -8.5740    5.3700  -15.4710 H   0  0  0  0  0  0  0  0  0  0  0  0
   -6.4100    5.6610  -14.2600 H   0  0  0  0  0  0  0  0  0  0  0  0
   -3.5420    5.6750  -14.6080 H   0  0  0  0  0  0  0  0  0  0  0  0
   -1.9390    5.4600  -16.8600 H   0  0  0  0  0  0  0  0  0  0  0  0
   -3.6780    5.1630  -18.9290 H   0  0  0  0  0  0  0  0  0  0  0  0
   -5.5520    4.9380  -20.1190 H   0  0  0  0  0  0  0  0  0  0  0  0
   -7.6750    4.6050  -21.2440 H   0  0  0  0  0  0  0  0  0  0  0  0
   -9.8100    4.6120  -20.0130 H   0  0  0  0  0  0  0  0  0  0  0  0
  1  2  1  0
  2  3  2  0
  3  4  1  0
  4  5  2  0
  5  6  1  0
  6  7  2  0
  7  8  1  0
  8  9  2  0
  9 10  1  0
 10 11  1  0
 11 12  2  0
 12 13  1  0
 13 14  2  0
 14  2  1  0
 11  3  1  0
 10  6  1  0
  1 15  1  0
  1 16  1  0
  4 17  1  0
  5 18  1  0
  7 19  1  0
  8 20  1  0
  9 21  1  0
 12 22  1  0
 13 23  1  0
 14 24  1  0
A    1
 N1 
A    2
 C1 
A    3
 C2 
A    4
 C3 
A    5
 C4 
A    6
 C5 
A    7
 C6 
A    8
 C7 
A    9
 C8 
A   10
 N2 
A   11
 C9 
A   12
 C10
A   13
 C11
A   14
 C12
A   15
 H1 
A   16
 H2 
A   17
 H3 
A   18
 H4 
A   19
 H5 
A   20
 H6 
A   21
 H7 
A   22
 H8 
A   23
 H9 
A   24
 H10
M  END
>  <ref_pdb>  (377) 
x0051_0B

>  <ref_mols>  (377) 
x0680_0B,x0472_0B

>  <original SMILES>  (377) 
[H]c1c([H])c([H])c2c(c([H])c([H])c3c([H])c([H])c([H])n32)c1N([H])[H]

>  <index>  (377) 
726

>  <∆∆G>  (377) 
-5.367527

>  <∆G_bound>  (377) 
-5.290504

>  <∆G_unbound>  (377) 
0.077023

>  <comRMSD>  (377) 
0.804954

>  <N_constrained_atoms>  (377) 
15.0

>  <N_unconstrained_atoms>  (377) 
2.0

>  <runtime>  (377) 
20.041733

>  <LE>  (377) 
0.315737

>  <percent_hybrid>  (377) 
34.0

>  <dist>  (377) 
7.0

>  <ecfp4>  (377) 
0.089552

>  <daylight>  (377) 
0.109524

>  <topodist>  (377) 
2.0

>  <mces>  (377) 
16.0

>  <tdn>  (377) 
1.0

>  <tup>  (377) 
0.0

>  <rdn>  (377) 
0.0

>  <rup>  (377) 
0.0

>  <ldn>  (377) 
1.0

>  <lup>  (377) 
0.0

>  <mut>  (377) 
3.0

>  <maj>  (377) 
3.0

>  <min>  (377) 
0.0

>  <hyb>  (377) 
2.0

>  <sub>  (377) 
1.0

>  <query_index>  (377) 
38.0

>  <max_hit_Tanimoto>  (377) 
0.134301

>  <largest_ring>  (377) 
6

>  <N_interactions_kept>  (377) 
2.0

>  <N_interactions_lost>  (377) 
3.0

>  <interaction_uniqueness_metric>  (377) 
0.087709

>  <ad_hoc_penalty>  (377) 
-19.356181

>  <N_rotatable_bonds>  (377) 
1

>  <N_HA>  (377) 
14

>  <cluster>  (377) 
5555

>  <N_interactions>  (377) 
7

>  <Enamine>  (377) 
1

>  <Mcule>  (377) 
0

>  <N_PAINS>  (377) 
0

>  <UFF_Gibbs>  (377) 
36.888395

>  <strain_per_HA>  (377) 
2.634885

>  <saltbridge:HIS:51>  (377) 
0

>  <pistack:HIS:51>  (377) 
0

>  <hydroph_interaction:HIS:51>  (377) 
0

>  <hbond:ALA:132>  (377) 
0

>  <hbond:SER:135>  (377) 
0

>  <hydroph_interaction:TYR:150>  (377) 
1

>  <pistack:TYR:161>  (377) 
2

>  <hydroph_interaction:TYR:161>  (377) 
3

>  <hydroph_interaction:ASP:83>  (377) 
0

>  <hbond:TYR:130>  (377) 
0

>  <hydroph_interaction:ALA:132>  (377) 
0

>  <hbond:HIS:51>  (377) 
0

>  <hbond:ASP:129>  (377) 
0

>  <hbond:TYR:150>  (377) 
0

>  <hbond:GLY:151>  (377) 
1

>  <hbond:TYR:161>  (377) 
0

>  <hydroph_interaction:TYR:130>  (377) 
0

>  <hydroph_interaction:PRO:131>  (377) 
0

>  <hydroph_interaction:ASP:129>  (377) 
0

>  <saltbridge:ASP:75>  (377) 
0

>  <saltbridge:ASP:83>  (377) 
0

>  <hydroph_interaction:ASN:152>  (377) 
0

>  <halogenbond:TYR:150>  (377) 
0

>  <hbond:ASP:83>  (377) 
0

>  <hydroph_interaction:VAL:155>  (377) 
0

>  <pication:TYR:161>  (377) 
0

>  <hbond:PRO:131>  (377) 
0

>  <hbond:LEU:128>  (377) 
0

>  <saltbridge:ASP:129>  (377) 
0

>  <hbond:THR:134>  (377) 
0

>  <pication:HIS:51>  (377) 
0

>  <hbond:SER:81>  (377) 
0

>  <hbond:GLY:159>  (377) 
0

>  <hydroph_interaction:PRO:101>  (377) 
0

>  <hydroph_interaction:THR:134>  (377) 
0

>  <hbond:GLY:82>  (377) 
0

>  <hydroph_interaction:GLU:104>  (377) 
0

>  <hydroph_interaction:VAL:36>  (377) 
0

>  <hydroph_interaction:MET:49>  (377) 
0

>  <halogenbond:GLU:104>  (377) 
0

>  <hydroph_interaction:LYS:107>  (377) 
0

$$$$
PV-002221382693
     RDKit          3D

 50 54  0  0  0  0  0  0  0  0999 V2000
  -11.7150    6.1720  -29.4700 C   0  0  0  0  0  0  0  0  0  0  0  0
  -10.8500    7.2290  -28.8090 C   0  0  0  0  0  0  0  0  0  0  0  0
   -9.5070    6.8050  -28.3180 C   0  0  0  0  0  0  0  0  0  0  0  0
   -8.8000    7.9210  -27.7100 N   0  0  0  0  0  0  0  0  0  0  0  0
   -7.5090    7.8200  -27.1140 C   0  0  0  0  0  0  0  0  0  0  0  0
   -7.2240    9.0720  -26.6550 C   0  0  0  0  0  0  0  0  0  0  0  0
   -6.0630    9.3820  -25.9800 C   0  0  0  0  0  0  0  0  0  0  0  0
   -6.5410    9.4020  -24.6360 O   0  0  0  0  0  0  0  0  0  0  0  0
   -6.1570    8.4920  -23.6850 C   0  0  0  0  0  0  0  0  0  0  0  0
   -5.8380    9.0690  -22.3460 C   0  0  0  0  0  0  0  0  0  0  0  0
   -5.4460    8.3320  -21.2560 C   0  0  0  0  0  0  0  0  0  0  0  0
   -5.3420    6.8760  -21.4710 C   0  0  0  0  0  0  0  0  0  0  0  0
   -4.9100    6.0840  -20.2880 C   0  0  0  0  0  0  0  0  0  0  0  0
   -3.6620    5.5100  -20.2700 O   0  0  0  0  0  0  0  0  0  0  0  0
   -5.7770    5.9460  -19.1980 N   0  0  0  0  0  0  0  0  0  0  0  0
   -5.1000    5.7630  -17.9130 C   0  0  0  0  0  0  0  0  0  0  0  0
   -5.8520    6.2580  -16.8450 C   0  0  0  0  0  0  0  0  0  0  0  0
   -7.1830    5.7110  -16.9250 N   0  0  0  0  0  0  0  0  0  0  0  0
   -7.9510    5.5970  -15.8240 N   0  0  0  0  0  0  0  0  0  0  0  0
   -9.0540    5.0610  -16.3420 C   0  0  0  0  0  0  0  0  0  0  0  0
   -9.0300    4.8280  -17.7130 C   0  0  0  0  0  0  0  0  0  0  0  0
   -7.7710    5.2730  -18.0830 C   0  0  0  0  0  0  0  0  0  0  0  0
   -7.1100    5.3280  -19.3200 C   0  0  0  0  0  0  0  0  0  0  0  0
   -5.6300    6.3010  -22.7100 C   0  0  0  0  0  0  0  0  0  0  0  0
   -6.0370    7.1000  -23.8150 C   0  0  0  0  0  0  0  0  0  0  0  0
   -8.2630    9.9600  -26.9460 N   0  0  0  0  0  0  0  0  0  0  0  0
   -9.2080    9.2410  -27.5710 C   0  0  0  0  0  0  0  0  0  0  0  0
  -10.4900    9.5660  -28.0690 C   0  0  0  0  0  0  0  0  0  0  0  0
  -11.2750    8.6170  -28.6490 C   0  0  0  0  0  0  0  0  0  0  0  0
  -12.7410    6.1980  -29.0890 H   0  0  0  0  0  0  0  0  0  0  0  0
  -11.3130    5.1680  -29.2940 H   0  0  0  0  0  0  0  0  0  0  0  0
  -11.7520    6.3370  -30.5520 H   0  0  0  0  0  0  0  0  0  0  0  0
   -9.0920    5.8010  -28.3850 H   0  0  0  0  0  0  0  0  0  0  0  0
   -6.8710    6.9420  -27.0220 H   0  0  0  0  0  0  0  0  0  0  0  0
   -5.6680   10.3680  -26.2650 H   0  0  0  0  0  0  0  0  0  0  0  0
   -5.3410    8.5700  -26.1220 H   0  0  0  0  0  0  0  0  0  0  0  0
   -5.9290   10.1560  -22.2270 H   0  0  0  0  0  0  0  0  0  0  0  0
   -5.2280    8.7970  -20.2990 H   0  0  0  0  0  0  0  0  0  0  0  0
   -4.8890    4.7080  -17.7350 H   0  0  0  0  0  0  0  0  0  0  0  0
   -4.1360    6.2790  -17.9800 H   0  0  0  0  0  0  0  0  0  0  0  0
   -5.9150    7.3480  -16.8320 H   0  0  0  0  0  0  0  0  0  0  0  0
   -5.4360    5.9240  -15.8870 H   0  0  0  0  0  0  0  0  0  0  0  0
   -9.9680    4.7880  -15.7980 H   0  0  0  0  0  0  0  0  0  0  0  0
   -9.8040    4.4050  -18.3410 H   0  0  0  0  0  0  0  0  0  0  0  0
   -7.6820    5.9580  -20.0010 H   0  0  0  0  0  0  0  0  0  0  0  0
   -7.0480    4.3370  -19.7630 H   0  0  0  0  0  0  0  0  0  0  0  0
   -5.5390    5.2240  -22.8190 H   0  0  0  0  0  0  0  0  0  0  0  0
   -6.2490    6.5930  -24.7510 H   0  0  0  0  0  0  0  0  0  0  0  0
  -10.8350   10.5890  -27.9700 H   0  0  0  0  0  0  0  0  0  0  0  0
  -12.2600    8.8880  -29.0190 H   0  0  0  0  0  0  0  0  0  0  0  0
  1  2  1  0
  2  3  2  0
  3  4  1  0
  4  5  1  0
  5  6  2  0
  6  7  1  0
  7  8  1  0
  8  9  1  0
  9 10  2  0
 10 11  1  0
 11 12  2  0
 12 13  1  0
 13 14  2  0
 13 15  1  0
 15 16  1  0
 16 17  1  0
 17 18  1  0
 18 19  1  0
 19 20  2  0
 20 21  1  0
 21 22  2  0
 22 23  1  0
 12 24  1  0
 24 25  2  0
  6 26  1  0
 26 27  2  0
 27 28  1  0
 28 29  2  0
 29  2  1  0
 27  4  1  0
 25  9  1  0
 23 15  1  0
 22 18  1  0
  1 30  1  0
  1 31  1  0
  1 32  1  0
  3 33  1  0
  5 34  1  0
  7 35  1  0
  7 36  1  0
 10 37  1  0
 11 38  1  0
 16 39  1  0
 16 40  1  0
 17 41  1  0
 17 42  1  0
 20 43  1  0
 21 44  1  0
 23 45  1  0
 23 46  1  0
 24 47  1  0
 25 48  1  0
 28 49  1  0
 29 50  1  0
A    1
 C1 
A    2
 C2 
A    3
 C3 
A    4
 N1 
A    5
 C4 
A    6
 C5 
A    7
 C6 
A    8
 O1 
A    9
 C7 
A   10
 C8 
A   11
 C9 
A   12
 C10
A   13
 C11
A   14
 O2 
A   15
 N2 
A   16
 C12
A   17
 C13
A   18
 N3 
A   19
 N4 
A   20
 C14
A   21
 C15
A   22
 C16
A   23
 C17
A   24
 C18
A   25
 C19
A   26
 N5 
A   27
 C20
A   28
 C21
A   29
 C22
A   30
 H1 
A   31
 H2 
A   32
 H3 
A   33
 H4 
A   34
 H5 
A   35
 H6 
A   36
 H7 
A   37
 H8 
A   38
 H9 
A   39
 H10
A   40
 H11
A   41
 H12
A   42
 H13
A   43
 H14
A   44
 H15
A   45
 H16
A   46
 H17
A   47
 H18
A   48
 H19
A   49
 H20
A   50
 H21
M  END
>  <ref_pdb>  (378) 
x0051_0B

>  <ref_mols>  (378) 
x0846_1B,x0969_0B

>  <original SMILES>  (378) 
[H]c1nn2c(c1[H])C([H])([H])N(C(=O)c1c([H])c([H])c(OC([H])([H])c3nc4c([H])c([H])c(C([H])([H])[H])c([H])n4c3[H])c([H])c1[H])C([H])([H])C2([H])[H]

>  <index>  (378) 
735

>  <∆∆G>  (378) 
-8.455667

>  <∆G_bound>  (378) 
-8.263444

>  <∆G_unbound>  (378) 
0.192223

>  <comRMSD>  (378) 
0.759745

>  <N_constrained_atoms>  (378) 
28.0

>  <N_unconstrained_atoms>  (378) 
4.0

>  <runtime>  (378) 
50.654006

>  <LE>  (378) 
0.26424

>  <percent_hybrid>  (378) 
36.0

>  <dist>  (378) 
9.0

>  <ecfp4>  (378) 
0.174757

>  <daylight>  (378) 
0.449541

>  <topodist>  (378) 
4.0

>  <mces>  (378) 
31.0

>  <tdn>  (378) 
2.0

>  <tup>  (378) 
2.0

>  <rdn>  (378) 
0.0

>  <rup>  (378) 
0.0

>  <ldn>  (378) 
0.0

>  <lup>  (378) 
0.0

>  <mut>  (378) 
5.0

>  <maj>  (378) 
5.0

>  <min>  (378) 
0.0

>  <hyb>  (378) 
0.0

>  <sub>  (378) 
3.0

>  <query_index>  (378) 
45.0

>  <max_hit_Tanimoto>  (378) 
0.362976

>  <largest_ring>  (378) 
6

>  <N_interactions_kept>  (378) 
0.5

>  <N_interactions_lost>  (378) 
2.0

>  <interaction_uniqueness_metric>  (378) 
0.176201

>  <ad_hoc_penalty>  (378) 
-19.300932

>  <N_rotatable_bonds>  (378) 
5

>  <N_HA>  (378) 
29

>  <cluster>  (378) 
5546

>  <N_interactions>  (378) 
5

>  <Enamine>  (378) 
1

>  <Mcule>  (378) 
0

>  <N_PAINS>  (378) 
0

>  <UFF_Gibbs>  (378) 
103.03864

>  <strain_per_HA>  (378) 
3.553057

>  <saltbridge:HIS:51>  (378) 
0

>  <pistack:HIS:51>  (378) 
0

>  <hydroph_interaction:HIS:51>  (378) 
0

>  <hbond:ALA:132>  (378) 
0

>  <hbond:SER:135>  (378) 
0

>  <hydroph_interaction:TYR:150>  (378) 
0

>  <pistack:TYR:161>  (378) 
1

>  <hydroph_interaction:TYR:161>  (378) 
0

>  <hydroph_interaction:ASP:83>  (378) 
0

>  <hbond:TYR:130>  (378) 
0

>  <hydroph_interaction:ALA:132>  (378) 
0

>  <hbond:HIS:51>  (378) 
0

>  <hbond:ASP:129>  (378) 
0

>  <hbond:TYR:150>  (378) 
0

>  <hbond:GLY:151>  (378) 
0

>  <hbond:TYR:161>  (378) 
0

>  <hydroph_interaction:TYR:130>  (378) 
2

>  <hydroph_interaction:PRO:131>  (378) 
1

>  <hydroph_interaction:ASP:129>  (378) 
1

>  <saltbridge:ASP:75>  (378) 
0

>  <saltbridge:ASP:83>  (378) 
0

>  <hydroph_interaction:ASN:152>  (378) 
0

>  <halogenbond:TYR:150>  (378) 
0

>  <hbond:ASP:83>  (378) 
0

>  <hydroph_interaction:VAL:155>  (378) 
0

>  <pication:TYR:161>  (378) 
0

>  <hbond:PRO:131>  (378) 
0

>  <hbond:LEU:128>  (378) 
0

>  <saltbridge:ASP:129>  (378) 
0

>  <hbond:THR:134>  (378) 
0

>  <pication:HIS:51>  (378) 
0

>  <hbond:SER:81>  (378) 
0

>  <hbond:GLY:159>  (378) 
0

>  <hydroph_interaction:PRO:101>  (378) 
0

>  <hydroph_interaction:THR:134>  (378) 
0

>  <hbond:GLY:82>  (378) 
0

>  <hydroph_interaction:GLU:104>  (378) 
0

>  <hydroph_interaction:VAL:36>  (378) 
0

>  <hydroph_interaction:MET:49>  (378) 
0

>  <halogenbond:GLU:104>  (378) 
0

>  <hydroph_interaction:LYS:107>  (378) 
0

$$$$
PV-006188596149
     RDKit          3D

 25 25  0  0  0  0  0  0  0  0999 V2000
  -10.9240    4.9920  -18.5830 C   0  0  0  0  0  0  0  0  0  0  0  0
   -9.5510    5.0050  -17.9840 C   0  0  0  0  0  0  0  0  0  0  0  0
   -9.4010    4.9800  -16.6020 C   0  0  0  0  0  0  0  0  0  0  0  0
   -8.1220    5.0270  -16.0450 C   0  0  0  0  0  0  0  0  0  0  0  0
   -7.9790    5.0000  -14.6610 C   0  0  0  0  0  0  0  0  0  0  0  0
   -6.9970    5.1040  -16.8930 C   0  0  0  0  0  0  0  0  0  0  0  0
   -5.5980    5.1650  -16.3440 C   0  0  0  0  0  0  0  0  0  0  0  0
   -7.1920    5.1240  -18.2820 C   0  0  0  0  0  0  0  0  0  0  0  0
   -6.0240    5.2090  -19.2580 C   0  0  0  0  0  0  0  0  0  0  0  0
   -6.3480    5.1340  -20.5830 N   0  0  0  0  0  0  0  0  0  0  0  0
   -4.8720    5.3350  -18.8770 O   0  0  0  0  0  0  0  0  0  0  0  0
   -8.4610    5.0700  -18.8170 C   0  0  0  0  0  0  0  0  0  0  0  0
  -10.8580    5.2590  -19.6370 H   0  0  0  0  0  0  0  0  0  0  0  0
  -11.4420    4.0540  -18.4700 H   0  0  0  0  0  0  0  0  0  0  0  0
  -11.5080    5.7360  -18.0940 H   0  0  0  0  0  0  0  0  0  0  0  0
  -10.2450    4.9290  -15.9340 H   0  0  0  0  0  0  0  0  0  0  0  0
   -8.9630    4.8150  -14.2080 H   0  0  0  0  0  0  0  0  0  0  0  0
   -7.5470    5.8760  -14.1860 H   0  0  0  0  0  0  0  0  0  0  0  0
   -7.3410    4.1610  -14.3680 H   0  0  0  0  0  0  0  0  0  0  0  0
   -5.5580    4.6490  -15.3780 H   0  0  0  0  0  0  0  0  0  0  0  0
   -4.8810    4.7120  -17.0320 H   0  0  0  0  0  0  0  0  0  0  0  0
   -5.2580    6.1940  -16.1980 H   0  0  0  0  0  0  0  0  0  0  0  0
   -6.1550    5.8990  -21.2150 H   0  0  0  0  0  0  0  0  0  0  0  0
   -7.1260    4.5250  -20.8030 H   0  0  0  0  0  0  0  0  0  0  0  0
   -8.6070    5.0880  -19.9000 H   0  0  0  0  0  0  0  0  0  0  0  0
  1  2  1  0
  2  3  2  0
  3  4  1  0
  4  5  1  0
  4  6  2  0
  6  7  1  0
  6  8  1  0
  8  9  1  0
  9 10  1  0
  9 11  2  0
  8 12  2  0
 12  2  1  0
  1 13  1  0
  1 14  1  0
  1 15  1  0
  3 16  1  0
  5 17  1  0
  5 18  1  0
  5 19  1  0
  7 20  1  0
  7 21  1  0
  7 22  1  0
 10 23  1  0
 10 24  1  0
 12 25  1  0
A    1
 C1 
A    2
 C2 
A    3
 C3 
A    4
 C4 
A    5
 C5 
A    6
 C6 
A    7
 C7 
A    8
 C8 
A    9
 C9 
A   10
 N1 
A   11
 O1 
A   12
 C10
A   13
 H1 
A   14
 H2 
A   15
 H3 
A   16
 H4 
A   17
 H5 
A   18
 H6 
A   19
 H7 
A   20
 H8 
A   21
 H9 
A   22
 H10
A   23
 H11
A   24
 H12
A   25
 H13
M  END
>  <ref_pdb>  (379) 
x0051_0B

>  <ref_mols>  (379) 
x0435_0B,x0605_0B

>  <original SMILES>  (379) 
[H]c1c(C(=O)N([H])[H])c(C([H])([H])[H])c(C([H])([H])[H])c([H])c1C([H])([H])[H]

>  <index>  (379) 
548

>  <∆∆G>  (379) 
-7.574697

>  <∆G_bound>  (379) 
-7.509368

>  <∆G_unbound>  (379) 
0.065328

>  <comRMSD>  (379) 
0.773788

>  <N_constrained_atoms>  (379) 
12.0

>  <N_unconstrained_atoms>  (379) 
1.0

>  <runtime>  (379) 
22.54303

>  <LE>  (379) 
0.582669

>  <percent_hybrid>  (379) 
40.0

>  <dist>  (379) 
4.0

>  <ecfp4>  (379) 
0.081633

>  <daylight>  (379) 
0.132743

>  <topodist>  (379) 
1.0

>  <mces>  (379) 
12.0

>  <tdn>  (379) 
0.0

>  <tup>  (379) 
0.0

>  <rdn>  (379) 
1.0

>  <rup>  (379) 
0.0

>  <ldn>  (379) 
0.0

>  <lup>  (379) 
0.0

>  <mut>  (379) 
3.0

>  <maj>  (379) 
3.0

>  <min>  (379) 
0.0

>  <hyb>  (379) 
0.0

>  <sub>  (379) 
0.0

>  <query_index>  (379) 
211.0

>  <max_hit_Tanimoto>  (379) 
0.101333

>  <largest_ring>  (379) 
6

>  <N_interactions_kept>  (379) 
2.0

>  <N_interactions_lost>  (379) 
1.5

>  <interaction_uniqueness_metric>  (379) 
0.05615

>  <ad_hoc_penalty>  (379) 
-19.284024

>  <N_rotatable_bonds>  (379) 
4

>  <N_HA>  (379) 
12

>  <cluster>  (379) 
5717

>  <N_interactions>  (379) 
5

>  <Enamine>  (379) 
1

>  <Mcule>  (379) 
0

>  <N_PAINS>  (379) 
0

>  <UFF_Gibbs>  (379) 
54.772788

>  <strain_per_HA>  (379) 
4.564399

>  <saltbridge:HIS:51>  (379) 
0

>  <pistack:HIS:51>  (379) 
0

>  <hydroph_interaction:HIS:51>  (379) 
0

>  <hbond:ALA:132>  (379) 
0

>  <hbond:SER:135>  (379) 
0

>  <hydroph_interaction:TYR:150>  (379) 
1

>  <pistack:TYR:161>  (379) 
0

>  <hydroph_interaction:TYR:161>  (379) 
3

>  <hydroph_interaction:ASP:83>  (379) 
0

>  <hbond:TYR:130>  (379) 
1

>  <hydroph_interaction:ALA:132>  (379) 
0

>  <hbond:HIS:51>  (379) 
0

>  <hbond:ASP:129>  (379) 
0

>  <hbond:TYR:150>  (379) 
0

>  <hbond:GLY:151>  (379) 
0

>  <hbond:TYR:161>  (379) 
0

>  <hydroph_interaction:TYR:130>  (379) 
0

>  <hydroph_interaction:PRO:131>  (379) 
0

>  <hydroph_interaction:ASP:129>  (379) 
0

>  <saltbridge:ASP:75>  (379) 
0

>  <saltbridge:ASP:83>  (379) 
0

>  <hydroph_interaction:ASN:152>  (379) 
0

>  <halogenbond:TYR:150>  (379) 
0

>  <hbond:ASP:83>  (379) 
0

>  <hydroph_interaction:VAL:155>  (379) 
0

>  <pication:TYR:161>  (379) 
0

>  <hbond:PRO:131>  (379) 
0

>  <hbond:LEU:128>  (379) 
0

>  <saltbridge:ASP:129>  (379) 
0

>  <hbond:THR:134>  (379) 
0

>  <pication:HIS:51>  (379) 
0

>  <hbond:SER:81>  (379) 
0

>  <hbond:GLY:159>  (379) 
0

>  <hydroph_interaction:PRO:101>  (379) 
0

>  <hydroph_interaction:THR:134>  (379) 
0

>  <hbond:GLY:82>  (379) 
0

>  <hydroph_interaction:GLU:104>  (379) 
0

>  <hydroph_interaction:VAL:36>  (379) 
0

>  <hydroph_interaction:MET:49>  (379) 
0

>  <halogenbond:GLU:104>  (379) 
0

>  <hydroph_interaction:LYS:107>  (379) 
0

$$$$
MCULE-6426400558
     RDKit          3D

 50 54  0  0  0  0  0  0  0  0999 V2000
   -5.2050   11.1220  -22.3150 F   0  0  0  0  0  0  0  0  0  0  0  0
   -5.4280    9.8050  -22.4390 C   0  0  0  0  0  0  0  0  0  0  0  0
   -5.1840    8.9110  -21.2650 C   0  0  0  0  0  0  0  0  0  0  0  0
   -5.4450    7.4110  -21.3990 C   0  0  0  0  0  0  0  0  0  0  0  0
   -5.2480    6.5820  -20.2660 C   0  0  0  0  0  0  0  0  0  0  0  0
   -6.3590    6.4050  -19.4510 C   0  0  0  0  0  0  0  0  0  0  0  0
   -6.2540    5.5860  -18.1840 C   0  0  0  0  0  0  0  0  0  0  0  0
   -7.5050    5.4530  -17.3280 C   0  0  0  0  0  0  0  0  0  0  0  0
   -8.6860    4.8660  -17.8980 N   0  0  0  0  0  0  0  0  0  0  0  0
   -9.6500    4.8350  -16.9710 N   0  0  0  0  0  0  0  0  0  0  0  0
   -9.0510    5.3890  -15.9050 C   0  0  0  0  0  0  0  0  0  0  0  0
   -7.7440    5.7810  -16.0780 N   0  0  0  0  0  0  0  0  0  0  0  0
   -5.0340    5.0160  -17.8670 C   0  0  0  0  0  0  0  0  0  0  0  0
   -3.9360    5.1910  -18.7100 C   0  0  0  0  0  0  0  0  0  0  0  0
   -4.0350    5.9550  -19.8840 C   0  0  0  0  0  0  0  0  0  0  0  0
   -5.8910    6.9850  -22.6600 C   0  0  0  0  0  0  0  0  0  0  0  0
   -6.0990    7.8940  -23.7250 C   0  0  0  0  0  0  0  0  0  0  0  0
   -6.5340    7.3860  -24.8790 F   0  0  0  0  0  0  0  0  0  0  0  0
   -5.8870    9.2810  -23.6460 C   0  0  0  0  0  0  0  0  0  0  0  0
   -6.1610   10.1670  -24.8390 C   0  0  0  0  0  0  0  0  0  0  0  0
   -5.7370    9.5400  -26.0950 N   0  0  0  0  0  0  0  0  0  0  0  0
   -6.7070    9.4120  -27.2160 C   0  0  0  0  0  0  0  0  0  0  0  0
   -7.2840    8.0410  -27.4340 C   0  0  0  0  0  0  0  0  0  0  0  0
   -8.6400    8.0970  -27.6750 C   0  0  0  0  0  0  0  0  0  0  0  0
   -9.4510    7.0170  -27.9920 C   0  0  0  0  0  0  0  0  0  0  0  0
  -10.8120    7.2570  -28.1970 C   0  0  0  0  0  0  0  0  0  0  0  0
  -11.3090    8.5690  -28.0760 C   0  0  0  0  0  0  0  0  0  0  0  0
  -10.4650    9.6510  -27.7580 C   0  0  0  0  0  0  0  0  0  0  0  0
   -9.1060    9.4010  -27.5570 C   0  0  0  0  0  0  0  0  0  0  0  0
   -7.9620   10.3500  -27.2160 C   0  0  0  0  0  0  0  0  0  0  0  0
   -4.8300    9.3000  -20.3060 H   0  0  0  0  0  0  0  0  0  0  0  0
   -7.3100    6.8700  -19.7170 H   0  0  0  0  0  0  0  0  0  0  0  0
   -8.8560    4.5040  -18.8290 H   0  0  0  0  0  0  0  0  0  0  0  0
   -9.5830    5.5120  -14.9700 H   0  0  0  0  0  0  0  0  0  0  0  0
   -4.8960    4.4230  -16.9710 H   0  0  0  0  0  0  0  0  0  0  0  0
   -2.9840    4.7330  -18.4520 H   0  0  0  0  0  0  0  0  0  0  0  0
   -3.1460    6.0670  -20.5030 H   0  0  0  0  0  0  0  0  0  0  0  0
   -6.0980    5.9340  -22.8420 H   0  0  0  0  0  0  0  0  0  0  0  0
   -7.2250   10.3990  -24.8740 H   0  0  0  0  0  0  0  0  0  0  0  0
   -5.6450   11.1230  -24.6880 H   0  0  0  0  0  0  0  0  0  0  0  0
   -5.3370    8.6240  -25.8880 H   0  0  0  0  0  0  0  0  0  0  0  0
   -6.1590    9.6710  -28.1340 H   0  0  0  0  0  0  0  0  0  0  0  0
   -6.8120    7.5700  -28.3030 H   0  0  0  0  0  0  0  0  0  0  0  0
   -7.0830    7.4130  -26.5630 H   0  0  0  0  0  0  0  0  0  0  0  0
   -9.0470    6.0130  -28.0780 H   0  0  0  0  0  0  0  0  0  0  0  0
  -11.4830    6.4410  -28.4460 H   0  0  0  0  0  0  0  0  0  0  0  0
  -12.3710    8.7510  -28.2340 H   0  0  0  0  0  0  0  0  0  0  0  0
  -10.8710   10.6640  -27.6740 H   0  0  0  0  0  0  0  0  0  0  0  0
   -8.1040   10.8370  -26.2620 H   0  0  0  0  0  0  0  0  0  0  0  0
   -7.8480   11.1200  -27.9840 H   0  0  0  0  0  0  0  0  0  0  0  0
  1  2  1  0
  2  3  2  0
  3  4  1  0
  4  5  1  0
  5  6  2  0
  6  7  1  0
  7  8  1  0
  8  9  1  0
  9 10  1  0
 10 11  2  0
 11 12  1  0
  7 13  2  0
 13 14  1  0
 14 15  2  0
  4 16  2  0
 16 17  1  0
 17 18  1  0
 17 19  2  0
 19 20  1  0
 20 21  1  0
 21 22  1  0
 22 23  1  0
 23 24  1  0
 24 25  2  0
 25 26  1  0
 26 27  2  0
 27 28  1  0
 28 29  2  0
 29 30  1  0
  2 19  1  0
  5 15  1  0
  8 12  2  0
 30 22  1  0
 24 29  1  0
  3 31  1  0
  6 32  1  0
  9 33  1  0
 11 34  1  0
 13 35  1  0
 14 36  1  0
 15 37  1  0
 16 38  1  0
 20 39  1  0
 20 40  1  0
 21 41  1  0
 22 42  1  0
 23 43  1  0
 23 44  1  0
 25 45  1  0
 26 46  1  0
 27 47  1  0
 28 48  1  0
 30 49  1  0
 30 50  1  0
A    1
 F1 
A    2
 C1 
A    3
 C2 
A    4
 C3 
A    5
 C4 
A    6
 C5 
A    7
 C6 
A    8
 C7 
A    9
 N1 
A   10
 N2 
A   11
 C8 
A   12
 N3 
A   13
 C9 
A   14
 C10
A   15
 C11
A   16
 C12
A   17
 C13
A   18
 F2 
A   19
 C14
A   20
 C15
A   21
 N4 
A   22
 C16
A   23
 C17
A   24
 C18
A   25
 C19
A   26
 C20
A   27
 C21
A   28
 C22
A   29
 C23
A   30
 C24
A   31
 H1 
A   32
 H2 
A   33
 H3 
A   34
 H4 
A   35
 H5 
A   36
 H6 
A   37
 H7 
A   38
 H8 
A   39
 H9 
A   40
 H10
A   41
 H11
A   42
 H12
A   43
 H13
A   44
 H14
A   45
 H15
A   46
 H16
A   47
 H17
A   48
 H18
A   49
 H19
A   50
 H20
M  END
>  <ref_pdb>  (380) 
x0051_0B

>  <ref_mols>  (380) 
x0846_1B,x0680_0B

>  <original SMILES>  (380) 
[H]c1nc(-c2c([H])c([H])c([H])c(-c3c([H])c(F)c(C([H])([H])N([H])C4([H])C([H])([H])c5c([H])c([H])c([H])c([H])c5C4([H])[H])c(F)c3[H])c2[H])n([H])n1

>  <index>  (380) 
570

>  <∆∆G>  (380) 
-7.444421

>  <∆G_bound>  (380) 
-6.773771

>  <∆G_unbound>  (380) 
0.67065

>  <comRMSD>  (380) 
0.768579

>  <N_constrained_atoms>  (380) 
29.0

>  <N_unconstrained_atoms>  (380) 
3.0

>  <runtime>  (380) 
47.55151

>  <LE>  (380) 
0.232638

>  <percent_hybrid>  (380) 
38.0

>  <dist>  (380) 
12.0

>  <ecfp4>  (380) 
0.117021

>  <daylight>  (380) 
0.159363

>  <topodist>  (380) 
7.0

>  <mces>  (380) 
30.0

>  <tdn>  (380) 
2.0

>  <tup>  (380) 
1.0

>  <rdn>  (380) 
0.0

>  <rup>  (380) 
1.0

>  <ldn>  (380) 
1.0

>  <lup>  (380) 
2.0

>  <mut>  (380) 
4.0

>  <maj>  (380) 
4.0

>  <min>  (380) 
0.0

>  <hyb>  (380) 
1.0

>  <sub>  (380) 
3.0

>  <query_index>  (380) 
100.0

>  <max_hit_Tanimoto>  (380) 
0.192632

>  <largest_ring>  (380) 
6

>  <N_interactions_kept>  (380) 
2.5

>  <N_interactions_lost>  (380) 
1.5

>  <interaction_uniqueness_metric>  (380) 
0.121403

>  <ad_hoc_penalty>  (380) 
-19.280877

>  <N_rotatable_bonds>  (380) 
5

>  <N_HA>  (380) 
30

>  <cluster>  (380) 
5696

>  <N_interactions>  (380) 
5

>  <Enamine>  (380) 
0

>  <Mcule>  (380) 
1

>  <N_PAINS>  (380) 
0

>  <UFF_Gibbs>  (380) 
149.1922

>  <strain_per_HA>  (380) 
4.973073

>  <saltbridge:HIS:51>  (380) 
0

>  <pistack:HIS:51>  (380) 
0

>  <hydroph_interaction:HIS:51>  (380) 
0

>  <hbond:ALA:132>  (380) 
0

>  <hbond:SER:135>  (380) 
0

>  <hydroph_interaction:TYR:150>  (380) 
0

>  <pistack:TYR:161>  (380) 
0

>  <hydroph_interaction:TYR:161>  (380) 
3

>  <hydroph_interaction:ASP:83>  (380) 
0

>  <hbond:TYR:130>  (380) 
0

>  <hydroph_interaction:ALA:132>  (380) 
0

>  <hbond:HIS:51>  (380) 
0

>  <hbond:ASP:129>  (380) 
0

>  <hbond:TYR:150>  (380) 
0

>  <hbond:GLY:151>  (380) 
0

>  <hbond:TYR:161>  (380) 
0

>  <hydroph_interaction:TYR:130>  (380) 
1

>  <hydroph_interaction:PRO:131>  (380) 
1

>  <hydroph_interaction:ASP:129>  (380) 
0

>  <saltbridge:ASP:75>  (380) 
0

>  <saltbridge:ASP:83>  (380) 
0

>  <hydroph_interaction:ASN:152>  (380) 
0

>  <halogenbond:TYR:150>  (380) 
0

>  <hbond:ASP:83>  (380) 
0

>  <hydroph_interaction:VAL:155>  (380) 
0

>  <pication:TYR:161>  (380) 
0

>  <hbond:PRO:131>  (380) 
0

>  <hbond:LEU:128>  (380) 
0

>  <saltbridge:ASP:129>  (380) 
0

>  <hbond:THR:134>  (380) 
0

>  <pication:HIS:51>  (380) 
0

>  <hbond:SER:81>  (380) 
0

>  <hbond:GLY:159>  (380) 
0

>  <hydroph_interaction:PRO:101>  (380) 
0

>  <hydroph_interaction:THR:134>  (380) 
0

>  <hbond:GLY:82>  (380) 
0

>  <hydroph_interaction:GLU:104>  (380) 
0

>  <hydroph_interaction:VAL:36>  (380) 
0

>  <hydroph_interaction:MET:49>  (380) 
0

>  <halogenbond:GLU:104>  (380) 
0

>  <hydroph_interaction:LYS:107>  (380) 
0

$$$$
ZJXGGPNPWSBDPG-UHFFFAOYSA-N
     RDKit          3D

 47 49  0  0  0  0  0  0  0  0999 V2000
   -8.7990    6.3400  -14.4340 C   0  0  0  0  0  0  0  0  0  0  0  0
   -8.9070    5.3100  -15.4010 N   0  0  0  0  0  0  0  0  0  0  0  0
   -8.1390    5.2390  -16.5580 C   0  0  0  0  0  0  0  0  0  0  0  0
   -6.7070    5.3670  -16.4840 C   0  0  0  0  0  0  0  0  0  0  0  0
   -6.0990    5.5410  -15.1460 C   0  0  0  0  0  0  0  0  0  0  0  0
   -5.8710    5.3320  -17.6210 C   0  0  0  0  0  0  0  0  0  0  0  0
   -6.4840    5.1620  -18.8490 C   0  0  0  0  0  0  0  0  0  0  0  0
   -7.9720    5.0120  -18.9360 C   0  0  0  0  0  0  0  0  0  0  0  0
   -8.7500    5.0440  -17.8330 C   0  0  0  0  0  0  0  0  0  0  0  0
  -10.0980    4.8890  -18.0390 C   0  0  0  0  0  0  0  0  0  0  0  0
  -11.4240    4.7510  -18.4290 N   0  0  0  0  0  0  0  0  0  0  0  0
   -8.6530    7.5200  -14.6200 O   0  0  0  0  0  0  0  0  0  0  0  0
   -8.8430    5.8910  -13.0230 C   0  0  0  0  0  0  0  0  0  0  0  0
   -8.7900    6.7900  -11.9360 C   0  0  0  0  0  0  0  0  0  0  0  0
   -8.8380    6.3010  -10.6110 C   0  0  0  0  0  0  0  0  0  0  0  0
   -8.9390    4.9240  -10.3780 C   0  0  0  0  0  0  0  0  0  0  0  0
   -9.0040    4.3830   -9.1090 N   0  0  0  0  0  0  0  0  0  0  0  0
   -9.0920    2.9120   -8.9790 C   0  0  0  0  0  0  0  0  0  0  0  0
   -9.7530    2.5900   -7.7020 C   0  0  0  0  0  0  0  0  0  0  0  0
   -9.1750    3.4100   -6.6400 N   0  0  0  0  0  0  0  0  0  0  0  0
   -7.8040    3.0840   -6.4260 C   0  0  0  0  0  0  0  0  0  0  0  0
   -9.1560    4.8540   -6.8430 C   0  0  0  0  0  0  0  0  0  0  0  0
   -8.4660    5.1540   -7.9630 C   0  0  0  0  0  0  0  0  0  0  0  0
   -8.9820    4.0980  -11.4860 C   0  0  0  0  0  0  0  0  0  0  0  0
   -8.9360    4.5450  -12.7800 C   0  0  0  0  0  0  0  0  0  0  0  0
   -9.3590    4.4250  -15.1490 H   0  0  0  0  0  0  0  0  0  0  0  0
   -6.5230    4.8210  -14.4370 H   0  0  0  0  0  0  0  0  0  0  0  0
   -5.0160    5.3800  -15.1800 H   0  0  0  0  0  0  0  0  0  0  0  0
   -6.2800    6.5530  -14.7690 H   0  0  0  0  0  0  0  0  0  0  0  0
   -4.7940    5.4300  -17.5750 H   0  0  0  0  0  0  0  0  0  0  0  0
   -5.9080    5.1280  -19.7820 H   0  0  0  0  0  0  0  0  0  0  0  0
   -8.4690    4.8690  -19.9050 H   0  0  0  0  0  0  0  0  0  0  0  0
   -8.7150    7.8600  -12.1070 H   0  0  0  0  0  0  0  0  0  0  0  0
   -8.8000    7.0090   -9.7780 H   0  0  0  0  0  0  0  0  0  0  0  0
   -8.0950    2.4510   -9.0040 H   0  0  0  0  0  0  0  0  0  0  0  0
   -9.7000    2.4890   -9.7890 H   0  0  0  0  0  0  0  0  0  0  0  0
   -9.6280    1.5300   -7.4850 H   0  0  0  0  0  0  0  0  0  0  0  0
  -10.8260    2.7640   -7.7970 H   0  0  0  0  0  0  0  0  0  0  0  0
   -7.2230    3.2180   -7.3340 H   0  0  0  0  0  0  0  0  0  0  0  0
   -7.3820    3.7550   -5.6690 H   0  0  0  0  0  0  0  0  0  0  0  0
   -7.7040    2.0720   -6.0920 H   0  0  0  0  0  0  0  0  0  0  0  0
  -10.1820    5.2150   -6.8660 H   0  0  0  0  0  0  0  0  0  0  0  0
   -8.6490    5.3150   -5.9920 H   0  0  0  0  0  0  0  0  0  0  0  0
   -8.4700    6.2260   -8.1750 H   0  0  0  0  0  0  0  0  0  0  0  0
   -7.4230    4.9030   -7.8250 H   0  0  0  0  0  0  0  0  0  0  0  0
   -9.0590    3.0040  -11.4580 H   0  0  0  0  0  0  0  0  0  0  0  0
   -8.9750    3.8250  -13.5830 H   0  0  0  0  0  0  0  0  0  0  0  0
  1  2  1  0
  2  3  1  0
  3  4  2  0
  4  5  1  0
  4  6  1  0
  6  7  2  0
  7  8  1  0
  8  9  2  0
  9 10  1  0
 10 11  3  0
  1 12  2  0
  1 13  1  0
 13 14  2  0
 14 15  1  0
 15 16  2  0
 16 17  1  0
 17 18  1  0
 18 19  1  0
 19 20  1  0
 20 21  1  0
 20 22  1  0
 22 23  1  0
 16 24  1  0
 24 25  2  0
  9  3  1  0
 25 13  1  0
 23 17  1  0
  2 26  1  0
  5 27  1  0
  5 28  1  0
  5 29  1  0
  6 30  1  0
  7 31  1  0
  8 32  1  0
 14 33  1  0
 15 34  1  0
 18 35  1  0
 18 36  1  0
 19 37  1  0
 19 38  1  0
 21 39  1  0
 21 40  1  0
 21 41  1  0
 22 42  1  0
 22 43  1  0
 23 44  1  0
 23 45  1  0
 24 46  1  0
 25 47  1  0
A    1
 C1 
A    2
 N1 
A    3
 C2 
A    4
 C3 
A    5
 C4 
A    6
 C5 
A    7
 C6 
A    8
 C7 
A    9
 C8 
A   10
 C9 
A   11
 N2 
A   12
 O1 
A   13
 C10
A   14
 C11
A   15
 C12
A   16
 C13
A   17
 N3 
A   18
 C14
A   19
 C15
A   20
 N4 
A   21
 C16
A   22
 C17
A   23
 C18
A   24
 C19
A   25
 C20
A   26
 H1 
A   27
 H2 
A   28
 H3 
A   29
 H4 
A   30
 H5 
A   31
 H6 
A   32
 H7 
A   33
 H8 
A   34
 H9 
A   35
 H10
A   36
 H11
A   37
 H12
A   38
 H13
A   39
 H14
A   40
 H15
A   41
 H16
A   42
 H17
A   43
 H18
A   44
 H19
A   45
 H20
A   46
 H21
A   47
 H22
M  END
>  <ref_pdb>  (381) 
x0051_0B

>  <ref_mols>  (381) 
x0605_0B,x0404_0B

>  <original SMILES>  (381) 
[H]c1c([H])c(C#N)c(N([H])C(=O)c2c([H])c([H])c(N3C([H])([H])C([H])([H])N(C([H])([H])[H])C([H])([H])C3([H])[H])c([H])c2[H])c(C([H])([H])[H])c1[H]

>  <index>  (381) 
479

>  <∆∆G>  (381) 
-7.564209

>  <∆G_bound>  (381) 
-7.110891

>  <∆G_unbound>  (381) 
0.453318

>  <comRMSD>  (381) 
0.640337

>  <N_constrained_atoms>  (381) 
23.0

>  <N_unconstrained_atoms>  (381) 
2.0

>  <runtime>  (381) 
90.514692

>  <LE>  (381) 
0.302568

>  <percent_hybrid>  (381) 
40.0

>  <dist>  (381) 
7.0

>  <ecfp4>  (381) 
0.246914

>  <daylight>  (381) 
0.266667

>  <topodist>  (381) 
3.0

>  <mces>  (381) 
26.0

>  <tdn>  (381) 
1.0

>  <tup>  (381) 
1.0

>  <rdn>  (381) 
0.0

>  <rup>  (381) 
0.0

>  <ldn>  (381) 
1.0

>  <lup>  (381) 
0.0

>  <mut>  (381) 
2.0

>  <maj>  (381) 
2.0

>  <min>  (381) 
0.0

>  <hyb>  (381) 
2.0

>  <sub>  (381) 
1.0

>  <query_index>  (381) 
27.0

>  <max_hit_Tanimoto>  (381) 
0.298529

>  <largest_ring>  (381) 
0

>  <N_interactions_kept>  (381) 
1.5

>  <N_interactions_lost>  (381) 
2.5

>  <interaction_uniqueness_metric>  (381) 
0.269943

>  <ad_hoc_penalty>  (381) 
-19.275198

>  <N_rotatable_bonds>  (381) 
5

>  <N_HA>  (381) 
25

>  <cluster>  (381) 
5782

>  <N_interactions>  (381) 
7

>  <Enamine>  (381) 
0

>  <Mcule>  (381) 
1

>  <N_PAINS>  (381) 
0

>  <UFF_Gibbs>  (381) 
192.870333

>  <strain_per_HA>  (381) 
7.714813

>  <saltbridge:HIS:51>  (381) 
0

>  <pistack:HIS:51>  (381) 
1

>  <hydroph_interaction:HIS:51>  (381) 
1

>  <hbond:ALA:132>  (381) 
0

>  <hbond:SER:135>  (381) 
0

>  <hydroph_interaction:TYR:150>  (381) 
0

>  <pistack:TYR:161>  (381) 
1

>  <hydroph_interaction:TYR:161>  (381) 
1

>  <hydroph_interaction:ASP:83>  (381) 
0

>  <hbond:TYR:130>  (381) 
0

>  <hydroph_interaction:ALA:132>  (381) 
0

>  <hbond:HIS:51>  (381) 
0

>  <hbond:ASP:129>  (381) 
0

>  <hbond:TYR:150>  (381) 
0

>  <hbond:GLY:151>  (381) 
1

>  <hbond:TYR:161>  (381) 
1

>  <hydroph_interaction:TYR:130>  (381) 
0

>  <hydroph_interaction:PRO:131>  (381) 
0

>  <hydroph_interaction:ASP:129>  (381) 
0

>  <saltbridge:ASP:75>  (381) 
1

>  <saltbridge:ASP:83>  (381) 
0

>  <hydroph_interaction:ASN:152>  (381) 
0

>  <halogenbond:TYR:150>  (381) 
0

>  <hbond:ASP:83>  (381) 
0

>  <hydroph_interaction:VAL:155>  (381) 
0

>  <pication:TYR:161>  (381) 
0

>  <hbond:PRO:131>  (381) 
0

>  <hbond:LEU:128>  (381) 
0

>  <saltbridge:ASP:129>  (381) 
0

>  <hbond:THR:134>  (381) 
0

>  <pication:HIS:51>  (381) 
0

>  <hbond:SER:81>  (381) 
0

>  <hbond:GLY:159>  (381) 
0

>  <hydroph_interaction:PRO:101>  (381) 
0

>  <hydroph_interaction:THR:134>  (381) 
0

>  <hbond:GLY:82>  (381) 
0

>  <hydroph_interaction:GLU:104>  (381) 
0

>  <hydroph_interaction:VAL:36>  (381) 
0

>  <hydroph_interaction:MET:49>  (381) 
0

>  <halogenbond:GLU:104>  (381) 
0

>  <hydroph_interaction:LYS:107>  (381) 
0

$$$$
MCULE-9299501064
     RDKit          3D

 19 20  0  0  0  0  0  0  0  0999 V2000
  -10.1870    4.6850  -18.0710 O   0  0  0  0  0  0  0  0  0  0  0  0
   -9.7200    4.8750  -16.9540 C   0  0  0  0  0  0  0  0  0  0  0  0
   -8.3240    5.1350  -16.8980 N   0  0  0  0  0  0  0  0  0  0  0  0
   -7.9410    5.0680  -18.2300 C   0  0  0  0  0  0  0  0  0  0  0  0
   -6.6240    5.2360  -18.6620 C   0  0  0  0  0  0  0  0  0  0  0  0
   -5.5530    5.3580  -17.7840 C   0  0  0  0  0  0  0  0  0  0  0  0
   -4.2340    5.5020  -18.1660 C   0  0  0  0  0  0  0  0  0  0  0  0
   -3.9400    5.5350  -19.5420 C   0  0  0  0  0  0  0  0  0  0  0  0
   -2.6570    5.6780  -19.9700 O   0  0  0  0  0  0  0  0  0  0  0  0
   -4.9500    5.4220  -20.5210 C   0  0  0  0  0  0  0  0  0  0  0  0
   -6.3660    5.2640  -20.0260 C   0  0  0  0  0  0  0  0  0  0  0  0
   -9.1040    4.7930  -18.9480 C   0  0  0  0  0  0  0  0  0  0  0  0
  -10.2980    4.8580  -16.0270 H   0  0  0  0  0  0  0  0  0  0  0  0
   -5.7460    5.3360  -16.7040 H   0  0  0  0  0  0  0  0  0  0  0  0
   -3.4580    5.5860  -17.4130 H   0  0  0  0  0  0  0  0  0  0  0  0
   -2.4840    5.0080  -20.6560 H   0  0  0  0  0  0  0  0  0  0  0  0
   -4.7110    5.4480  -21.5810 H   0  0  0  0  0  0  0  0  0  0  0  0
   -7.1570    5.1700  -20.7620 H   0  0  0  0  0  0  0  0  0  0  0  0
   -9.3370    4.6480  -19.9930 H   0  0  0  0  0  0  0  0  0  0  0  0
  1  2  1  0
  2  3  2  0
  3  4  1  0
  4  5  1  0
  5  6  2  0
  6  7  1  0
  7  8  2  0
  8  9  1  0
  8 10  1  0
 10 11  2  0
  4 12  2  0
 12  1  1  0
 11  5  1  0
  2 13  1  0
  6 14  1  0
  7 15  1  0
  9 16  1  0
 10 17  1  0
 11 18  1  0
 12 19  1  0
A    1
 O1 
A    2
 C1 
A    3
 N1 
A    4
 C2 
A    5
 C3 
A    6
 C4 
A    7
 C5 
A    8
 C6 
A    9
 O2 
A   10
 C7 
A   11
 C8 
A   12
 C9 
A   13
 H1 
A   14
 H2 
A   15
 H3 
A   16
 H4 
A   17
 H5 
A   18
 H6 
A   19
 H7 
M  END
>  <ref_pdb>  (382) 
x0051_0B

>  <ref_mols>  (382) 
x0680_0B,x0386_0B

>  <original SMILES>  (382) 
[H]Oc1c([H])c([H])c(-c2nc([H])oc2[H])c([H])c1[H]

>  <index>  (382) 
595

>  <∆∆G>  (382) 
-5.381267

>  <∆G_bound>  (382) 
-5.313313

>  <∆G_unbound>  (382) 
0.067955

>  <comRMSD>  (382) 
0.59009

>  <N_constrained_atoms>  (382) 
13.0

>  <N_unconstrained_atoms>  (382) 
1.0

>  <runtime>  (382) 
21.219147

>  <LE>  (382) 
0.384376

>  <percent_hybrid>  (382) 
25.0

>  <dist>  (382) 
3.0

>  <ecfp4>  (382) 
0.380952

>  <daylight>  (382) 
0.487179

>  <topodist>  (382) 
2.0

>  <mces>  (382) 
12.0

>  <tdn>  (382) 
1.0

>  <tup>  (382) 
1.0

>  <rdn>  (382) 
0.0

>  <rup>  (382) 
0.0

>  <ldn>  (382) 
0.0

>  <lup>  (382) 
0.0

>  <mut>  (382) 
1.0

>  <maj>  (382) 
1.0

>  <min>  (382) 
0.0

>  <hyb>  (382) 
0.0

>  <sub>  (382) 
2.0

>  <query_index>  (382) 
296.0

>  <max_hit_Tanimoto>  (382) 
0.137536

>  <largest_ring>  (382) 
6

>  <N_interactions_kept>  (382) 
3.5

>  <N_interactions_lost>  (382) 
0.5

>  <interaction_uniqueness_metric>  (382) 
0.016266

>  <ad_hoc_penalty>  (382) 
-19.209053

>  <N_rotatable_bonds>  (382) 
2

>  <N_HA>  (382) 
12

>  <cluster>  (382) 
5674

>  <N_interactions>  (382) 
3

>  <Enamine>  (382) 
0

>  <Mcule>  (382) 
1

>  <N_PAINS>  (382) 
0

>  <UFF_Gibbs>  (382) 
41.971191

>  <strain_per_HA>  (382) 
3.497599

>  <saltbridge:HIS:51>  (382) 
0

>  <pistack:HIS:51>  (382) 
0

>  <hydroph_interaction:HIS:51>  (382) 
0

>  <hbond:ALA:132>  (382) 
0

>  <hbond:SER:135>  (382) 
0

>  <hydroph_interaction:TYR:150>  (382) 
0

>  <pistack:TYR:161>  (382) 
0

>  <hydroph_interaction:TYR:161>  (382) 
3

>  <hydroph_interaction:ASP:83>  (382) 
0

>  <hbond:TYR:130>  (382) 
0

>  <hydroph_interaction:ALA:132>  (382) 
0

>  <hbond:HIS:51>  (382) 
0

>  <hbond:ASP:129>  (382) 
0

>  <hbond:TYR:150>  (382) 
0

>  <hbond:GLY:151>  (382) 
0

>  <hbond:TYR:161>  (382) 
0

>  <hydroph_interaction:TYR:130>  (382) 
0

>  <hydroph_interaction:PRO:131>  (382) 
0

>  <hydroph_interaction:ASP:129>  (382) 
0

>  <saltbridge:ASP:75>  (382) 
0

>  <saltbridge:ASP:83>  (382) 
0

>  <hydroph_interaction:ASN:152>  (382) 
0

>  <halogenbond:TYR:150>  (382) 
0

>  <hbond:ASP:83>  (382) 
0

>  <hydroph_interaction:VAL:155>  (382) 
0

>  <pication:TYR:161>  (382) 
0

>  <hbond:PRO:131>  (382) 
0

>  <hbond:LEU:128>  (382) 
0

>  <saltbridge:ASP:129>  (382) 
0

>  <hbond:THR:134>  (382) 
0

>  <pication:HIS:51>  (382) 
0

>  <hbond:SER:81>  (382) 
0

>  <hbond:GLY:159>  (382) 
0

>  <hydroph_interaction:PRO:101>  (382) 
0

>  <hydroph_interaction:THR:134>  (382) 
0

>  <hbond:GLY:82>  (382) 
0

>  <hydroph_interaction:GLU:104>  (382) 
0

>  <hydroph_interaction:VAL:36>  (382) 
0

>  <hydroph_interaction:MET:49>  (382) 
0

>  <halogenbond:GLU:104>  (382) 
0

>  <hydroph_interaction:LYS:107>  (382) 
0

$$$$
CSSS00011216734
     RDKit          3D

 22 23  0  0  0  0  0  0  0  0999 V2000
   -5.7240    5.4460  -16.2690 C   0  0  0  0  0  0  0  0  0  0  0  0
   -5.5860    5.3960  -17.7760 C   0  0  0  0  0  0  0  0  0  0  0  0
   -4.1870    5.5270  -18.2290 C   0  0  0  0  0  0  0  0  0  0  0  0
   -3.9090    5.4980  -19.5900 C   0  0  0  0  0  0  0  0  0  0  0  0
   -4.9290    5.3480  -20.5380 C   0  0  0  0  0  0  0  0  0  0  0  0
   -6.2570    5.2200  -20.1220 C   0  0  0  0  0  0  0  0  0  0  0  0
   -6.5800    5.2420  -18.7510 C   0  0  0  0  0  0  0  0  0  0  0  0
   -8.0220    5.0780  -18.3660 C   0  0  0  0  0  0  0  0  0  0  0  0
   -8.3270    5.1230  -16.9550 N   0  0  0  0  0  0  0  0  0  0  0  0
   -9.6870    4.9250  -16.9500 N   0  0  0  0  0  0  0  0  0  0  0  0
  -10.2460    4.7710  -18.1910 C   0  0  0  0  0  0  0  0  0  0  0  0
   -9.1970    4.8660  -19.1040 C   0  0  0  0  0  0  0  0  0  0  0  0
   -6.4420    4.6940  -15.9300 H   0  0  0  0  0  0  0  0  0  0  0  0
   -6.0910    6.4270  -15.9550 H   0  0  0  0  0  0  0  0  0  0  0  0
   -4.7520    5.2830  -15.7930 H   0  0  0  0  0  0  0  0  0  0  0  0
   -3.3710    5.6450  -17.5240 H   0  0  0  0  0  0  0  0  0  0  0  0
   -2.8810    5.5920  -19.9760 H   0  0  0  0  0  0  0  0  0  0  0  0
   -4.6460    5.3340  -21.5790 H   0  0  0  0  0  0  0  0  0  0  0  0
   -7.0620    5.0980  -20.8360 H   0  0  0  0  0  0  0  0  0  0  0  0
  -10.1550    4.9090  -16.0480 H   0  0  0  0  0  0  0  0  0  0  0  0
  -11.3040    4.6110  -18.3210 H   0  0  0  0  0  0  0  0  0  0  0  0
   -9.4140    4.7680  -20.1740 H   0  0  0  0  0  0  0  0  0  0  0  0
  1  2  1  0
  2  3  2  0
  3  4  1  0
  4  5  2  0
  5  6  1  0
  6  7  2  0
  7  8  1  0
  8  9  2  0
  9 10  1  0
 10 11  1  0
 11 12  2  0
  7  2  1  0
 12  8  1  0
  1 13  1  0
  1 14  1  0
  1 15  1  0
  3 16  1  0
  4 17  1  0
  5 18  1  0
  6 19  1  0
 10 20  1  0
 11 21  1  0
 12 22  1  0
A    1
 C1 
A    2
 C2 
A    3
 C3 
A    4
 C4 
A    5
 C5 
A    6
 C6 
A    7
 C7 
A    8
 C8 
A    9
 N1 
A   10
 N2 
A   11
 C9 
A   12
 C10
A   13
 H1 
A   14
 H2 
A   15
 H3 
A   16
 H4 
A   17
 H5 
A   18
 H6 
A   19
 H7 
A   20
 H8 
A   21
 H9 
A   22
 H10
M  END
>  <ref_pdb>  (383) 
x0051_0B

>  <ref_mols>  (383) 
x0680_0B,x0386_0B

>  <original SMILES>  (383) 
[H]c1c([H])c([H])c(C([H])([H])[H])c(-c2nn([H])c([H])c2[H])c1[H]

>  <index>  (383) 
683

>  <∆∆G>  (383) 
-6.457289

>  <∆G_bound>  (383) 
-6.517018

>  <∆G_unbound>  (383) 
-0.059729

>  <comRMSD>  (383) 
0.560208

>  <N_constrained_atoms>  (383) 
13.0

>  <N_unconstrained_atoms>  (383) 
0.0

>  <runtime>  (383) 
25.533092

>  <LE>  (383) 
0.496715

>  <percent_hybrid>  (383) 
25.0

>  <dist>  (383) 
3.0

>  <ecfp4>  (383) 
0.25

>  <daylight>  (383) 
0.18705

>  <topodist>  (383) 
0.0

>  <mces>  (383) 
13.0

>  <tdn>  (383) 
0.0

>  <tup>  (383) 
0.0

>  <rdn>  (383) 
0.0

>  <rup>  (383) 
0.0

>  <ldn>  (383) 
0.0

>  <lup>  (383) 
0.0

>  <mut>  (383) 
3.0

>  <maj>  (383) 
3.0

>  <min>  (383) 
0.0

>  <hyb>  (383) 
0.0

>  <sub>  (383) 
0.0

>  <query_index>  (383) 
296.0

>  <max_hit_Tanimoto>  (383) 
0.117647

>  <largest_ring>  (383) 
6

>  <N_interactions_kept>  (383) 
2.0

>  <N_interactions_lost>  (383) 
2.0

>  <interaction_uniqueness_metric>  (383) 
0.044868

>  <ad_hoc_penalty>  (383) 
-19.20535

>  <N_rotatable_bonds>  (383) 
2

>  <N_HA>  (383) 
12

>  <cluster>  (383) 
5592

>  <N_interactions>  (383) 
5

>  <Enamine>  (383) 
1

>  <Mcule>  (383) 
0

>  <N_PAINS>  (383) 
0

>  <UFF_Gibbs>  (383) 
33.378199

>  <strain_per_HA>  (383) 
2.781517

>  <saltbridge:HIS:51>  (383) 
0

>  <pistack:HIS:51>  (383) 
0

>  <hydroph_interaction:HIS:51>  (383) 
0

>  <hbond:ALA:132>  (383) 
0

>  <hbond:SER:135>  (383) 
0

>  <hydroph_interaction:TYR:150>  (383) 
1

>  <pistack:TYR:161>  (383) 
1

>  <hydroph_interaction:TYR:161>  (383) 
3

>  <hydroph_interaction:ASP:83>  (383) 
0

>  <hbond:TYR:130>  (383) 
0

>  <hydroph_interaction:ALA:132>  (383) 
0

>  <hbond:HIS:51>  (383) 
0

>  <hbond:ASP:129>  (383) 
0

>  <hbond:TYR:150>  (383) 
0

>  <hbond:GLY:151>  (383) 
0

>  <hbond:TYR:161>  (383) 
0

>  <hydroph_interaction:TYR:130>  (383) 
0

>  <hydroph_interaction:PRO:131>  (383) 
0

>  <hydroph_interaction:ASP:129>  (383) 
0

>  <saltbridge:ASP:75>  (383) 
0

>  <saltbridge:ASP:83>  (383) 
0

>  <hydroph_interaction:ASN:152>  (383) 
0

>  <halogenbond:TYR:150>  (383) 
0

>  <hbond:ASP:83>  (383) 
0

>  <hydroph_interaction:VAL:155>  (383) 
0

>  <pication:TYR:161>  (383) 
0

>  <hbond:PRO:131>  (383) 
0

>  <hbond:LEU:128>  (383) 
0

>  <saltbridge:ASP:129>  (383) 
0

>  <hbond:THR:134>  (383) 
0

>  <pication:HIS:51>  (383) 
0

>  <hbond:SER:81>  (383) 
0

>  <hbond:GLY:159>  (383) 
0

>  <hydroph_interaction:PRO:101>  (383) 
0

>  <hydroph_interaction:THR:134>  (383) 
0

>  <hbond:GLY:82>  (383) 
0

>  <hydroph_interaction:GLU:104>  (383) 
0

>  <hydroph_interaction:VAL:36>  (383) 
0

>  <hydroph_interaction:MET:49>  (383) 
0

>  <halogenbond:GLU:104>  (383) 
0

>  <hydroph_interaction:LYS:107>  (383) 
0

$$$$
CSSS02267473081
     RDKit          3D

 30 32  0  0  0  0  0  0  0  0999 V2000
   -7.6000    4.5230  -20.9960 O   0  0  0  0  0  0  0  0  0  0  0  0
   -6.5710    4.9720  -20.1770 C   0  0  0  0  0  0  0  0  0  0  0  0
   -6.7000    5.2720  -18.6940 C   0  0  0  0  0  0  0  0  0  0  0  0
   -8.0680    5.1330  -18.1200 C   0  0  0  0  0  0  0  0  0  0  0  0
   -9.0230    4.9680  -18.8870 O   0  0  0  0  0  0  0  0  0  0  0  0
   -8.3530    5.2310  -16.6380 C   0  0  0  0  0  0  0  0  0  0  0  0
   -7.3960    4.8600  -15.6740 C   0  0  0  0  0  0  0  0  0  0  0  0
   -7.7100    4.9710  -14.3060 C   0  0  0  0  0  0  0  0  0  0  0  0
   -8.9460    5.4420  -13.8820 C   0  0  0  0  0  0  0  0  0  0  0  0
   -9.8900    5.8110  -14.8240 C   0  0  0  0  0  0  0  0  0  0  0  0
   -9.6170    5.7120  -16.2000 C   0  0  0  0  0  0  0  0  0  0  0  0
   -5.4990    5.6580  -17.9360 C   0  0  0  0  0  0  0  0  0  0  0  0
   -5.5360    6.2090  -16.8470 O   0  0  0  0  0  0  0  0  0  0  0  0
   -4.2840    5.3130  -18.5290 O   0  0  0  0  0  0  0  0  0  0  0  0
   -4.1550    5.3270  -19.9270 C   0  0  0  0  0  0  0  0  0  0  0  0
   -2.7980    5.5160  -20.5160 C   0  0  0  0  0  0  0  0  0  0  0  0
   -2.6260    5.5480  -21.8360 C   0  0  0  0  0  0  0  0  0  0  0  0
   -3.7240    5.4060  -22.6840 C   0  0  0  0  0  0  0  0  0  0  0  0
   -5.0210    5.2200  -22.1470 C   0  0  0  0  0  0  0  0  0  0  0  0
   -5.2500    5.1700  -20.7740 C   0  0  0  0  0  0  0  0  0  0  0  0
   -7.9390    5.2810  -21.5060 H   0  0  0  0  0  0  0  0  0  0  0  0
   -6.4170    4.4870  -15.9610 H   0  0  0  0  0  0  0  0  0  0  0  0
   -6.9720    4.6840  -13.5620 H   0  0  0  0  0  0  0  0  0  0  0  0
   -9.1710    5.5210  -12.8210 H   0  0  0  0  0  0  0  0  0  0  0  0
  -10.8590    6.1820  -14.4900 H   0  0  0  0  0  0  0  0  0  0  0  0
  -10.3660    6.0010  -16.9220 H   0  0  0  0  0  0  0  0  0  0  0  0
   -1.9400    5.6310  -19.8600 H   0  0  0  0  0  0  0  0  0  0  0  0
   -1.6290    5.6870  -22.2500 H   0  0  0  0  0  0  0  0  0  0  0  0
   -3.5830    5.4370  -23.7630 H   0  0  0  0  0  0  0  0  0  0  0  0
   -5.8610    5.1120  -22.8200 H   0  0  0  0  0  0  0  0  0  0  0  0
  1  2  1  0
  2  3  2  0
  3  4  1  0
  4  5  2  0
  4  6  1  0
  6  7  2  0
  7  8  1  0
  8  9  2  0
  9 10  1  0
 10 11  2  0
  3 12  1  0
 12 13  2  0
 12 14  1  0
 14 15  1  0
 15 16  2  0
 16 17  1  0
 17 18  2  0
 18 19  1  0
 19 20  2  0
 20  2  1  0
 11  6  1  0
 20 15  1  0
  1 21  1  0
  7 22  1  0
  8 23  1  0
  9 24  1  0
 10 25  1  0
 11 26  1  0
 16 27  1  0
 17 28  1  0
 18 29  1  0
 19 30  1  0
A    1
 O1 
A    2
 C1 
A    3
 C2 
A    4
 C3 
A    5
 O2 
A    6
 C4 
A    7
 C5 
A    8
 C6 
A    9
 C7 
A   10
 C8 
A   11
 C9 
A   12
 C10
A   13
 O3 
A   14
 O4 
A   15
 C11
A   16
 C12
A   17
 C13
A   18
 C14
A   19
 C15
A   20
 C16
A   21
 H1 
A   22
 H2 
A   23
 H3 
A   24
 H4 
A   25
 H5 
A   26
 H6 
A   27
 H7 
A   28
 H8 
A   29
 H9 
A   30
 H10
M  END
>  <ref_pdb>  (384) 
x0051_0B

>  <ref_mols>  (384) 
x0951_0B,x0852_0B

>  <original SMILES>  (384) 
[H]Oc1c(C(=O)c2c([H])c([H])c([H])c([H])c2[H])c(=O)oc2c([H])c([H])c([H])c([H])c12

>  <index>  (384) 
657

>  <∆∆G>  (384) 
-5.655838

>  <∆G_bound>  (384) 
-4.197354

>  <∆G_unbound>  (384) 
1.458484

>  <comRMSD>  (384) 
0.908045

>  <N_constrained_atoms>  (384) 
20.0

>  <N_unconstrained_atoms>  (384) 
3.0

>  <runtime>  (384) 
34.104878

>  <LE>  (384) 
0.245906

>  <percent_hybrid>  (384) 
22.0

>  <dist>  (384) 
12.0

>  <ecfp4>  (384) 
0.153846

>  <daylight>  (384) 
0.160772

>  <topodist>  (384) 
4.0

>  <mces>  (384) 
21.0

>  <tdn>  (384) 
2.0

>  <tup>  (384) 
0.0

>  <rdn>  (384) 
1.0

>  <rup>  (384) 
1.0

>  <ldn>  (384) 
0.0

>  <lup>  (384) 
0.0

>  <mut>  (384) 
5.0

>  <maj>  (384) 
5.0

>  <min>  (384) 
0.0

>  <hyb>  (384) 
3.0

>  <sub>  (384) 
3.0

>  <query_index>  (384) 
206.0

>  <max_hit_Tanimoto>  (384) 
0.244737

>  <largest_ring>  (384) 
6

>  <N_interactions_kept>  (384) 
4.0

>  <N_interactions_lost>  (384) 
2.0

>  <interaction_uniqueness_metric>  (384) 
0.099337

>  <ad_hoc_penalty>  (384) 
-19.191398

>  <N_rotatable_bonds>  (384) 
3

>  <N_HA>  (384) 
20

>  <cluster>  (384) 
5617

>  <N_interactions>  (384) 
6

>  <Enamine>  (384) 
1

>  <Mcule>  (384) 
0

>  <N_PAINS>  (384) 
0

>  <UFF_Gibbs>  (384) 
70.151828

>  <strain_per_HA>  (384) 
3.507591

>  <saltbridge:HIS:51>  (384) 
0

>  <pistack:HIS:51>  (384) 
0

>  <hydroph_interaction:HIS:51>  (384) 
0

>  <hbond:ALA:132>  (384) 
0

>  <hbond:SER:135>  (384) 
0

>  <hydroph_interaction:TYR:150>  (384) 
0

>  <pistack:TYR:161>  (384) 
0

>  <hydroph_interaction:TYR:161>  (384) 
3

>  <hydroph_interaction:ASP:83>  (384) 
0

>  <hbond:TYR:130>  (384) 
1

>  <hydroph_interaction:ALA:132>  (384) 
1

>  <hbond:HIS:51>  (384) 
0

>  <hbond:ASP:129>  (384) 
0

>  <hbond:TYR:150>  (384) 
0

>  <hbond:GLY:151>  (384) 
0

>  <hbond:TYR:161>  (384) 
0

>  <hydroph_interaction:TYR:130>  (384) 
0

>  <hydroph_interaction:PRO:131>  (384) 
0

>  <hydroph_interaction:ASP:129>  (384) 
1

>  <saltbridge:ASP:75>  (384) 
0

>  <saltbridge:ASP:83>  (384) 
0

>  <hydroph_interaction:ASN:152>  (384) 
0

>  <halogenbond:TYR:150>  (384) 
0

>  <hbond:ASP:83>  (384) 
0

>  <hydroph_interaction:VAL:155>  (384) 
0

>  <pication:TYR:161>  (384) 
0

>  <hbond:PRO:131>  (384) 
0

>  <hbond:LEU:128>  (384) 
0

>  <saltbridge:ASP:129>  (384) 
0

>  <hbond:THR:134>  (384) 
0

>  <pication:HIS:51>  (384) 
0

>  <hbond:SER:81>  (384) 
0

>  <hbond:GLY:159>  (384) 
0

>  <hydroph_interaction:PRO:101>  (384) 
0

>  <hydroph_interaction:THR:134>  (384) 
0

>  <hbond:GLY:82>  (384) 
0

>  <hydroph_interaction:GLU:104>  (384) 
0

>  <hydroph_interaction:VAL:36>  (384) 
0

>  <hydroph_interaction:MET:49>  (384) 
0

>  <halogenbond:GLU:104>  (384) 
0

>  <hydroph_interaction:LYS:107>  (384) 
0

$$$$
MCULE-6616598188
     RDKit          3D

 48 50  0  0  0  0  0  0  0  0999 V2000
   -8.6950    7.1960  -14.2260 S   0  0  0  0  0  6  0  0  0  0  0  0
   -8.0760    8.4740  -13.9230 O   0  0  0  0  0  0  0  0  0  0  0  0
   -9.9670    7.0900  -14.8740 O   0  0  0  0  0  0  0  0  0  0  0  0
   -8.7310    6.2420  -12.7780 C   0  0  0  0  0  0  0  0  0  0  0  0
   -9.8800    5.6230  -12.3920 C   0  0  0  0  0  0  0  0  0  0  0  0
   -9.8470    4.8830  -11.2330 C   0  0  0  0  0  0  0  0  0  0  0  0
   -8.7040    4.7810  -10.4920 C   0  0  0  0  0  0  0  0  0  0  0  0
   -7.5450    5.3870  -10.8840 C   0  0  0  0  0  0  0  0  0  0  0  0
   -7.5710    6.1230  -12.0420 C   0  0  0  0  0  0  0  0  0  0  0  0
   -8.7710    4.0100   -9.2360 C   0  0  0  0  0  0  0  0  0  0  0  0
   -8.7640    2.7250   -9.3640 C   0  0  0  0  0  0  0  0  0  0  0  0
   -9.4610    2.2310   -8.1300 C   0  0  0  0  0  0  0  0  0  0  0  0
   -8.8670    2.8340   -6.8450 C   0  0  0  0  0  0  0  0  0  0  0  0
   -8.1810    4.0510   -6.8890 C   0  0  0  0  0  0  0  0  0  0  0  0
   -7.6800    4.3960   -8.2720 C   0  0  0  0  0  0  0  0  0  0  0  0
   -7.5960    6.1990  -15.0140 N   0  0  0  0  0  0  0  0  0  0  0  0
   -8.0190    5.6760  -16.2480 C   0  0  0  0  0  0  0  0  0  0  0  0
   -9.3290    5.2250  -16.4470 C   0  0  0  0  0  0  0  0  0  0  0  0
   -9.6600    4.7480  -17.7190 C   0  0  0  0  0  0  0  0  0  0  0  0
   -8.7180    4.7160  -18.7480 C   0  0  0  0  0  0  0  0  0  0  0  0
   -7.4200    5.1600  -18.5150 C   0  0  0  0  0  0  0  0  0  0  0  0
   -6.3220    5.1540  -19.5680 C   0  0  0  0  0  0  0  0  0  0  0  0
   -6.5520    4.8810  -21.0420 C   0  0  0  0  0  0  0  0  0  0  0  0
   -4.9630    5.4070  -19.1750 O   0  0  0  0  0  0  0  0  0  0  0  0
   -7.0860    5.6370  -17.2610 C   0  0  0  0  0  0  0  0  0  0  0  0
  -10.7970    5.6990  -12.9630 H   0  0  0  0  0  0  0  0  0  0  0  0
  -10.7320    4.3600  -10.8590 H   0  0  0  0  0  0  0  0  0  0  0  0
   -6.6370    5.2960  -10.2910 H   0  0  0  0  0  0  0  0  0  0  0  0
   -6.6520    6.6230  -12.3760 H   0  0  0  0  0  0  0  0  0  0  0  0
   -9.6570    4.3890   -8.7440 H   0  0  0  0  0  0  0  0  0  0  0  0
   -7.7790    2.2390   -9.3450 H   0  0  0  0  0  0  0  0  0  0  0  0
   -9.2740    2.2950  -10.2220 H   0  0  0  0  0  0  0  0  0  0  0  0
   -9.5300    1.1630   -8.2170 H   0  0  0  0  0  0  0  0  0  0  0  0
  -10.5020    2.5740   -8.2010 H   0  0  0  0  0  0  0  0  0  0  0  0
   -9.7330    3.0170   -6.2040 H   0  0  0  0  0  0  0  0  0  0  0  0
   -8.3100    2.0460   -6.3580 H   0  0  0  0  0  0  0  0  0  0  0  0
   -7.3530    4.1640   -6.1950 H   0  0  0  0  0  0  0  0  0  0  0  0
   -8.8960    4.8250   -6.5910 H   0  0  0  0  0  0  0  0  0  0  0  0
   -6.7420    3.8670   -8.4920 H   0  0  0  0  0  0  0  0  0  0  0  0
   -7.4910    5.4750   -8.3080 H   0  0  0  0  0  0  0  0  0  0  0  0
   -7.1410    5.5650  -14.3570 H   0  0  0  0  0  0  0  0  0  0  0  0
  -10.0740    5.2430  -15.6590 H   0  0  0  0  0  0  0  0  0  0  0  0
  -10.6410    4.3740  -18.0230 H   0  0  0  0  0  0  0  0  0  0  0  0
   -9.0810    4.3240  -19.7060 H   0  0  0  0  0  0  0  0  0  0  0  0
   -6.4730    5.8180  -21.6030 H   0  0  0  0  0  0  0  0  0  0  0  0
   -5.7510    4.2220  -21.3890 H   0  0  0  0  0  0  0  0  0  0  0  0
   -7.5210    4.4120  -21.1880 H   0  0  0  0  0  0  0  0  0  0  0  0
   -6.0800    5.9950  -17.0530 H   0  0  0  0  0  0  0  0  0  0  0  0
  1  2  2  0
  1  3  2  0
  1  4  1  0
  4  5  2  0
  5  6  1  0
  6  7  2  0
  7  8  1  0
  8  9  2  0
  7 10  1  0
 10 11  1  0
 11 12  1  0
 12 13  1  0
 13 14  1  0
 14 15  1  0
  1 16  1  0
 16 17  1  0
 17 18  2  0
 18 19  1  0
 19 20  2  0
 20 21  1  0
 21 22  1  0
 22 23  1  0
 22 24  2  0
 21 25  2  0
  9  4  1  0
 15 10  1  0
 25 17  1  0
  5 26  1  0
  6 27  1  0
  8 28  1  0
  9 29  1  0
 10 30  1  0
 11 31  1  0
 11 32  1  0
 12 33  1  0
 12 34  1  0
 13 35  1  0
 13 36  1  0
 14 37  1  0
 14 38  1  0
 15 39  1  0
 15 40  1  0
 16 41  1  0
 18 42  1  0
 19 43  1  0
 20 44  1  0
 23 45  1  0
 23 46  1  0
 23 47  1  0
 25 48  1  0
A    1
 S1 
A    2
 O1 
A    3
 O2 
A    4
 C1 
A    5
 C2 
A    6
 C3 
A    7
 C4 
A    8
 C5 
A    9
 C6 
A   10
 C7 
A   11
 C8 
A   12
 C9 
A   13
 C10
A   14
 C11
A   15
 C12
A   16
 N1 
A   17
 C13
A   18
 C14
A   19
 C15
A   20
 C16
A   21
 C17
A   22
 C18
A   23
 C19
A   24
 O3 
A   25
 C20
A   26
 H1 
A   27
 H2 
A   28
 H3 
A   29
 H4 
A   30
 H5 
A   31
 H6 
A   32
 H7 
A   33
 H8 
A   34
 H9 
A   35
 H10
A   36
 H11
A   37
 H12
A   38
 H13
A   39
 H14
A   40
 H15
A   41
 H16
A   42
 H17
A   43
 H18
A   44
 H19
A   45
 H20
A   46
 H21
A   47
 H22
A   48
 H23
M  END
>  <ref_pdb>  (385) 
x0051_0B

>  <ref_mols>  (385) 
x0435_0B,x0404_0B

>  <original SMILES>  (385) 
[H]c1c([H])c(C(=O)C([H])([H])[H])c([H])c(N([H])S(=O)(=O)c2c([H])c([H])c(C3([H])C([H])([H])C([H])([H])C([H])([H])C([H])([H])C3([H])[H])c([H])c2[H])c1[H]

>  <index>  (385) 
409

>  <∆∆G>  (385) 
-7.661552

>  <∆G_bound>  (385) 
-7.785081

>  <∆G_unbound>  (385) 
-0.123529

>  <comRMSD>  (385) 
0.995473

>  <N_constrained_atoms>  (385) 
25.0

>  <N_unconstrained_atoms>  (385) 
1.0

>  <runtime>  (385) 
91.769649

>  <LE>  (385) 
0.294675

>  <percent_hybrid>  (385) 
40.0

>  <dist>  (385) 
10.0

>  <ecfp4>  (385) 
0.134831

>  <daylight>  (385) 
0.181818

>  <topodist>  (385) 
3.0

>  <mces>  (385) 
27.0

>  <tdn>  (385) 
1.0

>  <tup>  (385) 
0.0

>  <rdn>  (385) 
1.0

>  <rup>  (385) 
0.0

>  <ldn>  (385) 
1.0

>  <lup>  (385) 
0.0

>  <mut>  (385) 
6.0

>  <maj>  (385) 
6.0

>  <min>  (385) 
0.0

>  <hyb>  (385) 
1.0

>  <sub>  (385) 
1.0

>  <query_index>  (385) 
26.0

>  <max_hit_Tanimoto>  (385) 
0.204545

>  <largest_ring>  (385) 
0

>  <N_interactions_kept>  (385) 
3.5

>  <N_interactions_lost>  (385) 
1.0

>  <interaction_uniqueness_metric>  (385) 
0.066661

>  <ad_hoc_penalty>  (385) 
-19.184195

>  <N_rotatable_bonds>  (385) 
6

>  <N_HA>  (385) 
25

>  <cluster>  (385) 
5845

>  <N_interactions>  (385) 
5

>  <Enamine>  (385) 
0

>  <Mcule>  (385) 
1

>  <N_PAINS>  (385) 
0

>  <UFF_Gibbs>  (385) 
170.955534

>  <strain_per_HA>  (385) 
6.838221

>  <saltbridge:HIS:51>  (385) 
0

>  <pistack:HIS:51>  (385) 
1

>  <hydroph_interaction:HIS:51>  (385) 
0

>  <hbond:ALA:132>  (385) 
0

>  <hbond:SER:135>  (385) 
0

>  <hydroph_interaction:TYR:150>  (385) 
0

>  <pistack:TYR:161>  (385) 
0

>  <hydroph_interaction:TYR:161>  (385) 
3

>  <hydroph_interaction:ASP:83>  (385) 
0

>  <hbond:TYR:130>  (385) 
0

>  <hydroph_interaction:ALA:132>  (385) 
1

>  <hbond:HIS:51>  (385) 
0

>  <hbond:ASP:129>  (385) 
0

>  <hbond:TYR:150>  (385) 
0

>  <hbond:GLY:151>  (385) 
0

>  <hbond:TYR:161>  (385) 
0

>  <hydroph_interaction:TYR:130>  (385) 
0

>  <hydroph_interaction:PRO:131>  (385) 
0

>  <hydroph_interaction:ASP:129>  (385) 
0

>  <saltbridge:ASP:75>  (385) 
0

>  <saltbridge:ASP:83>  (385) 
0

>  <hydroph_interaction:ASN:152>  (385) 
0

>  <halogenbond:TYR:150>  (385) 
0

>  <hbond:ASP:83>  (385) 
0

>  <hydroph_interaction:VAL:155>  (385) 
0

>  <pication:TYR:161>  (385) 
0

>  <hbond:PRO:131>  (385) 
0

>  <hbond:LEU:128>  (385) 
0

>  <saltbridge:ASP:129>  (385) 
0

>  <hbond:THR:134>  (385) 
0

>  <pication:HIS:51>  (385) 
0

>  <hbond:SER:81>  (385) 
0

>  <hbond:GLY:159>  (385) 
0

>  <hydroph_interaction:PRO:101>  (385) 
0

>  <hydroph_interaction:THR:134>  (385) 
0

>  <hbond:GLY:82>  (385) 
0

>  <hydroph_interaction:GLU:104>  (385) 
0

>  <hydroph_interaction:VAL:36>  (385) 
0

>  <hydroph_interaction:MET:49>  (385) 
0

>  <halogenbond:GLU:104>  (385) 
0

>  <hydroph_interaction:LYS:107>  (385) 
0

$$$$
MCULE-9315742742
     RDKit          3D

 23 24  0  0  0  0  0  0  0  0999 V2000
   -3.2610    5.1440  -16.6220 C   0  0  0  0  0  0  0  0  0  0  0  0
   -4.6060    5.4770  -16.4270 C   0  0  0  0  0  0  0  0  0  0  0  0
   -5.5090    5.3730  -17.6220 C   0  0  0  0  0  0  0  0  0  0  0  0
   -6.9100    5.2130  -17.5450 C   0  0  0  0  0  0  0  0  0  0  0  0
   -7.6140    5.1120  -18.7620 C   0  0  0  0  0  0  0  0  0  0  0  0
   -8.9780    4.9420  -18.7340 C   0  0  0  0  0  0  0  0  0  0  0  0
   -9.7640    4.8660  -17.4530 C   0  0  0  0  0  0  0  0  0  0  0  0
   -9.0590    4.9750  -16.2620 C   0  0  0  0  0  0  0  0  0  0  0  0
   -7.6600    5.1430  -16.3100 C   0  0  0  0  0  0  0  0  0  0  0  0
   -7.0350    5.1670  -19.9650 N   0  0  0  0  0  0  0  0  0  0  0  0
   -5.7190    5.3250  -20.0000 C   0  0  0  0  0  0  0  0  0  0  0  0
   -4.9260    5.4290  -18.8860 C   0  0  0  0  0  0  0  0  0  0  0  0
   -2.7180    4.6530  -15.8170 H   0  0  0  0  0  0  0  0  0  0  0  0
   -2.6930    6.0390  -16.8920 H   0  0  0  0  0  0  0  0  0  0  0  0
   -3.1930    4.4690  -17.4830 H   0  0  0  0  0  0  0  0  0  0  0  0
   -4.9980    4.8180  -15.6430 H   0  0  0  0  0  0  0  0  0  0  0  0
   -4.6400    6.5080  -16.0530 H   0  0  0  0  0  0  0  0  0  0  0  0
   -9.5150    4.8600  -19.6890 H   0  0  0  0  0  0  0  0  0  0  0  0
  -10.8410    4.7300  -17.5580 H   0  0  0  0  0  0  0  0  0  0  0  0
   -9.5800    4.9280  -15.3070 H   0  0  0  0  0  0  0  0  0  0  0  0
   -7.1390    5.2190  -15.3600 H   0  0  0  0  0  0  0  0  0  0  0  0
   -5.2860    5.3650  -21.0000 H   0  0  0  0  0  0  0  0  0  0  0  0
   -3.8600    5.5500  -19.0260 H   0  0  0  0  0  0  0  0  0  0  0  0
  1  2  1  0
  2  3  1  0
  3  4  2  0
  4  5  1  0
  5  6  1  0
  6  7  2  0
  7  8  1  0
  8  9  2  0
  5 10  2  0
 10 11  1  0
 11 12  2  0
 12  3  1  0
  9  4  1  0
  1 13  1  0
  1 14  1  0
  1 15  1  0
  2 16  1  0
  2 17  1  0
  6 18  1  0
  7 19  1  0
  8 20  1  0
  9 21  1  0
 11 22  1  0
 12 23  1  0
A    1
 C1 
A    2
 C2 
A    3
 C3 
A    4
 C4 
A    5
 C5 
A    6
 C6 
A    7
 C7 
A    8
 C8 
A    9
 C9 
A   10
 N1 
A   11
 C10
A   12
 C11
A   13
 H1 
A   14
 H2 
A   15
 H3 
A   16
 H4 
A   17
 H5 
A   18
 H6 
A   19
 H7 
A   20
 H8 
A   21
 H9 
A   22
 H10
A   23
 H11
M  END
>  <ref_pdb>  (386) 
x0051_0B

>  <ref_mols>  (386) 
x0425_0B,x0435_0B

>  <original SMILES>  (386) 
[H]c1nc2c([H])c([H])c([H])c([H])c2c(C([H])([H])C([H])([H])[H])c1[H]

>  <index>  (386) 
723

>  <∆∆G>  (386) 
-6.212201

>  <∆G_bound>  (386) 
-6.238678

>  <∆G_unbound>  (386) 
-0.026477

>  <comRMSD>  (386) 
0.934441

>  <N_constrained_atoms>  (386) 
13.0

>  <N_unconstrained_atoms>  (386) 
0.0

>  <runtime>  (386) 
21.933876

>  <LE>  (386) 
0.477862

>  <percent_hybrid>  (386) 
40.0

>  <dist>  (386) 
2.0

>  <ecfp4>  (386) 
0.341463

>  <daylight>  (386) 
0.573529

>  <topodist>  (386) 
1.0

>  <mces>  (386) 
13.0

>  <tdn>  (386) 
1.0

>  <tup>  (386) 
0.0

>  <rdn>  (386) 
0.0

>  <rup>  (386) 
0.0

>  <ldn>  (386) 
0.0

>  <lup>  (386) 
0.0

>  <mut>  (386) 
1.0

>  <maj>  (386) 
1.0

>  <min>  (386) 
0.0

>  <hyb>  (386) 
0.0

>  <sub>  (386) 
1.0

>  <query_index>  (386) 
107.0

>  <max_hit_Tanimoto>  (386) 
0.180498

>  <largest_ring>  (386) 
6

>  <N_interactions_kept>  (386) 
1.0

>  <N_interactions_lost>  (386) 
2.5

>  <interaction_uniqueness_metric>  (386) 
0.06793

>  <ad_hoc_penalty>  (386) 
-19.168744

>  <N_rotatable_bonds>  (386) 
2

>  <N_HA>  (386) 
12

>  <cluster>  (386) 
5558

>  <N_interactions>  (386) 
6

>  <Enamine>  (386) 
0

>  <Mcule>  (386) 
1

>  <N_PAINS>  (386) 
0

>  <UFF_Gibbs>  (386) 
31.283481

>  <strain_per_HA>  (386) 
2.606957

>  <saltbridge:HIS:51>  (386) 
0

>  <pistack:HIS:51>  (386) 
0

>  <hydroph_interaction:HIS:51>  (386) 
0

>  <hbond:ALA:132>  (386) 
0

>  <hbond:SER:135>  (386) 
0

>  <hydroph_interaction:TYR:150>  (386) 
0

>  <pistack:TYR:161>  (386) 
2

>  <hydroph_interaction:TYR:161>  (386) 
3

>  <hydroph_interaction:ASP:83>  (386) 
0

>  <hbond:TYR:130>  (386) 
0

>  <hydroph_interaction:ALA:132>  (386) 
0

>  <hbond:HIS:51>  (386) 
0

>  <hbond:ASP:129>  (386) 
0

>  <hbond:TYR:150>  (386) 
0

>  <hbond:GLY:151>  (386) 
0

>  <hbond:TYR:161>  (386) 
0

>  <hydroph_interaction:TYR:130>  (386) 
0

>  <hydroph_interaction:PRO:131>  (386) 
0

>  <hydroph_interaction:ASP:129>  (386) 
0

>  <saltbridge:ASP:75>  (386) 
0

>  <saltbridge:ASP:83>  (386) 
0

>  <hydroph_interaction:ASN:152>  (386) 
0

>  <halogenbond:TYR:150>  (386) 
0

>  <hbond:ASP:83>  (386) 
0

>  <hydroph_interaction:VAL:155>  (386) 
1

>  <pication:TYR:161>  (386) 
0

>  <hbond:PRO:131>  (386) 
0

>  <hbond:LEU:128>  (386) 
0

>  <saltbridge:ASP:129>  (386) 
0

>  <hbond:THR:134>  (386) 
0

>  <pication:HIS:51>  (386) 
0

>  <hbond:SER:81>  (386) 
0

>  <hbond:GLY:159>  (386) 
0

>  <hydroph_interaction:PRO:101>  (386) 
0

>  <hydroph_interaction:THR:134>  (386) 
0

>  <hbond:GLY:82>  (386) 
0

>  <hydroph_interaction:GLU:104>  (386) 
0

>  <hydroph_interaction:VAL:36>  (386) 
0

>  <hydroph_interaction:MET:49>  (386) 
0

>  <halogenbond:GLU:104>  (386) 
0

>  <hydroph_interaction:LYS:107>  (386) 
0

$$$$
Z3496110908
     RDKit          3D

 46 49  0  0  0  0  0  0  0  0999 V2000
   -9.2910    4.9010  -19.1910 C   0  0  0  0  0  0  0  0  0  0  0  0
  -10.3020    4.7310  -18.0740 C   0  0  0  0  0  0  0  0  0  0  0  0
   -9.7850    4.8210  -16.5900 C   0  0  0  0  0  0  0  0  0  0  0  0
   -8.2660    5.0810  -16.4700 C   0  0  0  0  0  0  0  0  0  0  0  0
   -7.4690    5.2210  -17.5990 C   0  0  0  0  0  0  0  0  0  0  0  0
   -7.9550    5.1360  -18.9230 C   0  0  0  0  0  0  0  0  0  0  0  0
   -6.0580    5.4660  -17.4160 N   0  0  0  0  0  0  0  0  0  0  0  0
   -5.6900    6.0480  -16.1190 C   0  0  0  0  0  0  0  0  0  0  0  0
   -6.2650    5.2300  -15.1430 C   0  0  0  0  0  0  0  0  0  0  0  0
   -7.6620    5.1680  -15.1700 C   0  0  0  0  0  0  0  0  0  0  0  0
   -8.0730    6.3540  -14.3700 N   0  0  0  0  0  0  0  0  0  0  0  0
   -7.7930    6.2360  -12.9150 C   0  0  0  0  0  0  0  0  0  0  0  0
   -8.7170    5.3980  -12.2470 C   0  0  0  0  0  0  0  0  0  0  0  0
   -8.7660    5.5300  -10.7110 C   0  0  0  0  0  0  0  0  0  0  0  0
   -8.9390    4.4800   -9.8200 C   0  0  0  0  0  0  0  0  0  0  0  0
   -9.0950    3.0940  -10.2910 C   0  0  0  0  0  0  0  0  0  0  0  0
   -9.4490    2.1920   -9.1050 C   0  0  0  0  0  0  0  0  0  0  0  0
   -9.6440    2.8060   -7.7000 C   0  0  0  0  0  0  0  0  0  0  0  0
   -9.0750    4.2080   -7.4480 C   0  0  0  0  0  0  0  0  0  0  0  0
   -8.9350    4.9490   -8.5600 N   0  0  0  0  0  0  0  0  0  0  0  0
   -8.7670    6.2880   -8.5250 N   0  0  0  0  0  0  0  0  0  0  0  0
   -8.6660    6.6400   -9.8280 C   0  0  0  0  0  0  0  0  0  0  0  0
   -9.7030    4.8290  -20.2050 H   0  0  0  0  0  0  0  0  0  0  0  0
  -11.3740    4.5460  -18.1970 H   0  0  0  0  0  0  0  0  0  0  0  0
  -10.4430    4.7060  -15.7380 H   0  0  0  0  0  0  0  0  0  0  0  0
   -7.2680    5.2560  -19.7550 H   0  0  0  0  0  0  0  0  0  0  0  0
   -5.6160    5.9250  -18.2130 H   0  0  0  0  0  0  0  0  0  0  0  0
   -4.6110    6.2250  -16.1170 H   0  0  0  0  0  0  0  0  0  0  0  0
   -6.1430    7.0450  -16.0590 H   0  0  0  0  0  0  0  0  0  0  0  0
   -6.0080    5.7180  -14.1980 H   0  0  0  0  0  0  0  0  0  0  0  0
   -5.7900    4.2600  -15.0330 H   0  0  0  0  0  0  0  0  0  0  0  0
   -8.0890    4.2940  -14.6880 H   0  0  0  0  0  0  0  0  0  0  0  0
   -9.0550    6.5690  -14.5190 H   0  0  0  0  0  0  0  0  0  0  0  0
   -6.8120    5.7520  -12.8310 H   0  0  0  0  0  0  0  0  0  0  0  0
   -7.6320    7.2300  -12.5060 H   0  0  0  0  0  0  0  0  0  0  0  0
   -8.7170    4.3710  -12.6040 H   0  0  0  0  0  0  0  0  0  0  0  0
   -9.6990    5.7430  -12.5820 H   0  0  0  0  0  0  0  0  0  0  0  0
   -9.7380    3.1420  -11.1600 H   0  0  0  0  0  0  0  0  0  0  0  0
   -8.1310    2.7490  -10.6770 H   0  0  0  0  0  0  0  0  0  0  0  0
  -10.3780    1.7100   -9.3600 H   0  0  0  0  0  0  0  0  0  0  0  0
   -8.7090    1.3940   -9.0330 H   0  0  0  0  0  0  0  0  0  0  0  0
  -10.7110    2.8060   -7.4490 H   0  0  0  0  0  0  0  0  0  0  0  0
   -9.1740    2.1210   -6.9850 H   0  0  0  0  0  0  0  0  0  0  0  0
   -9.7390    4.7750   -6.7860 H   0  0  0  0  0  0  0  0  0  0  0  0
   -8.0930    4.1350   -6.9740 H   0  0  0  0  0  0  0  0  0  0  0  0
   -8.5240    7.6850  -10.0760 H   0  0  0  0  0  0  0  0  0  0  0  0
  1  2  2  0
  2  3  1  0
  3  4  2  0
  4  5  1  0
  5  6  2  0
  5  7  1  0
  7  8  1  0
  8  9  1  0
  9 10  1  0
 10 11  1  0
 11 12  1  0
 12 13  1  0
 13 14  1  0
 14 15  2  0
 15 16  1  0
 16 17  1  0
 17 18  1  0
 18 19  1  0
 19 20  1  0
 20 21  1  0
 21 22  2  0
  6  1  1  0
 10  4  1  0
 22 14  1  0
 20 15  1  0
  1 23  1  0
  2 24  1  0
  3 25  1  0
  6 26  1  0
  7 27  1  0
  8 28  1  0
  8 29  1  0
  9 30  1  0
  9 31  1  0
 10 32  1  0
 11 33  1  0
 12 34  1  0
 12 35  1  0
 13 36  1  0
 13 37  1  0
 16 38  1  0
 16 39  1  0
 17 40  1  0
 17 41  1  0
 18 42  1  0
 18 43  1  0
 19 44  1  0
 19 45  1  0
 22 46  1  0
A    1
 C1 
A    2
 C2 
A    3
 C3 
A    4
 C4 
A    5
 C5 
A    6
 C6 
A    7
 N1 
A    8
 C7 
A    9
 C8 
A   10
 C9 
A   11
 N2 
A   12
 C10
A   13
 C11
A   14
 C12
A   15
 C13
A   16
 C14
A   17
 C15
A   18
 C16
A   19
 C17
A   20
 N3 
A   21
 N4 
A   22
 C18
A   23
 H1 
A   24
 H2 
A   25
 H3 
A   26
 H4 
A   27
 H5 
A   28
 H6 
A   29
 H7 
A   30
 H8 
A   31
 H9 
A   32
 H10
A   33
 H11
A   34
 H12
A   35
 H13
A   36
 H14
A   37
 H15
A   38
 H16
A   39
 H17
A   40
 H18
A   41
 H19
A   42
 H20
A   43
 H21
A   44
 H22
A   45
 H23
A   46
 H24
M  END
>  <ref_pdb>  (387) 
x0051_0B

>  <ref_mols>  (387) 
x0969_1B,x0455_0B

>  <original SMILES>  (387) 
[H]c1nn2c(c1C([H])([H])C([H])([H])N([H])C1([H])c3c([H])c([H])c([H])c([H])c3N([H])C([H])([H])C1([H])[H])C([H])([H])C([H])([H])C([H])([H])C2([H])[H]

>  <index>  (387) 
326

>  <∆∆G>  (387) 
-6.508061

>  <∆G_bound>  (387) 
-6.031067

>  <∆G_unbound>  (387) 
0.476994

>  <comRMSD>  (387) 
0.363864

>  <N_constrained_atoms>  (387) 
20.0

>  <N_unconstrained_atoms>  (387) 
2.0

>  <runtime>  (387) 
54.315501

>  <LE>  (387) 
0.295821

>  <percent_hybrid>  (387) 
50.0

>  <dist>  (387) 
4.0

>  <ecfp4>  (387) 
0.364865

>  <daylight>  (387) 
0.331412

>  <topodist>  (387) 
0.0

>  <mces>  (387) 
25.0

>  <tdn>  (387) 
0.0

>  <tup>  (387) 
0.0

>  <rdn>  (387) 
0.0

>  <rup>  (387) 
0.0

>  <ldn>  (387) 
0.0

>  <lup>  (387) 
0.0

>  <mut>  (387) 
4.0

>  <maj>  (387) 
4.0

>  <min>  (387) 
0.0

>  <hyb>  (387) 
0.0

>  <sub>  (387) 
0.0

>  <query_index>  (387) 
204.0

>  <max_hit_Tanimoto>  (387) 
0.313544

>  <largest_ring>  (387) 
0

>  <N_interactions_kept>  (387) 
1.0

>  <N_interactions_lost>  (387) 
1.5

>  <interaction_uniqueness_metric>  (387) 
0.097555

>  <ad_hoc_penalty>  (387) 
-19.133808

>  <N_rotatable_bonds>  (387) 
4

>  <N_HA>  (387) 
22

>  <cluster>  (387) 
5922

>  <N_interactions>  (387) 
6

>  <Enamine>  (387) 
1

>  <Mcule>  (387) 
0

>  <N_PAINS>  (387) 
0

>  <UFF_Gibbs>  (387) 
190.41059

>  <strain_per_HA>  (387) 
8.655027

>  <saltbridge:HIS:51>  (387) 
0

>  <pistack:HIS:51>  (387) 
1

>  <hydroph_interaction:HIS:51>  (387) 
1

>  <hbond:ALA:132>  (387) 
0

>  <hbond:SER:135>  (387) 
0

>  <hydroph_interaction:TYR:150>  (387) 
1

>  <pistack:TYR:161>  (387) 
0

>  <hydroph_interaction:TYR:161>  (387) 
3

>  <hydroph_interaction:ASP:83>  (387) 
0

>  <hbond:TYR:130>  (387) 
0

>  <hydroph_interaction:ALA:132>  (387) 
0

>  <hbond:HIS:51>  (387) 
0

>  <hbond:ASP:129>  (387) 
0

>  <hbond:TYR:150>  (387) 
0

>  <hbond:GLY:151>  (387) 
0

>  <hbond:TYR:161>  (387) 
0

>  <hydroph_interaction:TYR:130>  (387) 
0

>  <hydroph_interaction:PRO:131>  (387) 
0

>  <hydroph_interaction:ASP:129>  (387) 
0

>  <saltbridge:ASP:75>  (387) 
0

>  <saltbridge:ASP:83>  (387) 
0

>  <hydroph_interaction:ASN:152>  (387) 
0

>  <halogenbond:TYR:150>  (387) 
0

>  <hbond:ASP:83>  (387) 
0

>  <hydroph_interaction:VAL:155>  (387) 
0

>  <pication:TYR:161>  (387) 
0

>  <hbond:PRO:131>  (387) 
0

>  <hbond:LEU:128>  (387) 
0

>  <saltbridge:ASP:129>  (387) 
0

>  <hbond:THR:134>  (387) 
0

>  <pication:HIS:51>  (387) 
0

>  <hbond:SER:81>  (387) 
0

>  <hbond:GLY:159>  (387) 
0

>  <hydroph_interaction:PRO:101>  (387) 
0

>  <hydroph_interaction:THR:134>  (387) 
0

>  <hbond:GLY:82>  (387) 
0

>  <hydroph_interaction:GLU:104>  (387) 
0

>  <hydroph_interaction:VAL:36>  (387) 
0

>  <hydroph_interaction:MET:49>  (387) 
0

>  <halogenbond:GLU:104>  (387) 
0

>  <hydroph_interaction:LYS:107>  (387) 
0

$$$$
CSSB00012186507
     RDKit          3D

 17 18  0  0  0  0  0  0  0  0999 V2000
  -10.4570    4.7640  -18.3360 S   0  0  0  0  0  0  0  0  0  0  0  0
   -9.7070    4.9700  -16.8140 C   0  0  0  0  0  0  0  0  0  0  0  0
   -8.2930    5.1560  -16.8180 N   0  0  0  0  0  0  0  0  0  0  0  0
   -7.8990    5.1010  -18.2070 C   0  0  0  0  0  0  0  0  0  0  0  0
   -8.9240    4.8990  -19.1270 C   0  0  0  0  0  0  0  0  0  0  0  0
   -6.4670    5.2280  -18.7290 C   0  0  0  0  0  0  0  0  0  0  0  0
   -5.4720    5.2160  -17.7590 C   0  0  0  0  0  0  0  0  0  0  0  0
   -4.1380    5.3100  -18.1610 C   0  0  0  0  0  0  0  0  0  0  0  0
   -3.8690    5.4110  -19.5090 C   0  0  0  0  0  0  0  0  0  0  0  0
   -4.8970    5.4320  -20.5730 N   0  0  0  0  0  0  0  0  0  0  0  0
   -6.1580    5.3340  -20.0890 C   0  0  0  0  0  0  0  0  0  0  0  0
  -10.1780    4.9780  -15.8270 H   0  0  0  0  0  0  0  0  0  0  0  0
   -8.8730    4.8220  -20.2020 H   0  0  0  0  0  0  0  0  0  0  0  0
   -5.7380    5.1310  -16.7070 H   0  0  0  0  0  0  0  0  0  0  0  0
   -3.3330    5.2990  -17.4350 H   0  0  0  0  0  0  0  0  0  0  0  0
   -2.7990    5.4780  -19.7510 H   0  0  0  0  0  0  0  0  0  0  0  0
   -6.9450    5.3410  -20.8570 H   0  0  0  0  0  0  0  0  0  0  0  0
  1  2  1  0
  2  3  2  0
  3  4  1  0
  4  5  2  0
  4  6  1  0
  6  7  2  0
  7  8  1  0
  8  9  2  0
  9 10  1  0
 10 11  2  0
  5  1  1  0
 11  6  1  0
  2 12  1  0
  5 13  1  0
  7 14  1  0
  8 15  1  0
  9 16  1  0
 11 17  1  0
A    1
 S1 
A    2
 C1 
A    3
 N1 
A    4
 C2 
A    5
 C3 
A    6
 C4 
A    7
 C5 
A    8
 C6 
A    9
 C7 
A   10
 N2 
A   11
 C8 
A   12
 H1 
A   13
 H2 
A   14
 H3 
A   15
 H4 
A   16
 H5 
A   17
 H6 
M  END
>  <ref_pdb>  (388) 
x0051_0B

>  <ref_mols>  (388) 
x0680_0B,x0386_0B

>  <original SMILES>  (388) 
[H]c1nc(-c2c([H])nc([H])c([H])c2[H])c([H])s1

>  <index>  (388) 
608

>  <∆∆G>  (388) 
-5.837742

>  <∆G_bound>  (388) 
-5.749935

>  <∆G_unbound>  (388) 
0.087807

>  <comRMSD>  (388) 
0.652216

>  <N_constrained_atoms>  (388) 
13.0

>  <N_unconstrained_atoms>  (388) 
0.0

>  <runtime>  (388) 
20.266644

>  <LE>  (388) 
0.449057

>  <percent_hybrid>  (388) 
25.0

>  <dist>  (388) 
2.0

>  <ecfp4>  (388) 
0.270833

>  <daylight>  (388) 
0.391304

>  <topodist>  (388) 
1.0

>  <mces>  (388) 
12.0

>  <tdn>  (388) 
1.0

>  <tup>  (388) 
0.0

>  <rdn>  (388) 
0.0

>  <rup>  (388) 
0.0

>  <ldn>  (388) 
0.0

>  <lup>  (388) 
0.0

>  <mut>  (388) 
1.0

>  <maj>  (388) 
0.0

>  <min>  (388) 
1.0

>  <hyb>  (388) 
0.0

>  <sub>  (388) 
1.0

>  <query_index>  (388) 
296.0

>  <max_hit_Tanimoto>  (388) 
0.123188

>  <largest_ring>  (388) 
6

>  <N_interactions_kept>  (388) 
3.5

>  <N_interactions_lost>  (388) 
0.5

>  <interaction_uniqueness_metric>  (388) 
0.013281

>  <ad_hoc_penalty>  (388) 
-19.130425

>  <N_rotatable_bonds>  (388) 
1

>  <N_HA>  (388) 
11

>  <cluster>  (388) 
5662

>  <N_interactions>  (388) 
2

>  <Enamine>  (388) 
1

>  <Mcule>  (388) 
0

>  <N_PAINS>  (388) 
0

>  <UFF_Gibbs>  (388) 
37.087684

>  <strain_per_HA>  (388) 
3.371608

>  <saltbridge:HIS:51>  (388) 
0

>  <pistack:HIS:51>  (388) 
0

>  <hydroph_interaction:HIS:51>  (388) 
0

>  <hbond:ALA:132>  (388) 
0

>  <hbond:SER:135>  (388) 
0

>  <hydroph_interaction:TYR:150>  (388) 
0

>  <pistack:TYR:161>  (388) 
0

>  <hydroph_interaction:TYR:161>  (388) 
2

>  <hydroph_interaction:ASP:83>  (388) 
0

>  <hbond:TYR:130>  (388) 
0

>  <hydroph_interaction:ALA:132>  (388) 
0

>  <hbond:HIS:51>  (388) 
0

>  <hbond:ASP:129>  (388) 
0

>  <hbond:TYR:150>  (388) 
0

>  <hbond:GLY:151>  (388) 
0

>  <hbond:TYR:161>  (388) 
0

>  <hydroph_interaction:TYR:130>  (388) 
0

>  <hydroph_interaction:PRO:131>  (388) 
0

>  <hydroph_interaction:ASP:129>  (388) 
0

>  <saltbridge:ASP:75>  (388) 
0

>  <saltbridge:ASP:83>  (388) 
0

>  <hydroph_interaction:ASN:152>  (388) 
0

>  <halogenbond:TYR:150>  (388) 
0

>  <hbond:ASP:83>  (388) 
0

>  <hydroph_interaction:VAL:155>  (388) 
0

>  <pication:TYR:161>  (388) 
0

>  <hbond:PRO:131>  (388) 
0

>  <hbond:LEU:128>  (388) 
0

>  <saltbridge:ASP:129>  (388) 
0

>  <hbond:THR:134>  (388) 
0

>  <pication:HIS:51>  (388) 
0

>  <hbond:SER:81>  (388) 
0

>  <hbond:GLY:159>  (388) 
0

>  <hydroph_interaction:PRO:101>  (388) 
0

>  <hydroph_interaction:THR:134>  (388) 
0

>  <hbond:GLY:82>  (388) 
0

>  <hydroph_interaction:GLU:104>  (388) 
0

>  <hydroph_interaction:VAL:36>  (388) 
0

>  <hydroph_interaction:MET:49>  (388) 
0

>  <halogenbond:GLU:104>  (388) 
0

>  <hydroph_interaction:LYS:107>  (388) 
0

$$$$
NVBVEJVPYGWTGF-UHFFFAOYSA-N
     RDKit          3D

 49 53  0  0  0  0  0  0  0  0999 V2000
   -6.2450   10.1060  -24.4600 C   0  0  0  0  0  0  0  0  0  0  0  0
   -6.0180    9.7150  -25.8260 N   0  0  0  0  0  0  0  0  0  0  0  0
   -7.2360    9.3820  -26.5470 C   0  0  0  0  0  0  0  0  0  0  0  0
   -7.4740    8.0980  -26.8810 N   0  0  0  0  0  0  0  0  0  0  0  0
   -8.6580    8.0150  -27.4900 C   0  0  0  0  0  0  0  0  0  0  0  0
   -9.2260    9.2720  -27.5800 C   0  0  0  0  0  0  0  0  0  0  0  0
  -10.4490    9.6310  -28.1170 C   0  0  0  0  0  0  0  0  0  0  0  0
  -11.2140    8.5850  -28.6390 C   0  0  0  0  0  0  0  0  0  0  0  0
  -10.6310    7.1540  -28.5800 C   0  0  0  0  0  0  0  0  0  0  0  0
   -9.3700    6.9210  -28.0090 C   0  0  0  0  0  0  0  0  0  0  0  0
   -8.2740   10.2110  -26.9730 N   0  0  0  0  0  0  0  0  0  0  0  0
   -8.3960   11.6460  -26.8350 C   0  0  0  0  0  0  0  0  0  0  0  0
   -6.7440   11.1900  -24.1340 O   0  0  0  0  0  0  0  0  0  0  0  0
   -5.8760    9.1590  -23.3360 C   0  0  0  0  0  0  0  0  0  0  0  0
   -6.0630    7.7600  -23.4150 C   0  0  0  0  0  0  0  0  0  0  0  0
   -5.6200    6.9870  -22.1230 C   0  0  0  0  0  0  0  0  0  0  0  0
   -5.0810    7.5970  -20.9690 C   0  0  0  0  0  0  0  0  0  0  0  0
   -4.6550    6.8860  -19.7640 C   0  0  0  0  0  0  0  0  0  0  0  0
   -5.6660    6.0590  -19.0580 N   0  0  0  0  0  0  0  0  0  0  0  0
   -6.5390    5.2790  -19.7250 C   0  0  0  0  0  0  0  0  0  0  0  0
   -6.4690    4.7800  -20.8120 O   0  0  0  0  0  0  0  0  0  0  0  0
   -7.7300    5.1110  -18.7790 C   0  0  0  0  0  0  0  0  0  0  0  0
   -7.1640    5.4320  -17.4250 C   0  0  0  0  0  0  0  0  0  0  0  0
   -7.9650    5.3710  -16.3060 C   0  0  0  0  0  0  0  0  0  0  0  0
   -9.3100    5.0080  -16.5140 C   0  0  0  0  0  0  0  0  0  0  0  0
   -9.8310    4.7140  -17.8050 C   0  0  0  0  0  0  0  0  0  0  0  0
   -9.0430    4.7610  -18.9550 C   0  0  0  0  0  0  0  0  0  0  0  0
   -5.7510    5.7680  -17.6740 C   0  0  0  0  0  0  0  0  0  0  0  0
   -4.8990    5.7650  -16.7970 O   0  0  0  0  0  0  0  0  0  0  0  0
   -4.9500    8.9970  -21.0350 C   0  0  0  0  0  0  0  0  0  0  0  0
   -5.3320    9.7420  -22.1690 C   0  0  0  0  0  0  0  0  0  0  0  0
   -5.2610    9.0850  -26.0510 H   0  0  0  0  0  0  0  0  0  0  0  0
  -10.7960   10.6610  -28.1300 H   0  0  0  0  0  0  0  0  0  0  0  0
  -12.1910    8.7700  -29.0770 H   0  0  0  0  0  0  0  0  0  0  0  0
  -11.2080    6.3260  -28.9840 H   0  0  0  0  0  0  0  0  0  0  0  0
   -8.9490    5.9240  -27.9570 H   0  0  0  0  0  0  0  0  0  0  0  0
   -7.8820   11.9570  -25.9220 H   0  0  0  0  0  0  0  0  0  0  0  0
   -7.9390   12.1530  -27.6870 H   0  0  0  0  0  0  0  0  0  0  0  0
   -9.4520   11.9040  -26.7920 H   0  0  0  0  0  0  0  0  0  0  0  0
   -6.4790    7.2690  -24.2950 H   0  0  0  0  0  0  0  0  0  0  0  0
   -5.7650    5.9020  -22.1850 H   0  0  0  0  0  0  0  0  0  0  0  0
   -3.8700    6.1900  -20.0830 H   0  0  0  0  0  0  0  0  0  0  0  0
   -4.1810    7.4860  -18.9890 H   0  0  0  0  0  0  0  0  0  0  0  0
   -7.5760    5.5950  -15.3180 H   0  0  0  0  0  0  0  0  0  0  0  0
   -9.9770    4.9500  -15.6550 H   0  0  0  0  0  0  0  0  0  0  0  0
  -10.8800    4.4450  -17.9020 H   0  0  0  0  0  0  0  0  0  0  0  0
   -9.4390    4.5350  -19.9390 H   0  0  0  0  0  0  0  0  0  0  0  0
   -4.5370    9.5350  -20.1800 H   0  0  0  0  0  0  0  0  0  0  0  0
   -5.2020   10.8230  -22.1440 H   0  0  0  0  0  0  0  0  0  0  0  0
  1  2  1  0
  2  3  1  0
  3  4  2  0
  4  5  1  0
  5  6  2  0
  6  7  1  0
  7  8  2  0
  8  9  1  0
  9 10  2  0
  6 11  1  0
 11 12  1  0
  1 13  2  0
  1 14  1  0
 14 15  2  0
 15 16  1  0
 16 17  2  0
 17 18  1  0
 18 19  1  0
 19 20  1  0
 20 21  2  0
 20 22  1  0
 22 23  2  0
 23 24  1  0
 24 25  2  0
 25 26  1  0
 26 27  2  0
 23 28  1  0
 28 29  2  0
 17 30  1  0
 30 31  2  0
 11  3  1  0
 10  5  1  0
 31 14  1  0
 28 19  1  0
 27 22  1  0
  2 32  1  0
  7 33  1  0
  8 34  1  0
  9 35  1  0
 10 36  1  0
 12 37  1  0
 12 38  1  0
 12 39  1  0
 15 40  1  0
 16 41  1  0
 18 42  1  0
 18 43  1  0
 24 44  1  0
 25 45  1  0
 26 46  1  0
 27 47  1  0
 30 48  1  0
 31 49  1  0
A    1
 C1 
A    2
 N1 
A    3
 C2 
A    4
 N2 
A    5
 C3 
A    6
 C4 
A    7
 C5 
A    8
 C6 
A    9
 C7 
A   10
 C8 
A   11
 N3 
A   12
 C9 
A   13
 O1 
A   14
 C10
A   15
 C11
A   16
 C12
A   17
 C13
A   18
 C14
A   19
 N4 
A   20
 C15
A   21
 O2 
A   22
 C16
A   23
 C17
A   24
 C18
A   25
 C19
A   26
 C20
A   27
 C21
A   28
 C22
A   29
 O3 
A   30
 C23
A   31
 C24
A   32
 H1 
A   33
 H2 
A   34
 H3 
A   35
 H4 
A   36
 H5 
A   37
 H6 
A   38
 H7 
A   39
 H8 
A   40
 H9 
A   41
 H10
A   42
 H11
A   43
 H12
A   44
 H13
A   45
 H14
A   46
 H15
A   47
 H16
A   48
 H17
A   49
 H18
M  END
>  <ref_pdb>  (389) 
x0051_0B

>  <ref_mols>  (389) 
x0727_0B,x0846_1B

>  <original SMILES>  (389) 
[H]c1c([H])c([H])c2c(c1[H])C(=O)N(C([H])([H])c1c([H])c([H])c(C(=O)N([H])c3nc4c([H])c([H])c([H])c([H])c4n3C([H])([H])[H])c([H])c1[H])C2=O

>  <index>  (389) 
625

>  <∆∆G>  (389) 
-10.310553

>  <∆G_bound>  (389) 
-9.72916

>  <∆G_unbound>  (389) 
0.581393

>  <comRMSD>  (389) 
0.625451

>  <N_constrained_atoms>  (389) 
29.0

>  <N_unconstrained_atoms>  (389) 
3.0

>  <runtime>  (389) 
58.400056

>  <LE>  (389) 
0.322205

>  <percent_hybrid>  (389) 
38.0

>  <dist>  (389) 
10.0

>  <ecfp4>  (389) 
0.163043

>  <daylight>  (389) 
0.349558

>  <topodist>  (389) 
7.0

>  <mces>  (389) 
32.0

>  <tdn>  (389) 
2.0

>  <tup>  (389) 
3.0

>  <rdn>  (389) 
0.0

>  <rup>  (389) 
0.0

>  <ldn>  (389) 
2.0

>  <lup>  (389) 
0.0

>  <mut>  (389) 
2.0

>  <maj>  (389) 
2.0

>  <min>  (389) 
0.0

>  <hyb>  (389) 
1.0

>  <sub>  (389) 
3.0

>  <query_index>  (389) 
15.0

>  <max_hit_Tanimoto>  (389) 
0.398844

>  <largest_ring>  (389) 
6

>  <N_interactions_kept>  (389) 
0.5

>  <N_interactions_lost>  (389) 
2.5

>  <interaction_uniqueness_metric>  (389) 
0.1581

>  <ad_hoc_penalty>  (389) 
-19.12599

>  <N_rotatable_bonds>  (389) 
5

>  <N_HA>  (389) 
31

>  <cluster>  (389) 
5648

>  <N_interactions>  (389) 
5

>  <Enamine>  (389) 
0

>  <Mcule>  (389) 
1

>  <N_PAINS>  (389) 
0

>  <UFF_Gibbs>  (389) 
144.66207

>  <strain_per_HA>  (389) 
4.666518

>  <saltbridge:HIS:51>  (389) 
0

>  <pistack:HIS:51>  (389) 
0

>  <hydroph_interaction:HIS:51>  (389) 
0

>  <hbond:ALA:132>  (389) 
0

>  <hbond:SER:135>  (389) 
0

>  <hydroph_interaction:TYR:150>  (389) 
1

>  <pistack:TYR:161>  (389) 
1

>  <hydroph_interaction:TYR:161>  (389) 
0

>  <hydroph_interaction:ASP:83>  (389) 
0

>  <hbond:TYR:130>  (389) 
1

>  <hydroph_interaction:ALA:132>  (389) 
0

>  <hbond:HIS:51>  (389) 
0

>  <hbond:ASP:129>  (389) 
0

>  <hbond:TYR:150>  (389) 
0

>  <hbond:GLY:151>  (389) 
0

>  <hbond:TYR:161>  (389) 
0

>  <hydroph_interaction:TYR:130>  (389) 
1

>  <hydroph_interaction:PRO:131>  (389) 
1

>  <hydroph_interaction:ASP:129>  (389) 
0

>  <saltbridge:ASP:75>  (389) 
0

>  <saltbridge:ASP:83>  (389) 
0

>  <hydroph_interaction:ASN:152>  (389) 
0

>  <halogenbond:TYR:150>  (389) 
0

>  <hbond:ASP:83>  (389) 
0

>  <hydroph_interaction:VAL:155>  (389) 
0

>  <pication:TYR:161>  (389) 
0

>  <hbond:PRO:131>  (389) 
0

>  <hbond:LEU:128>  (389) 
0

>  <saltbridge:ASP:129>  (389) 
0

>  <hbond:THR:134>  (389) 
0

>  <pication:HIS:51>  (389) 
0

>  <hbond:SER:81>  (389) 
0

>  <hbond:GLY:159>  (389) 
0

>  <hydroph_interaction:PRO:101>  (389) 
0

>  <hydroph_interaction:THR:134>  (389) 
0

>  <hbond:GLY:82>  (389) 
0

>  <hydroph_interaction:GLU:104>  (389) 
0

>  <hydroph_interaction:VAL:36>  (389) 
0

>  <hydroph_interaction:MET:49>  (389) 
0

>  <halogenbond:GLU:104>  (389) 
0

>  <hydroph_interaction:LYS:107>  (389) 
0

$$$$
Z2090267504
     RDKit          3D

 52 55  0  0  0  0  0  0  0  0999 V2000
  -10.7230    5.0210  -18.7080 C   0  0  0  0  0  0  0  0  0  0  0  0
   -9.4180    4.7000  -18.4290 N   0  0  0  0  0  0  0  0  0  0  0  0
   -8.8620    5.0350  -17.1330 C   0  0  0  0  0  0  0  0  0  0  0  0
   -9.3620    4.6660  -16.1070 O   0  0  0  0  0  0  0  0  0  0  0  0
   -7.7480    5.8120  -17.1940 N   0  0  0  0  0  0  0  0  0  0  0  0
   -6.6440    5.6560  -18.0200 C   0  0  0  0  0  0  0  0  0  0  0  0
   -6.7760    5.6280  -19.5160 C   0  0  0  0  0  0  0  0  0  0  0  0
   -5.5030    5.4720  -20.2280 C   0  0  0  0  0  0  0  0  0  0  0  0
   -5.6630    5.4740  -21.5930 N   0  0  0  0  0  0  0  0  0  0  0  0
   -4.7550    6.1160  -22.3560 C   0  0  0  0  0  0  0  0  0  0  0  0
   -3.6490    5.7190  -22.6990 O   0  0  0  0  0  0  0  0  0  0  0  0
   -5.1190    7.3410  -22.7700 C   0  0  0  0  0  0  0  0  0  0  0  0
   -6.0040    7.2970  -23.8670 C   0  0  0  0  0  0  0  0  0  0  0  0
   -6.4350    8.5970  -24.4270 C   0  0  0  0  0  0  0  0  0  0  0  0
   -5.9710    9.8760  -23.8770 C   0  0  0  0  0  0  0  0  0  0  0  0
   -6.5250   11.3360  -24.6740 S   0  0  0  0  0  0  0  0  0  0  0  0
   -6.2720   10.6990  -26.3250 C   0  0  0  0  0  0  0  0  0  0  0  0
   -7.3900    9.8620  -26.8860 C   0  0  0  0  0  0  0  0  0  0  0  0
   -7.3660    8.5620  -27.2200 N   0  0  0  0  0  0  0  0  0  0  0  0
   -8.6320    8.2440  -27.6490 C   0  0  0  0  0  0  0  0  0  0  0  0
   -9.1920    7.0290  -28.1050 C   0  0  0  0  0  0  0  0  0  0  0  0
  -10.6540    6.8840  -28.5280 C   0  0  0  0  0  0  0  0  0  0  0  0
  -11.5200    8.1530  -28.4360 C   0  0  0  0  0  0  0  0  0  0  0  0
  -10.9230    9.4500  -27.9570 C   0  0  0  0  0  0  0  0  0  0  0  0
   -9.4660    9.5140  -27.5550 C   0  0  0  0  0  0  0  0  0  0  0  0
   -8.6170   10.4500  -27.0900 N   0  0  0  0  0  0  0  0  0  0  0  0
   -5.1110    9.8830  -22.7720 C   0  0  0  0  0  0  0  0  0  0  0  0
   -4.6570    8.5390  -22.1810 C   0  0  0  0  0  0  0  0  0  0  0  0
   -4.2790    5.3520  -19.5540 C   0  0  0  0  0  0  0  0  0  0  0  0
   -4.2230    5.3780  -18.1640 C   0  0  0  0  0  0  0  0  0  0  0  0
   -5.3950    5.5310  -17.4170 C   0  0  0  0  0  0  0  0  0  0  0  0
   -5.3130    5.5630  -16.0760 F   0  0  0  0  0  0  0  0  0  0  0  0
  -11.0770    5.7570  -18.0030 H   0  0  0  0  0  0  0  0  0  0  0  0
  -11.3470    4.1410  -18.6300 H   0  0  0  0  0  0  0  0  0  0  0  0
  -10.8100    5.4390  -19.7170 H   0  0  0  0  0  0  0  0  0  0  0  0
   -9.2730    3.7070  -18.6110 H   0  0  0  0  0  0  0  0  0  0  0  0
   -7.5780    6.3870  -16.3800 H   0  0  0  0  0  0  0  0  0  0  0  0
   -7.7320    5.7230  -20.0240 H   0  0  0  0  0  0  0  0  0  0  0  0
   -6.6440    5.6630  -21.8560 H   0  0  0  0  0  0  0  0  0  0  0  0
   -6.3350    6.3400  -24.2720 H   0  0  0  0  0  0  0  0  0  0  0  0
   -7.1130    8.6290  -25.2790 H   0  0  0  0  0  0  0  0  0  0  0  0
   -5.3290   10.1430  -26.3630 H   0  0  0  0  0  0  0  0  0  0  0  0
   -6.1400   11.5710  -26.9760 H   0  0  0  0  0  0  0  0  0  0  0  0
   -8.5180    6.1720  -28.1420 H   0  0  0  0  0  0  0  0  0  0  0  0
  -11.0550    5.9340  -28.8730 H   0  0  0  0  0  0  0  0  0  0  0  0
  -12.5720    8.1180  -28.7200 H   0  0  0  0  0  0  0  0  0  0  0  0
  -11.5570   10.3410  -27.9010 H   0  0  0  0  0  0  0  0  0  0  0  0
   -8.8500   11.4150  -26.9090 H   0  0  0  0  0  0  0  0  0  0  0  0
   -4.7560   10.8170  -22.3360 H   0  0  0  0  0  0  0  0  0  0  0  0
   -3.9820    8.5140  -21.3280 H   0  0  0  0  0  0  0  0  0  0  0  0
   -3.3440    5.2370  -20.0940 H   0  0  0  0  0  0  0  0  0  0  0  0
   -3.2690    5.2820  -17.6530 H   0  0  0  0  0  0  0  0  0  0  0  0
  1  2  1  0
  2  3  1  0
  3  4  2  0
  3  5  1  0
  5  6  1  0
  6  7  2  0
  7  8  1  0
  8  9  1  0
  9 10  1  0
 10 11  2  0
 10 12  1  0
 12 13  2  0
 13 14  1  0
 14 15  2  0
 15 16  1  0
 16 17  1  0
 17 18  1  0
 18 19  2  0
 19 20  1  0
 20 21  2  0
 21 22  1  0
 22 23  2  0
 23 24  1  0
 24 25  2  0
 25 26  1  0
 15 27  1  0
 27 28  2  0
  8 29  2  0
 29 30  1  0
 30 31  2  0
 31 32  1  0
 31  6  1  0
 28 12  1  0
 26 18  1  0
 25 20  1  0
  1 33  1  0
  1 34  1  0
  1 35  1  0
  2 36  1  0
  5 37  1  0
  7 38  1  0
  9 39  1  0
 13 40  1  0
 14 41  1  0
 17 42  1  0
 17 43  1  0
 21 44  1  0
 22 45  1  0
 23 46  1  0
 24 47  1  0
 26 48  1  0
 27 49  1  0
 28 50  1  0
 29 51  1  0
 30 52  1  0
A    1
 C1 
A    2
 N1 
A    3
 C2 
A    4
 O1 
A    5
 N2 
A    6
 C3 
A    7
 C4 
A    8
 C5 
A    9
 N3 
A   10
 C6 
A   11
 O2 
A   12
 C7 
A   13
 C8 
A   14
 C9 
A   15
 C10
A   16
 S1 
A   17
 C11
A   18
 C12
A   19
 N4 
A   20
 C13
A   21
 C14
A   22
 C15
A   23
 C16
A   24
 C17
A   25
 C18
A   26
 N5 
A   27
 C19
A   28
 C20
A   29
 C21
A   30
 C22
A   31
 C23
A   32
 F1 
A   33
 H1 
A   34
 H2 
A   35
 H3 
A   36
 H4 
A   37
 H5 
A   38
 H6 
A   39
 H7 
A   40
 H8 
A   41
 H9 
A   42
 H10
A   43
 H11
A   44
 H12
A   45
 H13
A   46
 H14
A   47
 H15
A   48
 H16
A   49
 H17
A   50
 H18
A   51
 H19
A   52
 H20
M  END
>  <ref_pdb>  (390) 
x0051_0B

>  <ref_mols>  (390) 
x0846_1B,x0680_0B

>  <original SMILES>  (390) 
[H]c1c([H])c(N([H])C(=O)c2c([H])c([H])c(SC([H])([H])c3nc4c([H])c([H])c([H])c([H])c4n3[H])c([H])c2[H])c([H])c(N([H])C(=O)N([H])C([H])([H])[H])c1F

>  <index>  (390) 
512

>  <∆∆G>  (390) 
-9.41033

>  <∆G_bound>  (390) 
-8.266135

>  <∆G_unbound>  (390) 
1.144195

>  <comRMSD>  (390) 
0.711323

>  <N_constrained_atoms>  (390) 
29.0

>  <N_unconstrained_atoms>  (390) 
3.0

>  <runtime>  (390) 
52.861366

>  <LE>  (390) 
0.294073

>  <percent_hybrid>  (390) 
38.0

>  <dist>  (390) 
8.0

>  <ecfp4>  (390) 
0.212766

>  <daylight>  (390) 
0.4

>  <topodist>  (390) 
4.0

>  <mces>  (390) 
32.0

>  <tdn>  (390) 
1.0

>  <tup>  (390) 
1.0

>  <rdn>  (390) 
0.0

>  <rup>  (390) 
0.0

>  <ldn>  (390) 
0.0

>  <lup>  (390) 
2.0

>  <mut>  (390) 
4.0

>  <maj>  (390) 
4.0

>  <min>  (390) 
0.0

>  <hyb>  (390) 
0.0

>  <sub>  (390) 
1.0

>  <query_index>  (390) 
100.0

>  <max_hit_Tanimoto>  (390) 
0.28844

>  <largest_ring>  (390) 
6

>  <N_interactions_kept>  (390) 
1.5

>  <N_interactions_lost>  (390) 
2.5

>  <interaction_uniqueness_metric>  (390) 
0.201132

>  <ad_hoc_penalty>  (390) 
-19.059642

>  <N_rotatable_bonds>  (390) 
7

>  <N_HA>  (390) 
32

>  <cluster>  (390) 
522

>  <N_interactions>  (390) 
7

>  <Enamine>  (390) 
1

>  <Mcule>  (390) 
0

>  <N_PAINS>  (390) 
0

>  <UFF_Gibbs>  (390) 
217.037854

>  <strain_per_HA>  (390) 
6.782433

>  <saltbridge:HIS:51>  (390) 
0

>  <pistack:HIS:51>  (390) 
0

>  <hydroph_interaction:HIS:51>  (390) 
0

>  <hbond:ALA:132>  (390) 
0

>  <hbond:SER:135>  (390) 
0

>  <hydroph_interaction:TYR:150>  (390) 
0

>  <pistack:TYR:161>  (390) 
1

>  <hydroph_interaction:TYR:161>  (390) 
1

>  <hydroph_interaction:ASP:83>  (390) 
0

>  <hbond:TYR:130>  (390) 
2

>  <hydroph_interaction:ALA:132>  (390) 
0

>  <hbond:HIS:51>  (390) 
0

>  <hbond:ASP:129>  (390) 
1

>  <hbond:TYR:150>  (390) 
0

>  <hbond:GLY:151>  (390) 
0

>  <hbond:TYR:161>  (390) 
0

>  <hydroph_interaction:TYR:130>  (390) 
1

>  <hydroph_interaction:PRO:131>  (390) 
1

>  <hydroph_interaction:ASP:129>  (390) 
0

>  <saltbridge:ASP:75>  (390) 
0

>  <saltbridge:ASP:83>  (390) 
0

>  <hydroph_interaction:ASN:152>  (390) 
0

>  <halogenbond:TYR:150>  (390) 
0

>  <hbond:ASP:83>  (390) 
0

>  <hydroph_interaction:VAL:155>  (390) 
0

>  <pication:TYR:161>  (390) 
0

>  <hbond:PRO:131>  (390) 
0

>  <hbond:LEU:128>  (390) 
0

>  <saltbridge:ASP:129>  (390) 
0

>  <hbond:THR:134>  (390) 
0

>  <pication:HIS:51>  (390) 
0

>  <hbond:SER:81>  (390) 
0

>  <hbond:GLY:159>  (390) 
0

>  <hydroph_interaction:PRO:101>  (390) 
0

>  <hydroph_interaction:THR:134>  (390) 
0

>  <hbond:GLY:82>  (390) 
0

>  <hydroph_interaction:GLU:104>  (390) 
0

>  <hydroph_interaction:VAL:36>  (390) 
0

>  <hydroph_interaction:MET:49>  (390) 
0

>  <halogenbond:GLU:104>  (390) 
0

>  <hydroph_interaction:LYS:107>  (390) 
0

$$$$
CAVVDSMLZCEPNR-UHFFFAOYSA-N
     RDKit          3D

 45 47  0  0  0  0  0  0  0  0999 V2000
   -8.9130    7.4420  -13.8800 C   0  0  0  0  0  0  0  0  0  0  0  0
   -7.6940    7.3990  -14.4600 N   0  0  0  0  0  0  0  0  0  0  0  0
   -7.1040    6.1670  -14.8380 C   0  0  0  0  0  0  0  0  0  0  0  0
   -7.4730    5.6500  -16.2150 C   0  0  0  0  0  0  0  0  0  0  0  0
   -6.4700    5.4350  -17.1060 C   0  0  0  0  0  0  0  0  0  0  0  0
   -5.2150    5.6660  -16.7120 F   0  0  0  0  0  0  0  0  0  0  0  0
   -6.6840    4.9710  -18.4660 C   0  0  0  0  0  0  0  0  0  0  0  0
   -8.1190    4.7310  -18.8500 C   0  0  0  0  0  0  0  0  0  0  0  0
   -8.4110    4.3060  -20.0820 F   0  0  0  0  0  0  0  0  0  0  0  0
   -9.1070    4.9580  -17.9130 C   0  0  0  0  0  0  0  0  0  0  0  0
  -10.5330    4.7410  -18.3150 C   0  0  0  0  0  0  0  0  0  0  0  0
  -11.5980    4.6410  -18.6500 N   0  0  0  0  0  0  0  0  0  0  0  0
   -8.7970    5.4080  -16.6060 C   0  0  0  0  0  0  0  0  0  0  0  0
  -10.0760    8.0880  -14.3560 O   0  0  0  0  0  0  0  0  0  0  0  0
   -8.9470    6.6810  -12.6250 C   0  0  0  0  0  0  0  0  0  0  0  0
   -8.8510    7.4010  -11.2910 C   0  0  0  0  0  0  0  0  0  0  0  0
   -8.8830    6.5970  -10.1690 C   0  0  0  0  0  0  0  0  0  0  0  0
   -9.0050    5.0890  -10.2940 C   0  0  0  0  0  0  0  0  0  0  0  0
   -9.0400    4.3360   -9.1450 N   0  0  0  0  0  0  0  0  0  0  0  0
   -9.1720    2.8720   -9.3010 C   0  0  0  0  0  0  0  0  0  0  0  0
   -9.4780    2.3410   -7.9250 C   0  0  0  0  0  0  0  0  0  0  0  0
   -8.4420    2.8570   -7.0200 C   0  0  0  0  0  0  0  0  0  0  0  0
   -8.7450    4.3010   -6.7890 C   0  0  0  0  0  0  0  0  0  0  0  0
   -8.3780    4.9510   -7.9590 C   0  0  0  0  0  0  0  0  0  0  0  0
   -9.0840    4.5150  -11.5570 C   0  0  0  0  0  0  0  0  0  0  0  0
   -9.0570    5.2910  -12.7030 C   0  0  0  0  0  0  0  0  0  0  0  0
   -7.5000    8.1050  -15.1680 H   0  0  0  0  0  0  0  0  0  0  0  0
   -6.0110    6.2550  -14.8000 H   0  0  0  0  0  0  0  0  0  0  0  0
   -7.3670    5.3960  -14.1040 H   0  0  0  0  0  0  0  0  0  0  0  0
   -5.8630    4.8100  -19.1590 H   0  0  0  0  0  0  0  0  0  0  0  0
   -9.6060    5.5810  -15.8920 H   0  0  0  0  0  0  0  0  0  0  0  0
   -8.7620    8.4830  -11.2130 H   0  0  0  0  0  0  0  0  0  0  0  0
   -8.8190    7.0640   -9.1900 H   0  0  0  0  0  0  0  0  0  0  0  0
  -10.0550    2.6460   -9.9150 H   0  0  0  0  0  0  0  0  0  0  0  0
   -8.3120    2.4920   -9.8440 H   0  0  0  0  0  0  0  0  0  0  0  0
   -9.4980    1.2590   -7.9350 H   0  0  0  0  0  0  0  0  0  0  0  0
  -10.4670    2.6850   -7.5980 H   0  0  0  0  0  0  0  0  0  0  0  0
   -8.3380    2.2970   -6.1050 H   0  0  0  0  0  0  0  0  0  0  0  0
   -7.4880    2.8080   -7.5380 H   0  0  0  0  0  0  0  0  0  0  0  0
   -9.8120    4.4450   -6.5790 H   0  0  0  0  0  0  0  0  0  0  0  0
   -8.1690    4.6790   -5.9350 H   0  0  0  0  0  0  0  0  0  0  0  0
   -7.2850    4.9050   -8.0310 H   0  0  0  0  0  0  0  0  0  0  0  0
   -8.6540    6.0110   -7.8910 H   0  0  0  0  0  0  0  0  0  0  0  0
   -9.1730    3.4380  -11.6810 H   0  0  0  0  0  0  0  0  0  0  0  0
   -9.1220    4.7870  -13.6630 H   0  0  0  0  0  0  0  0  0  0  0  0
  1  2  1  0
  2  3  1  0
  3  4  1  0
  4  5  2  0
  5  6  1  0
  5  7  1  0
  7  8  2  0
  8  9  1  0
  8 10  1  0
 10 11  1  0
 11 12  3  0
 10 13  2  0
  1 14  2  0
  1 15  1  0
 15 16  2  0
 16 17  1  0
 17 18  2  0
 18 19  1  0
 19 20  1  0
 20 21  1  0
 21 22  1  0
 22 23  1  0
 23 24  1  0
 18 25  1  0
 25 26  2  0
 13  4  1  0
 26 15  1  0
 24 19  1  0
  2 27  1  0
  3 28  1  0
  3 29  1  0
  7 30  1  0
 13 31  1  0
 16 32  1  0
 17 33  1  0
 20 34  1  0
 20 35  1  0
 21 36  1  0
 21 37  1  0
 22 38  1  0
 22 39  1  0
 23 40  1  0
 23 41  1  0
 24 42  1  0
 24 43  1  0
 25 44  1  0
 26 45  1  0
A    1
 C1 
A    2
 N1 
A    3
 C2 
A    4
 C3 
A    5
 C4 
A    6
 F1 
A    7
 C5 
A    8
 C6 
A    9
 F2 
A   10
 C7 
A   11
 C8 
A   12
 N2 
A   13
 C9 
A   14
 O1 
A   15
 C10
A   16
 C11
A   17
 C12
A   18
 C13
A   19
 N3 
A   20
 C14
A   21
 C15
A   22
 C16
A   23
 C17
A   24
 C18
A   25
 C19
A   26
 C20
A   27
 H1 
A   28
 H2 
A   29
 H3 
A   30
 H4 
A   31
 H5 
A   32
 H6 
A   33
 H7 
A   34
 H8 
A   35
 H9 
A   36
 H10
A   37
 H11
A   38
 H12
A   39
 H13
A   40
 H14
A   41
 H15
A   42
 H16
A   43
 H17
A   44
 H18
A   45
 H19
M  END
>  <ref_pdb>  (391) 
x0051_0B

>  <ref_mols>  (391) 
x0553_0B,x0404_0B

>  <original SMILES>  (391) 
[H]c1c(F)c(C#N)c([H])c(C([H])([H])N([H])C(=O)c2c([H])c([H])c(N3C([H])([H])C([H])([H])C([H])([H])C([H])([H])C3([H])[H])c([H])c2[H])c1F

>  <index>  (391) 
712

>  <∆∆G>  (391) 
-5.338009

>  <∆G_bound>  (391) 
-4.670238

>  <∆G_unbound>  (391) 
0.667771

>  <comRMSD>  (391) 
0.727577

>  <N_constrained_atoms>  (391) 
24.0

>  <N_unconstrained_atoms>  (391) 
2.0

>  <runtime>  (391) 
71.934139

>  <LE>  (391) 
0.205308

>  <percent_hybrid>  (391) 
38.0

>  <dist>  (391) 
7.0

>  <ecfp4>  (391) 
0.231707

>  <daylight>  (391) 
0.230392

>  <topodist>  (391) 
2.0

>  <mces>  (391) 
27.0

>  <tdn>  (391) 
1.0

>  <tup>  (391) 
1.0

>  <rdn>  (391) 
0.0

>  <rup>  (391) 
0.0

>  <ldn>  (391) 
0.0

>  <lup>  (391) 
0.0

>  <mut>  (391) 
4.0

>  <maj>  (391) 
4.0

>  <min>  (391) 
0.0

>  <hyb>  (391) 
1.0

>  <sub>  (391) 
1.0

>  <query_index>  (391) 
112.0

>  <max_hit_Tanimoto>  (391) 
0.222826

>  <largest_ring>  (391) 
6

>  <N_interactions_kept>  (391) 
1.0

>  <N_interactions_lost>  (391) 
2.5

>  <interaction_uniqueness_metric>  (391) 
0.348729

>  <ad_hoc_penalty>  (391) 
-19.05284

>  <N_rotatable_bonds>  (391) 
4

>  <N_HA>  (391) 
26

>  <cluster>  (391) 
521

>  <N_interactions>  (391) 
7

>  <Enamine>  (391) 
0

>  <Mcule>  (391) 
1

>  <N_PAINS>  (391) 
0

>  <UFF_Gibbs>  (391) 
154.923544

>  <strain_per_HA>  (391) 
5.958598

>  <saltbridge:HIS:51>  (391) 
0

>  <pistack:HIS:51>  (391) 
1

>  <hydroph_interaction:HIS:51>  (391) 
1

>  <hbond:ALA:132>  (391) 
0

>  <hbond:SER:135>  (391) 
0

>  <hydroph_interaction:TYR:150>  (391) 
0

>  <pistack:TYR:161>  (391) 
1

>  <hydroph_interaction:TYR:161>  (391) 
1

>  <hydroph_interaction:ASP:83>  (391) 
1

>  <hbond:TYR:130>  (391) 
0

>  <hydroph_interaction:ALA:132>  (391) 
1

>  <hbond:HIS:51>  (391) 
0

>  <hbond:ASP:129>  (391) 
0

>  <hbond:TYR:150>  (391) 
0

>  <hbond:GLY:151>  (391) 
0

>  <hbond:TYR:161>  (391) 
0

>  <hydroph_interaction:TYR:130>  (391) 
0

>  <hydroph_interaction:PRO:131>  (391) 
0

>  <hydroph_interaction:ASP:129>  (391) 
0

>  <saltbridge:ASP:75>  (391) 
0

>  <saltbridge:ASP:83>  (391) 
0

>  <hydroph_interaction:ASN:152>  (391) 
0

>  <halogenbond:TYR:150>  (391) 
1

>  <hbond:ASP:83>  (391) 
0

>  <hydroph_interaction:VAL:155>  (391) 
0

>  <pication:TYR:161>  (391) 
0

>  <hbond:PRO:131>  (391) 
0

>  <hbond:LEU:128>  (391) 
0

>  <saltbridge:ASP:129>  (391) 
0

>  <hbond:THR:134>  (391) 
0

>  <pication:HIS:51>  (391) 
0

>  <hbond:SER:81>  (391) 
0

>  <hbond:GLY:159>  (391) 
0

>  <hydroph_interaction:PRO:101>  (391) 
0

>  <hydroph_interaction:THR:134>  (391) 
0

>  <hbond:GLY:82>  (391) 
0

>  <hydroph_interaction:GLU:104>  (391) 
0

>  <hydroph_interaction:VAL:36>  (391) 
0

>  <hydroph_interaction:MET:49>  (391) 
0

>  <halogenbond:GLU:104>  (391) 
0

>  <hydroph_interaction:LYS:107>  (391) 
0

$$$$
MCULE-3978741046
     RDKit          3D

 46 46  0  0  0  0  0  0  0  0999 V2000
   -8.4290    5.8570  -16.4130 N   0  0  0  0  0  0  0  0  0  0  0  0
   -9.1890    4.8050  -16.8990 C   0  0  0  0  0  0  0  0  0  0  0  0
   -9.3870    4.5930  -18.3610 C   0  0  0  0  0  0  0  0  0  0  0  0
   -8.3010    4.9520  -19.1300 C   0  0  0  0  0  0  0  0  0  0  0  0
   -6.9640    5.0890  -18.3760 C   0  0  0  0  0  0  0  0  0  0  0  0
   -5.8280    5.5290  -19.0720 C   0  0  0  0  0  0  0  0  0  0  0  0
   -4.4380    5.4640  -18.3570 C   0  0  0  0  0  0  0  0  0  0  0  0
   -7.1020    5.9340  -17.0840 C   0  0  0  0  0  0  0  0  0  0  0  0
   -7.7590    5.4840  -15.1310 C   0  0  0  0  0  0  0  0  0  0  0  0
   -8.7070    5.4190  -13.9250 C   0  0  0  0  0  0  0  0  0  0  0  0
   -9.0340    6.8490  -13.4900 C   0  0  0  0  0  0  0  0  0  0  0  0
  -10.2920    7.3700  -14.1610 C   0  0  0  0  0  0  0  0  0  0  0  0
  -10.6960    8.6800  -13.9590 C   0  0  0  0  0  0  0  0  0  0  0  0
   -8.0720    4.6940  -12.8010 N   0  0  0  0  0  0  0  0  0  0  0  0
   -9.0720    3.9870  -12.0030 C   0  0  0  0  0  0  0  0  0  0  0  0
   -8.6620    2.7860  -11.4390 C   0  0  0  0  0  0  0  0  0  0  0  0
   -8.7150    3.8990  -16.5280 H   0  0  0  0  0  0  0  0  0  0  0  0
  -10.1760    4.8470  -16.4380 H   0  0  0  0  0  0  0  0  0  0  0  0
  -10.2700    5.1480  -18.6950 H   0  0  0  0  0  0  0  0  0  0  0  0
   -9.6030    3.5350  -18.5440 H   0  0  0  0  0  0  0  0  0  0  0  0
   -8.1770    4.1950  -19.9130 H   0  0  0  0  0  0  0  0  0  0  0  0
   -8.5250    5.8910  -19.6480 H   0  0  0  0  0  0  0  0  0  0  0  0
   -6.7340    4.1160  -17.9860 H   0  0  0  0  0  0  0  0  0  0  0  0
   -5.7510    4.9650  -20.0110 H   0  0  0  0  0  0  0  0  0  0  0  0
   -5.9950    6.5740  -19.3660 H   0  0  0  0  0  0  0  0  0  0  0  0
   -4.5100    4.9290  -17.4060 H   0  0  0  0  0  0  0  0  0  0  0  0
   -3.7140    4.9370  -18.9880 H   0  0  0  0  0  0  0  0  0  0  0  0
   -4.0360    6.4630  -18.1630 H   0  0  0  0  0  0  0  0  0  0  0  0
   -6.8760    6.9660  -17.3520 H   0  0  0  0  0  0  0  0  0  0  0  0
   -6.3140    5.6250  -16.3830 H   0  0  0  0  0  0  0  0  0  0  0  0
   -7.3170    4.4850  -15.2470 H   0  0  0  0  0  0  0  0  0  0  0  0
   -6.9340    6.1750  -14.9170 H   0  0  0  0  0  0  0  0  0  0  0  0
   -9.6310    4.9140  -14.2430 H   0  0  0  0  0  0  0  0  0  0  0  0
   -9.1810    6.8880  -12.4030 H   0  0  0  0  0  0  0  0  0  0  0  0
   -8.1920    7.5180  -13.7150 H   0  0  0  0  0  0  0  0  0  0  0  0
  -10.1900    7.2130  -15.2400 H   0  0  0  0  0  0  0  0  0  0  0  0
  -11.1270    6.7410  -13.8680 H   0  0  0  0  0  0  0  0  0  0  0  0
  -11.2270    8.7840  -13.0080 H   0  0  0  0  0  0  0  0  0  0  0  0
   -9.8280    9.3480  -13.9390 H   0  0  0  0  0  0  0  0  0  0  0  0
  -11.3620    9.0120  -14.7630 H   0  0  0  0  0  0  0  0  0  0  0  0
   -7.6750    5.4240  -12.1950 H   0  0  0  0  0  0  0  0  0  0  0  0
   -9.4860    4.6440  -11.2290 H   0  0  0  0  0  0  0  0  0  0  0  0
   -9.8970    3.7530  -12.6820 H   0  0  0  0  0  0  0  0  0  0  0  0
   -9.5160    2.1450  -11.2090 H   0  0  0  0  0  0  0  0  0  0  0  0
   -7.9780    2.2430  -12.1000 H   0  0  0  0  0  0  0  0  0  0  0  0
   -8.1390    2.9770  -10.4990 H   0  0  0  0  0  0  0  0  0  0  0  0
  1  2  1  0
  2  3  1  0
  3  4  1  0
  4  5  1  0
  5  6  1  0
  6  7  1  0
  5  8  1  0
  1  9  1  0
  9 10  1  0
 10 11  1  0
 11 12  1  0
 12 13  1  0
 10 14  1  0
 14 15  1  0
 15 16  1  0
  8  1  1  0
  2 17  1  0
  2 18  1  0
  3 19  1  0
  3 20  1  0
  4 21  1  0
  4 22  1  0
  5 23  1  0
  6 24  1  0
  6 25  1  0
  7 26  1  0
  7 27  1  0
  7 28  1  0
  8 29  1  0
  8 30  1  0
  9 31  1  0
  9 32  1  0
 10 33  1  0
 11 34  1  0
 11 35  1  0
 12 36  1  0
 12 37  1  0
 13 38  1  0
 13 39  1  0
 13 40  1  0
 14 41  1  0
 15 42  1  0
 15 43  1  0
 16 44  1  0
 16 45  1  0
 16 46  1  0
A    1
 N1 
A    2
 C1 
A    3
 C2 
A    4
 C3 
A    5
 C4 
A    6
 C5 
A    7
 C6 
A    8
 C7 
A    9
 C8 
A   10
 C9 
A   11
 C10
A   12
 C11
A   13
 C12
A   14
 N2 
A   15
 C13
A   16
 C14
A   17
 H1 
A   18
 H2 
A   19
 H3 
A   20
 H4 
A   21
 H5 
A   22
 H6 
A   23
 H7 
A   24
 H8 
A   25
 H9 
A   26
 H10
A   27
 H11
A   28
 H12
A   29
 H13
A   30
 H14
A   31
 H15
A   32
 H16
A   33
 H17
A   34
 H18
A   35
 H19
A   36
 H20
A   37
 H21
A   38
 H22
A   39
 H23
A   40
 H24
A   41
 H25
A   42
 H26
A   43
 H27
A   44
 H28
A   45
 H29
A   46
 H30
M  END
>  <ref_pdb>  (392) 
x0051_0B

>  <ref_mols>  (392) 
x0951_0B,x0051_0B

>  <original SMILES>  (392) 
[H]N(C([H])([H])C([H])([H])[H])C([H])(C([H])([H])N1C([H])([H])C([H])([H])C([H])([H])C([H])(C([H])([H])C([H])([H])[H])C1([H])[H])C([H])([H])C([H])([H])C([H])([H])[H]

>  <index>  (392) 
507

>  <∆∆G>  (392) 
-6.581299

>  <∆G_bound>  (392) 
-5.987852

>  <∆G_unbound>  (392) 
0.593448

>  <comRMSD>  (392) 
0.602431

>  <N_constrained_atoms>  (392) 
17.0

>  <N_unconstrained_atoms>  (392) 
4.0

>  <runtime>  (392) 
51.672641

>  <LE>  (392) 
0.313395

>  <percent_hybrid>  (392) 
46.0

>  <dist>  (392) 
8.0

>  <ecfp4>  (392) 
0.121212

>  <daylight>  (392) 
0.362637

>  <topodist>  (392) 
4.0

>  <mces>  (392) 
16.0

>  <tdn>  (392) 
2.0

>  <tup>  (392) 
0.0

>  <rdn>  (392) 
2.0

>  <rup>  (392) 
0.0

>  <ldn>  (392) 
0.0

>  <lup>  (392) 
0.0

>  <mut>  (392) 
4.0

>  <maj>  (392) 
4.0

>  <min>  (392) 
0.0

>  <hyb>  (392) 
0.0

>  <sub>  (392) 
4.0

>  <query_index>  (392) 
318.0

>  <max_hit_Tanimoto>  (392) 
0.073333

>  <largest_ring>  (392) 
6

>  <N_interactions_kept>  (392) 
3.0

>  <N_interactions_lost>  (392) 
1.0

>  <interaction_uniqueness_metric>  (392) 
0.457326

>  <ad_hoc_penalty>  (392) 
-19.04833

>  <N_rotatable_bonds>  (392) 
10

>  <N_HA>  (392) 
16

>  <cluster>  (392) 
5756

>  <N_interactions>  (392) 
8

>  <Enamine>  (392) 
0

>  <Mcule>  (392) 
1

>  <N_PAINS>  (392) 
0

>  <UFF_Gibbs>  (392) 
181.046646

>  <strain_per_HA>  (392) 
11.315415

>  <saltbridge:HIS:51>  (392) 
0

>  <pistack:HIS:51>  (392) 
0

>  <hydroph_interaction:HIS:51>  (392) 
0

>  <hbond:ALA:132>  (392) 
0

>  <hbond:SER:135>  (392) 
0

>  <hydroph_interaction:TYR:150>  (392) 
1

>  <pistack:TYR:161>  (392) 
0

>  <hydroph_interaction:TYR:161>  (392) 
4

>  <hydroph_interaction:ASP:83>  (392) 
0

>  <hbond:TYR:130>  (392) 
0

>  <hydroph_interaction:ALA:132>  (392) 
1

>  <hbond:HIS:51>  (392) 
0

>  <hbond:ASP:129>  (392) 
0

>  <hbond:TYR:150>  (392) 
0

>  <hbond:GLY:151>  (392) 
0

>  <hbond:TYR:161>  (392) 
0

>  <hydroph_interaction:TYR:130>  (392) 
0

>  <hydroph_interaction:PRO:131>  (392) 
0

>  <hydroph_interaction:ASP:129>  (392) 
0

>  <saltbridge:ASP:75>  (392) 
0

>  <saltbridge:ASP:83>  (392) 
0

>  <hydroph_interaction:ASN:152>  (392) 
1

>  <halogenbond:TYR:150>  (392) 
0

>  <hbond:ASP:83>  (392) 
0

>  <hydroph_interaction:VAL:155>  (392) 
0

>  <pication:TYR:161>  (392) 
1

>  <hbond:PRO:131>  (392) 
0

>  <hbond:LEU:128>  (392) 
0

>  <saltbridge:ASP:129>  (392) 
0

>  <hbond:THR:134>  (392) 
0

>  <pication:HIS:51>  (392) 
0

>  <hbond:SER:81>  (392) 
0

>  <hbond:GLY:159>  (392) 
0

>  <hydroph_interaction:PRO:101>  (392) 
0

>  <hydroph_interaction:THR:134>  (392) 
0

>  <hbond:GLY:82>  (392) 
0

>  <hydroph_interaction:GLU:104>  (392) 
0

>  <hydroph_interaction:VAL:36>  (392) 
0

>  <hydroph_interaction:MET:49>  (392) 
0

>  <halogenbond:GLU:104>  (392) 
0

>  <hydroph_interaction:LYS:107>  (392) 
0

$$$$
CSSS00000010526
     RDKit          3D

 27 29  0  0  0  0  0  0  0  0999 V2000
   -2.5610    5.4560  -17.7770 O   0  0  0  0  0  0  0  0  0  0  0  0
   -3.7200    5.3800  -18.6170 C   0  0  0  0  0  0  0  0  0  0  0  0
   -5.0330    5.2390  -17.8540 C   0  0  0  0  0  0  0  0  0  0  0  0
   -6.1780    5.3870  -18.6430 C   0  0  0  0  0  0  0  0  0  0  0  0
   -6.1900    5.6470  -19.9730 O   0  0  0  0  0  0  0  0  0  0  0  0
   -5.0110    5.5630  -20.6680 C   0  0  0  0  0  0  0  0  0  0  0  0
   -5.0810    5.6200  -22.0520 C   0  0  0  0  0  0  0  0  0  0  0  0
   -3.8880    5.5350  -22.7900 C   0  0  0  0  0  0  0  0  0  0  0  0
   -2.6510    5.3910  -22.1570 C   0  0  0  0  0  0  0  0  0  0  0  0
   -2.5680    5.3350  -20.7720 C   0  0  0  0  0  0  0  0  0  0  0  0
   -3.7600    5.4280  -20.0630 C   0  0  0  0  0  0  0  0  0  0  0  0
   -7.4660    5.2280  -17.9680 C   0  0  0  0  0  0  0  0  0  0  0  0
   -7.4200    5.3570  -16.4940 C   0  0  0  0  0  0  0  0  0  0  0  0
   -8.5490    5.2040  -15.7500 C   0  0  0  0  0  0  0  0  0  0  0  0
   -9.9020    4.8980  -16.3380 C   0  0  0  0  0  0  0  0  0  0  0  0
   -9.9690    4.7740  -17.8570 C   0  0  0  0  0  0  0  0  0  0  0  0
   -8.6720    4.9550  -18.6350 C   0  0  0  0  0  0  0  0  0  0  0  0
   -5.0610    5.0290  -16.7890 H   0  0  0  0  0  0  0  0  0  0  0  0
   -6.0410    5.7290  -22.5530 H   0  0  0  0  0  0  0  0  0  0  0  0
   -3.9270    5.5790  -23.8740 H   0  0  0  0  0  0  0  0  0  0  0  0
   -1.7440    5.3240  -22.7550 H   0  0  0  0  0  0  0  0  0  0  0  0
   -1.6110    5.2250  -20.2670 H   0  0  0  0  0  0  0  0  0  0  0  0
   -6.4990    5.5690  -15.9630 H   0  0  0  0  0  0  0  0  0  0  0  0
   -8.4730    5.3020  -14.6690 H   0  0  0  0  0  0  0  0  0  0  0  0
  -10.7450    4.7760  -15.6890 H   0  0  0  0  0  0  0  0  0  0  0  0
  -10.9060    4.5600  -18.3680 H   0  0  0  0  0  0  0  0  0  0  0  0
   -8.7120    4.8610  -19.7200 H   0  0  0  0  0  0  0  0  0  0  0  0
  1  2  2  0
  2  3  1  0
  3  4  2  0
  4  5  1  0
  5  6  1  0
  6  7  2  0
  7  8  1  0
  8  9  2  0
  9 10  1  0
 10 11  2  0
  4 12  1  0
 12 13  2  0
 13 14  1  0
 14 15  2  0
 15 16  1  0
 16 17  2  0
 11  2  1  0
 11  6  1  0
 17 12  1  0
  3 18  1  0
  7 19  1  0
  8 20  1  0
  9 21  1  0
 10 22  1  0
 13 23  1  0
 14 24  1  0
 15 25  1  0
 16 26  1  0
 17 27  1  0
A    1
 O1 
A    2
 C1 
A    3
 C2 
A    4
 C3 
A    5
 O2 
A    6
 C4 
A    7
 C5 
A    8
 C6 
A    9
 C7 
A   10
 C8 
A   11
 C9 
A   12
 C10
A   13
 C11
A   14
 C12
A   15
 C13
A   16
 C14
A   17
 C15
A   18
 H1 
A   19
 H2 
A   20
 H3 
A   21
 H4 
A   22
 H5 
A   23
 H6 
A   24
 H7 
A   25
 H8 
A   26
 H9 
A   27
 H10
M  END
>  <ref_pdb>  (393) 
x0051_0B

>  <ref_mols>  (393) 
x0852_0B,x0680_0B

>  <original SMILES>  (393) 
[H]c1c([H])c([H])c(-c2oc3c([H])c([H])c([H])c([H])c3c(=O)c2[H])c([H])c1[H]

>  <index>  (393) 
495

>  <∆∆G>  (393) 
-5.959709

>  <∆G_bound>  (393) 
-5.83915

>  <∆G_unbound>  (393) 
0.12056

>  <comRMSD>  (393) 
0.625569

>  <N_constrained_atoms>  (393) 
19.0

>  <N_unconstrained_atoms>  (393) 
1.0

>  <runtime>  (393) 
34.112216

>  <LE>  (393) 
0.297985

>  <percent_hybrid>  (393) 
20.0

>  <dist>  (393) 
6.0

>  <ecfp4>  (393) 
0.081967

>  <daylight>  (393) 
0.174129

>  <topodist>  (393) 
3.0

>  <mces>  (393) 
19.0

>  <tdn>  (393) 
1.0

>  <tup>  (393) 
0.0

>  <rdn>  (393) 
1.0

>  <rup>  (393) 
0.0

>  <ldn>  (393) 
1.0

>  <lup>  (393) 
0.0

>  <mut>  (393) 
2.0

>  <maj>  (393) 
2.0

>  <min>  (393) 
0.0

>  <hyb>  (393) 
1.0

>  <sub>  (393) 
3.0

>  <query_index>  (393) 
135.0

>  <max_hit_Tanimoto>  (393) 
0.165971

>  <largest_ring>  (393) 
0

>  <N_interactions_kept>  (393) 
5.0

>  <N_interactions_lost>  (393) 
2.5

>  <interaction_uniqueness_metric>  (393) 
0.071041

>  <ad_hoc_penalty>  (393) 
-19.03865

>  <N_rotatable_bonds>  (393) 
1

>  <N_HA>  (393) 
17

>  <cluster>  (393) 
5766

>  <N_interactions>  (393) 
6

>  <Enamine>  (393) 
1

>  <Mcule>  (393) 
0

>  <N_PAINS>  (393) 
0

>  <UFF_Gibbs>  (393) 
97.363556

>  <strain_per_HA>  (393) 
5.727268

>  <saltbridge:HIS:51>  (393) 
0

>  <pistack:HIS:51>  (393) 
0

>  <hydroph_interaction:HIS:51>  (393) 
0

>  <hbond:ALA:132>  (393) 
0

>  <hbond:SER:135>  (393) 
0

>  <hydroph_interaction:TYR:150>  (393) 
1

>  <pistack:TYR:161>  (393) 
0

>  <hydroph_interaction:TYR:161>  (393) 
4

>  <hydroph_interaction:ASP:83>  (393) 
0

>  <hbond:TYR:130>  (393) 
0

>  <hydroph_interaction:ALA:132>  (393) 
0

>  <hbond:HIS:51>  (393) 
0

>  <hbond:ASP:129>  (393) 
0

>  <hbond:TYR:150>  (393) 
0

>  <hbond:GLY:151>  (393) 
0

>  <hbond:TYR:161>  (393) 
0

>  <hydroph_interaction:TYR:130>  (393) 
0

>  <hydroph_interaction:PRO:131>  (393) 
0

>  <hydroph_interaction:ASP:129>  (393) 
1

>  <saltbridge:ASP:75>  (393) 
0

>  <saltbridge:ASP:83>  (393) 
0

>  <hydroph_interaction:ASN:152>  (393) 
0

>  <halogenbond:TYR:150>  (393) 
0

>  <hbond:ASP:83>  (393) 
0

>  <hydroph_interaction:VAL:155>  (393) 
0

>  <pication:TYR:161>  (393) 
0

>  <hbond:PRO:131>  (393) 
0

>  <hbond:LEU:128>  (393) 
0

>  <saltbridge:ASP:129>  (393) 
0

>  <hbond:THR:134>  (393) 
0

>  <pication:HIS:51>  (393) 
0

>  <hbond:SER:81>  (393) 
0

>  <hbond:GLY:159>  (393) 
0

>  <hydroph_interaction:PRO:101>  (393) 
0

>  <hydroph_interaction:THR:134>  (393) 
0

>  <hbond:GLY:82>  (393) 
0

>  <hydroph_interaction:GLU:104>  (393) 
0

>  <hydroph_interaction:VAL:36>  (393) 
0

>  <hydroph_interaction:MET:49>  (393) 
0

>  <halogenbond:GLU:104>  (393) 
0

>  <hydroph_interaction:LYS:107>  (393) 
0

$$$$
CSSS00011538856
     RDKit          3D

 30 31  0  0  0  0  0  0  0  0999 V2000
   -3.4560    4.4610  -15.7110 C   0  0  0  0  0  0  0  0  0  0  0  0
   -2.9540    5.3370  -16.8450 C   0  0  0  0  0  0  0  0  0  0  0  0
   -3.8040    5.6320  -17.9130 C   0  0  0  0  0  0  0  0  0  0  0  0
   -5.2180    5.5110  -17.4980 C   0  0  0  0  0  0  0  0  0  0  0  0
   -5.5270    6.2280  -16.3280 C   0  0  0  0  0  0  0  0  0  0  0  0
   -6.7140    5.7950  -15.7330 C   0  0  0  0  0  0  0  0  0  0  0  0
   -7.7320    5.4100  -16.5960 C   0  0  0  0  0  0  0  0  0  0  0  0
   -8.9900    5.0910  -16.1250 C   0  0  0  0  0  0  0  0  0  0  0  0
   -9.9920    4.7100  -16.9990 C   0  0  0  0  0  0  0  0  0  0  0  0
   -9.8100    4.6350  -18.3730 C   0  0  0  0  0  0  0  0  0  0  0  0
   -8.5820    4.9310  -18.9350 C   0  0  0  0  0  0  0  0  0  0  0  0
   -7.5040    5.3330  -17.9610 C   0  0  0  0  0  0  0  0  0  0  0  0
   -6.2530    5.6190  -18.4590 C   0  0  0  0  0  0  0  0  0  0  0  0
   -6.1130    5.9290  -19.6440 O   0  0  0  0  0  0  0  0  0  0  0  0
   -3.0310    3.4610  -15.7990 H   0  0  0  0  0  0  0  0  0  0  0  0
   -3.1520    4.8400  -14.7330 H   0  0  0  0  0  0  0  0  0  0  0  0
   -4.5450    4.3960  -15.7410 H   0  0  0  0  0  0  0  0  0  0  0  0
   -2.7690    6.3670  -16.3980 H   0  0  0  0  0  0  0  0  0  0  0  0
   -1.9750    5.0230  -17.2220 H   0  0  0  0  0  0  0  0  0  0  0  0
   -3.5350    4.8460  -18.7090 H   0  0  0  0  0  0  0  0  0  0  0  0
   -3.5500    6.6300  -18.2850 H   0  0  0  0  0  0  0  0  0  0  0  0
   -5.3440    4.4260  -17.1740 H   0  0  0  0  0  0  0  0  0  0  0  0
   -4.7060    6.3550  -15.6250 H   0  0  0  0  0  0  0  0  0  0  0  0
   -5.7270    7.2570  -16.6570 H   0  0  0  0  0  0  0  0  0  0  0  0
   -6.5010    4.9420  -15.0730 H   0  0  0  0  0  0  0  0  0  0  0  0
   -7.0840    6.6060  -15.0930 H   0  0  0  0  0  0  0  0  0  0  0  0
   -9.2050    5.1320  -15.0580 H   0  0  0  0  0  0  0  0  0  0  0  0
  -10.9430    4.4600  -16.5980 H   0  0  0  0  0  0  0  0  0  0  0  0
  -10.6340    4.3400  -18.9900 H   0  0  0  0  0  0  0  0  0  0  0  0
   -8.4130    4.8730  -20.0060 H   0  0  0  0  0  0  0  0  0  0  0  0
  1  2  1  0
  2  3  1  0
  3  4  1  0
  4  5  1  0
  5  6  1  0
  6  7  1  0
  7  8  2  0
  8  9  1  0
  9 10  2  0
 10 11  1  0
 11 12  2  0
 12 13  1  0
 13 14  2  0
 13  4  1  0
 12  7  1  0
  1 15  1  0
  1 16  1  0
  1 17  1  0
  2 18  1  0
  2 19  1  0
  3 20  1  0
  3 21  1  0
  4 22  1  0
  5 23  1  0
  5 24  1  0
  6 25  1  0
  6 26  1  0
  8 27  1  0
  9 28  1  0
 10 29  1  0
 11 30  1  0
A    1
 C1 
A    2
 C2 
A    3
 C3 
A    4
 C4 
A    5
 C5 
A    6
 C6 
A    7
 C7 
A    8
 C8 
A    9
 C9 
A   10
 C10
A   11
 C11
A   12
 C12
A   13
 C13
A   14
 O1 
A   15
 H1 
A   16
 H2 
A   17
 H3 
A   18
 H4 
A   19
 H5 
A   20
 H6 
A   21
 H7 
A   22
 H8 
A   23
 H9 
A   24
 H10
A   25
 H11
A   26
 H12
A   27
 H13
A   28
 H14
A   29
 H15
A   30
 H16
M  END
>  <ref_pdb>  (394) 
x0051_0B

>  <ref_mols>  (394) 
x0472_0B,x0386_0B

>  <original SMILES>  (394) 
[H]c1c([H])c([H])c2c(c1[H])C(=O)C([H])(C([H])([H])C([H])([H])C([H])([H])[H])C([H])([H])C2([H])[H]

>  <index>  (394) 
204

>  <∆∆G>  (394) 
-6.528968

>  <∆G_bound>  (394) 
-6.209373

>  <∆G_unbound>  (394) 
0.319595

>  <comRMSD>  (394) 
0.510422

>  <N_constrained_atoms>  (394) 
15.0

>  <N_unconstrained_atoms>  (394) 
0.0

>  <runtime>  (394) 
25.73561

>  <LE>  (394) 
0.435265

>  <percent_hybrid>  (394) 
20.0

>  <dist>  (394) 
7.0

>  <ecfp4>  (394) 
0.063492

>  <daylight>  (394) 
0.102564

>  <topodist>  (394) 
2.0

>  <mces>  (394) 
14.0

>  <tdn>  (394) 
1.0

>  <tup>  (394) 
0.0

>  <rdn>  (394) 
0.0

>  <rup>  (394) 
0.0

>  <ldn>  (394) 
0.0

>  <lup>  (394) 
1.0

>  <mut>  (394) 
4.0

>  <maj>  (394) 
4.0

>  <min>  (394) 
0.0

>  <hyb>  (394) 
1.0

>  <sub>  (394) 
1.0

>  <query_index>  (394) 
75.0

>  <max_hit_Tanimoto>  (394) 
0.163239

>  <largest_ring>  (394) 
0

>  <N_interactions_kept>  (394) 
2.0

>  <N_interactions_lost>  (394) 
1.0

>  <interaction_uniqueness_metric>  (394) 
0.075051

>  <ad_hoc_penalty>  (394) 
-19.033625

>  <N_rotatable_bonds>  (394) 
3

>  <N_HA>  (394) 
14

>  <cluster>  (394) 
6033

>  <N_interactions>  (394) 
5

>  <Enamine>  (394) 
1

>  <Mcule>  (394) 
0

>  <N_PAINS>  (394) 
0

>  <UFF_Gibbs>  (394) 
157.04546

>  <strain_per_HA>  (394) 
11.217533

>  <saltbridge:HIS:51>  (394) 
0

>  <pistack:HIS:51>  (394) 
0

>  <hydroph_interaction:HIS:51>  (394) 
0

>  <hbond:ALA:132>  (394) 
0

>  <hbond:SER:135>  (394) 
0

>  <hydroph_interaction:TYR:150>  (394) 
1

>  <pistack:TYR:161>  (394) 
1

>  <hydroph_interaction:TYR:161>  (394) 
2

>  <hydroph_interaction:ASP:83>  (394) 
0

>  <hbond:TYR:130>  (394) 
0

>  <hydroph_interaction:ALA:132>  (394) 
0

>  <hbond:HIS:51>  (394) 
0

>  <hbond:ASP:129>  (394) 
0

>  <hbond:TYR:150>  (394) 
0

>  <hbond:GLY:151>  (394) 
0

>  <hbond:TYR:161>  (394) 
0

>  <hydroph_interaction:TYR:130>  (394) 
0

>  <hydroph_interaction:PRO:131>  (394) 
0

>  <hydroph_interaction:ASP:129>  (394) 
0

>  <saltbridge:ASP:75>  (394) 
0

>  <saltbridge:ASP:83>  (394) 
0

>  <hydroph_interaction:ASN:152>  (394) 
0

>  <halogenbond:TYR:150>  (394) 
0

>  <hbond:ASP:83>  (394) 
0

>  <hydroph_interaction:VAL:155>  (394) 
1

>  <pication:TYR:161>  (394) 
0

>  <hbond:PRO:131>  (394) 
0

>  <hbond:LEU:128>  (394) 
0

>  <saltbridge:ASP:129>  (394) 
0

>  <hbond:THR:134>  (394) 
0

>  <pication:HIS:51>  (394) 
0

>  <hbond:SER:81>  (394) 
0

>  <hbond:GLY:159>  (394) 
0

>  <hydroph_interaction:PRO:101>  (394) 
0

>  <hydroph_interaction:THR:134>  (394) 
0

>  <hbond:GLY:82>  (394) 
0

>  <hydroph_interaction:GLU:104>  (394) 
0

>  <hydroph_interaction:VAL:36>  (394) 
0

>  <hydroph_interaction:MET:49>  (394) 
0

>  <halogenbond:GLU:104>  (394) 
0

>  <hydroph_interaction:LYS:107>  (394) 
0

$$$$
Z2770279474
     RDKit          3D

 37 40  0  0  0  0  0  0  0  0999 V2000
   -8.5330    4.9870  -18.9590 C   0  0  0  0  0  0  0  0  0  0  0  0
   -9.7820    4.6520  -18.1250 C   0  0  0  0  0  0  0  0  0  0  0  0
   -9.6490    4.7440  -16.5900 C   0  0  0  0  0  0  0  0  0  0  0  0
   -8.4110    5.1210  -16.0250 C   0  0  0  0  0  0  0  0  0  0  0  0
   -7.9660    5.2870  -14.5940 C   0  0  0  0  0  0  0  0  0  0  0  0
   -8.6790    5.0880  -13.3710 C   0  0  0  0  0  0  0  0  0  0  0  0
   -8.6550    6.1310  -12.4920 N   0  0  0  0  0  0  0  0  0  0  0  0
   -8.7500    5.9180  -10.9790 C   0  0  0  0  0  0  0  0  0  0  0  0
   -8.8730    4.6960  -10.2560 C   0  0  0  0  0  0  0  0  0  0  0  0
   -8.9420    3.3830  -10.6800 C   0  0  0  0  0  0  0  0  0  0  0  0
   -9.3880    2.4570   -9.5520 C   0  0  0  0  0  0  0  0  0  0  0  0
   -9.5040    2.8800   -8.2040 C   0  0  0  0  0  0  0  0  0  0  0  0
   -9.0440    4.1400   -7.8110 C   0  0  0  0  0  0  0  0  0  0  0  0
   -8.9210    4.9940   -8.9750 N   0  0  0  0  0  0  0  0  0  0  0  0
   -8.8440    6.3020   -8.6600 N   0  0  0  0  0  0  0  0  0  0  0  0
   -8.7430    6.8450   -9.8960 C   0  0  0  0  0  0  0  0  0  0  0  0
   -6.6510    5.6870  -14.5930 N   0  0  0  0  0  0  0  0  0  0  0  0
   -6.2630    5.7640  -15.9040 N   0  0  0  0  0  0  0  0  0  0  0  0
   -7.3520    5.4090  -16.8080 C   0  0  0  0  0  0  0  0  0  0  0  0
   -7.3320    5.3630  -18.3510 C   0  0  0  0  0  0  0  0  0  0  0  0
   -8.6550    4.9090  -20.0450 H   0  0  0  0  0  0  0  0  0  0  0  0
  -10.7580    4.3520  -18.5220 H   0  0  0  0  0  0  0  0  0  0  0  0
  -10.4930    4.5180  -15.9550 H   0  0  0  0  0  0  0  0  0  0  0  0
   -8.2390    4.2150  -12.8710 H   0  0  0  0  0  0  0  0  0  0  0  0
   -9.7210    4.8020  -13.5820 H   0  0  0  0  0  0  0  0  0  0  0  0
   -8.1500    6.9460  -12.8410 H   0  0  0  0  0  0  0  0  0  0  0  0
   -7.9100    3.0820  -10.8900 H   0  0  0  0  0  0  0  0  0  0  0  0
   -9.4250    3.2370  -11.6420 H   0  0  0  0  0  0  0  0  0  0  0  0
   -8.6750    1.6260   -9.5270 H   0  0  0  0  0  0  0  0  0  0  0  0
  -10.3330    1.9850   -9.7270 H   0  0  0  0  0  0  0  0  0  0  0  0
  -10.5600    2.8010   -7.9270 H   0  0  0  0  0  0  0  0  0  0  0  0
   -8.9900    2.1390   -7.5780 H   0  0  0  0  0  0  0  0  0  0  0  0
   -8.0840    4.2310   -7.2870 H   0  0  0  0  0  0  0  0  0  0  0  0
   -9.7710    4.6050   -7.1400 H   0  0  0  0  0  0  0  0  0  0  0  0
   -8.6700    7.9390   -9.8560 H   0  0  0  0  0  0  0  0  0  0  0  0
   -5.3150    6.0410  -16.1290 H   0  0  0  0  0  0  0  0  0  0  0  0
   -6.3920    5.6220  -18.8490 H   0  0  0  0  0  0  0  0  0  0  0  0
  1  2  2  0
  2  3  1  0
  3  4  2  0
  4  5  1  0
  5  6  1  0
  6  7  1  0
  7  8  1  0
  8  9  2  0
  9 10  1  0
 10 11  1  0
 11 12  1  0
 12 13  1  0
 13 14  1  0
 14 15  1  0
 15 16  2  0
  5 17  2  0
 17 18  1  0
 18 19  1  0
 19 20  2  0
 20  1  1  0
 19  4  1  0
 16  8  1  0
 14  9  1  0
  1 21  1  0
  2 22  1  0
  3 23  1  0
  6 24  1  0
  6 25  1  0
  7 26  1  0
 10 27  1  0
 10 28  1  0
 11 29  1  0
 11 30  1  0
 12 31  1  0
 12 32  1  0
 13 33  1  0
 13 34  1  0
 16 35  1  0
 18 36  1  0
 20 37  1  0
A    1
 C1 
A    2
 C2 
A    3
 C3 
A    4
 C4 
A    5
 C5 
A    6
 C6 
A    7
 N1 
A    8
 C7 
A    9
 C8 
A   10
 C9 
A   11
 C10
A   12
 C11
A   13
 C12
A   14
 N2 
A   15
 N3 
A   16
 C13
A   17
 N4 
A   18
 N5 
A   19
 C14
A   20
 C15
A   21
 H1 
A   22
 H2 
A   23
 H3 
A   24
 H4 
A   25
 H5 
A   26
 H6 
A   27
 H7 
A   28
 H8 
A   29
 H9 
A   30
 H10
A   31
 H11
A   32
 H12
A   33
 H13
A   34
 H14
A   35
 H15
A   36
 H16
A   37
 H17
M  END
>  <ref_pdb>  (395) 
x0051_0B

>  <ref_mols>  (395) 
x0951_0B,x0969_1B

>  <original SMILES>  (395) 
[H]c1nn2c(c1N([H])C([H])([H])c1nn([H])c3c([H])c([H])c([H])c([H])c13)C([H])([H])C([H])([H])C([H])([H])C2([H])[H]

>  <index>  (395) 
424

>  <∆∆G>  (395) 
-6.200886

>  <∆G_bound>  (395) 
-5.805047

>  <∆G_unbound>  (395) 
0.395839

>  <comRMSD>  (395) 
0.648681

>  <N_constrained_atoms>  (395) 
21.0

>  <N_unconstrained_atoms>  (395) 
0.0

>  <runtime>  (395) 
46.459597

>  <LE>  (395) 
0.29528

>  <percent_hybrid>  (395) 
48.0

>  <dist>  (395) 
4.0

>  <ecfp4>  (395) 
0.181818

>  <daylight>  (395) 
0.431159

>  <topodist>  (395) 
1.0

>  <mces>  (395) 
23.0

>  <tdn>  (395) 
1.0

>  <tup>  (395) 
0.0

>  <rdn>  (395) 
0.0

>  <rup>  (395) 
0.0

>  <ldn>  (395) 
0.0

>  <lup>  (395) 
0.0

>  <mut>  (395) 
2.0

>  <maj>  (395) 
2.0

>  <min>  (395) 
0.0

>  <hyb>  (395) 
1.0

>  <sub>  (395) 
1.0

>  <query_index>  (395) 
201.0

>  <max_hit_Tanimoto>  (395) 
0.27177

>  <largest_ring>  (395) 
0

>  <N_interactions_kept>  (395) 
1.0

>  <N_interactions_lost>  (395) 
2.0

>  <interaction_uniqueness_metric>  (395) 
0.111558

>  <ad_hoc_penalty>  (395) 
-19.033422

>  <N_rotatable_bonds>  (395) 
3

>  <N_HA>  (395) 
20

>  <cluster>  (395) 
5834

>  <N_interactions>  (395) 
6

>  <Enamine>  (395) 
1

>  <Mcule>  (395) 
0

>  <N_PAINS>  (395) 
0

>  <UFF_Gibbs>  (395) 
145.443478

>  <strain_per_HA>  (395) 
7.272174

>  <saltbridge:HIS:51>  (395) 
0

>  <pistack:HIS:51>  (395) 
2

>  <hydroph_interaction:HIS:51>  (395) 
1

>  <hbond:ALA:132>  (395) 
0

>  <hbond:SER:135>  (395) 
0

>  <hydroph_interaction:TYR:150>  (395) 
1

>  <pistack:TYR:161>  (395) 
2

>  <hydroph_interaction:TYR:161>  (395) 
0

>  <hydroph_interaction:ASP:83>  (395) 
0

>  <hbond:TYR:130>  (395) 
0

>  <hydroph_interaction:ALA:132>  (395) 
0

>  <hbond:HIS:51>  (395) 
0

>  <hbond:ASP:129>  (395) 
0

>  <hbond:TYR:150>  (395) 
0

>  <hbond:GLY:151>  (395) 
0

>  <hbond:TYR:161>  (395) 
0

>  <hydroph_interaction:TYR:130>  (395) 
0

>  <hydroph_interaction:PRO:131>  (395) 
0

>  <hydroph_interaction:ASP:129>  (395) 
0

>  <saltbridge:ASP:75>  (395) 
0

>  <saltbridge:ASP:83>  (395) 
0

>  <hydroph_interaction:ASN:152>  (395) 
0

>  <halogenbond:TYR:150>  (395) 
0

>  <hbond:ASP:83>  (395) 
0

>  <hydroph_interaction:VAL:155>  (395) 
0

>  <pication:TYR:161>  (395) 
0

>  <hbond:PRO:131>  (395) 
0

>  <hbond:LEU:128>  (395) 
0

>  <saltbridge:ASP:129>  (395) 
0

>  <hbond:THR:134>  (395) 
0

>  <pication:HIS:51>  (395) 
0

>  <hbond:SER:81>  (395) 
0

>  <hbond:GLY:159>  (395) 
0

>  <hydroph_interaction:PRO:101>  (395) 
0

>  <hydroph_interaction:THR:134>  (395) 
0

>  <hbond:GLY:82>  (395) 
0

>  <hydroph_interaction:GLU:104>  (395) 
0

>  <hydroph_interaction:VAL:36>  (395) 
0

>  <hydroph_interaction:MET:49>  (395) 
0

>  <halogenbond:GLU:104>  (395) 
0

>  <hydroph_interaction:LYS:107>  (395) 
0

$$$$
MCULE-4462762499
     RDKit          3D

 26 27  0  0  0  0  0  0  0  0999 V2000
   -9.3810    4.8800  -19.1920 C   0  0  0  0  0  0  0  0  0  0  0  0
   -7.9570    5.1440  -18.9280 C   0  0  0  0  0  0  0  0  0  0  0  0
   -7.4880    5.2530  -17.6250 C   0  0  0  0  0  0  0  0  0  0  0  0
   -6.1600    5.5000  -17.3780 C   0  0  0  0  0  0  0  0  0  0  0  0
   -5.8470    5.9130  -16.0790 C   0  0  0  0  0  0  0  0  0  0  0  0
   -6.5280    5.1800  -15.0890 C   0  0  0  0  0  0  0  0  0  0  0  0
   -7.9320    5.2000  -15.1230 C   0  0  1  0  0  0  0  0  0  0  0  0
   -8.4640    6.4300  -14.5060 N   0  0  0  0  0  0  0  0  0  0  0  0
   -9.2630    6.2250  -13.3200 C   0  0  0  0  0  0  0  0  0  0  0  0
   -8.4020    5.1050  -16.5850 C   0  0  0  0  0  0  0  0  0  0  0  0
   -9.7300    4.8690  -16.8070 N   0  0  0  0  0  0  0  0  0  0  0  0
  -10.1870    4.7590  -18.0820 C   0  0  0  0  0  0  0  0  0  0  0  0
   -9.7670    4.7920  -20.1990 H   0  0  0  0  0  0  0  0  0  0  0  0
   -7.3490    5.2390  -19.8310 H   0  0  0  0  0  0  0  0  0  0  0  0
   -5.5730    4.6060  -17.6080 H   0  0  0  0  0  0  0  0  0  0  0  0
   -5.8400    6.2820  -18.0770 H   0  0  0  0  0  0  0  0  0  0  0  0
   -5.8400    6.9870  -15.9400 H   0  0  0  0  0  0  0  0  0  0  0  0
   -4.7880    5.6590  -15.9530 H   0  0  0  0  0  0  0  0  0  0  0  0
   -6.2670    5.6870  -14.1510 H   0  0  0  0  0  0  0  0  0  0  0  0
   -6.1190    4.1900  -14.9130 H   0  0  0  0  0  0  0  0  0  0  0  0
   -8.4470    4.3800  -14.6280 H   0  0  0  0  0  0  0  0  0  0  0  0
   -8.9690    6.9800  -15.1940 H   0  0  0  0  0  0  0  0  0  0  0  0
   -9.6590    5.2030  -13.3270 H   0  0  0  0  0  0  0  0  0  0  0  0
   -8.6710    6.3360  -12.4060 H   0  0  0  0  0  0  0  0  0  0  0  0
  -10.1210    6.9020  -13.2780 H   0  0  0  0  0  0  0  0  0  0  0  0
  -11.2510    4.5700  -18.1820 H   0  0  0  0  0  0  0  0  0  0  0  0
  1  2  2  0
  2  3  1  0
  3  4  1  0
  4  5  1  0
  5  6  1  0
  6  7  1  0
  7  8  1  0
  8  9  1  0
  7 10  1  0
 10 11  1  0
 11 12  2  0
  1 12  1  0
 10  3  2  0
  1 13  1  0
  2 14  1  0
  4 15  1  0
  4 16  1  0
  5 17  1  0
  5 18  1  0
  6 19  1  0
  6 20  1  0
  7 21  1  1
  8 22  1  0
  9 23  1  0
  9 24  1  0
  9 25  1  0
 12 26  1  0
A    1
 C1 
A    2
 C2 
A    3
 C3 
A    4
 C4 
A    5
 C5 
A    6
 C6 
A    7
 C7 
A    8
 N1 
A    9
 C8 
A   10
 C9 
A   11
 N2 
A   12
 C10
A   13
 H1 
A   14
 H2 
A   15
 H3 
A   16
 H4 
A   17
 H5 
A   18
 H6 
A   19
 H7 
A   20
 H8 
A   21
 H9 
A   22
 H10
A   23
 H11
A   24
 H12
A   25
 H13
A   26
 H14
M  END
>  <ref_pdb>  (396) 
x0051_0B

>  <ref_mols>  (396) 
x0455_0B,x0951_0B

>  <original SMILES>  (396) 
[H]c1nc2c(c([H])c1[H])C([H])([H])C([H])([H])C([H])([H])[C@@]2([H])N([H])C([H])([H])[H]

>  <index>  (396) 
535

>  <∆∆G>  (396) 
-5.339879

>  <∆G_bound>  (396) 
-5.181857

>  <∆G_unbound>  (396) 
0.158022

>  <comRMSD>  (396) 
0.649901

>  <N_constrained_atoms>  (396) 
14.0

>  <N_unconstrained_atoms>  (396) 
0.0

>  <runtime>  (396) 
22.425984

>  <LE>  (396) 
0.38142

>  <percent_hybrid>  (396) 
34.0

>  <dist>  (396) 
2.0

>  <ecfp4>  (396) 
0.361702

>  <daylight>  (396) 
0.344444

>  <topodist>  (396) 
1.0

>  <mces>  (396) 
13.0

>  <tdn>  (396) 
0.0

>  <tup>  (396) 
0.0

>  <rdn>  (396) 
0.0

>  <rup>  (396) 
0.0

>  <ldn>  (396) 
1.0

>  <lup>  (396) 
0.0

>  <mut>  (396) 
1.0

>  <maj>  (396) 
1.0

>  <min>  (396) 
0.0

>  <hyb>  (396) 
0.0

>  <sub>  (396) 
0.0

>  <query_index>  (396) 
288.0

>  <max_hit_Tanimoto>  (396) 
0.298789

>  <largest_ring>  (396) 
6

>  <N_interactions_kept>  (396) 
1.0

>  <N_interactions_lost>  (396) 
1.5

>  <interaction_uniqueness_metric>  (396) 
0.034305

>  <ad_hoc_penalty>  (396) 
-19.018239

>  <N_rotatable_bonds>  (396) 
2

>  <N_HA>  (396) 
12

>  <cluster>  (396) 
5729

>  <N_interactions>  (396) 
5

>  <Enamine>  (396) 
0

>  <Mcule>  (396) 
1

>  <N_PAINS>  (396) 
0

>  <UFF_Gibbs>  (396) 
57.435462

>  <strain_per_HA>  (396) 
4.786288

>  <saltbridge:HIS:51>  (396) 
0

>  <pistack:HIS:51>  (396) 
0

>  <hydroph_interaction:HIS:51>  (396) 
0

>  <hbond:ALA:132>  (396) 
0

>  <hbond:SER:135>  (396) 
0

>  <hydroph_interaction:TYR:150>  (396) 
1

>  <pistack:TYR:161>  (396) 
0

>  <hydroph_interaction:TYR:161>  (396) 
4

>  <hydroph_interaction:ASP:83>  (396) 
0

>  <hbond:TYR:130>  (396) 
0

>  <hydroph_interaction:ALA:132>  (396) 
0

>  <hbond:HIS:51>  (396) 
0

>  <hbond:ASP:129>  (396) 
0

>  <hbond:TYR:150>  (396) 
0

>  <hbond:GLY:151>  (396) 
0

>  <hbond:TYR:161>  (396) 
0

>  <hydroph_interaction:TYR:130>  (396) 
0

>  <hydroph_interaction:PRO:131>  (396) 
0

>  <hydroph_interaction:ASP:129>  (396) 
0

>  <saltbridge:ASP:75>  (396) 
0

>  <saltbridge:ASP:83>  (396) 
0

>  <hydroph_interaction:ASN:152>  (396) 
0

>  <halogenbond:TYR:150>  (396) 
0

>  <hbond:ASP:83>  (396) 
0

>  <hydroph_interaction:VAL:155>  (396) 
0

>  <pication:TYR:161>  (396) 
0

>  <hbond:PRO:131>  (396) 
0

>  <hbond:LEU:128>  (396) 
0

>  <saltbridge:ASP:129>  (396) 
0

>  <hbond:THR:134>  (396) 
0

>  <pication:HIS:51>  (396) 
0

>  <hbond:SER:81>  (396) 
0

>  <hbond:GLY:159>  (396) 
0

>  <hydroph_interaction:PRO:101>  (396) 
0

>  <hydroph_interaction:THR:134>  (396) 
0

>  <hbond:GLY:82>  (396) 
0

>  <hydroph_interaction:GLU:104>  (396) 
0

>  <hydroph_interaction:VAL:36>  (396) 
0

>  <hydroph_interaction:MET:49>  (396) 
0

>  <halogenbond:GLU:104>  (396) 
0

>  <hydroph_interaction:LYS:107>  (396) 
0

$$$$
CSSB00132890764
     RDKit          3D

 42 46  0  0  0  0  0  0  0  0999 V2000
   -4.9240    6.7050  -18.0900 O   0  0  0  0  0  0  0  0  0  0  0  0
   -5.7650    6.1900  -18.8010 C   0  0  0  0  0  0  0  0  0  0  0  0
   -5.6520    6.0070  -20.1780 O   0  0  0  0  0  0  0  0  0  0  0  0
   -5.6450    7.0920  -21.1210 C   0  0  0  0  0  0  0  0  0  0  0  0
   -5.7810    8.6100  -20.7680 C   0  0  0  0  0  0  0  0  0  0  0  0
   -5.7930    9.5790  -21.9880 C   0  0  0  0  0  0  0  0  0  0  0  0
   -5.6800    9.0800  -23.2970 C   0  0  0  0  0  0  0  0  0  0  0  0
   -5.5140    7.5910  -23.4760 C   0  0  0  0  0  0  0  0  0  0  0  0
   -5.3630    7.0720  -24.7140 O   0  0  0  0  0  0  0  0  0  0  0  0
   -6.1910    7.6600  -25.5530 C   0  0  0  0  0  0  0  0  0  0  0  0
   -6.4530    9.0140  -25.5940 C   0  0  0  0  0  0  0  0  0  0  0  0
   -7.4650    9.1710  -26.4760 C   0  0  0  0  0  0  0  0  0  0  0  0
   -7.9190    8.0340  -26.9060 N   0  0  0  0  0  0  0  0  0  0  0  0
   -9.0010    8.1680  -27.6730 C   0  0  0  0  0  0  0  0  0  0  0  0
   -9.7750    7.0190  -28.2720 C   0  0  0  0  0  0  0  0  0  0  0  0
  -10.9800    7.3690  -29.0610 C   0  0  0  0  0  0  0  0  0  0  0  0
  -11.3080    8.7160  -29.1990 C   0  0  0  0  0  0  0  0  0  0  0  0
  -10.5430    9.7530  -28.6300 C   0  0  0  0  0  0  0  0  0  0  0  0
   -9.4020    9.4850  -27.8790 C   0  0  0  0  0  0  0  0  0  0  0  0
   -8.3000   10.5570  -27.0790 S   0  0  0  0  0  0  0  0  0  0  0  0
   -5.7260    9.8590  -24.5760 C   0  0  0  0  0  0  0  0  0  0  0  0
   -5.2460   10.9770  -24.7180 O   0  0  0  0  0  0  0  0  0  0  0  0
   -5.5090    6.6880  -22.4370 C   0  0  0  0  0  0  0  0  0  0  0  0
   -7.0500    5.6520  -18.2120 C   0  0  0  0  0  0  0  0  0  0  0  0
   -8.1410    5.1520  -18.9500 C   0  0  0  0  0  0  0  0  0  0  0  0
   -9.2840    4.6890  -18.2870 C   0  0  0  0  0  0  0  0  0  0  0  0
   -9.3510    4.7200  -16.8960 C   0  0  0  0  0  0  0  0  0  0  0  0
   -8.2830    5.2040  -16.1550 C   0  0  0  0  0  0  0  0  0  0  0  0
   -7.1390    5.6660  -16.8080 C   0  0  0  0  0  0  0  0  0  0  0  0
   -5.8760    8.9670  -19.7480 H   0  0  0  0  0  0  0  0  0  0  0  0
   -5.9010   10.6500  -21.8230 H   0  0  0  0  0  0  0  0  0  0  0  0
   -6.6610    6.9110  -26.1840 H   0  0  0  0  0  0  0  0  0  0  0  0
   -9.4610    5.9900  -28.1170 H   0  0  0  0  0  0  0  0  0  0  0  0
  -11.5900    6.5930  -29.5140 H   0  0  0  0  0  0  0  0  0  0  0  0
  -12.1950    8.9820  -29.7750 H   0  0  0  0  0  0  0  0  0  0  0  0
  -10.8540   10.7820  -28.7810 H   0  0  0  0  0  0  0  0  0  0  0  0
   -5.4000    5.6310  -22.6570 H   0  0  0  0  0  0  0  0  0  0  0  0
   -8.1200    5.1160  -20.0370 H   0  0  0  0  0  0  0  0  0  0  0  0
  -10.1230    4.3080  -18.8580 H   0  0  0  0  0  0  0  0  0  0  0  0
  -10.2410    4.3640  -16.3910 H   0  0  0  0  0  0  0  0  0  0  0  0
   -8.3380    5.2260  -15.0700 H   0  0  0  0  0  0  0  0  0  0  0  0
   -6.3080    6.0460  -16.2140 H   0  0  0  0  0  0  0  0  0  0  0  0
  1  2  2  0
  2  3  1  0
  3  4  1  0
  4  5  2  0
  5  6  1  0
  6  7  2  0
  7  8  1  0
  8  9  1  0
  9 10  1  0
 10 11  2  0
 11 12  1  0
 12 13  2  0
 13 14  1  0
 14 15  2  0
 15 16  1  0
 16 17  2  0
 17 18  1  0
 18 19  2  0
 19 20  1  0
 11 21  1  0
 21 22  2  0
  8 23  2  0
  2 24  1  0
 24 25  2  0
 25 26  1  0
 26 27  2  0
 27 28  1  0
 28 29  2  0
 23  4  1  0
 21  7  1  0
 20 12  1  0
 19 14  1  0
 29 24  1  0
  5 30  1  0
  6 31  1  0
 10 32  1  0
 15 33  1  0
 16 34  1  0
 17 35  1  0
 18 36  1  0
 23 37  1  0
 25 38  1  0
 26 39  1  0
 27 40  1  0
 28 41  1  0
 29 42  1  0
A    1
 O1 
A    2
 C1 
A    3
 O2 
A    4
 C2 
A    5
 C3 
A    6
 C4 
A    7
 C5 
A    8
 C6 
A    9
 O3 
A   10
 C7 
A   11
 C8 
A   12
 C9 
A   13
 N1 
A   14
 C10
A   15
 C11
A   16
 C12
A   17
 C13
A   18
 C14
A   19
 C15
A   20
 S1 
A   21
 C16
A   22
 O4 
A   23
 C17
A   24
 C18
A   25
 C19
A   26
 C20
A   27
 C21
A   28
 C22
A   29
 C23
A   30
 H1 
A   31
 H2 
A   32
 H3 
A   33
 H4 
A   34
 H5 
A   35
 H6 
A   36
 H7 
A   37
 H8 
A   38
 H9 
A   39
 H10
A   40
 H11
A   41
 H12
A   42
 H13
M  END
>  <ref_pdb>  (397) 
x0051_0B

>  <ref_mols>  (397) 
x0846_1B,x0101_0B

>  <original SMILES>  (397) 
[H]c1oc2c([H])c(OC(=O)c3c([H])c([H])c([H])c([H])c3[H])c([H])c([H])c2c(=O)c1-c1nc2c([H])c([H])c([H])c([H])c2s1

>  <index>  (397) 
304

>  <∆∆G>  (397) 
-8.578099

>  <∆G_bound>  (397) 
-7.576629

>  <∆G_unbound>  (397) 
1.00147

>  <comRMSD>  (397) 
0.82977

>  <N_constrained_atoms>  (397) 
29.0

>  <N_unconstrained_atoms>  (397) 
2.0

>  <runtime>  (397) 
49.246073

>  <LE>  (397) 
0.276713

>  <percent_hybrid>  (397) 
40.0

>  <dist>  (397) 
12.0

>  <ecfp4>  (397) 
0.1875

>  <daylight>  (397) 
0.217009

>  <topodist>  (397) 
4.0

>  <mces>  (397) 
32.0

>  <tdn>  (397) 
1.0

>  <tup>  (397) 
0.0

>  <rdn>  (397) 
0.0

>  <rup>  (397) 
1.0

>  <ldn>  (397) 
2.0

>  <lup>  (397) 
0.0

>  <mut>  (397) 
4.0

>  <maj>  (397) 
4.0

>  <min>  (397) 
0.0

>  <hyb>  (397) 
4.0

>  <sub>  (397) 
2.0

>  <query_index>  (397) 
236.0

>  <max_hit_Tanimoto>  (397) 
0.208

>  <largest_ring>  (397) 
0

>  <N_interactions_kept>  (397) 
2.5

>  <N_interactions_lost>  (397) 
1.0

>  <interaction_uniqueness_metric>  (397) 
0.050576

>  <ad_hoc_penalty>  (397) 
-19.016234

>  <N_rotatable_bonds>  (397) 
3

>  <N_HA>  (397) 
29

>  <cluster>  (397) 
5940

>  <N_interactions>  (397) 
3

>  <Enamine>  (397) 
1

>  <Mcule>  (397) 
0

>  <N_PAINS>  (397) 
0

>  <UFF_Gibbs>  (397) 
253.389868

>  <strain_per_HA>  (397) 
8.737582

>  <saltbridge:HIS:51>  (397) 
0

>  <pistack:HIS:51>  (397) 
0

>  <hydroph_interaction:HIS:51>  (397) 
0

>  <hbond:ALA:132>  (397) 
0

>  <hbond:SER:135>  (397) 
0

>  <hydroph_interaction:TYR:150>  (397) 
1

>  <pistack:TYR:161>  (397) 
1

>  <hydroph_interaction:TYR:161>  (397) 
0

>  <hydroph_interaction:ASP:83>  (397) 
0

>  <hbond:TYR:130>  (397) 
0

>  <hydroph_interaction:ALA:132>  (397) 
1

>  <hbond:HIS:51>  (397) 
0

>  <hbond:ASP:129>  (397) 
0

>  <hbond:TYR:150>  (397) 
0

>  <hbond:GLY:151>  (397) 
0

>  <hbond:TYR:161>  (397) 
0

>  <hydroph_interaction:TYR:130>  (397) 
0

>  <hydroph_interaction:PRO:131>  (397) 
0

>  <hydroph_interaction:ASP:129>  (397) 
0

>  <saltbridge:ASP:75>  (397) 
0

>  <saltbridge:ASP:83>  (397) 
0

>  <hydroph_interaction:ASN:152>  (397) 
0

>  <halogenbond:TYR:150>  (397) 
0

>  <hbond:ASP:83>  (397) 
0

>  <hydroph_interaction:VAL:155>  (397) 
0

>  <pication:TYR:161>  (397) 
0

>  <hbond:PRO:131>  (397) 
0

>  <hbond:LEU:128>  (397) 
0

>  <saltbridge:ASP:129>  (397) 
0

>  <hbond:THR:134>  (397) 
0

>  <pication:HIS:51>  (397) 
0

>  <hbond:SER:81>  (397) 
0

>  <hbond:GLY:159>  (397) 
0

>  <hydroph_interaction:PRO:101>  (397) 
0

>  <hydroph_interaction:THR:134>  (397) 
0

>  <hbond:GLY:82>  (397) 
0

>  <hydroph_interaction:GLU:104>  (397) 
0

>  <hydroph_interaction:VAL:36>  (397) 
0

>  <hydroph_interaction:MET:49>  (397) 
0

>  <halogenbond:GLU:104>  (397) 
0

>  <hydroph_interaction:LYS:107>  (397) 
0

$$$$
UNJGFKTUJACNIV-UHFFFAOYSA-N
     RDKit          3D

 43 47  0  0  0  0  0  0  0  0999 V2000
   -6.3860   10.2350  -24.3770 C   0  0  0  0  0  0  0  0  0  0  0  0
   -6.2730    9.7460  -25.6880 N   0  0  0  0  0  0  0  0  0  0  0  0
   -7.3640    9.2900  -26.4800 C   0  0  0  0  0  0  0  0  0  0  0  0
   -8.4250   10.0990  -26.7940 O   0  0  0  0  0  0  0  0  0  0  0  0
   -9.2740    9.2930  -27.4870 C   0  0  0  0  0  0  0  0  0  0  0  0
   -8.6140    7.9580  -27.5780 C   0  0  0  0  0  0  0  0  0  0  0  0
   -9.3020    6.9150  -28.2520 C   0  0  0  0  0  0  0  0  0  0  0  0
  -10.5630    7.1680  -28.7930 C   0  0  0  0  0  0  0  0  0  0  0  0
  -11.1900    8.5450  -28.6660 C   0  0  0  0  0  0  0  0  0  0  0  0
  -10.5180    9.5820  -28.0120 C   0  0  0  0  0  0  0  0  0  0  0  0
   -7.4040    8.0180  -26.9380 N   0  0  0  0  0  0  0  0  0  0  0  0
   -6.9640   11.2570  -24.0260 O   0  0  0  0  0  0  0  0  0  0  0  0
   -5.7170    9.3980  -23.2730 C   0  0  0  0  0  0  0  0  0  0  0  0
   -5.9540    8.0220  -23.2240 C   0  0  0  0  0  0  0  0  0  0  0  0
   -5.3470    7.2380  -22.2160 C   0  0  0  0  0  0  0  0  0  0  0  0
   -4.4950    7.8240  -21.2510 C   0  0  0  0  0  0  0  0  0  0  0  0
   -3.7880    7.1870  -20.1990 O   0  0  0  0  0  0  0  0  0  0  0  0
   -4.1010    7.2540  -18.7730 C   0  0  0  0  0  0  0  0  0  0  0  0
   -5.2840    6.5340  -18.6480 C   0  0  0  0  0  0  0  0  0  0  0  0
   -5.5550    5.7630  -19.7510 C   0  0  0  0  0  0  0  0  0  0  0  0
   -6.6890    5.0240  -19.8480 C   0  0  0  0  0  0  0  0  0  0  0  0
   -7.5950    5.0580  -18.7880 C   0  0  0  0  0  0  0  0  0  0  0  0
   -7.3490    5.8120  -17.6280 C   0  0  0  0  0  0  0  0  0  0  0  0
   -8.3320    5.7150  -16.7090 N   0  0  0  0  0  0  0  0  0  0  0  0
   -9.4780    4.7200  -17.3730 S   0  0  0  0  0  0  0  0  0  0  0  0
   -8.7460    4.3910  -18.8020 N   0  0  0  0  0  0  0  0  0  0  0  0
   -6.1550    6.5860  -17.5190 C   0  0  0  0  0  0  0  0  0  0  0  0
   -4.2840    9.2080  -21.3220 C   0  0  0  0  0  0  0  0  0  0  0  0
   -4.8850    9.9920  -22.3190 C   0  0  0  0  0  0  0  0  0  0  0  0
   -5.3640    9.3990  -25.9640 H   0  0  0  0  0  0  0  0  0  0  0  0
   -8.8670    5.9210  -28.3490 H   0  0  0  0  0  0  0  0  0  0  0  0
  -11.1020    6.3740  -29.3070 H   0  0  0  0  0  0  0  0  0  0  0  0
  -12.1750    8.7320  -29.0910 H   0  0  0  0  0  0  0  0  0  0  0  0
  -10.9990   10.5550  -27.9410 H   0  0  0  0  0  0  0  0  0  0  0  0
   -6.6010    7.5360  -23.9540 H   0  0  0  0  0  0  0  0  0  0  0  0
   -5.5580    6.1730  -22.2220 H   0  0  0  0  0  0  0  0  0  0  0  0
   -3.3120    6.7930  -18.1710 H   0  0  0  0  0  0  0  0  0  0  0  0
   -4.2640    8.2870  -18.4430 H   0  0  0  0  0  0  0  0  0  0  0  0
   -4.8570    5.7400  -20.5890 H   0  0  0  0  0  0  0  0  0  0  0  0
   -6.8970    4.4270  -20.7280 H   0  0  0  0  0  0  0  0  0  0  0  0
   -5.9480    7.1830  -16.6380 H   0  0  0  0  0  0  0  0  0  0  0  0
   -3.6360    9.6860  -20.5920 H   0  0  0  0  0  0  0  0  0  0  0  0
   -4.6970   11.0640  -22.3460 H   0  0  0  0  0  0  0  0  0  0  0  0
  1  2  1  0
  2  3  1  0
  3  4  1  0
  4  5  1  0
  5  6  2  0
  6  7  1  0
  7  8  2  0
  8  9  1  0
  9 10  2  0
  6 11  1  0
  1 12  2  0
  1 13  1  0
 13 14  2  0
 14 15  1  0
 15 16  2  0
 16 17  1  0
 17 18  1  0
 18 19  1  0
 19 20  1  0
 20 21  2  0
 21 22  1  0
 22 23  1  0
 23 24  2  0
 24 25  1  0
 25 26  1  0
 23 27  1  0
 16 28  1  0
 28 29  2  0
  3 11  2  0
 10  5  1  0
 29 13  1  0
 19 27  2  0
 22 26  2  0
  2 30  1  0
  7 31  1  0
  8 32  1  0
  9 33  1  0
 10 34  1  0
 14 35  1  0
 15 36  1  0
 18 37  1  0
 18 38  1  0
 20 39  1  0
 21 40  1  0
 27 41  1  0
 28 42  1  0
 29 43  1  0
A    1
 C1 
A    2
 N1 
A    3
 C2 
A    4
 O1 
A    5
 C3 
A    6
 C4 
A    7
 C5 
A    8
 C6 
A    9
 C7 
A   10
 C8 
A   11
 N2 
A   12
 O2 
A   13
 C9 
A   14
 C10
A   15
 C11
A   16
 C12
A   17
 O3 
A   18
 C13
A   19
 C14
A   20
 C15
A   21
 C16
A   22
 C17
A   23
 C18
A   24
 N3 
A   25
 S1 
A   26
 N4 
A   27
 C19
A   28
 C20
A   29
 C21
A   30
 H1 
A   31
 H2 
A   32
 H3 
A   33
 H4 
A   34
 H5 
A   35
 H6 
A   36
 H7 
A   37
 H8 
A   38
 H9 
A   39
 H10
A   40
 H11
A   41
 H12
A   42
 H13
A   43
 H14
M  END
>  <ref_pdb>  (398) 
x0051_0B

>  <ref_mols>  (398) 
x0051_0B,x0846_1B

>  <original SMILES>  (398) 
[H]c1c([H])c(C(=O)N([H])c2nc3c([H])c([H])c([H])c([H])c3o2)c([H])c([H])c1OC([H])([H])c1c([H])c([H])c2nsnc2c1[H]

>  <index>  (398) 
555

>  <∆∆G>  (398) 
-7.61328

>  <∆G_bound>  (398) 
-7.077572

>  <∆G_unbound>  (398) 
0.535708

>  <comRMSD>  (398) 
0.957526

>  <N_constrained_atoms>  (398) 
29.0

>  <N_unconstrained_atoms>  (398) 
3.0

>  <runtime>  (398) 
59.875932

>  <LE>  (398) 
0.237915

>  <percent_hybrid>  (398) 
38.0

>  <dist>  (398) 
9.0

>  <ecfp4>  (398) 
0.217391

>  <daylight>  (398) 
0.295302

>  <topodist>  (398) 
5.0

>  <mces>  (398) 
32.0

>  <tdn>  (398) 
2.0

>  <tup>  (398) 
1.0

>  <rdn>  (398) 
0.0

>  <rup>  (398) 
0.0

>  <ldn>  (398) 
2.0

>  <lup>  (398) 
0.0

>  <mut>  (398) 
3.0

>  <maj>  (398) 
3.0

>  <min>  (398) 
0.0

>  <hyb>  (398) 
1.0

>  <sub>  (398) 
1.0

>  <query_index>  (398) 
185.0

>  <max_hit_Tanimoto>  (398) 
0.29576

>  <largest_ring>  (398) 
6

>  <N_interactions_kept>  (398) 
2.5

>  <N_interactions_lost>  (398) 
1.0

>  <interaction_uniqueness_metric>  (398) 
0.089093

>  <ad_hoc_penalty>  (398) 
-18.981826

>  <N_rotatable_bonds>  (398) 
5

>  <N_HA>  (398) 
29

>  <cluster>  (398) 
5711

>  <N_interactions>  (398) 
4

>  <Enamine>  (398) 
0

>  <Mcule>  (398) 
1

>  <N_PAINS>  (398) 
0

>  <UFF_Gibbs>  (398) 
151.833471

>  <strain_per_HA>  (398) 
5.235637

>  <saltbridge:HIS:51>  (398) 
0

>  <pistack:HIS:51>  (398) 
0

>  <hydroph_interaction:HIS:51>  (398) 
0

>  <hbond:ALA:132>  (398) 
0

>  <hbond:SER:135>  (398) 
0

>  <hydroph_interaction:TYR:150>  (398) 
0

>  <pistack:TYR:161>  (398) 
0

>  <hydroph_interaction:TYR:161>  (398) 
2

>  <hydroph_interaction:ASP:83>  (398) 
0

>  <hbond:TYR:130>  (398) 
0

>  <hydroph_interaction:ALA:132>  (398) 
1

>  <hbond:HIS:51>  (398) 
0

>  <hbond:ASP:129>  (398) 
0

>  <hbond:TYR:150>  (398) 
0

>  <hbond:GLY:151>  (398) 
0

>  <hbond:TYR:161>  (398) 
0

>  <hydroph_interaction:TYR:130>  (398) 
0

>  <hydroph_interaction:PRO:131>  (398) 
1

>  <hydroph_interaction:ASP:129>  (398) 
0

>  <saltbridge:ASP:75>  (398) 
0

>  <saltbridge:ASP:83>  (398) 
0

>  <hydroph_interaction:ASN:152>  (398) 
0

>  <halogenbond:TYR:150>  (398) 
0

>  <hbond:ASP:83>  (398) 
0

>  <hydroph_interaction:VAL:155>  (398) 
0

>  <pication:TYR:161>  (398) 
0

>  <hbond:PRO:131>  (398) 
0

>  <hbond:LEU:128>  (398) 
0

>  <saltbridge:ASP:129>  (398) 
0

>  <hbond:THR:134>  (398) 
0

>  <pication:HIS:51>  (398) 
0

>  <hbond:SER:81>  (398) 
0

>  <hbond:GLY:159>  (398) 
0

>  <hydroph_interaction:PRO:101>  (398) 
0

>  <hydroph_interaction:THR:134>  (398) 
0

>  <hbond:GLY:82>  (398) 
0

>  <hydroph_interaction:GLU:104>  (398) 
0

>  <hydroph_interaction:VAL:36>  (398) 
0

>  <hydroph_interaction:MET:49>  (398) 
0

>  <halogenbond:GLU:104>  (398) 
0

>  <hydroph_interaction:LYS:107>  (398) 
0

$$$$
Z2452621935
     RDKit          3D

 53 56  0  0  0  0  0  0  0  0999 V2000
  -10.3090    8.0340  -13.9700 C   0  0  0  0  0  0  0  0  0  0  0  0
   -9.3080    6.9730  -13.9170 N   0  0  0  0  0  0  0  0  0  0  0  0
   -9.5280    5.9350  -14.8190 C   0  0  0  0  0  0  0  0  0  0  0  0
  -10.3850    5.0910  -14.6140 O   0  0  0  0  0  0  0  0  0  0  0  0
   -8.7460    5.7820  -16.1060 C   0  0  0  0  0  0  0  0  0  0  0  0
   -7.5460    6.3540  -16.4430 N   0  0  0  0  0  0  0  0  0  0  0  0
   -7.2970    5.9110  -17.7120 N   0  0  0  0  0  0  0  0  0  0  0  0
   -6.1040    6.3170  -18.4550 C   0  0  0  0  0  0  0  0  0  0  0  0
   -5.3650    5.2400  -18.9160 C   0  0  0  0  0  0  0  0  0  0  0  0
   -4.1800    5.6120  -19.5620 C   0  0  0  0  0  0  0  0  0  0  0  0
   -4.1370    6.8580  -20.1850 C   0  0  0  0  0  0  0  0  0  0  0  0
   -5.4480    7.2280  -20.6940 N   0  0  0  0  0  0  0  0  0  0  0  0
   -6.4510    7.2550  -19.6260 C   0  0  0  0  0  0  0  0  0  0  0  0
   -8.2820    5.0900  -18.1470 C   0  0  0  0  0  0  0  0  0  0  0  0
   -9.2030    4.9860  -17.1720 C   0  0  0  0  0  0  0  0  0  0  0  0
   -9.0580    6.4550  -12.6090 C   0  0  0  0  0  0  0  0  0  0  0  0
   -8.8840    7.2590  -11.3360 C   0  0  0  0  0  0  0  0  0  0  0  0
   -8.6410    6.4990  -10.0450 C   0  0  0  0  0  0  0  0  0  0  0  0
   -8.5870    4.9770  -10.1290 C   0  0  0  0  0  0  0  0  0  0  0  0
   -8.3780    4.1920   -8.9900 N   0  0  0  0  0  0  0  0  0  0  0  0
   -9.0520    2.8670   -9.1530 C   0  0  0  0  0  0  0  0  0  0  0  0
   -9.5970    2.4030   -7.9630 C   0  0  0  0  0  0  0  0  0  0  0  0
   -8.7460    2.7000   -6.8620 O   0  0  0  0  0  0  0  0  0  0  0  0
   -8.7640    4.1000   -6.5810 C   0  0  0  0  0  0  0  0  0  0  0  0
   -8.5190    4.9200   -7.6950 C   0  0  0  0  0  0  0  0  0  0  0  0
   -8.7450    4.3630  -11.3090 N   0  0  0  0  0  0  0  0  0  0  0  0
   -8.9650    5.0670  -12.4500 C   0  0  0  0  0  0  0  0  0  0  0  0
   -9.8080    8.9970  -14.1100 H   0  0  0  0  0  0  0  0  0  0  0  0
  -10.8860    8.0850  -13.0440 H   0  0  0  0  0  0  0  0  0  0  0  0
  -11.0110    7.8830  -14.7990 H   0  0  0  0  0  0  0  0  0  0  0  0
   -5.4950    6.8710  -17.7500 H   0  0  0  0  0  0  0  0  0  0  0  0
   -6.1310    4.5980  -19.3190 H   0  0  0  0  0  0  0  0  0  0  0  0
   -5.0230    4.6630  -18.0480 H   0  0  0  0  0  0  0  0  0  0  0  0
   -3.9300    4.8770  -20.3390 H   0  0  0  0  0  0  0  0  0  0  0  0
   -3.3620    5.5480  -18.8360 H   0  0  0  0  0  0  0  0  0  0  0  0
   -3.4630    6.7800  -21.0480 H   0  0  0  0  0  0  0  0  0  0  0  0
   -3.7570    7.6870  -19.5950 H   0  0  0  0  0  0  0  0  0  0  0  0
   -5.7490    6.5630  -21.4100 H   0  0  0  0  0  0  0  0  0  0  0  0
   -7.4290    7.0000  -20.0450 H   0  0  0  0  0  0  0  0  0  0  0  0
   -6.5190    8.2890  -19.2800 H   0  0  0  0  0  0  0  0  0  0  0  0
   -8.4370    4.5500  -19.0880 H   0  0  0  0  0  0  0  0  0  0  0  0
  -10.0820    4.3620  -17.3450 H   0  0  0  0  0  0  0  0  0  0  0  0
   -8.9380    8.3540  -11.3520 H   0  0  0  0  0  0  0  0  0  0  0  0
   -8.5140    7.0250   -9.0920 H   0  0  0  0  0  0  0  0  0  0  0  0
   -8.3310    2.1140   -9.5020 H   0  0  0  0  0  0  0  0  0  0  0  0
   -9.8520    2.9500   -9.8980 H   0  0  0  0  0  0  0  0  0  0  0  0
  -10.5800    2.8460   -7.7720 H   0  0  0  0  0  0  0  0  0  0  0  0
   -9.7350    1.3240   -7.9990 H   0  0  0  0  0  0  0  0  0  0  0  0
   -9.7510    4.3240   -6.1580 H   0  0  0  0  0  0  0  0  0  0  0  0
   -8.0240    4.2800   -5.7930 H   0  0  0  0  0  0  0  0  0  0  0  0
   -7.6680    5.5800   -7.4940 H   0  0  0  0  0  0  0  0  0  0  0  0
   -9.3720    5.5970   -7.8110 H   0  0  0  0  0  0  0  0  0  0  0  0
   -9.0720    4.3940  -13.2960 H   0  0  0  0  0  0  0  0  0  0  0  0
  1  2  1  0
  2  3  1  0
  3  4  2  0
  3  5  1  0
  5  6  2  0
  6  7  1  0
  7  8  1  0
  8  9  1  0
  9 10  1  0
 10 11  1  0
 11 12  1  0
 12 13  1  0
  7 14  1  0
 14 15  2  0
  2 16  1  0
 16 17  2  0
 17 18  1  0
 18 19  2  0
 19 20  1  0
 20 21  1  0
 21 22  1  0
 22 23  1  0
 23 24  1  0
 24 25  1  0
 19 26  1  0
 26 27  2  0
 15  5  1  0
 13  8  1  0
 27 16  1  0
 25 20  1  0
  1 28  1  0
  1 29  1  0
  1 30  1  0
  8 31  1  0
  9 32  1  0
  9 33  1  0
 10 34  1  0
 10 35  1  0
 11 36  1  0
 11 37  1  0
 12 38  1  0
 13 39  1  0
 13 40  1  0
 14 41  1  0
 15 42  1  0
 17 43  1  0
 18 44  1  0
 21 45  1  0
 21 46  1  0
 22 47  1  0
 22 48  1  0
 24 49  1  0
 24 50  1  0
 25 51  1  0
 25 52  1  0
 27 53  1  0
A    1
 C1 
A    2
 N1 
A    3
 C2 
A    4
 O1 
A    5
 C3 
A    6
 N2 
A    7
 N3 
A    8
 C4 
A    9
 C5 
A   10
 C6 
A   11
 C7 
A   12
 N4 
A   13
 C8 
A   14
 C9 
A   15
 C10
A   16
 C11
A   17
 C12
A   18
 C13
A   19
 C14
A   20
 N5 
A   21
 C15
A   22
 C16
A   23
 O2 
A   24
 C17
A   25
 C18
A   26
 N6 
A   27
 C19
A   28
 H1 
A   29
 H2 
A   30
 H3 
A   31
 H4 
A   32
 H5 
A   33
 H6 
A   34
 H7 
A   35
 H8 
A   36
 H9 
A   37
 H10
A   38
 H11
A   39
 H12
A   40
 H13
A   41
 H14
A   42
 H15
A   43
 H16
A   44
 H17
A   45
 H18
A   46
 H19
A   47
 H20
A   48
 H21
A   49
 H22
A   50
 H23
A   51
 H24
A   52
 H25
A   53
 H26
M  END
>  <ref_pdb>  (399) 
x0051_0B

>  <ref_mols>  (399) 
x0917_1B,x0404_0B

>  <original SMILES>  (399) 
[H]c1nc(N2C([H])([H])C([H])([H])OC([H])([H])C2([H])[H])c([H])c([H])c1N(C(=O)c1nn(C2([H])C([H])([H])N([H])C([H])([H])C([H])([H])C2([H])[H])c([H])c1[H])C([H])([H])[H]

>  <index>  (399) 
521

>  <∆∆G>  (399) 
-5.620213

>  <∆G_bound>  (399) 
-4.891363

>  <∆G_unbound>  (399) 
0.728849

>  <comRMSD>  (399) 
0.674762

>  <N_constrained_atoms>  (399) 
28.0

>  <N_unconstrained_atoms>  (399) 
1.0

>  <runtime>  (399) 
71.631898

>  <LE>  (399) 
0.1938

>  <percent_hybrid>  (399) 
48.0

>  <dist>  (399) 
10.0

>  <ecfp4>  (399) 
0.247423

>  <daylight>  (399) 
0.191781

>  <topodist>  (399) 
3.0

>  <mces>  (399) 
30.0

>  <tdn>  (399) 
3.0

>  <tup>  (399) 
0.0

>  <rdn>  (399) 
0.0

>  <rup>  (399) 
0.0

>  <ldn>  (399) 
0.0

>  <lup>  (399) 
0.0

>  <mut>  (399) 
6.0

>  <maj>  (399) 
6.0

>  <min>  (399) 
0.0

>  <hyb>  (399) 
1.0

>  <sub>  (399) 
0.0

>  <query_index>  (399) 
310.0

>  <max_hit_Tanimoto>  (399) 
0.244275

>  <largest_ring>  (399) 
6

>  <N_interactions_kept>  (399) 
2.0

>  <N_interactions_lost>  (399) 
2.0

>  <interaction_uniqueness_metric>  (399) 
0.154285

>  <ad_hoc_penalty>  (399) 
-18.94553

>  <N_rotatable_bonds>  (399) 
5

>  <N_HA>  (399) 
27

>  <cluster>  (399) 
5743

>  <N_interactions>  (399) 
7

>  <Enamine>  (399) 
1

>  <Mcule>  (399) 
0

>  <N_PAINS>  (399) 
0

>  <UFF_Gibbs>  (399) 
171.317225

>  <strain_per_HA>  (399) 
6.345082

>  <saltbridge:HIS:51>  (399) 
0

>  <pistack:HIS:51>  (399) 
1

>  <hydroph_interaction:HIS:51>  (399) 
1

>  <hbond:ALA:132>  (399) 
0

>  <hbond:SER:135>  (399) 
1

>  <hydroph_interaction:TYR:150>  (399) 
0

>  <pistack:TYR:161>  (399) 
0

>  <hydroph_interaction:TYR:161>  (399) 
3

>  <hydroph_interaction:ASP:83>  (399) 
0

>  <hbond:TYR:130>  (399) 
1

>  <hydroph_interaction:ALA:132>  (399) 
0

>  <hbond:HIS:51>  (399) 
0

>  <hbond:ASP:129>  (399) 
0

>  <hbond:TYR:150>  (399) 
0

>  <hbond:GLY:151>  (399) 
0

>  <hbond:TYR:161>  (399) 
0

>  <hydroph_interaction:TYR:130>  (399) 
0

>  <hydroph_interaction:PRO:131>  (399) 
0

>  <hydroph_interaction:ASP:129>  (399) 
0

>  <saltbridge:ASP:75>  (399) 
0

>  <saltbridge:ASP:83>  (399) 
0

>  <hydroph_interaction:ASN:152>  (399) 
0

>  <halogenbond:TYR:150>  (399) 
0

>  <hbond:ASP:83>  (399) 
0

>  <hydroph_interaction:VAL:155>  (399) 
0

>  <pication:TYR:161>  (399) 
0

>  <hbond:PRO:131>  (399) 
0

>  <hbond:LEU:128>  (399) 
0

>  <saltbridge:ASP:129>  (399) 
0

>  <hbond:THR:134>  (399) 
0

>  <pication:HIS:51>  (399) 
0

>  <hbond:SER:81>  (399) 
0

>  <hbond:GLY:159>  (399) 
0

>  <hydroph_interaction:PRO:101>  (399) 
0

>  <hydroph_interaction:THR:134>  (399) 
0

>  <hbond:GLY:82>  (399) 
0

>  <hydroph_interaction:GLU:104>  (399) 
0

>  <hydroph_interaction:VAL:36>  (399) 
0

>  <hydroph_interaction:MET:49>  (399) 
0

>  <halogenbond:GLU:104>  (399) 
0

>  <hydroph_interaction:LYS:107>  (399) 
0

$$$$
Z4335523108
     RDKit          3D

 36 38  0  0  0  0  0  0  0  0999 V2000
  -11.4950    4.8040  -18.5820 N   0  0  0  0  0  0  0  0  0  0  0  0
  -10.4660    4.8570  -18.1380 C   0  0  0  0  0  0  0  0  0  0  0  0
   -9.1790    4.9910  -17.5990 C   0  0  0  0  0  0  0  0  0  0  0  0
   -8.1270    5.1640  -18.4940 C   0  0  0  0  0  0  0  0  0  0  0  0
   -6.8410    5.3130  -18.0050 C   0  0  0  0  0  0  0  0  0  0  0  0
   -6.6220    5.2840  -16.6310 C   0  0  0  0  0  0  0  0  0  0  0  0
   -5.3690    5.4280  -16.1860 F   0  0  0  0  0  0  0  0  0  0  0  0
   -7.6720    5.1060  -15.7180 C   0  0  0  0  0  0  0  0  0  0  0  0
   -7.3790    5.0700  -14.3200 O   0  0  0  0  0  0  0  0  0  0  0  0
   -8.0020    5.9780  -13.4200 C   0  0  0  0  0  0  0  0  0  0  0  0
   -7.8090    7.1900  -13.3790 O   0  0  0  0  0  0  0  0  0  0  0  0
   -8.9450    5.1760  -12.5130 C   0  0  0  0  0  0  0  0  0  0  0  0
   -8.8880    5.2970  -10.9990 C   0  0  0  0  0  0  0  0  0  0  0  0
   -8.9870    4.2510  -10.0880 C   0  0  0  0  0  0  0  0  0  0  0  0
   -9.1550    2.7810  -10.2840 C   0  0  0  0  0  0  0  0  0  0  0  0
   -8.9220    2.0110   -8.9930 C   0  0  0  0  0  0  0  0  0  0  0  0
   -9.5910    2.6810   -7.8050 C   0  0  0  0  0  0  0  0  0  0  0  0
   -8.9830    4.0620   -7.5820 C   0  0  0  0  0  0  0  0  0  0  0  0
   -8.9080    4.8010   -8.8320 N   0  0  0  0  0  0  0  0  0  0  0  0
   -8.7540    6.1330   -8.8430 N   0  0  0  0  0  0  0  0  0  0  0  0
   -8.7420    6.4390  -10.1520 C   0  0  0  0  0  0  0  0  0  0  0  0
   -8.9750    4.9590  -16.2080 C   0  0  0  0  0  0  0  0  0  0  0  0
   -8.3060    5.1870  -19.5710 H   0  0  0  0  0  0  0  0  0  0  0  0
   -6.0030    5.4510  -18.6810 H   0  0  0  0  0  0  0  0  0  0  0  0
   -9.9580    5.4340  -12.8310 H   0  0  0  0  0  0  0  0  0  0  0  0
   -8.7950    4.1210  -12.7790 H   0  0  0  0  0  0  0  0  0  0  0  0
   -8.4580    2.4140  -11.0460 H   0  0  0  0  0  0  0  0  0  0  0  0
  -10.1620    2.5730  -10.6500 H   0  0  0  0  0  0  0  0  0  0  0  0
   -9.2900    0.9890   -9.1010 H   0  0  0  0  0  0  0  0  0  0  0  0
   -7.8470    1.9540   -8.8040 H   0  0  0  0  0  0  0  0  0  0  0  0
   -9.4640    2.0680   -6.9130 H   0  0  0  0  0  0  0  0  0  0  0  0
  -10.6670    2.7620   -7.9900 H   0  0  0  0  0  0  0  0  0  0  0  0
   -7.9590    3.9780   -7.2030 H   0  0  0  0  0  0  0  0  0  0  0  0
   -9.5840    4.6420   -6.8740 H   0  0  0  0  0  0  0  0  0  0  0  0
   -8.6310    7.4780  -10.4410 H   0  0  0  0  0  0  0  0  0  0  0  0
   -9.8080    4.8220  -15.5250 H   0  0  0  0  0  0  0  0  0  0  0  0
  1  2  3  0
  2  3  1  0
  3  4  2  0
  4  5  1  0
  5  6  2  0
  6  7  1  0
  6  8  1  0
  8  9  1  0
  9 10  1  0
 10 11  2  0
 10 12  1  0
 12 13  1  0
 13 14  2  0
 14 15  1  0
 15 16  1  0
 16 17  1  0
 17 18  1  0
 18 19  1  0
 19 20  1  0
 20 21  2  0
  8 22  2  0
 22  3  1  0
 21 13  1  0
 19 14  1  0
  4 23  1  0
  5 24  1  0
 12 25  1  0
 12 26  1  0
 15 27  1  0
 15 28  1  0
 16 29  1  0
 16 30  1  0
 17 31  1  0
 17 32  1  0
 18 33  1  0
 18 34  1  0
 21 35  1  0
 22 36  1  0
A    1
 N1 
A    2
 C1 
A    3
 C2 
A    4
 C3 
A    5
 C4 
A    6
 C5 
A    7
 F1 
A    8
 C6 
A    9
 O1 
A   10
 C7 
A   11
 O2 
A   12
 C8 
A   13
 C9 
A   14
 C10
A   15
 C11
A   16
 C12
A   17
 C13
A   18
 C14
A   19
 N2 
A   20
 N3 
A   21
 C15
A   22
 C16
A   23
 H1 
A   24
 H2 
A   25
 H3 
A   26
 H4 
A   27
 H5 
A   28
 H6 
A   29
 H7 
A   30
 H8 
A   31
 H9 
A   32
 H10
A   33
 H11
A   34
 H12
A   35
 H13
A   36
 H14
M  END
>  <ref_pdb>  (400) 
x0051_0B

>  <ref_mols>  (400) 
x0553_0B,x0969_1B

>  <original SMILES>  (400) 
[H]c1nn2c(c1C([H])([H])C(=O)Oc1c([H])c(C#N)c([H])c([H])c1F)C([H])([H])C([H])([H])C([H])([H])C2([H])[H]

>  <index>  (400) 
896

>  <∆∆G>  (400) 
-6.531985

>  <∆G_bound>  (400) 
-4.849972

>  <∆G_unbound>  (400) 
1.682013

>  <comRMSD>  (400) 
0.521251

>  <N_constrained_atoms>  (400) 
19.0

>  <N_unconstrained_atoms>  (400) 
3.0

>  <runtime>  (400) 
51.781392

>  <LE>  (400) 
0.296908

>  <percent_hybrid>  (400) 
48.0

>  <dist>  (400) 
4.0

>  <ecfp4>  (400) 
0.413333

>  <daylight>  (400) 
0.509653

>  <topodist>  (400) 
1.0

>  <mces>  (400) 
23.0

>  <tdn>  (400) 
0.0

>  <tup>  (400) 
1.0

>  <rdn>  (400) 
0.0

>  <rup>  (400) 
0.0

>  <ldn>  (400) 
0.0

>  <lup>  (400) 
0.0

>  <mut>  (400) 
2.0

>  <maj>  (400) 
2.0

>  <min>  (400) 
0.0

>  <hyb>  (400) 
1.0

>  <sub>  (400) 
0.0

>  <query_index>  (400) 
375.0

>  <max_hit_Tanimoto>  (400) 
0.297529

>  <largest_ring>  (400) 
6

>  <N_interactions_kept>  (400) 
1.5

>  <N_interactions_lost>  (400) 
1.0

>  <interaction_uniqueness_metric>  (400) 
0.125715

>  <ad_hoc_penalty>  (400) 
-18.920671

>  <N_rotatable_bonds>  (400) 
3

>  <N_HA>  (400) 
22

>  <cluster>  (400) 
5398

>  <N_interactions>  (400) 
3

>  <Enamine>  (400) 
1

>  <Mcule>  (400) 
0

>  <N_PAINS>  (400) 
0

>  <UFF_Gibbs>  (400) 
39.316511

>  <strain_per_HA>  (400) 
1.787114

>  <saltbridge:HIS:51>  (400) 
0

>  <pistack:HIS:51>  (400) 
1

>  <hydroph_interaction:HIS:51>  (400) 
0

>  <hbond:ALA:132>  (400) 
0

>  <hbond:SER:135>  (400) 
0

>  <hydroph_interaction:TYR:150>  (400) 
0

>  <pistack:TYR:161>  (400) 
1

>  <hydroph_interaction:TYR:161>  (400) 
0

>  <hydroph_interaction:ASP:83>  (400) 
1

>  <hbond:TYR:130>  (400) 
0

>  <hydroph_interaction:ALA:132>  (400) 
0

>  <hbond:HIS:51>  (400) 
0

>  <hbond:ASP:129>  (400) 
0

>  <hbond:TYR:150>  (400) 
0

>  <hbond:GLY:151>  (400) 
0

>  <hbond:TYR:161>  (400) 
0

>  <hydroph_interaction:TYR:130>  (400) 
0

>  <hydroph_interaction:PRO:131>  (400) 
0

>  <hydroph_interaction:ASP:129>  (400) 
0

>  <saltbridge:ASP:75>  (400) 
0

>  <saltbridge:ASP:83>  (400) 
0

>  <hydroph_interaction:ASN:152>  (400) 
0

>  <halogenbond:TYR:150>  (400) 
0

>  <hbond:ASP:83>  (400) 
0

>  <hydroph_interaction:VAL:155>  (400) 
0

>  <pication:TYR:161>  (400) 
0

>  <hbond:PRO:131>  (400) 
0

>  <hbond:LEU:128>  (400) 
0

>  <saltbridge:ASP:129>  (400) 
0

>  <hbond:THR:134>  (400) 
0

>  <pication:HIS:51>  (400) 
0

>  <hbond:SER:81>  (400) 
0

>  <hbond:GLY:159>  (400) 
0

>  <hydroph_interaction:PRO:101>  (400) 
0

>  <hydroph_interaction:THR:134>  (400) 
0

>  <hbond:GLY:82>  (400) 
0

>  <hydroph_interaction:GLU:104>  (400) 
0

>  <hydroph_interaction:VAL:36>  (400) 
0

>  <hydroph_interaction:MET:49>  (400) 
0

>  <halogenbond:GLU:104>  (400) 
0

>  <hydroph_interaction:LYS:107>  (400) 
0

$$$$
HPJATGPLEBJRRZ-UHFFFAOYSA-N
     RDKit          3D

 38 41  0  0  0  0  0  0  0  0999 V2000
   -8.1200    4.4910  -13.1480 N   0  0  0  0  0  0  0  0  0  0  0  0
   -7.1340    5.3460  -14.2350 S   0  0  0  0  0  6  0  0  0  0  0  0
   -7.2370    6.7480  -13.8950 O   0  0  0  0  0  0  0  0  0  0  0  0
   -5.8440    4.6930  -14.2260 O   0  0  0  0  0  0  0  0  0  0  0  0
   -7.8210    5.1720  -15.8530 C   0  0  0  0  0  0  0  0  0  0  0  0
   -6.9590    5.2630  -17.0560 C   0  0  0  0  0  0  0  0  0  0  0  0
   -7.5080    5.1270  -18.3560 C   0  0  0  0  0  0  0  0  0  0  0  0
   -6.6030    5.2360  -19.3430 N   0  0  0  0  0  0  0  0  0  0  0  0
   -5.1430    5.4940  -18.6240 S   0  0  0  0  0  0  0  0  0  0  0  0
   -5.6310    5.4740  -17.0480 N   0  0  0  0  0  0  0  0  0  0  0  0
   -8.9400    4.8870  -18.5810 C   0  0  0  0  0  0  0  0  0  0  0  0
   -9.7320    4.8070  -17.4320 C   0  0  0  0  0  0  0  0  0  0  0  0
   -9.1940    4.9450  -16.1280 C   0  0  0  0  0  0  0  0  0  0  0  0
   -9.0080    5.4060  -12.3980 C   0  0  0  0  0  0  0  0  0  0  0  0
   -8.9160    5.5050  -10.8490 C   0  0  0  0  0  0  0  0  0  0  0  0
   -8.9930    4.3610   -9.9320 C   0  0  0  0  0  0  0  0  0  0  0  0
   -8.9040    4.8560   -8.6690 N   0  0  0  0  0  0  0  0  0  0  0  0
   -8.9660    4.0330   -7.4810 C   0  0  0  0  0  0  0  0  0  0  0  0
   -9.4150    2.6390   -7.9060 C   0  0  0  0  0  0  0  0  0  0  0  0
   -8.6190    2.1800   -9.1270 C   0  0  0  0  0  0  0  0  0  0  0  0
   -9.1510    2.9110  -10.3480 C   0  0  0  0  0  0  0  0  0  0  0  0
   -8.7580    6.1970   -8.6360 N   0  0  0  0  0  0  0  0  0  0  0  0
   -8.7660    6.5890   -9.9400 C   0  0  0  0  0  0  0  0  0  0  0  0
   -8.7080    3.8290  -13.6940 H   0  0  0  0  0  0  0  0  0  0  0  0
   -9.3540    4.7820  -19.5800 H   0  0  0  0  0  0  0  0  0  0  0  0
  -10.8000    4.6330  -17.5470 H   0  0  0  0  0  0  0  0  0  0  0  0
   -9.8910    4.8690  -15.2860 H   0  0  0  0  0  0  0  0  0  0  0  0
  -10.0240    5.1090  -12.6310 H   0  0  0  0  0  0  0  0  0  0  0  0
   -8.8760    6.4040  -12.8040 H   0  0  0  0  0  0  0  0  0  0  0  0
   -7.9610    4.0090   -7.0450 H   0  0  0  0  0  0  0  0  0  0  0  0
   -9.6700    4.4810   -6.7730 H   0  0  0  0  0  0  0  0  0  0  0  0
  -10.4860    2.6550   -8.1390 H   0  0  0  0  0  0  0  0  0  0  0  0
   -9.2540    1.9440   -7.0780 H   0  0  0  0  0  0  0  0  0  0  0  0
   -8.7160    1.1140   -9.2430 H   0  0  0  0  0  0  0  0  0  0  0  0
   -7.5630    2.4200   -8.9800 H   0  0  0  0  0  0  0  0  0  0  0  0
  -10.1970    2.6570  -10.5290 H   0  0  0  0  0  0  0  0  0  0  0  0
   -8.5680    2.6680  -11.2460 H   0  0  0  0  0  0  0  0  0  0  0  0
   -8.6650    7.6570  -10.1710 H   0  0  0  0  0  0  0  0  0  0  0  0
  1  2  1  0
  2  3  2  0
  2  4  2  0
  2  5  1  0
  5  6  1  0
  6  7  1  0
  7  8  2  0
  8  9  1  0
  9 10  1  0
  7 11  1  0
 11 12  2  0
 12 13  1  0
  1 14  1  0
 14 15  1  0
 15 16  2  0
 16 17  1  0
 17 18  1  0
 18 19  1  0
 19 20  1  0
 20 21  1  0
 17 22  1  0
 22 23  2  0
  5 13  2  0
  6 10  2  0
 23 15  1  0
 21 16  1  0
  1 24  1  0
 11 25  1  0
 12 26  1  0
 13 27  1  0
 14 28  1  0
 14 29  1  0
 18 30  1  0
 18 31  1  0
 19 32  1  0
 19 33  1  0
 20 34  1  0
 20 35  1  0
 21 36  1  0
 21 37  1  0
 23 38  1  0
A    1
 N1 
A    2
 S1 
A    3
 O1 
A    4
 O2 
A    5
 C1 
A    6
 C2 
A    7
 C3 
A    8
 N2 
A    9
 S2 
A   10
 N3 
A   11
 C4 
A   12
 C5 
A   13
 C6 
A   14
 C7 
A   15
 C8 
A   16
 C9 
A   17
 N4 
A   18
 C10
A   19
 C11
A   20
 C12
A   21
 C13
A   22
 N5 
A   23
 C14
A   24
 H1 
A   25
 H2 
A   26
 H3 
A   27
 H4 
A   28
 H5 
A   29
 H6 
A   30
 H7 
A   31
 H8 
A   32
 H9 
A   33
 H10
A   34
 H11
A   35
 H12
A   36
 H13
A   37
 H14
A   38
 H15
M  END
>  <ref_pdb>  (401) 
x0051_0B

>  <ref_mols>  (401) 
x0435_0B,x0969_1B

>  <original SMILES>  (401) 
[H]c1nn2c(c1C([H])([H])N([H])S(=O)(=O)c1c([H])c([H])c([H])c3nsnc13)C([H])([H])C([H])([H])C([H])([H])C2([H])[H]

>  <index>  (401) 
772

>  <∆∆G>  (401) 
-8.039355

>  <∆G_bound>  (401) 
-6.957162

>  <∆G_unbound>  (401) 
1.082193

>  <comRMSD>  (401) 
0.339273

>  <N_constrained_atoms>  (401) 
19.0

>  <N_unconstrained_atoms>  (401) 
4.0

>  <runtime>  (401) 
49.571077

>  <LE>  (401) 
0.349537

>  <percent_hybrid>  (401) 
48.0

>  <dist>  (401) 
9.0

>  <ecfp4>  (401) 
0.197674

>  <daylight>  (401) 
0.236264

>  <topodist>  (401) 
3.0

>  <mces>  (401) 
24.0

>  <tdn>  (401) 
1.0

>  <tup>  (401) 
2.0

>  <rdn>  (401) 
0.0

>  <rup>  (401) 
0.0

>  <ldn>  (401) 
0.0

>  <lup>  (401) 
0.0

>  <mut>  (401) 
6.0

>  <maj>  (401) 
5.0

>  <min>  (401) 
1.0

>  <hyb>  (401) 
0.0

>  <sub>  (401) 
0.0

>  <query_index>  (401) 
311.0

>  <max_hit_Tanimoto>  (401) 
0.302799

>  <largest_ring>  (401) 
6

>  <N_interactions_kept>  (401) 
2.0

>  <N_interactions_lost>  (401) 
1.5

>  <interaction_uniqueness_metric>  (401) 
0.140057

>  <ad_hoc_penalty>  (401) 
-18.916392

>  <N_rotatable_bonds>  (401) 
4

>  <N_HA>  (401) 
23

>  <cluster>  (401) 
5511

>  <N_interactions>  (401) 
4

>  <Enamine>  (401) 
0

>  <Mcule>  (401) 
1

>  <N_PAINS>  (401) 
0

>  <UFF_Gibbs>  (401) 
71.429163

>  <strain_per_HA>  (401) 
3.105616

>  <saltbridge:HIS:51>  (401) 
0

>  <pistack:HIS:51>  (401) 
0

>  <hydroph_interaction:HIS:51>  (401) 
1

>  <hbond:ALA:132>  (401) 
0

>  <hbond:SER:135>  (401) 
0

>  <hydroph_interaction:TYR:150>  (401) 
0

>  <pistack:TYR:161>  (401) 
2

>  <hydroph_interaction:TYR:161>  (401) 
0

>  <hydroph_interaction:ASP:83>  (401) 
1

>  <hbond:TYR:130>  (401) 
0

>  <hydroph_interaction:ALA:132>  (401) 
0

>  <hbond:HIS:51>  (401) 
0

>  <hbond:ASP:129>  (401) 
0

>  <hbond:TYR:150>  (401) 
0

>  <hbond:GLY:151>  (401) 
0

>  <hbond:TYR:161>  (401) 
0

>  <hydroph_interaction:TYR:130>  (401) 
0

>  <hydroph_interaction:PRO:131>  (401) 
0

>  <hydroph_interaction:ASP:129>  (401) 
0

>  <saltbridge:ASP:75>  (401) 
0

>  <saltbridge:ASP:83>  (401) 
0

>  <hydroph_interaction:ASN:152>  (401) 
0

>  <halogenbond:TYR:150>  (401) 
0

>  <hbond:ASP:83>  (401) 
0

>  <hydroph_interaction:VAL:155>  (401) 
0

>  <pication:TYR:161>  (401) 
0

>  <hbond:PRO:131>  (401) 
0

>  <hbond:LEU:128>  (401) 
0

>  <saltbridge:ASP:129>  (401) 
0

>  <hbond:THR:134>  (401) 
0

>  <pication:HIS:51>  (401) 
0

>  <hbond:SER:81>  (401) 
0

>  <hbond:GLY:159>  (401) 
0

>  <hydroph_interaction:PRO:101>  (401) 
0

>  <hydroph_interaction:THR:134>  (401) 
0

>  <hbond:GLY:82>  (401) 
0

>  <hydroph_interaction:GLU:104>  (401) 
0

>  <hydroph_interaction:VAL:36>  (401) 
0

>  <hydroph_interaction:MET:49>  (401) 
0

>  <halogenbond:GLU:104>  (401) 
0

>  <hydroph_interaction:LYS:107>  (401) 
0

$$$$
Z243542140
     RDKit          3D

 48 51  0  0  0  0  0  0  0  0999 V2000
  -11.0580    5.0420  -18.6470 C   0  0  0  0  0  0  0  0  0  0  0  0
   -9.7540    5.0180  -18.0360 C   0  0  0  0  0  0  0  0  0  0  0  0
   -8.6650    5.1060  -18.7240 N   0  0  0  0  0  0  0  0  0  0  0  0
   -7.6020    5.1390  -17.8550 C   0  0  0  0  0  0  0  0  0  0  0  0
   -6.2390    5.2940  -18.4590 C   0  0  0  0  0  0  0  0  0  0  0  0
   -6.3420    5.4900  -19.9180 C   0  0  0  0  0  0  0  0  0  0  0  0
   -5.3210    6.3920  -20.3790 N   0  0  0  0  0  0  0  0  0  0  0  0
   -4.9590    6.4210  -21.6910 C   0  0  0  0  0  0  0  0  0  0  0  0
   -4.3420    5.5190  -22.2380 O   0  0  0  0  0  0  0  0  0  0  0  0
   -5.3100    7.5580  -22.4220 C   0  0  0  0  0  0  0  0  0  0  0  0
   -6.0270    7.4110  -23.5490 C   0  0  0  0  0  0  0  0  0  0  0  0
   -6.3810    8.5560  -24.3170 C   0  0  0  0  0  0  0  0  0  0  0  0
   -5.9680    9.8130  -23.8790 C   0  0  0  0  0  0  0  0  0  0  0  0
   -6.3250   11.0030  -24.7070 C   0  0  0  0  0  0  0  0  0  0  0  0
   -5.8980   10.6530  -26.4430 S   0  0  0  0  0  0  0  0  0  0  0  0
   -7.2510    9.7360  -26.9770 C   0  0  0  0  0  0  0  0  0  0  0  0
   -7.2770    8.4620  -27.2970 N   0  0  0  0  0  0  0  0  0  0  0  0
   -8.5830    8.2330  -27.6490 C   0  0  0  0  0  0  0  0  0  0  0  0
   -9.2710    6.9860  -28.1060 C   0  0  0  0  0  0  0  0  0  0  0  0
  -10.7510    6.9850  -28.4350 C   0  0  0  0  0  0  0  0  0  0  0  0
  -11.4990    8.2980  -28.2820 C   0  0  0  0  0  0  0  0  0  0  0  0
  -10.8460    9.4700  -27.8570 C   0  0  0  0  0  0  0  0  0  0  0  0
   -9.3500    9.3920  -27.5420 C   0  0  0  0  0  0  0  0  0  0  0  0
   -8.4600   10.3370  -27.1120 N   0  0  0  0  0  0  0  0  0  0  0  0
   -5.2300    9.9490  -22.6990 C   0  0  0  0  0  0  0  0  0  0  0  0
   -4.8980    8.8160  -21.9640 C   0  0  0  0  0  0  0  0  0  0  0  0
   -7.9160    5.0410  -16.5220 C   0  0  0  0  0  0  0  0  0  0  0  0
   -9.6000    4.9340  -16.3460 S   0  0  0  0  0  0  0  0  0  0  0  0
  -11.5640    4.0960  -18.5230 H   0  0  0  0  0  0  0  0  0  0  0  0
  -11.6240    5.8070  -18.1970 H   0  0  0  0  0  0  0  0  0  0  0  0
  -10.9450    5.3310  -19.6950 H   0  0  0  0  0  0  0  0  0  0  0  0
   -5.7550    6.1630  -17.9980 H   0  0  0  0  0  0  0  0  0  0  0  0
   -5.6290    4.4280  -18.2330 H   0  0  0  0  0  0  0  0  0  0  0  0
   -7.3070    5.9280  -20.1840 H   0  0  0  0  0  0  0  0  0  0  0  0
   -6.2460    4.5320  -20.4410 H   0  0  0  0  0  0  0  0  0  0  0  0
   -5.2000    7.2210  -19.8020 H   0  0  0  0  0  0  0  0  0  0  0  0
   -6.3500    6.4370  -23.9040 H   0  0  0  0  0  0  0  0  0  0  0  0
   -6.9580    8.4400  -25.2290 H   0  0  0  0  0  0  0  0  0  0  0  0
   -7.3620   11.2710  -24.6050 H   0  0  0  0  0  0  0  0  0  0  0  0
   -5.7410   11.8680  -24.3700 H   0  0  0  0  0  0  0  0  0  0  0  0
   -8.6970    6.0510  -28.2020 H   0  0  0  0  0  0  0  0  0  0  0  0
  -11.2710    6.0780  -28.7690 H   0  0  0  0  0  0  0  0  0  0  0  0
  -12.5640    8.3390  -28.5070 H   0  0  0  0  0  0  0  0  0  0  0  0
  -11.3970   10.3990  -27.7560 H   0  0  0  0  0  0  0  0  0  0  0  0
   -8.6540   11.3080  -26.9230 H   0  0  0  0  0  0  0  0  0  0  0  0
   -4.9050   10.9290  -22.3480 H   0  0  0  0  0  0  0  0  0  0  0  0
   -4.3210    8.9140  -21.0470 H   0  0  0  0  0  0  0  0  0  0  0  0
   -7.2570    5.0380  -15.6660 H   0  0  0  0  0  0  0  0  0  0  0  0
  1  2  1  0
  2  3  2  0
  3  4  1  0
  4  5  1  0
  5  6  1  0
  6  7  1  0
  7  8  1  0
  8  9  2  0
  8 10  1  0
 10 11  2  0
 11 12  1  0
 12 13  2  0
 13 14  1  0
 14 15  1  0
 15 16  1  0
 16 17  2  0
 17 18  1  0
 18 19  2  0
 19 20  1  0
 20 21  2  0
 21 22  1  0
 22 23  2  0
 23 24  1  0
 13 25  1  0
 25 26  2  0
  4 27  2  0
 27 28  1  0
 28  2  1  0
 26 10  1  0
 24 16  1  0
 23 18  1  0
  1 29  1  0
  1 30  1  0
  1 31  1  0
  5 32  1  0
  5 33  1  0
  6 34  1  0
  6 35  1  0
  7 36  1  0
 11 37  1  0
 12 38  1  0
 14 39  1  0
 14 40  1  0
 19 41  1  0
 20 42  1  0
 21 43  1  0
 22 44  1  0
 24 45  1  0
 25 46  1  0
 26 47  1  0
 27 48  1  0
A    1
 C1 
A    2
 C2 
A    3
 N1 
A    4
 C3 
A    5
 C4 
A    6
 C5 
A    7
 N2 
A    8
 C6 
A    9
 O1 
A   10
 C7 
A   11
 C8 
A   12
 C9 
A   13
 C10
A   14
 C11
A   15
 S1 
A   16
 C12
A   17
 N3 
A   18
 C13
A   19
 C14
A   20
 C15
A   21
 C16
A   22
 C17
A   23
 C18
A   24
 N4 
A   25
 C19
A   26
 C20
A   27
 C21
A   28
 S2 
A   29
 H1 
A   30
 H2 
A   31
 H3 
A   32
 H4 
A   33
 H5 
A   34
 H6 
A   35
 H7 
A   36
 H8 
A   37
 H9 
A   38
 H10
A   39
 H11
A   40
 H12
A   41
 H13
A   42
 H14
A   43
 H15
A   44
 H16
A   45
 H17
A   46
 H18
A   47
 H19
A   48
 H20
M  END
>  <ref_pdb>  (402) 
x0051_0B

>  <ref_mols>  (402) 
x0386_0B,x0846_1B

>  <original SMILES>  (402) 
[H]c1sc(C([H])([H])[H])nc1C([H])([H])C([H])([H])N([H])C(=O)c1c([H])c([H])c(C([H])([H])Sc2nc3c([H])c([H])c([H])c([H])c3n2[H])c([H])c1[H]

>  <index>  (402) 
719

>  <∆∆G>  (402) 
-8.241108

>  <∆G_bound>  (402) 
-7.01942

>  <∆G_unbound>  (402) 
1.221687

>  <comRMSD>  (402) 
0.724454

>  <N_constrained_atoms>  (402) 
25.0

>  <N_unconstrained_atoms>  (402) 
3.0

>  <runtime>  (402) 
44.407648

>  <LE>  (402) 
0.294325

>  <percent_hybrid>  (402) 
28.0

>  <dist>  (402) 
8.0

>  <ecfp4>  (402) 
0.252747

>  <daylight>  (402) 
0.33195

>  <topodist>  (402) 
3.0

>  <mces>  (402) 
29.0

>  <tdn>  (402) 
1.0

>  <tup>  (402) 
2.0

>  <rdn>  (402) 
0.0

>  <rup>  (402) 
0.0

>  <ldn>  (402) 
0.0

>  <lup>  (402) 
0.0

>  <mut>  (402) 
4.0

>  <maj>  (402) 
3.0

>  <min>  (402) 
1.0

>  <hyb>  (402) 
1.0

>  <sub>  (402) 
2.0

>  <query_index>  (402) 
362.0

>  <max_hit_Tanimoto>  (402) 
0.283784

>  <largest_ring>  (402) 
6

>  <N_interactions_kept>  (402) 
1.0

>  <N_interactions_lost>  (402) 
1.0

>  <interaction_uniqueness_metric>  (402) 
0.169124

>  <ad_hoc_penalty>  (402) 
-18.897589

>  <N_rotatable_bonds>  (402) 
8

>  <N_HA>  (402) 
28

>  <cluster>  (402) 
5562

>  <N_interactions>  (402) 
5

>  <Enamine>  (402) 
1

>  <Mcule>  (402) 
0

>  <N_PAINS>  (402) 
0

>  <UFF_Gibbs>  (402) 
111.776137

>  <strain_per_HA>  (402) 
3.992005

>  <saltbridge:HIS:51>  (402) 
0

>  <pistack:HIS:51>  (402) 
0

>  <hydroph_interaction:HIS:51>  (402) 
0

>  <hbond:ALA:132>  (402) 
0

>  <hbond:SER:135>  (402) 
0

>  <hydroph_interaction:TYR:150>  (402) 
1

>  <pistack:TYR:161>  (402) 
0

>  <hydroph_interaction:TYR:161>  (402) 
1

>  <hydroph_interaction:ASP:83>  (402) 
0

>  <hbond:TYR:130>  (402) 
0

>  <hydroph_interaction:ALA:132>  (402) 
0

>  <hbond:HIS:51>  (402) 
0

>  <hbond:ASP:129>  (402) 
1

>  <hbond:TYR:150>  (402) 
0

>  <hbond:GLY:151>  (402) 
0

>  <hbond:TYR:161>  (402) 
0

>  <hydroph_interaction:TYR:130>  (402) 
1

>  <hydroph_interaction:PRO:131>  (402) 
1

>  <hydroph_interaction:ASP:129>  (402) 
0

>  <saltbridge:ASP:75>  (402) 
0

>  <saltbridge:ASP:83>  (402) 
0

>  <hydroph_interaction:ASN:152>  (402) 
0

>  <halogenbond:TYR:150>  (402) 
0

>  <hbond:ASP:83>  (402) 
0

>  <hydroph_interaction:VAL:155>  (402) 
0

>  <pication:TYR:161>  (402) 
0

>  <hbond:PRO:131>  (402) 
0

>  <hbond:LEU:128>  (402) 
0

>  <saltbridge:ASP:129>  (402) 
0

>  <hbond:THR:134>  (402) 
0

>  <pication:HIS:51>  (402) 
0

>  <hbond:SER:81>  (402) 
0

>  <hbond:GLY:159>  (402) 
0

>  <hydroph_interaction:PRO:101>  (402) 
0

>  <hydroph_interaction:THR:134>  (402) 
0

>  <hbond:GLY:82>  (402) 
0

>  <hydroph_interaction:GLU:104>  (402) 
0

>  <hydroph_interaction:VAL:36>  (402) 
0

>  <hydroph_interaction:MET:49>  (402) 
0

>  <halogenbond:GLU:104>  (402) 
0

>  <hydroph_interaction:LYS:107>  (402) 
0

$$$$
CSSB00000735030
     RDKit          3D

 30 32  0  0  0  0  0  0  0  0999 V2000
   -3.3250    4.2530  -15.3350 Cl  0  0  0  0  0  0  0  0  0  0  0  0
   -3.0480    5.4740  -16.5160 C   0  0  0  0  0  0  0  0  0  0  0  0
   -3.9180    5.5330  -17.6020 C   0  0  0  0  0  0  0  0  0  0  0  0
   -3.5160    5.5690  -18.7710 O   0  0  0  0  0  0  0  0  0  0  0  0
   -5.3700    5.5800  -17.2620 N   0  0  0  0  0  0  0  0  0  0  0  0
   -5.7480    5.6530  -15.8210 C   0  0  0  0  0  0  0  0  0  0  0  0
   -7.0870    6.0880  -15.5980 C   0  0  0  0  0  0  0  0  0  0  0  0
   -8.0020    5.6270  -16.5430 C   0  0  0  0  0  0  0  0  0  0  0  0
   -7.6360    5.6740  -17.8590 C   0  0  0  0  0  0  0  0  0  0  0  0
   -8.6600    5.1380  -18.7480 C   0  0  0  0  0  0  0  0  0  0  0  0
   -9.8150    4.7190  -17.9720 C   0  0  0  0  0  0  0  0  0  0  0  0
   -9.5700    4.9920  -16.2890 S   0  0  0  0  0  0  0  0  0  0  0  0
   -6.3060    6.2500  -18.1250 C   0  0  0  0  0  0  0  0  0  0  0  0
   -6.0440    6.3060  -19.5790 C   0  0  0  0  0  0  0  0  0  0  0  0
   -5.6560    7.4470  -20.2570 C   0  0  0  0  0  0  0  0  0  0  0  0
   -5.4720    7.2190  -21.5980 C   0  0  0  0  0  0  0  0  0  0  0  0
   -5.7160    5.9080  -21.9820 C   0  0  0  0  0  0  0  0  0  0  0  0
   -6.1820    4.9600  -20.6370 S   0  0  0  0  0  0  0  0  0  0  0  0
   -3.0980    6.4130  -15.9540 H   0  0  0  0  0  0  0  0  0  0  0  0
   -2.0260    5.3120  -16.8750 H   0  0  0  0  0  0  0  0  0  0  0  0
   -5.5480    4.6720  -15.4060 H   0  0  0  0  0  0  0  0  0  0  0  0
   -4.9670    6.2780  -15.3940 H   0  0  0  0  0  0  0  0  0  0  0  0
   -7.4200    5.9560  -14.5720 H   0  0  0  0  0  0  0  0  0  0  0  0
   -7.0460    7.1770  -15.7030 H   0  0  0  0  0  0  0  0  0  0  0  0
   -8.6660    5.0320  -19.8310 H   0  0  0  0  0  0  0  0  0  0  0  0
  -10.6630    4.3030  -18.5200 H   0  0  0  0  0  0  0  0  0  0  0  0
   -6.3690    7.2850  -17.7870 H   0  0  0  0  0  0  0  0  0  0  0  0
   -5.5130    8.4090  -19.7770 H   0  0  0  0  0  0  0  0  0  0  0  0
   -5.1660    7.9800  -22.3030 H   0  0  0  0  0  0  0  0  0  0  0  0
   -5.6450    5.4780  -22.9640 H   0  0  0  0  0  0  0  0  0  0  0  0
  1  2  1  0
  2  3  1  0
  3  4  2  0
  3  5  1  0
  5  6  1  0
  6  7  1  0
  7  8  1  0
  8  9  2  0
  9 10  1  0
 10 11  2  0
 11 12  1  0
  9 13  1  0
 13 14  1  0
 14 15  2  0
 15 16  1  0
 16 17  2  0
 17 18  1  0
 13  5  1  0
 12  8  1  0
 18 14  1  0
  2 19  1  0
  2 20  1  0
  6 21  1  0
  6 22  1  0
  7 23  1  0
  7 24  1  0
 10 25  1  0
 11 26  1  0
 13 27  1  0
 15 28  1  0
 16 29  1  0
 17 30  1  0
A    1
CL1 
A    2
 C1 
A    3
 C2 
A    4
 O1 
A    5
 N1 
A    6
 C3 
A    7
 C4 
A    8
 C5 
A    9
 C6 
A   10
 C7 
A   11
 C8 
A   12
 S1 
A   13
 C9 
A   14
 C10
A   15
 C11
A   16
 C12
A   17
 C13
A   18
 S2 
A   19
 H1 
A   20
 H2 
A   21
 H3 
A   22
 H4 
A   23
 H5 
A   24
 H6 
A   25
 H7 
A   26
 H8 
A   27
 H9 
A   28
 H10
A   29
 H11
A   30
 H12
M  END
>  <ref_pdb>  (403) 
x0051_0B

>  <ref_mols>  (403) 
x0472_0B,x0803_0B

>  <original SMILES>  (403) 
[H]c1sc(C2([H])c3c(sc([H])c3[H])C([H])([H])C([H])([H])N2C(=O)C([H])([H])Cl)c([H])c1[H]

>  <index>  (403) 
533

>  <∆∆G>  (403) 
-6.870181

>  <∆G_bound>  (403) 
-6.756463

>  <∆G_unbound>  (403) 
0.113718

>  <comRMSD>  (403) 
0.994703

>  <N_constrained_atoms>  (403) 
18.0

>  <N_unconstrained_atoms>  (403) 
1.0

>  <runtime>  (403) 
24.2815

>  <LE>  (403) 
0.361588

>  <percent_hybrid>  (403) 
46.0

>  <dist>  (403) 
11.0

>  <ecfp4>  (403) 
0.225352

>  <daylight>  (403) 
0.37299

>  <topodist>  (403) 
3.0

>  <mces>  (403) 
19.0

>  <tdn>  (403) 
0.0

>  <tup>  (403) 
0.0

>  <rdn>  (403) 
2.0

>  <rup>  (403) 
1.0

>  <ldn>  (403) 
0.0

>  <lup>  (403) 
0.0

>  <mut>  (403) 
4.0

>  <maj>  (403) 
3.0

>  <min>  (403) 
1.0

>  <hyb>  (403) 
4.0

>  <sub>  (403) 
1.0

>  <query_index>  (403) 
219.0

>  <max_hit_Tanimoto>  (403) 
0.440233

>  <largest_ring>  (403) 
6

>  <N_interactions_kept>  (403) 
5.5

>  <N_interactions_lost>  (403) 
1.0

>  <interaction_uniqueness_metric>  (403) 
0.035255

>  <ad_hoc_penalty>  (403) 
-18.893759

>  <N_rotatable_bonds>  (403) 
2

>  <N_HA>  (403) 
18

>  <cluster>  (403) 
5731

>  <N_interactions>  (403) 
3

>  <Enamine>  (403) 
1

>  <Mcule>  (403) 
0

>  <N_PAINS>  (403) 
0

>  <UFF_Gibbs>  (403) 
89.318086

>  <strain_per_HA>  (403) 
4.962116

>  <saltbridge:HIS:51>  (403) 
0

>  <pistack:HIS:51>  (403) 
0

>  <hydroph_interaction:HIS:51>  (403) 
0

>  <hbond:ALA:132>  (403) 
0

>  <hbond:SER:135>  (403) 
0

>  <hydroph_interaction:TYR:150>  (403) 
0

>  <pistack:TYR:161>  (403) 
0

>  <hydroph_interaction:TYR:161>  (403) 
2

>  <hydroph_interaction:ASP:83>  (403) 
0

>  <hbond:TYR:130>  (403) 
0

>  <hydroph_interaction:ALA:132>  (403) 
1

>  <hbond:HIS:51>  (403) 
0

>  <hbond:ASP:129>  (403) 
0

>  <hbond:TYR:150>  (403) 
0

>  <hbond:GLY:151>  (403) 
0

>  <hbond:TYR:161>  (403) 
0

>  <hydroph_interaction:TYR:130>  (403) 
0

>  <hydroph_interaction:PRO:131>  (403) 
0

>  <hydroph_interaction:ASP:129>  (403) 
0

>  <saltbridge:ASP:75>  (403) 
0

>  <saltbridge:ASP:83>  (403) 
0

>  <hydroph_interaction:ASN:152>  (403) 
0

>  <halogenbond:TYR:150>  (403) 
0

>  <hbond:ASP:83>  (403) 
0

>  <hydroph_interaction:VAL:155>  (403) 
0

>  <pication:TYR:161>  (403) 
0

>  <hbond:PRO:131>  (403) 
0

>  <hbond:LEU:128>  (403) 
0

>  <saltbridge:ASP:129>  (403) 
0

>  <hbond:THR:134>  (403) 
0

>  <pication:HIS:51>  (403) 
0

>  <hbond:SER:81>  (403) 
0

>  <hbond:GLY:159>  (403) 
0

>  <hydroph_interaction:PRO:101>  (403) 
0

>  <hydroph_interaction:THR:134>  (403) 
0

>  <hbond:GLY:82>  (403) 
0

>  <hydroph_interaction:GLU:104>  (403) 
0

>  <hydroph_interaction:VAL:36>  (403) 
0

>  <hydroph_interaction:MET:49>  (403) 
0

>  <halogenbond:GLU:104>  (403) 
0

>  <hydroph_interaction:LYS:107>  (403) 
0

$$$$
Z2850290656
     RDKit          3D

 52 54  0  0  0  0  0  0  0  0999 V2000
   -6.5390    6.2110  -16.0360 C   0  0  0  0  0  0  0  0  0  0  0  0
   -7.5290    5.7800  -17.0820 C   0  0  0  0  0  0  0  0  0  0  0  0
   -8.7550    5.3580  -16.6980 C   0  0  0  0  0  0  0  0  0  0  0  0
   -9.1670    5.3450  -15.2080 C   0  0  0  0  0  0  0  0  0  0  0  0
  -10.1200    5.9930  -14.8060 O   0  0  0  0  0  0  0  0  0  0  0  0
   -8.3230    4.5020  -14.3050 N   0  0  0  0  0  0  0  0  0  0  0  0
   -8.7960    4.4360  -12.8940 C   0  0  0  0  0  0  0  0  0  0  0  0
   -8.6070    5.6520  -12.2150 C   0  0  0  0  0  0  0  0  0  0  0  0
   -8.7320    5.6640  -10.6840 C   0  0  0  0  0  0  0  0  0  0  0  0
   -8.8820    4.4510   -9.8110 C   0  0  0  0  0  0  0  0  0  0  0  0
   -8.9450    2.9780  -10.1510 C   0  0  0  0  0  0  0  0  0  0  0  0
   -8.7560    2.2170   -9.0140 C   0  0  0  0  0  0  0  0  0  0  0  0
   -9.4090    2.6960   -7.8520 C   0  0  0  0  0  0  0  0  0  0  0  0
   -9.1200    3.9880   -7.3430 C   0  0  0  0  0  0  0  0  0  0  0  0
   -8.9620    4.9100   -8.4580 N   0  0  0  0  0  0  0  0  0  0  0  0
   -8.8740    6.2540   -8.3910 N   0  0  0  0  0  0  0  0  0  0  0  0
   -8.7430    6.7010   -9.6930 C   0  0  0  0  0  0  0  0  0  0  0  0
   -6.9690    5.8830  -18.5370 C   0  0  0  0  0  0  0  0  0  0  0  0
   -6.5380    7.2530  -19.1030 C   0  0  0  0  0  0  0  0  0  0  0  0
   -5.7020    7.1930  -20.3480 C   0  0  0  0  0  0  0  0  0  0  0  0
   -4.6750    6.2770  -20.3690 C   0  0  0  0  0  0  0  0  0  0  0  0
   -4.4660    5.6280  -19.1620 C   0  0  0  0  0  0  0  0  0  0  0  0
   -5.7650    4.9700  -18.7060 C   0  0  0  0  0  0  0  0  0  0  0  0
   -6.1710    5.3450  -15.4750 H   0  0  0  0  0  0  0  0  0  0  0  0
   -6.9970    6.8940  -15.3130 H   0  0  0  0  0  0  0  0  0  0  0  0
   -5.6900    6.7220  -16.4990 H   0  0  0  0  0  0  0  0  0  0  0  0
   -9.4820    5.0310  -17.4390 H   0  0  0  0  0  0  0  0  0  0  0  0
   -7.9470    3.6290  -14.6680 H   0  0  0  0  0  0  0  0  0  0  0  0
   -8.3500    3.5460  -12.4580 H   0  0  0  0  0  0  0  0  0  0  0  0
   -9.8680    4.2260  -12.9630 H   0  0  0  0  0  0  0  0  0  0  0  0
   -9.1640    6.4420  -12.7090 H   0  0  0  0  0  0  0  0  0  0  0  0
   -7.5660    5.9300  -12.4040 H   0  0  0  0  0  0  0  0  0  0  0  0
   -8.1290    2.7400  -10.8440 H   0  0  0  0  0  0  0  0  0  0  0  0
   -9.8490    2.6170  -10.6350 H   0  0  0  0  0  0  0  0  0  0  0  0
   -8.9480    1.1700   -9.0620 H   0  0  0  0  0  0  0  0  0  0  0  0
   -7.6850    2.2710   -8.8080 H   0  0  0  0  0  0  0  0  0  0  0  0
   -9.1980    1.9750   -7.0550 H   0  0  0  0  0  0  0  0  0  0  0  0
  -10.4910    2.6340   -8.0170 H   0  0  0  0  0  0  0  0  0  0  0  0
   -9.8320    4.4350   -6.6550 H   0  0  0  0  0  0  0  0  0  0  0  0
   -8.1430    3.9660   -6.8430 H   0  0  0  0  0  0  0  0  0  0  0  0
   -8.6600    7.7680   -9.8580 H   0  0  0  0  0  0  0  0  0  0  0  0
   -7.7670    5.5220  -19.2020 H   0  0  0  0  0  0  0  0  0  0  0  0
   -7.3960    7.7900  -19.4280 H   0  0  0  0  0  0  0  0  0  0  0  0
   -5.9980    7.8200  -18.3370 H   0  0  0  0  0  0  0  0  0  0  0  0
   -5.2780    8.1850  -20.5380 H   0  0  0  0  0  0  0  0  0  0  0  0
   -6.3740    6.9970  -21.1920 H   0  0  0  0  0  0  0  0  0  0  0  0
   -3.7530    6.7780  -20.6870 H   0  0  0  0  0  0  0  0  0  0  0  0
   -4.8890    5.5210  -21.1340 H   0  0  0  0  0  0  0  0  0  0  0  0
   -3.6680    4.8840  -19.2480 H   0  0  0  0  0  0  0  0  0  0  0  0
   -4.1410    6.3560  -18.4090 H   0  0  0  0  0  0  0  0  0  0  0  0
   -6.0440    4.2630  -19.4850 H   0  0  0  0  0  0  0  0  0  0  0  0
   -5.5710    4.4150  -17.7870 H   0  0  0  0  0  0  0  0  0  0  0  0
  1  2  1  0
  2  3  2  3
  3  4  1  0
  4  5  2  0
  4  6  1  0
  6  7  1  0
  7  8  1  0
  8  9  1  0
  9 10  2  0
 10 11  1  0
 11 12  1  0
 12 13  1  0
 13 14  1  0
 14 15  1  0
 15 16  1  0
 16 17  2  0
  2 18  1  0
 18 19  1  0
 19 20  1  0
 20 21  1  0
 21 22  1  0
 22 23  1  0
 17  9  1  0
 15 10  1  0
 23 18  1  0
  1 24  1  0
  1 25  1  0
  1 26  1  0
  3 27  1  0
  6 28  1  0
  7 29  1  0
  7 30  1  0
  8 31  1  0
  8 32  1  0
 11 33  1  0
 11 34  1  0
 12 35  1  0
 12 36  1  0
 13 37  1  0
 13 38  1  0
 14 39  1  0
 14 40  1  0
 17 41  1  0
 18 42  1  0
 19 43  1  0
 19 44  1  0
 20 45  1  0
 20 46  1  0
 21 47  1  0
 21 48  1  0
 22 49  1  0
 22 50  1  0
 23 51  1  0
 23 52  1  0
A    1
 C1 
A    2
 C2 
A    3
 C3 
A    4
 C4 
A    5
 O1 
A    6
 N1 
A    7
 C5 
A    8
 C6 
A    9
 C7 
A   10
 C8 
A   11
 C9 
A   12
 C10
A   13
 C11
A   14
 C12
A   15
 N2 
A   16
 N3 
A   17
 C13
A   18
 C14
A   19
 C15
A   20
 C16
A   21
 C17
A   22
 C18
A   23
 C19
A   24
 H1 
A   25
 H2 
A   26
 H3 
A   27
 H4 
A   28
 H5 
A   29
 H6 
A   30
 H7 
A   31
 H8 
A   32
 H9 
A   33
 H10
A   34
 H11
A   35
 H12
A   36
 H13
A   37
 H14
A   38
 H15
A   39
 H16
A   40
 H17
A   41
 H18
A   42
 H19
A   43
 H20
A   44
 H21
A   45
 H22
A   46
 H23
A   47
 H24
A   48
 H25
A   49
 H26
A   50
 H27
A   51
 H28
A   52
 H29
M  END
>  <ref_pdb>  (404) 
x0051_0B

>  <ref_mols>  (404) 
x0969_1B,x0803_0B

>  <original SMILES>  (404) 
[H]C(C(=O)N([H])C([H])([H])C([H])([H])c1c([H])nn2c1C([H])([H])C([H])([H])C([H])([H])C2([H])[H])=C(C([H])([H])[H])C1([H])C([H])([H])C([H])([H])C([H])([H])C([H])([H])C1([H])[H]

>  <index>  (404) 
599

>  <∆∆G>  (404) 
-5.17475

>  <∆G_bound>  (404) 
-4.583649

>  <∆G_unbound>  (404) 
0.591101

>  <comRMSD>  (404) 
0.656431

>  <N_constrained_atoms>  (404) 
21.0

>  <N_unconstrained_atoms>  (404) 
4.0

>  <runtime>  (404) 
77.988126

>  <LE>  (404) 
0.20699

>  <percent_hybrid>  (404) 
48.0

>  <dist>  (404) 
8.0

>  <ecfp4>  (404) 
0.272727

>  <daylight>  (404) 
0.271523

>  <topodist>  (404) 
2.0

>  <mces>  (404) 
25.0

>  <tdn>  (404) 
0.0

>  <tup>  (404) 
0.0

>  <rdn>  (404) 
1.0

>  <rup>  (404) 
0.0

>  <ldn>  (404) 
1.0

>  <lup>  (404) 
0.0

>  <mut>  (404) 
6.0

>  <maj>  (404) 
6.0

>  <min>  (404) 
0.0

>  <hyb>  (404) 
0.0

>  <sub>  (404) 
0.0

>  <query_index>  (404) 
360.0

>  <max_hit_Tanimoto>  (404) 
0.332971

>  <largest_ring>  (404) 
6

>  <N_interactions_kept>  (404) 
4.0

>  <N_interactions_lost>  (404) 
2.0

>  <interaction_uniqueness_metric>  (404) 
0.240987

>  <ad_hoc_penalty>  (404) 
-18.852399

>  <N_rotatable_bonds>  (404) 
6

>  <N_HA>  (404) 
23

>  <cluster>  (404) 
5670

>  <N_interactions>  (404) 
8

>  <Enamine>  (404) 
1

>  <Mcule>  (404) 
0

>  <N_PAINS>  (404) 
0

>  <UFF_Gibbs>  (404) 
138.565077

>  <strain_per_HA>  (404) 
6.024569

>  <saltbridge:HIS:51>  (404) 
0

>  <pistack:HIS:51>  (404) 
1

>  <hydroph_interaction:HIS:51>  (404) 
0

>  <hbond:ALA:132>  (404) 
0

>  <hbond:SER:135>  (404) 
1

>  <hydroph_interaction:TYR:150>  (404) 
0

>  <pistack:TYR:161>  (404) 
0

>  <hydroph_interaction:TYR:161>  (404) 
3

>  <hydroph_interaction:ASP:83>  (404) 
1

>  <hbond:TYR:130>  (404) 
0

>  <hydroph_interaction:ALA:132>  (404) 
1

>  <hbond:HIS:51>  (404) 
0

>  <hbond:ASP:129>  (404) 
0

>  <hbond:TYR:150>  (404) 
0

>  <hbond:GLY:151>  (404) 
0

>  <hbond:TYR:161>  (404) 
1

>  <hydroph_interaction:TYR:130>  (404) 
0

>  <hydroph_interaction:PRO:131>  (404) 
0

>  <hydroph_interaction:ASP:129>  (404) 
0

>  <saltbridge:ASP:75>  (404) 
0

>  <saltbridge:ASP:83>  (404) 
0

>  <hydroph_interaction:ASN:152>  (404) 
0

>  <halogenbond:TYR:150>  (404) 
0

>  <hbond:ASP:83>  (404) 
0

>  <hydroph_interaction:VAL:155>  (404) 
0

>  <pication:TYR:161>  (404) 
0

>  <hbond:PRO:131>  (404) 
0

>  <hbond:LEU:128>  (404) 
0

>  <saltbridge:ASP:129>  (404) 
0

>  <hbond:THR:134>  (404) 
0

>  <pication:HIS:51>  (404) 
0

>  <hbond:SER:81>  (404) 
0

>  <hbond:GLY:159>  (404) 
0

>  <hydroph_interaction:PRO:101>  (404) 
0

>  <hydroph_interaction:THR:134>  (404) 
0

>  <hbond:GLY:82>  (404) 
0

>  <hydroph_interaction:GLU:104>  (404) 
0

>  <hydroph_interaction:VAL:36>  (404) 
0

>  <hydroph_interaction:MET:49>  (404) 
0

>  <halogenbond:GLU:104>  (404) 
0

>  <hydroph_interaction:LYS:107>  (404) 
0

$$$$
MCULE-1867878385
     RDKit          3D

 46 50  0  0  0  0  0  0  0  0999 V2000
   -5.3760    5.6630  -19.3390 N   0  0  0  0  0  0  0  0  0  0  0  0
   -5.4450    6.6600  -20.4240 C   0  0  0  0  0  0  0  0  0  0  0  0
   -5.7970    6.2550  -21.7600 C   0  0  0  0  0  0  0  0  0  0  0  0
   -5.8930    7.1320  -22.8830 C   0  0  0  0  0  0  0  0  0  0  0  0
   -5.6230    8.4770  -22.6680 C   0  0  0  0  0  0  0  0  0  0  0  0
   -5.2820    8.8940  -21.3870 C   0  0  0  0  0  0  0  0  0  0  0  0
   -5.1840    8.0640  -20.2820 C   0  0  0  0  0  0  0  0  0  0  0  0
   -5.6220    9.6280  -23.6130 C   0  0  0  0  0  0  0  0  0  0  0  0
   -4.6090   10.6060  -23.3880 O   0  0  0  0  0  0  0  0  0  0  0  0
   -6.5560    9.7790  -24.6090 N   0  0  0  0  0  0  0  0  0  0  0  0
   -6.2010    9.8540  -26.0160 C   0  0  0  0  0  0  0  0  0  0  0  0
   -7.4170    9.3890  -26.7190 C   0  0  0  0  0  0  0  0  0  0  0  0
   -7.5450    8.0840  -27.1110 N   0  0  0  0  0  0  0  0  0  0  0  0
   -8.7830    7.9330  -27.6810 C   0  0  0  0  0  0  0  0  0  0  0  0
   -9.3190    9.1940  -27.6010 C   0  0  0  0  0  0  0  0  0  0  0  0
  -10.5840    9.4910  -28.0520 C   0  0  0  0  0  0  0  0  0  0  0  0
  -11.3120    8.4400  -28.6020 C   0  0  0  0  0  0  0  0  0  0  0  0
  -10.7460    7.1510  -28.6850 C   0  0  0  0  0  0  0  0  0  0  0  0
   -9.4700    6.8510  -28.2340 C   0  0  0  0  0  0  0  0  0  0  0  0
   -8.4850   10.1100  -27.0250 N   0  0  0  0  0  0  0  0  0  0  0  0
   -5.8510    5.7270  -18.0040 C   0  0  0  0  0  0  0  0  0  0  0  0
   -5.1880    5.9860  -16.9890 O   0  0  0  0  0  0  0  0  0  0  0  0
   -7.1770    5.4410  -17.7590 C   0  0  0  0  0  0  0  0  0  0  0  0
   -7.9020    5.5990  -16.5100 C   0  0  0  0  0  0  0  0  0  0  0  0
   -9.2580    5.2560  -16.5270 C   0  0  0  0  0  0  0  0  0  0  0  0
  -10.1540    4.7260  -17.6680 C   0  0  0  0  0  0  0  0  0  0  0  0
   -9.1970    4.6570  -18.7270 C   0  0  0  0  0  0  0  0  0  0  0  0
   -7.8580    4.9650  -18.8080 C   0  0  0  0  0  0  0  0  0  0  0  0
   -7.2350    4.7590  -20.0240 N   0  0  0  0  0  0  0  0  0  0  0  0
   -6.0030    4.6900  -19.9890 N   0  0  0  0  0  0  0  0  0  0  0  0
   -6.0260    5.2170  -22.0250 H   0  0  0  0  0  0  0  0  0  0  0  0
   -6.1630    6.7880  -23.8790 H   0  0  0  0  0  0  0  0  0  0  0  0
   -5.0690    9.9400  -21.2060 H   0  0  0  0  0  0  0  0  0  0  0  0
   -4.9100    8.4880  -19.3180 H   0  0  0  0  0  0  0  0  0  0  0  0
   -7.5490    9.6900  -24.4200 H   0  0  0  0  0  0  0  0  0  0  0  0
   -5.3420    9.2070  -26.2070 H   0  0  0  0  0  0  0  0  0  0  0  0
   -5.9590   10.8880  -26.2980 H   0  0  0  0  0  0  0  0  0  0  0  0
   -6.8410    7.3630  -26.9800 H   0  0  0  0  0  0  0  0  0  0  0  0
  -10.9990   10.4940  -27.9800 H   0  0  0  0  0  0  0  0  0  0  0  0
  -12.3210    8.6260  -28.9690 H   0  0  0  0  0  0  0  0  0  0  0  0
  -11.3380    6.3480  -29.1240 H   0  0  0  0  0  0  0  0  0  0  0  0
   -8.9630    5.8790  -28.2590 H   0  0  0  0  0  0  0  0  0  0  0  0
   -7.4860    5.9650  -15.5690 H   0  0  0  0  0  0  0  0  0  0  0  0
   -9.7770    5.3880  -15.5820 H   0  0  0  0  0  0  0  0  0  0  0  0
  -11.2040    4.4700  -17.6780 H   0  0  0  0  0  0  0  0  0  0  0  0
   -9.6070    4.2910  -19.6590 H   0  0  0  0  0  0  0  0  0  0  0  0
  1  2  1  0
  2  3  2  0
  3  4  1  0
  4  5  2  0
  5  6  1  0
  6  7  2  0
  5  8  1  0
  8  9  2  0
  8 10  1  0
 10 11  1  0
 11 12  1  0
 12 13  1  0
 13 14  1  0
 14 15  2  0
 15 16  1  0
 16 17  2  0
 17 18  1  0
 18 19  2  0
 15 20  1  0
  1 21  1  0
 21 22  2  0
 21 23  1  0
 23 24  2  0
 24 25  1  0
 25 26  2  0
 26 27  1  0
 27 28  2  0
 28 29  1  0
 29 30  2  0
 30  1  1  0
  2  7  1  0
 12 20  2  0
 14 19  1  0
 28 23  1  0
  3 31  1  0
  4 32  1  0
  6 33  1  0
  7 34  1  0
 10 35  1  0
 11 36  1  0
 11 37  1  0
 13 38  1  0
 16 39  1  0
 17 40  1  0
 18 41  1  0
 19 42  1  0
 24 43  1  0
 25 44  1  0
 26 45  1  0
 27 46  1  0
A    1
 N1 
A    2
 C1 
A    3
 C2 
A    4
 C3 
A    5
 C4 
A    6
 C5 
A    7
 C6 
A    8
 C7 
A    9
 O1 
A   10
 N2 
A   11
 C8 
A   12
 C9 
A   13
 N3 
A   14
 C10
A   15
 C11
A   16
 C12
A   17
 C13
A   18
 C14
A   19
 C15
A   20
 N4 
A   21
 C16
A   22
 O2 
A   23
 C17
A   24
 C18
A   25
 C19
A   26
 C20
A   27
 C21
A   28
 C22
A   29
 N5 
A   30
 N6 
A   31
 H1 
A   32
 H2 
A   33
 H3 
A   34
 H4 
A   35
 H5 
A   36
 H6 
A   37
 H7 
A   38
 H8 
A   39
 H9 
A   40
 H10
A   41
 H11
A   42
 H12
A   43
 H13
A   44
 H14
A   45
 H15
A   46
 H16
M  END
>  <ref_pdb>  (405) 
x0051_0B

>  <ref_mols>  (405) 
x0727_0B,x0846_1B

>  <original SMILES>  (405) 
[H]c1c([H])c(-n2nnc3c([H])c([H])c([H])c([H])c3c2=O)c([H])c([H])c1C(=O)N([H])C([H])([H])c1nc2c([H])c([H])c([H])c([H])c2n1[H]

>  <index>  (405) 
435

>  <∆∆G>  (405) 
-8.285779

>  <∆G_bound>  (405) 
-7.040855

>  <∆G_unbound>  (405) 
1.244924

>  <comRMSD>  (405) 
0.910282

>  <N_constrained_atoms>  (405) 
28.0

>  <N_unconstrained_atoms>  (405) 
2.0

>  <runtime>  (405) 
54.913617

>  <LE>  (405) 
0.276193

>  <percent_hybrid>  (405) 
40.0

>  <dist>  (405) 
11.0

>  <ecfp4>  (405) 
0.197802

>  <daylight>  (405) 
0.276224

>  <topodist>  (405) 
8.0

>  <mces>  (405) 
31.0

>  <tdn>  (405) 
3.0

>  <tup>  (405) 
2.0

>  <rdn>  (405) 
0.0

>  <rup>  (405) 
0.0

>  <ldn>  (405) 
2.0

>  <lup>  (405) 
1.0

>  <mut>  (405) 
2.0

>  <maj>  (405) 
2.0

>  <min>  (405) 
0.0

>  <hyb>  (405) 
1.0

>  <sub>  (405) 
2.0

>  <query_index>  (405) 
15.0

>  <max_hit_Tanimoto>  (405) 
0.25791

>  <largest_ring>  (405) 
0

>  <N_interactions_kept>  (405) 
0.5

>  <N_interactions_lost>  (405) 
2.5

>  <interaction_uniqueness_metric>  (405) 
0.236295

>  <ad_hoc_penalty>  (405) 
-18.831036

>  <N_rotatable_bonds>  (405) 
4

>  <N_HA>  (405) 
30

>  <cluster>  (405) 
5823

>  <N_interactions>  (405) 
6

>  <Enamine>  (405) 
0

>  <Mcule>  (405) 
1

>  <N_PAINS>  (405) 
0

>  <UFF_Gibbs>  (405) 
258.303554

>  <strain_per_HA>  (405) 
8.610118

>  <saltbridge:HIS:51>  (405) 
0

>  <pistack:HIS:51>  (405) 
0

>  <hydroph_interaction:HIS:51>  (405) 
0

>  <hbond:ALA:132>  (405) 
0

>  <hbond:SER:135>  (405) 
0

>  <hydroph_interaction:TYR:150>  (405) 
1

>  <pistack:TYR:161>  (405) 
1

>  <hydroph_interaction:TYR:161>  (405) 
0

>  <hydroph_interaction:ASP:83>  (405) 
0

>  <hbond:TYR:130>  (405) 
0

>  <hydroph_interaction:ALA:132>  (405) 
1

>  <hbond:HIS:51>  (405) 
0

>  <hbond:ASP:129>  (405) 
0

>  <hbond:TYR:150>  (405) 
1

>  <hbond:GLY:151>  (405) 
0

>  <hbond:TYR:161>  (405) 
0

>  <hydroph_interaction:TYR:130>  (405) 
1

>  <hydroph_interaction:PRO:131>  (405) 
1

>  <hydroph_interaction:ASP:129>  (405) 
0

>  <saltbridge:ASP:75>  (405) 
0

>  <saltbridge:ASP:83>  (405) 
0

>  <hydroph_interaction:ASN:152>  (405) 
0

>  <halogenbond:TYR:150>  (405) 
0

>  <hbond:ASP:83>  (405) 
0

>  <hydroph_interaction:VAL:155>  (405) 
0

>  <pication:TYR:161>  (405) 
0

>  <hbond:PRO:131>  (405) 
0

>  <hbond:LEU:128>  (405) 
0

>  <saltbridge:ASP:129>  (405) 
0

>  <hbond:THR:134>  (405) 
0

>  <pication:HIS:51>  (405) 
0

>  <hbond:SER:81>  (405) 
0

>  <hbond:GLY:159>  (405) 
0

>  <hydroph_interaction:PRO:101>  (405) 
0

>  <hydroph_interaction:THR:134>  (405) 
0

>  <hbond:GLY:82>  (405) 
0

>  <hydroph_interaction:GLU:104>  (405) 
0

>  <hydroph_interaction:VAL:36>  (405) 
0

>  <hydroph_interaction:MET:49>  (405) 
0

>  <halogenbond:GLU:104>  (405) 
0

>  <hydroph_interaction:LYS:107>  (405) 
0

$$$$
CSSB00104348894
     RDKit          3D

 37 39  0  0  0  0  0  0  0  0999 V2000
  -11.0630    6.9620  -14.3740 O   0  0  0  0  0  0  0  0  0  0  0  0
  -10.2150    7.5440  -13.7340 C   0  0  0  0  0  0  0  0  0  0  0  0
  -10.3800    8.9510  -13.3080 C   0  0  0  0  0  0  0  0  0  0  0  0
  -11.5640    9.6500  -13.5110 C   0  0  0  0  0  0  0  0  0  0  0  0
  -11.6750   11.0680  -13.9720 C   0  0  0  0  0  0  0  0  0  0  0  0
  -11.9030   12.1030  -12.8760 C   0  0  0  0  0  0  0  0  0  0  0  0
  -12.0110   13.5380  -13.3810 C   0  0  0  0  0  0  0  0  0  0  0  0
  -11.9050   13.8140  -14.7480 C   0  0  0  0  0  0  0  0  0  0  0  0
  -11.6970   12.7890  -15.6920 C   0  0  0  0  0  0  0  0  0  0  0  0
  -11.5830   11.4420  -15.3120 C   0  0  0  0  0  0  0  0  0  0  0  0
   -9.0320    6.9370  -13.3490 N   0  0  0  0  0  0  0  0  0  0  0  0
   -8.7310    5.5730  -13.7530 C   0  0  0  0  0  0  0  0  0  0  0  0
   -7.8950    5.6050  -14.9850 C   0  0  0  0  0  0  0  0  0  0  0  0
   -6.6270    5.9700  -15.0370 N   0  0  0  0  0  0  0  0  0  0  0  0
   -6.1970    5.8760  -16.3440 N   0  0  0  0  0  0  0  0  0  0  0  0
   -7.2140    5.4570  -17.0590 C   0  0  0  0  0  0  0  0  0  0  0  0
   -8.3090    5.2640  -16.2570 N   0  0  0  0  0  0  0  0  0  0  0  0
   -9.5120    4.8190  -16.7790 C   0  0  0  0  0  0  0  0  0  0  0  0
   -9.6290    4.6500  -18.1480 C   0  0  0  0  0  0  0  0  0  0  0  0
   -8.5550    4.9230  -18.9640 N   0  0  0  0  0  0  0  0  0  0  0  0
   -7.2710    5.2080  -18.4820 C   0  0  0  0  0  0  0  0  0  0  0  0
   -6.3150    5.2280  -19.2500 O   0  0  0  0  0  0  0  0  0  0  0  0
  -10.2940    8.8730  -12.2170 H   0  0  0  0  0  0  0  0  0  0  0  0
   -9.5020    9.5420  -13.5700 H   0  0  0  0  0  0  0  0  0  0  0  0
  -12.1440    9.5840  -12.5790 H   0  0  0  0  0  0  0  0  0  0  0  0
  -12.1680    9.0570  -14.2150 H   0  0  0  0  0  0  0  0  0  0  0  0
  -11.9830   11.8490  -11.8190 H   0  0  0  0  0  0  0  0  0  0  0  0
  -12.1710   14.3530  -12.6780 H   0  0  0  0  0  0  0  0  0  0  0  0
  -11.9860   14.8430  -15.0900 H   0  0  0  0  0  0  0  0  0  0  0  0
  -11.6230   13.0510  -16.7440 H   0  0  0  0  0  0  0  0  0  0  0  0
  -11.4230   10.6860  -16.0720 H   0  0  0  0  0  0  0  0  0  0  0  0
   -8.2370    7.5240  -13.0850 H   0  0  0  0  0  0  0  0  0  0  0  0
   -9.6900    5.0800  -13.9600 H   0  0  0  0  0  0  0  0  0  0  0  0
   -8.2500    5.0330  -12.9310 H   0  0  0  0  0  0  0  0  0  0  0  0
  -10.3170    4.6190  -16.0900 H   0  0  0  0  0  0  0  0  0  0  0  0
  -10.5390    4.3060  -18.6220 H   0  0  0  0  0  0  0  0  0  0  0  0
   -8.7130    5.2240  -19.9230 H   0  0  0  0  0  0  0  0  0  0  0  0
  1  2  2  0
  2  3  1  0
  3  4  1  0
  4  5  1  0
  5  6  2  0
  6  7  1  0
  7  8  2  0
  8  9  1  0
  9 10  2  0
  2 11  1  0
 11 12  1  0
 12 13  1  0
 13 14  2  0
 14 15  1  0
 15 16  2  0
 16 17  1  0
 17 18  1  0
 18 19  2  0
 19 20  1  0
 20 21  1  0
 21 22  2  0
 10  5  1  0
 17 13  1  0
 21 16  1  0
  3 23  1  0
  3 24  1  0
  4 25  1  0
  4 26  1  0
  6 27  1  0
  7 28  1  0
  8 29  1  0
  9 30  1  0
 10 31  1  0
 11 32  1  0
 12 33  1  0
 12 34  1  0
 18 35  1  0
 19 36  1  0
 20 37  1  0
A    1
 O1 
A    2
 C1 
A    3
 C2 
A    4
 C3 
A    5
 C4 
A    6
 C5 
A    7
 C6 
A    8
 C7 
A    9
 C8 
A   10
 C9 
A   11
 N1 
A   12
 C10
A   13
 C11
A   14
 N2 
A   15
 N3 
A   16
 C12
A   17
 N4 
A   18
 C13
A   19
 C14
A   20
 N5 
A   21
 C15
A   22
 O2 
A   23
 H1 
A   24
 H2 
A   25
 H3 
A   26
 H4 
A   27
 H5 
A   28
 H6 
A   29
 H7 
A   30
 H8 
A   31
 H9 
A   32
 H10
A   33
 H11
A   34
 H12
A   35
 H13
A   36
 H14
A   37
 H15
M  END
>  <ref_pdb>  (406) 
x0051_0B

>  <ref_mols>  (406) 
x0951_0B,x0969_1B

>  <original SMILES>  (406) 
[H]c1c([H])c([H])c(C([H])([H])C([H])([H])C(=O)N([H])C([H])([H])c2nnc3c(=O)n([H])c([H])c([H])n23)c([H])c1[H]

>  <index>  (406) 
912

>  <∆∆G>  (406) 
-6.119862

>  <∆G_bound>  (406) 
-4.799785

>  <∆G_unbound>  (406) 
1.320076

>  <comRMSD>  (406) 
0.429117

>  <N_constrained_atoms>  (406) 
13.0

>  <N_unconstrained_atoms>  (406) 
10.0

>  <runtime>  (406) 
71.347589

>  <LE>  (406) 
0.266081

>  <percent_hybrid>  (406) 
8.0

>  <dist>  (406) 
12.0

>  <ecfp4>  (406) 
0.148148

>  <daylight>  (406) 
0.219672

>  <topodist>  (406) 
4.0

>  <mces>  (406) 
22.0

>  <tdn>  (406) 
1.0

>  <tup>  (406) 
2.0

>  <rdn>  (406) 
1.0

>  <rup>  (406) 
0.0

>  <ldn>  (406) 
0.0

>  <lup>  (406) 
0.0

>  <mut>  (406) 
4.0

>  <maj>  (406) 
4.0

>  <min>  (406) 
0.0

>  <hyb>  (406) 
4.0

>  <sub>  (406) 
3.0

>  <query_index>  (406) 
201.0

>  <max_hit_Tanimoto>  (406) 
0.407628

>  <largest_ring>  (406) 
6

>  <N_interactions_kept>  (406) 
3.0

>  <N_interactions_lost>  (406) 
0.0

>  <interaction_uniqueness_metric>  (406) 
0.547891

>  <ad_hoc_penalty>  (406) 
-18.798202

>  <N_rotatable_bonds>  (406) 
5

>  <N_HA>  (406) 
22

>  <cluster>  (406) 
5383

>  <N_interactions>  (406) 
2

>  <Enamine>  (406) 
1

>  <Mcule>  (406) 
0

>  <N_PAINS>  (406) 
0

>  <UFF_Gibbs>  (406) 
77.590423

>  <strain_per_HA>  (406) 
3.526837

>  <saltbridge:HIS:51>  (406) 
0

>  <pistack:HIS:51>  (406) 
0

>  <hydroph_interaction:HIS:51>  (406) 
0

>  <hbond:ALA:132>  (406) 
0

>  <hbond:SER:135>  (406) 
1

>  <hydroph_interaction:TYR:150>  (406) 
0

>  <pistack:TYR:161>  (406) 
0

>  <hydroph_interaction:TYR:161>  (406) 
0

>  <hydroph_interaction:ASP:83>  (406) 
0

>  <hbond:TYR:130>  (406) 
0

>  <hydroph_interaction:ALA:132>  (406) 
0

>  <hbond:HIS:51>  (406) 
0

>  <hbond:ASP:129>  (406) 
0

>  <hbond:TYR:150>  (406) 
0

>  <hbond:GLY:151>  (406) 
0

>  <hbond:TYR:161>  (406) 
0

>  <hydroph_interaction:TYR:130>  (406) 
0

>  <hydroph_interaction:PRO:131>  (406) 
0

>  <hydroph_interaction:ASP:129>  (406) 
0

>  <saltbridge:ASP:75>  (406) 
0

>  <saltbridge:ASP:83>  (406) 
0

>  <hydroph_interaction:ASN:152>  (406) 
0

>  <halogenbond:TYR:150>  (406) 
0

>  <hbond:ASP:83>  (406) 
0

>  <hydroph_interaction:VAL:155>  (406) 
0

>  <pication:TYR:161>  (406) 
0

>  <hbond:PRO:131>  (406) 
0

>  <hbond:LEU:128>  (406) 
0

>  <saltbridge:ASP:129>  (406) 
0

>  <hbond:THR:134>  (406) 
0

>  <pication:HIS:51>  (406) 
0

>  <hbond:SER:81>  (406) 
0

>  <hbond:GLY:159>  (406) 
0

>  <hydroph_interaction:PRO:101>  (406) 
0

>  <hydroph_interaction:THR:134>  (406) 
0

>  <hbond:GLY:82>  (406) 
0

>  <hydroph_interaction:GLU:104>  (406) 
0

>  <hydroph_interaction:VAL:36>  (406) 
1

>  <hydroph_interaction:MET:49>  (406) 
0

>  <halogenbond:GLU:104>  (406) 
0

>  <hydroph_interaction:LYS:107>  (406) 
0

$$$$
MCULE-6572562253
     RDKit          3D

 18 19  0  0  0  0  0  0  0  0999 V2000
   -8.8700    5.1180  -17.1950 C   0  0  0  0  0  0  0  0  0  0  0  0
   -8.0510    5.3510  -15.5040 Br  0  0  0  0  0  0  0  0  0  0  0  0
  -10.1160    4.9780  -17.2600 O   0  0  0  0  0  0  0  0  0  0  0  0
  -10.4030    4.8420  -18.5380 C   0  0  0  0  0  0  0  0  0  0  0  0
   -9.1650    4.8990  -19.3630 C   0  0  0  0  0  0  0  0  0  0  0  0
   -8.2100    5.0840  -18.4530 C   0  0  0  0  0  0  0  0  0  0  0  0
   -6.7060    5.2220  -18.7980 C   0  0  0  0  0  0  0  0  0  0  0  0
   -5.7890    5.2480  -17.7370 C   0  0  0  0  0  0  0  0  0  0  0  0
   -4.3220    5.3700  -18.0810 C   0  0  0  0  0  0  0  0  0  0  0  0
   -3.9770    5.4560  -19.5310 C   0  0  0  0  0  0  0  0  0  0  0  0
   -4.9250    5.4290  -20.4950 N   0  0  0  0  0  0  0  0  0  0  0  0
   -6.2360    5.3140  -20.1130 C   0  0  0  0  0  0  0  0  0  0  0  0
  -11.4270    4.7110  -18.8900 H   0  0  0  0  0  0  0  0  0  0  0  0
   -9.0700    4.8140  -20.4390 H   0  0  0  0  0  0  0  0  0  0  0  0
   -6.1010    5.1790  -16.6990 H   0  0  0  0  0  0  0  0  0  0  0  0
   -3.5560    5.3930  -17.3090 H   0  0  0  0  0  0  0  0  0  0  0  0
   -2.9460    5.5460  -19.8670 H   0  0  0  0  0  0  0  0  0  0  0  0
   -6.9290    5.2960  -20.9510 H   0  0  0  0  0  0  0  0  0  0  0  0
  1  2  1  0
  1  3  1  0
  3  4  1  0
  4  5  2  0
  5  6  1  0
  6  7  1  0
  7  8  2  0
  8  9  1  0
  9 10  2  0
 10 11  1  0
 11 12  2  0
  1  6  2  0
  7 12  1  0
  4 13  1  0
  5 14  1  0
  8 15  1  0
  9 16  1  0
 10 17  1  0
 12 18  1  0
A    1
 C1 
A    2
BR1 
A    3
 O1 
A    4
 C2 
A    5
 C3 
A    6
 C4 
A    7
 C5 
A    8
 C6 
A    9
 C7 
A   10
 C8 
A   11
 N1 
A   12
 C9 
A   13
 H1 
A   14
 H2 
A   15
 H3 
A   16
 H4 
A   17
 H5 
A   18
 H6 
M  END
>  <ref_pdb>  (407) 
x0051_0B

>  <ref_mols>  (407) 
x0680_0B,x0386_0B

>  <original SMILES>  (407) 
[H]c1nc([H])c(-c2c(Br)oc([H])c2[H])c([H])c1[H]

>  <index>  (407) 
644

>  <∆∆G>  (407) 
-5.87684

>  <∆G_bound>  (407) 
-5.644394

>  <∆G_unbound>  (407) 
0.232446

>  <comRMSD>  (407) 
0.716098

>  <N_constrained_atoms>  (407) 
12.0

>  <N_unconstrained_atoms>  (407) 
1.0

>  <runtime>  (407) 
22.767917

>  <LE>  (407) 
0.452065

>  <percent_hybrid>  (407) 
17.0

>  <dist>  (407) 
3.0

>  <ecfp4>  (407) 
0.211538

>  <daylight>  (407) 
0.388489

>  <topodist>  (407) 
2.0

>  <mces>  (407) 
12.0

>  <tdn>  (407) 
1.0

>  <tup>  (407) 
1.0

>  <rdn>  (407) 
0.0

>  <rup>  (407) 
0.0

>  <ldn>  (407) 
0.0

>  <lup>  (407) 
0.0

>  <mut>  (407) 
1.0

>  <maj>  (407) 
1.0

>  <min>  (407) 
0.0

>  <hyb>  (407) 
0.0

>  <sub>  (407) 
2.0

>  <query_index>  (407) 
296.0

>  <max_hit_Tanimoto>  (407) 
0.128425

>  <largest_ring>  (407) 
6

>  <N_interactions_kept>  (407) 
3.0

>  <N_interactions_lost>  (407) 
1.0

>  <interaction_uniqueness_metric>  (407) 
0.028804

>  <ad_hoc_penalty>  (407) 
-18.787947

>  <N_rotatable_bonds>  (407) 
1

>  <N_HA>  (407) 
12

>  <cluster>  (407) 
5629

>  <N_interactions>  (407) 
3

>  <Enamine>  (407) 
0

>  <Mcule>  (407) 
1

>  <N_PAINS>  (407) 
0

>  <UFF_Gibbs>  (407) 
41.364906

>  <strain_per_HA>  (407) 
3.447075

>  <saltbridge:HIS:51>  (407) 
0

>  <pistack:HIS:51>  (407) 
0

>  <hydroph_interaction:HIS:51>  (407) 
0

>  <hbond:ALA:132>  (407) 
0

>  <hbond:SER:135>  (407) 
0

>  <hydroph_interaction:TYR:150>  (407) 
1

>  <pistack:TYR:161>  (407) 
0

>  <hydroph_interaction:TYR:161>  (407) 
2

>  <hydroph_interaction:ASP:83>  (407) 
0

>  <hbond:TYR:130>  (407) 
0

>  <hydroph_interaction:ALA:132>  (407) 
0

>  <hbond:HIS:51>  (407) 
0

>  <hbond:ASP:129>  (407) 
0

>  <hbond:TYR:150>  (407) 
0

>  <hbond:GLY:151>  (407) 
0

>  <hbond:TYR:161>  (407) 
0

>  <hydroph_interaction:TYR:130>  (407) 
0

>  <hydroph_interaction:PRO:131>  (407) 
0

>  <hydroph_interaction:ASP:129>  (407) 
0

>  <saltbridge:ASP:75>  (407) 
0

>  <saltbridge:ASP:83>  (407) 
0

>  <hydroph_interaction:ASN:152>  (407) 
0

>  <halogenbond:TYR:150>  (407) 
0

>  <hbond:ASP:83>  (407) 
0

>  <hydroph_interaction:VAL:155>  (407) 
0

>  <pication:TYR:161>  (407) 
0

>  <hbond:PRO:131>  (407) 
0

>  <hbond:LEU:128>  (407) 
0

>  <saltbridge:ASP:129>  (407) 
0

>  <hbond:THR:134>  (407) 
0

>  <pication:HIS:51>  (407) 
0

>  <hbond:SER:81>  (407) 
0

>  <hbond:GLY:159>  (407) 
0

>  <hydroph_interaction:PRO:101>  (407) 
0

>  <hydroph_interaction:THR:134>  (407) 
0

>  <hbond:GLY:82>  (407) 
0

>  <hydroph_interaction:GLU:104>  (407) 
0

>  <hydroph_interaction:VAL:36>  (407) 
0

>  <hydroph_interaction:MET:49>  (407) 
0

>  <halogenbond:GLU:104>  (407) 
0

>  <hydroph_interaction:LYS:107>  (407) 
0

$$$$
IVNZSCFPKDAKAE-UHFFFAOYSA-N
     RDKit          3D

 30 31  0  0  0  0  0  0  0  0999 V2000
   -5.7310    5.3990  -17.9740 N   0  0  0  0  0  0  0  0  0  0  0  0
   -4.9580    6.2810  -17.1220 C   0  0  0  0  0  0  0  0  0  0  0  0
   -3.4550    5.9930  -17.2630 C   0  0  0  0  0  0  0  0  0  0  0  0
   -3.0750    5.8310  -18.7320 C   0  0  0  0  0  0  0  0  0  0  0  0
   -3.0650    4.7410  -16.5010 C   0  0  0  0  0  0  0  0  0  0  0  0
   -7.1010    5.2790  -17.7260 C   0  0  0  0  0  0  0  0  0  0  0  0
   -7.8450    5.0080  -18.8740 C   0  0  0  0  0  0  0  0  0  0  0  0
   -9.2160    4.8310  -18.8400 C   0  0  0  0  0  0  0  0  0  0  0  0
   -9.8570    4.9470  -17.6010 C   0  0  0  0  0  0  0  0  0  0  0  0
   -9.0910    5.2410  -16.4500 C   0  0  0  0  0  0  0  0  0  0  0  0
   -9.8300    5.4630  -14.7230 Br  0  0  0  0  0  0  0  0  0  0  0  0
   -7.7240    5.3980  -16.5180 C   0  0  0  0  0  0  0  0  0  0  0  0
   -6.9120    4.9560  -20.0370 C   0  0  0  0  0  0  0  0  0  0  0  0
   -5.6420    5.5300  -19.4300 C   0  0  0  0  0  0  0  0  0  0  0  0
   -5.1310    7.3300  -17.3930 H   0  0  0  0  0  0  0  0  0  0  0  0
   -5.2680    6.1540  -16.0780 H   0  0  0  0  0  0  0  0  0  0  0  0
   -2.8810    6.8340  -16.8600 H   0  0  0  0  0  0  0  0  0  0  0  0
   -3.2090    4.7970  -19.0660 H   0  0  0  0  0  0  0  0  0  0  0  0
   -2.0220    6.0970  -18.8870 H   0  0  0  0  0  0  0  0  0  0  0  0
   -3.6760    6.4840  -19.3720 H   0  0  0  0  0  0  0  0  0  0  0  0
   -3.8660    4.4260  -15.8260 H   0  0  0  0  0  0  0  0  0  0  0  0
   -2.1660    4.9020  -15.8980 H   0  0  0  0  0  0  0  0  0  0  0  0
   -2.8650    3.9220  -17.1950 H   0  0  0  0  0  0  0  0  0  0  0  0
   -9.7760    4.6150  -19.7420 H   0  0  0  0  0  0  0  0  0  0  0  0
  -10.9260    4.8170  -17.5500 H   0  0  0  0  0  0  0  0  0  0  0  0
   -7.1580    5.6140  -15.6210 H   0  0  0  0  0  0  0  0  0  0  0  0
   -7.2260    5.6150  -20.8050 H   0  0  0  0  0  0  0  0  0  0  0  0
   -6.7660    3.9670  -20.4580 H   0  0  0  0  0  0  0  0  0  0  0  0
   -4.7650    5.0170  -19.8310 H   0  0  0  0  0  0  0  0  0  0  0  0
   -5.5620    6.5900  -19.7000 H   0  0  0  0  0  0  0  0  0  0  0  0
  1  2  1  0
  2  3  1  0
  3  4  1  0
  3  5  1  0
  1  6  1  0
  6  7  2  0
  7  8  1  0
  8  9  2  0
  9 10  1  0
 10 11  1  0
 10 12  2  0
  7 13  1  0
 13 14  1  0
 14  1  1  0
 12  6  1  0
  2 15  1  0
  2 16  1  0
  3 17  1  0
  4 18  1  0
  4 19  1  0
  4 20  1  0
  5 21  1  0
  5 22  1  0
  5 23  1  0
  8 24  1  0
  9 25  1  0
 12 26  1  0
 13 27  1  0
 13 28  1  0
 14 29  1  0
 14 30  1  0
A    1
 N1 
A    2
 C1 
A    3
 C2 
A    4
 C3 
A    5
 C4 
A    6
 C5 
A    7
 C6 
A    8
 C7 
A    9
 C8 
A   10
 C9 
A   11
BR1 
A   12
 C10
A   13
 C11
A   14
 C12
A   15
 H1 
A   16
 H2 
A   17
 H3 
A   18
 H4 
A   19
 H5 
A   20
 H6 
A   21
 H7 
A   22
 H8 
A   23
 H9 
A   24
 H10
A   25
 H11
A   26
 H12
A   27
 H13
A   28
 H14
A   29
 H15
A   30
 H16
M  END
>  <ref_pdb>  (408) 
x0051_0B

>  <ref_mols>  (408) 
x0490_0B,x0472_0B

>  <original SMILES>  (408) 
[H]c1c([H])c2c(c([H])c1Br)N(C([H])([H])C([H])(C([H])([H])[H])C([H])([H])[H])C([H])([H])C2([H])[H]

>  <index>  (408) 
520

>  <∆∆G>  (408) 
-5.688475

>  <∆G_bound>  (408) 
-5.849947

>  <∆G_unbound>  (408) 
-0.161472

>  <comRMSD>  (408) 
0.697133

>  <N_constrained_atoms>  (408) 
16.0

>  <N_unconstrained_atoms>  (408) 
1.0

>  <runtime>  (408) 
28.779199

>  <LE>  (408) 
0.334616

>  <percent_hybrid>  (408) 
38.0

>  <dist>  (408) 
4.0

>  <ecfp4>  (408) 
0.2

>  <daylight>  (408) 
0.085106

>  <topodist>  (408) 
2.0

>  <mces>  (408) 
14.0

>  <tdn>  (408) 
1.0

>  <tup>  (408) 
1.0

>  <rdn>  (408) 
0.0

>  <rup>  (408) 
0.0

>  <ldn>  (408) 
0.0

>  <lup>  (408) 
0.0

>  <mut>  (408) 
1.0

>  <maj>  (408) 
1.0

>  <min>  (408) 
0.0

>  <hyb>  (408) 
1.0

>  <sub>  (408) 
2.0

>  <query_index>  (408) 
228.0

>  <max_hit_Tanimoto>  (408) 
0.203659

>  <largest_ring>  (408) 
6

>  <N_interactions_kept>  (408) 
3.0

>  <N_interactions_lost>  (408) 
1.0

>  <interaction_uniqueness_metric>  (408) 
0.064957

>  <ad_hoc_penalty>  (408) 
-18.775938

>  <N_rotatable_bonds>  (408) 
4

>  <N_HA>  (408) 
14

>  <cluster>  (408) 
5744

>  <N_interactions>  (408) 
5

>  <Enamine>  (408) 
0

>  <Mcule>  (408) 
1

>  <N_PAINS>  (408) 
0

>  <UFF_Gibbs>  (408) 
76.891894

>  <strain_per_HA>  (408) 
5.492278

>  <saltbridge:HIS:51>  (408) 
0

>  <pistack:HIS:51>  (408) 
0

>  <hydroph_interaction:HIS:51>  (408) 
0

>  <hbond:ALA:132>  (408) 
0

>  <hbond:SER:135>  (408) 
0

>  <hydroph_interaction:TYR:150>  (408) 
1

>  <pistack:TYR:161>  (408) 
0

>  <hydroph_interaction:TYR:161>  (408) 
3

>  <hydroph_interaction:ASP:83>  (408) 
0

>  <hbond:TYR:130>  (408) 
0

>  <hydroph_interaction:ALA:132>  (408) 
0

>  <hbond:HIS:51>  (408) 
0

>  <hbond:ASP:129>  (408) 
0

>  <hbond:TYR:150>  (408) 
0

>  <hbond:GLY:151>  (408) 
0

>  <hbond:TYR:161>  (408) 
0

>  <hydroph_interaction:TYR:130>  (408) 
0

>  <hydroph_interaction:PRO:131>  (408) 
0

>  <hydroph_interaction:ASP:129>  (408) 
0

>  <saltbridge:ASP:75>  (408) 
0

>  <saltbridge:ASP:83>  (408) 
0

>  <hydroph_interaction:ASN:152>  (408) 
0

>  <halogenbond:TYR:150>  (408) 
0

>  <hbond:ASP:83>  (408) 
0

>  <hydroph_interaction:VAL:155>  (408) 
1

>  <pication:TYR:161>  (408) 
0

>  <hbond:PRO:131>  (408) 
0

>  <hbond:LEU:128>  (408) 
0

>  <saltbridge:ASP:129>  (408) 
0

>  <hbond:THR:134>  (408) 
0

>  <pication:HIS:51>  (408) 
0

>  <hbond:SER:81>  (408) 
0

>  <hbond:GLY:159>  (408) 
0

>  <hydroph_interaction:PRO:101>  (408) 
0

>  <hydroph_interaction:THR:134>  (408) 
0

>  <hbond:GLY:82>  (408) 
0

>  <hydroph_interaction:GLU:104>  (408) 
0

>  <hydroph_interaction:VAL:36>  (408) 
0

>  <hydroph_interaction:MET:49>  (408) 
0

>  <halogenbond:GLU:104>  (408) 
0

>  <hydroph_interaction:LYS:107>  (408) 
0

$$$$
MCULE-9131713610
     RDKit          3D

 54 58  0  0  0  0  0  0  0  0999 V2000
   -5.8080    6.0990  -19.4970 N   0  0  0  0  0  0  0  0  0  0  0  0
   -4.9010    5.6740  -18.4770 C   0  0  0  0  0  0  0  0  0  0  0  0
   -5.2970    5.8440  -17.0590 C   0  0  0  0  0  0  0  0  0  0  0  0
   -6.6360    5.5590  -16.9040 C   0  0  0  0  0  0  0  0  0  0  0  0
   -7.2000    5.4830  -15.5440 C   0  0  0  0  0  0  0  0  0  0  0  0
   -8.5330    5.1950  -15.3710 C   0  0  0  0  0  0  0  0  0  0  0  0
   -9.3490    4.9680  -16.4650 C   0  0  0  0  0  0  0  0  0  0  0  0
   -8.8480    5.0310  -17.7700 C   0  0  0  0  0  0  0  0  0  0  0  0
   -7.4960    5.3300  -18.0190 C   0  0  0  0  0  0  0  0  0  0  0  0
   -7.0880    5.3840  -19.3780 C   0  0  0  0  0  0  0  0  0  0  0  0
   -5.7650    7.4410  -19.8070 C   0  0  0  0  0  0  0  0  0  0  0  0
   -5.8070    8.2440  -18.8820 O   0  0  0  0  0  0  0  0  0  0  0  0
   -5.6550    8.0260  -21.0520 C   0  0  0  0  0  0  0  0  0  0  0  0
   -5.9370    7.3560  -22.2470 C   0  0  0  0  0  0  0  0  0  0  0  0
   -5.8170    8.0690  -23.5600 C   0  0  0  0  0  0  0  0  0  0  0  0
   -5.3690    9.5420  -23.5530 C   0  0  0  0  0  0  0  0  0  0  0  0
   -5.0940   10.1510  -22.3480 C   0  0  0  0  0  0  0  0  0  0  0  0
   -5.2490    9.3520  -21.0740 C   0  0  0  0  0  0  0  0  0  0  0  0
   -5.1620   10.4600  -24.6050 C   0  0  0  0  0  0  0  0  0  0  0  0
   -6.2720   10.3050  -25.4840 N   0  0  0  0  0  0  0  0  0  0  0  0
   -6.1150    9.6140  -26.7560 C   0  0  0  0  0  0  0  0  0  0  0  0
   -4.9330    9.5320  -27.4490 O   0  0  0  0  0  0  0  0  0  0  0  0
   -7.3940    9.0200  -27.1980 C   0  0  0  0  0  0  0  0  0  0  0  0
   -8.5340    9.7550  -27.3370 C   0  0  0  0  0  0  0  0  0  0  0  0
   -9.5690    9.0070  -27.7260 C   0  0  0  0  0  0  0  0  0  0  0  0
   -9.0830    7.7190  -27.8570 C   0  0  0  0  0  0  0  0  0  0  0  0
   -9.9010    6.6740  -28.2520 C   0  0  0  0  0  0  0  0  0  0  0  0
  -11.2350    6.9540  -28.5100 C   0  0  0  0  0  0  0  0  0  0  0  0
  -11.7300    8.2480  -28.3740 C   0  0  0  0  0  0  0  0  0  0  0  0
  -10.9070    9.2990  -27.9820 C   0  0  0  0  0  0  0  0  0  0  0  0
   -7.7440    7.7420  -27.5320 N   0  0  0  0  0  0  0  0  0  0  0  0
   -3.9370    6.1010  -18.7720 H   0  0  0  0  0  0  0  0  0  0  0  0
   -4.7560    4.6000  -18.5820 H   0  0  0  0  0  0  0  0  0  0  0  0
   -4.7060    5.1970  -16.4070 H   0  0  0  0  0  0  0  0  0  0  0  0
   -5.1360    6.8800  -16.7430 H   0  0  0  0  0  0  0  0  0  0  0  0
   -6.5660    5.6560  -14.6680 H   0  0  0  0  0  0  0  0  0  0  0  0
   -8.9480    5.1410  -14.3700 H   0  0  0  0  0  0  0  0  0  0  0  0
  -10.3930    4.7350  -16.3060 H   0  0  0  0  0  0  0  0  0  0  0  0
   -9.5230    4.8460  -18.6030 H   0  0  0  0  0  0  0  0  0  0  0  0
   -6.9240    4.3710  -19.7570 H   0  0  0  0  0  0  0  0  0  0  0  0
   -7.7830    5.8100  -20.0830 H   0  0  0  0  0  0  0  0  0  0  0  0
   -6.2580    6.3120  -22.3090 H   0  0  0  0  0  0  0  0  0  0  0  0
   -6.0370    7.5630  -24.4900 H   0  0  0  0  0  0  0  0  0  0  0  0
   -4.7760   11.1980  -22.3930 H   0  0  0  0  0  0  0  0  0  0  0  0
   -5.0290    9.8640  -20.1340 H   0  0  0  0  0  0  0  0  0  0  0  0
   -4.3270   10.3290  -25.3020 H   0  0  0  0  0  0  0  0  0  0  0  0
   -5.1100   11.5210  -24.3980 H   0  0  0  0  0  0  0  0  0  0  0  0
   -6.9890   11.0070  -25.4120 H   0  0  0  0  0  0  0  0  0  0  0  0
   -8.5950   10.8280  -27.1460 H   0  0  0  0  0  0  0  0  0  0  0  0
   -9.5180    5.6600  -28.3570 H   0  0  0  0  0  0  0  0  0  0  0  0
  -11.9030    6.1560  -28.8210 H   0  0  0  0  0  0  0  0  0  0  0  0
  -12.7780    8.4390  -28.5790 H   0  0  0  0  0  0  0  0  0  0  0  0
  -11.2990   10.3090  -27.8790 H   0  0  0  0  0  0  0  0  0  0  0  0
   -7.1320    6.9380  -27.5380 H   0  0  0  0  0  0  0  0  0  0  0  0
  1  2  1  0
  2  3  1  0
  3  4  1  0
  4  5  2  0
  5  6  1  0
  6  7  2  0
  7  8  1  0
  8  9  2  0
  9 10  1  0
  1 11  1  0
 11 12  2  0
 11 13  1  0
 13 14  2  0
 14 15  1  0
 15 16  2  0
 16 17  1  0
 17 18  2  0
 16 19  1  0
 19 20  1  0
 20 21  1  0
 21 22  2  0
 21 23  1  0
 23 24  2  0
 24 25  1  0
 25 26  2  0
 26 27  1  0
 27 28  2  0
 28 29  1  0
 29 30  2  0
 26 31  1  0
 10  1  1  0
  4  9  1  0
 13 18  1  0
 31 23  1  0
 30 25  1  0
  2 32  1  0
  2 33  1  0
  3 34  1  0
  3 35  1  0
  5 36  1  0
  6 37  1  0
  7 38  1  0
  8 39  1  0
 10 40  1  0
 10 41  1  0
 14 42  1  0
 15 43  1  0
 17 44  1  0
 18 45  1  0
 19 46  1  0
 19 47  1  0
 20 48  1  0
 24 49  1  0
 27 50  1  0
 28 51  1  0
 29 52  1  0
 30 53  1  0
 31 54  1  0
A    1
 N1 
A    2
 C1 
A    3
 C2 
A    4
 C3 
A    5
 C4 
A    6
 C5 
A    7
 C6 
A    8
 C7 
A    9
 C8 
A   10
 C9 
A   11
 C10
A   12
 O1 
A   13
 C11
A   14
 C12
A   15
 C13
A   16
 C14
A   17
 C15
A   18
 C16
A   19
 C17
A   20
 N2 
A   21
 C18
A   22
 O2 
A   23
 C19
A   24
 C20
A   25
 C21
A   26
 C22
A   27
 C23
A   28
 C24
A   29
 C25
A   30
 C26
A   31
 N3 
A   32
 H1 
A   33
 H2 
A   34
 H3 
A   35
 H4 
A   36
 H5 
A   37
 H6 
A   38
 H7 
A   39
 H8 
A   40
 H9 
A   41
 H10
A   42
 H11
A   43
 H12
A   44
 H13
A   45
 H14
A   46
 H15
A   47
 H16
A   48
 H17
A   49
 H18
A   50
 H19
A   51
 H20
A   52
 H21
A   53
 H22
A   54
 H23
M  END
>  <ref_pdb>  (409) 
x0051_0B

>  <ref_mols>  (409) 
x0846_1B,x0969_0B

>  <original SMILES>  (409) 
[H]c1c([H])c([H])c2c(c1[H])C([H])([H])N(C(=O)c1c([H])c([H])c(C([H])([H])N([H])C(=O)c3c([H])c4c([H])c([H])c([H])c([H])c4n3[H])c([H])c1[H])C([H])([H])C2([H])[H]

>  <index>  (409) 
699

>  <∆∆G>  (409) 
-9.454648

>  <∆G_bound>  (409) 
-9.001819

>  <∆G_unbound>  (409) 
0.452829

>  <comRMSD>  (409) 
0.875641

>  <N_constrained_atoms>  (409) 
28.0

>  <N_unconstrained_atoms>  (409) 
5.0

>  <runtime>  (409) 
63.001302

>  <LE>  (409) 
0.286504

>  <percent_hybrid>  (409) 
36.0

>  <dist>  (409) 
10.0

>  <ecfp4>  (409) 
0.175258

>  <daylight>  (409) 
0.222222

>  <topodist>  (409) 
6.0

>  <mces>  (409) 
31.0

>  <tdn>  (409) 
2.0

>  <tup>  (409) 
2.0

>  <rdn>  (409) 
0.0

>  <rup>  (409) 
0.0

>  <ldn>  (409) 
0.0

>  <lup>  (409) 
2.0

>  <mut>  (409) 
4.0

>  <maj>  (409) 
4.0

>  <min>  (409) 
0.0

>  <hyb>  (409) 
0.0

>  <sub>  (409) 
2.0

>  <query_index>  (409) 
45.0

>  <max_hit_Tanimoto>  (409) 
0.227807

>  <largest_ring>  (409) 
6

>  <N_interactions_kept>  (409) 
0.5

>  <N_interactions_lost>  (409) 
2.0

>  <interaction_uniqueness_metric>  (409) 
0.177451

>  <ad_hoc_penalty>  (409) 
-18.759594

>  <N_rotatable_bonds>  (409) 
4

>  <N_HA>  (409) 
31

>  <cluster>  (409) 
5577

>  <N_interactions>  (409) 
4

>  <Enamine>  (409) 
0

>  <Mcule>  (409) 
1

>  <N_PAINS>  (409) 
0

>  <UFF_Gibbs>  (409) 
138.916394

>  <strain_per_HA>  (409) 
4.481174

>  <saltbridge:HIS:51>  (409) 
0

>  <pistack:HIS:51>  (409) 
0

>  <hydroph_interaction:HIS:51>  (409) 
0

>  <hbond:ALA:132>  (409) 
1

>  <hbond:SER:135>  (409) 
0

>  <hydroph_interaction:TYR:150>  (409) 
0

>  <pistack:TYR:161>  (409) 
1

>  <hydroph_interaction:TYR:161>  (409) 
0

>  <hydroph_interaction:ASP:83>  (409) 
0

>  <hbond:TYR:130>  (409) 
0

>  <hydroph_interaction:ALA:132>  (409) 
0

>  <hbond:HIS:51>  (409) 
0

>  <hbond:ASP:129>  (409) 
0

>  <hbond:TYR:150>  (409) 
0

>  <hbond:GLY:151>  (409) 
0

>  <hbond:TYR:161>  (409) 
0

>  <hydroph_interaction:TYR:130>  (409) 
1

>  <hydroph_interaction:PRO:131>  (409) 
1

>  <hydroph_interaction:ASP:129>  (409) 
0

>  <saltbridge:ASP:75>  (409) 
0

>  <saltbridge:ASP:83>  (409) 
0

>  <hydroph_interaction:ASN:152>  (409) 
0

>  <halogenbond:TYR:150>  (409) 
0

>  <hbond:ASP:83>  (409) 
0

>  <hydroph_interaction:VAL:155>  (409) 
0

>  <pication:TYR:161>  (409) 
0

>  <hbond:PRO:131>  (409) 
0

>  <hbond:LEU:128>  (409) 
0

>  <saltbridge:ASP:129>  (409) 
0

>  <hbond:THR:134>  (409) 
0

>  <pication:HIS:51>  (409) 
0

>  <hbond:SER:81>  (409) 
0

>  <hbond:GLY:159>  (409) 
0

>  <hydroph_interaction:PRO:101>  (409) 
0

>  <hydroph_interaction:THR:134>  (409) 
0

>  <hbond:GLY:82>  (409) 
0

>  <hydroph_interaction:GLU:104>  (409) 
0

>  <hydroph_interaction:VAL:36>  (409) 
0

>  <hydroph_interaction:MET:49>  (409) 
0

>  <halogenbond:GLU:104>  (409) 
0

>  <hydroph_interaction:LYS:107>  (409) 
0

$$$$
Z5578365196
     RDKit          3D

 44 47  0  0  0  0  0  0  0  0999 V2000
   -9.8750    4.7840  -18.5800 C   0  0  0  0  0  0  0  0  0  0  0  0
   -9.0210    4.9900  -17.3780 C   0  0  0  0  0  0  0  0  0  0  0  0
   -9.5380    4.7700  -16.1700 N   0  0  0  0  0  0  0  0  0  0  0  0
   -8.5350    5.0150  -15.3080 N   0  0  0  0  0  0  0  0  0  0  0  0
   -8.8060    4.8140  -13.8850 C   0  0  0  0  0  0  0  0  0  0  0  0
   -8.0700    5.6730  -12.8850 C   0  0  0  0  0  0  0  0  0  0  0  0
   -6.8710    5.9430  -12.9990 O   0  0  0  0  0  0  0  0  0  0  0  0
   -8.9200    6.0890  -11.8730 N   0  0  0  0  0  0  0  0  0  0  0  0
   -8.8740    5.8350  -10.4980 C   0  0  0  0  0  0  0  0  0  0  0  0
   -8.9600    4.6050   -9.8570 C   0  0  0  0  0  0  0  0  0  0  0  0
   -9.0890    3.3500  -10.2930 O   0  0  0  0  0  0  0  0  0  0  0  0
   -8.6440    2.3950   -9.3280 C   0  0  0  0  0  0  0  0  0  0  0  0
   -9.3990    2.5640   -8.0200 C   0  0  0  0  0  0  0  0  0  0  0  0
   -8.9630    3.8980   -7.4440 C   0  0  0  0  0  0  0  0  0  0  0  0
   -8.8920    4.8810   -8.5060 N   0  0  0  0  0  0  0  0  0  0  0  0
   -8.7540    6.1770   -8.2240 N   0  0  0  0  0  0  0  0  0  0  0  0
   -8.7440    6.7520   -9.4330 C   0  0  0  0  0  0  0  0  0  0  0  0
   -7.3890    5.4070  -15.9320 C   0  0  0  0  0  0  0  0  0  0  0  0
   -7.6600    5.4000  -17.2940 C   0  0  0  0  0  0  0  0  0  0  0  0
   -6.6760    5.7430  -18.3170 C   0  0  0  0  0  0  0  0  0  0  0  0
   -5.3930    5.2070  -18.2710 C   0  0  0  0  0  0  0  0  0  0  0  0
   -4.4530    5.5260  -19.2480 C   0  0  0  0  0  0  0  0  0  0  0  0
   -4.7810    6.3930  -20.2840 C   0  0  0  0  0  0  0  0  0  0  0  0
   -6.0490    6.9350  -20.3410 C   0  0  0  0  0  0  0  0  0  0  0  0
   -6.9730    6.6060  -19.3710 C   0  0  0  0  0  0  0  0  0  0  0  0
   -9.4990    5.3350  -19.4500 H   0  0  0  0  0  0  0  0  0  0  0  0
  -10.9070    5.1160  -18.4040 H   0  0  0  0  0  0  0  0  0  0  0  0
   -9.8880    3.7240  -18.8420 H   0  0  0  0  0  0  0  0  0  0  0  0
   -9.8830    4.9580  -13.7400 H   0  0  0  0  0  0  0  0  0  0  0  0
   -8.5980    3.7680  -13.6560 H   0  0  0  0  0  0  0  0  0  0  0  0
   -9.6350    6.7640  -12.1380 H   0  0  0  0  0  0  0  0  0  0  0  0
   -8.7330    1.3920   -9.7410 H   0  0  0  0  0  0  0  0  0  0  0  0
   -7.5740    2.5810   -9.1650 H   0  0  0  0  0  0  0  0  0  0  0  0
  -10.4820    2.5330   -8.1720 H   0  0  0  0  0  0  0  0  0  0  0  0
   -9.1260    1.7630   -7.3260 H   0  0  0  0  0  0  0  0  0  0  0  0
   -7.9850    3.8230   -6.9750 H   0  0  0  0  0  0  0  0  0  0  0  0
   -9.6880    4.2650   -6.7080 H   0  0  0  0  0  0  0  0  0  0  0  0
   -8.6460    7.8310   -9.4920 H   0  0  0  0  0  0  0  0  0  0  0  0
   -6.4940    5.6440  -15.3750 H   0  0  0  0  0  0  0  0  0  0  0  0
   -5.1010    4.5310  -17.4760 H   0  0  0  0  0  0  0  0  0  0  0  0
   -3.4550    5.0950  -19.1970 H   0  0  0  0  0  0  0  0  0  0  0  0
   -4.0440    6.6390  -21.0440 H   0  0  0  0  0  0  0  0  0  0  0  0
   -6.3270    7.6160  -21.1430 H   0  0  0  0  0  0  0  0  0  0  0  0
   -7.9350    7.0370  -19.4620 H   0  0  0  0  0  0  0  0  0  0  0  0
  1  2  1  0
  2  3  2  0
  3  4  1  0
  4  5  1  0
  5  6  1  0
  6  7  2  0
  6  8  1  0
  8  9  1  0
  9 10  2  0
 10 11  1  0
 11 12  1  0
 12 13  1  0
 13 14  1  0
 14 15  1  0
 15 16  1  0
 16 17  2  0
  4 18  1  0
 18 19  2  0
 19 20  1  0
 20 21  2  0
 21 22  1  0
 22 23  2  0
 23 24  1  0
 24 25  2  0
 19  2  1  0
 17  9  1  0
 15 10  1  0
 25 20  1  0
  1 26  1  0
  1 27  1  0
  1 28  1  0
  5 29  1  0
  5 30  1  0
  8 31  1  0
 12 32  1  0
 12 33  1  0
 13 34  1  0
 13 35  1  0
 14 36  1  0
 14 37  1  0
 17 38  1  0
 18 39  1  0
 21 40  1  0
 22 41  1  0
 23 42  1  0
 24 43  1  0
 25 44  1  0
A    1
 C1 
A    2
 C2 
A    3
 N1 
A    4
 N2 
A    5
 C3 
A    6
 C4 
A    7
 O1 
A    8
 N3 
A    9
 C5 
A   10
 C6 
A   11
 O2 
A   12
 C7 
A   13
 C8 
A   14
 C9 
A   15
 N4 
A   16
 N5 
A   17
 C10
A   18
 C11
A   19
 C12
A   20
 C13
A   21
 C14
A   22
 C15
A   23
 C16
A   24
 C17
A   25
 C18
A   26
 H1 
A   27
 H2 
A   28
 H3 
A   29
 H4 
A   30
 H5 
A   31
 H6 
A   32
 H7 
A   33
 H8 
A   34
 H9 
A   35
 H10
A   36
 H11
A   37
 H12
A   38
 H13
A   39
 H14
A   40
 H15
A   41
 H16
A   42
 H17
A   43
 H18
A   44
 H19
M  END
>  <ref_pdb>  (410) 
x0051_0B

>  <ref_mols>  (410) 
x0969_1B,x0803_0B

>  <original SMILES>  (410) 
[H]c1nn2c(c1N([H])C(=O)C([H])([H])n1nc(C([H])([H])[H])c(-c3c([H])c([H])c([H])c([H])c3[H])c1[H])OC([H])([H])C([H])([H])C2([H])[H]

>  <index>  (410) 
917

>  <∆∆G>  (410) 
-8.225215

>  <∆G_bound>  (410) 
-7.579022

>  <∆G_unbound>  (410) 
0.646193

>  <comRMSD>  (410) 
0.488496

>  <N_constrained_atoms>  (410) 
22.0

>  <N_unconstrained_atoms>  (410) 
3.0

>  <runtime>  (410) 
83.914318

>  <LE>  (410) 
0.329009

>  <percent_hybrid>  (410) 
46.0

>  <dist>  (410) 
11.0

>  <ecfp4>  (410) 
0.27381

>  <daylight>  (410) 
0.285714

>  <topodist>  (410) 
1.0

>  <mces>  (410) 
27.0

>  <tdn>  (410) 
0.0

>  <tup>  (410) 
1.0

>  <rdn>  (410) 
0.0

>  <rup>  (410) 
0.0

>  <ldn>  (410) 
0.0

>  <lup>  (410) 
0.0

>  <mut>  (410) 
5.0

>  <maj>  (410) 
5.0

>  <min>  (410) 
0.0

>  <hyb>  (410) 
5.0

>  <sub>  (410) 
0.0

>  <query_index>  (410) 
360.0

>  <max_hit_Tanimoto>  (410) 
0.265705

>  <largest_ring>  (410) 
6

>  <N_interactions_kept>  (410) 
3.0

>  <N_interactions_lost>  (410) 
3.0

>  <interaction_uniqueness_metric>  (410) 
0.160809

>  <ad_hoc_penalty>  (410) 
-18.725043

>  <N_rotatable_bonds>  (410) 
5

>  <N_HA>  (410) 
25

>  <cluster>  (410) 
5378

>  <N_interactions>  (410) 
7

>  <Enamine>  (410) 
1

>  <Mcule>  (410) 
0

>  <N_PAINS>  (410) 
0

>  <UFF_Gibbs>  (410) 
58.311949

>  <strain_per_HA>  (410) 
2.332478

>  <saltbridge:HIS:51>  (410) 
0

>  <pistack:HIS:51>  (410) 
0

>  <hydroph_interaction:HIS:51>  (410) 
0

>  <hbond:ALA:132>  (410) 
0

>  <hbond:SER:135>  (410) 
0

>  <hydroph_interaction:TYR:150>  (410) 
1

>  <pistack:TYR:161>  (410) 
1

>  <hydroph_interaction:TYR:161>  (410) 
3

>  <hydroph_interaction:ASP:83>  (410) 
0

>  <hbond:TYR:130>  (410) 
0

>  <hydroph_interaction:ALA:132>  (410) 
0

>  <hbond:HIS:51>  (410) 
1

>  <hbond:ASP:129>  (410) 
0

>  <hbond:TYR:150>  (410) 
0

>  <hbond:GLY:151>  (410) 
0

>  <hbond:TYR:161>  (410) 
1

>  <hydroph_interaction:TYR:130>  (410) 
0

>  <hydroph_interaction:PRO:131>  (410) 
0

>  <hydroph_interaction:ASP:129>  (410) 
0

>  <saltbridge:ASP:75>  (410) 
0

>  <saltbridge:ASP:83>  (410) 
0

>  <hydroph_interaction:ASN:152>  (410) 
0

>  <halogenbond:TYR:150>  (410) 
0

>  <hbond:ASP:83>  (410) 
0

>  <hydroph_interaction:VAL:155>  (410) 
0

>  <pication:TYR:161>  (410) 
0

>  <hbond:PRO:131>  (410) 
0

>  <hbond:LEU:128>  (410) 
0

>  <saltbridge:ASP:129>  (410) 
0

>  <hbond:THR:134>  (410) 
0

>  <pication:HIS:51>  (410) 
0

>  <hbond:SER:81>  (410) 
0

>  <hbond:GLY:159>  (410) 
0

>  <hydroph_interaction:PRO:101>  (410) 
0

>  <hydroph_interaction:THR:134>  (410) 
0

>  <hbond:GLY:82>  (410) 
0

>  <hydroph_interaction:GLU:104>  (410) 
0

>  <hydroph_interaction:VAL:36>  (410) 
0

>  <hydroph_interaction:MET:49>  (410) 
0

>  <halogenbond:GLU:104>  (410) 
0

>  <hydroph_interaction:LYS:107>  (410) 
0

$$$$
MCULE-5882510843
     RDKit          3D

 21 22  0  0  0  0  0  0  0  0999 V2000
   -6.5090    5.2260  -18.7290 C   0  0  0  0  0  0  0  0  0  0  0  0
   -5.3630    5.3730  -17.7700 C   0  0  0  0  0  0  0  0  0  0  0  0
   -5.5570    5.3660  -16.3490 C   0  0  0  0  0  0  0  0  0  0  0  0
   -4.1030    5.5130  -18.3160 C   0  0  0  0  0  0  0  0  0  0  0  0
   -3.9100    5.5230  -19.7130 C   0  0  0  0  0  0  0  0  0  0  0  0
   -4.9990    5.3920  -20.6140 N   0  0  0  0  0  0  0  0  0  0  0  0
   -6.2410    5.2490  -20.1000 C   0  0  0  0  0  0  0  0  0  0  0  0
   -7.8630    5.0520  -18.2640 C   0  0  0  0  0  0  0  0  0  0  0  0
   -8.3490    5.0280  -16.8940 C   0  0  0  0  0  0  0  0  0  0  0  0
   -9.7630    4.8190  -16.7590 C   0  0  0  0  0  0  0  0  0  0  0  0
  -10.0740    4.7290  -18.1510 N   0  0  0  0  0  0  0  0  0  0  0  0
   -8.9860    4.8600  -19.0170 N   0  0  0  0  0  0  0  0  0  0  0  0
   -6.1990    4.6010  -15.9240 H   0  0  0  0  0  0  0  0  0  0  0  0
   -4.5780    5.2910  -15.8650 H   0  0  0  0  0  0  0  0  0  0  0  0
   -5.9840    6.3270  -16.0420 H   0  0  0  0  0  0  0  0  0  0  0  0
   -3.2340    5.6180  -17.6800 H   0  0  0  0  0  0  0  0  0  0  0  0
   -2.9120    5.6330  -20.1400 H   0  0  0  0  0  0  0  0  0  0  0  0
   -7.0340    5.1490  -20.8320 H   0  0  0  0  0  0  0  0  0  0  0  0
   -7.6890    5.1540  -16.0310 H   0  0  0  0  0  0  0  0  0  0  0  0
  -10.4540    4.7390  -15.9390 H   0  0  0  0  0  0  0  0  0  0  0  0
  -10.9880    4.5800  -18.5750 H   0  0  0  0  0  0  0  0  0  0  0  0
  1  2  2  0
  2  3  1  0
  2  4  1  0
  4  5  2  0
  5  6  1  0
  6  7  2  0
  1  8  1  0
  8  9  1  0
  9 10  2  0
 10 11  1  0
 11 12  1  0
  7  1  1  0
  8 12  2  0
  3 13  1  0
  3 14  1  0
  3 15  1  0
  4 16  1  0
  5 17  1  0
  7 18  1  0
  9 19  1  0
 10 20  1  0
 11 21  1  0
A    1
 C1 
A    2
 C2 
A    3
 C3 
A    4
 C4 
A    5
 C5 
A    6
 N1 
A    7
 C6 
A    8
 C7 
A    9
 C8 
A   10
 C9 
A   11
 N2 
A   12
 N3 
A   13
 H1 
A   14
 H2 
A   15
 H3 
A   16
 H4 
A   17
 H5 
A   18
 H6 
A   19
 H7 
A   20
 H8 
A   21
 H9 
M  END
>  <ref_pdb>  (411) 
x0051_0B

>  <ref_mols>  (411) 
x0680_0B,x0386_0B

>  <original SMILES>  (411) 
[H]c1nc([H])c(-c2nn([H])c([H])c2[H])c(C([H])([H])[H])c1[H]

>  <index>  (411) 
295

>  <∆∆G>  (411) 
-5.139034

>  <∆G_bound>  (411) 
-5.171127

>  <∆G_unbound>  (411) 
-0.032093

>  <comRMSD>  (411) 
0.595248

>  <N_constrained_atoms>  (411) 
13.0

>  <N_unconstrained_atoms>  (411) 
0.0

>  <runtime>  (411) 
21.622732

>  <LE>  (411) 
0.39531

>  <percent_hybrid>  (411) 
25.0

>  <dist>  (411) 
2.0

>  <ecfp4>  (411) 
0.454545

>  <daylight>  (411) 
0.361702

>  <topodist>  (411) 
0.0

>  <mces>  (411) 
13.0

>  <tdn>  (411) 
0.0

>  <tup>  (411) 
0.0

>  <rdn>  (411) 
0.0

>  <rup>  (411) 
0.0

>  <ldn>  (411) 
0.0

>  <lup>  (411) 
0.0

>  <mut>  (411) 
2.0

>  <maj>  (411) 
2.0

>  <min>  (411) 
0.0

>  <hyb>  (411) 
0.0

>  <sub>  (411) 
0.0

>  <query_index>  (411) 
296.0

>  <max_hit_Tanimoto>  (411) 
0.152866

>  <largest_ring>  (411) 
0

>  <N_interactions_kept>  (411) 
3.5

>  <N_interactions_lost>  (411) 
0.5

>  <interaction_uniqueness_metric>  (411) 
0.018782

>  <ad_hoc_penalty>  (411) 
-18.722849

>  <N_rotatable_bonds>  (411) 
2

>  <N_HA>  (411) 
12

>  <cluster>  (411) 
5947

>  <N_interactions>  (411) 
4

>  <Enamine>  (411) 
0

>  <Mcule>  (411) 
1

>  <N_PAINS>  (411) 
0

>  <UFF_Gibbs>  (411) 
105.873125

>  <strain_per_HA>  (411) 
8.82276

>  <saltbridge:HIS:51>  (411) 
0

>  <pistack:HIS:51>  (411) 
0

>  <hydroph_interaction:HIS:51>  (411) 
0

>  <hbond:ALA:132>  (411) 
0

>  <hbond:SER:135>  (411) 
0

>  <hydroph_interaction:TYR:150>  (411) 
0

>  <pistack:TYR:161>  (411) 
0

>  <hydroph_interaction:TYR:161>  (411) 
4

>  <hydroph_interaction:ASP:83>  (411) 
0

>  <hbond:TYR:130>  (411) 
0

>  <hydroph_interaction:ALA:132>  (411) 
0

>  <hbond:HIS:51>  (411) 
0

>  <hbond:ASP:129>  (411) 
0

>  <hbond:TYR:150>  (411) 
0

>  <hbond:GLY:151>  (411) 
0

>  <hbond:TYR:161>  (411) 
0

>  <hydroph_interaction:TYR:130>  (411) 
0

>  <hydroph_interaction:PRO:131>  (411) 
0

>  <hydroph_interaction:ASP:129>  (411) 
0

>  <saltbridge:ASP:75>  (411) 
0

>  <saltbridge:ASP:83>  (411) 
0

>  <hydroph_interaction:ASN:152>  (411) 
0

>  <halogenbond:TYR:150>  (411) 
0

>  <hbond:ASP:83>  (411) 
0

>  <hydroph_interaction:VAL:155>  (411) 
0

>  <pication:TYR:161>  (411) 
0

>  <hbond:PRO:131>  (411) 
0

>  <hbond:LEU:128>  (411) 
0

>  <saltbridge:ASP:129>  (411) 
0

>  <hbond:THR:134>  (411) 
0

>  <pication:HIS:51>  (411) 
0

>  <hbond:SER:81>  (411) 
0

>  <hbond:GLY:159>  (411) 
0

>  <hydroph_interaction:PRO:101>  (411) 
0

>  <hydroph_interaction:THR:134>  (411) 
0

>  <hbond:GLY:82>  (411) 
0

>  <hydroph_interaction:GLU:104>  (411) 
0

>  <hydroph_interaction:VAL:36>  (411) 
0

>  <hydroph_interaction:MET:49>  (411) 
0

>  <halogenbond:GLU:104>  (411) 
0

>  <hydroph_interaction:LYS:107>  (411) 
0

$$$$
MCULE-8160039035
     RDKit          3D

 19 20  0  0  0  0  0  0  0  0999 V2000
  -10.0500    4.9180  -15.6910 O   0  0  0  0  0  0  0  0  0  0  0  0
   -9.3650    4.9440  -16.8500 C   0  0  0  0  0  0  0  0  0  0  0  0
   -8.1080    5.1460  -16.9560 N   0  0  0  0  0  0  0  0  0  0  0  0
   -7.8880    5.0690  -18.2960 C   0  0  0  0  0  0  0  0  0  0  0  0
   -6.5590    5.2220  -18.8250 C   0  0  0  0  0  0  0  0  0  0  0  0
   -5.4280    5.3450  -17.7840 C   0  0  0  0  0  0  0  0  0  0  0  0
   -4.0220    5.4800  -18.3470 C   0  0  0  0  0  0  0  0  0  0  0  0
   -3.8120    5.4930  -19.7190 C   0  0  0  0  0  0  0  0  0  0  0  0
   -4.9880    5.3710  -20.6780 C   0  0  0  0  0  0  0  0  0  0  0  0
   -6.2880    5.2430  -20.1980 C   0  0  0  0  0  0  0  0  0  0  0  0
   -9.0800    4.8220  -18.9540 C   0  0  0  0  0  0  0  0  0  0  0  0
  -10.0630    4.7380  -17.9990 O   0  0  0  0  0  0  0  0  0  0  0  0
   -9.9780    3.9860  -15.4310 H   0  0  0  0  0  0  0  0  0  0  0  0
   -5.6150    5.3300  -16.7120 H   0  0  0  0  0  0  0  0  0  0  0  0
   -3.1810    5.5660  -17.6700 H   0  0  0  0  0  0  0  0  0  0  0  0
   -2.8020    5.5910  -20.1090 H   0  0  0  0  0  0  0  0  0  0  0  0
   -4.8130    5.3810  -21.7520 H   0  0  0  0  0  0  0  0  0  0  0  0
   -7.0910    5.1550  -20.9250 H   0  0  0  0  0  0  0  0  0  0  0  0
   -9.3870    4.6850  -19.9830 H   0  0  0  0  0  0  0  0  0  0  0  0
  1  2  1  0
  2  3  2  0
  3  4  1  0
  4  5  1  0
  5  6  2  0
  6  7  1  0
  7  8  2  0
  8  9  1  0
  9 10  2  0
  4 11  2  0
 11 12  1  0
 12  2  1  0
  5 10  1  0
  1 13  1  0
  6 14  1  0
  7 15  1  0
  8 16  1  0
  9 17  1  0
 10 18  1  0
 11 19  1  0
A    1
 O1 
A    2
 C1 
A    3
 N1 
A    4
 C2 
A    5
 C3 
A    6
 C4 
A    7
 C5 
A    8
 C6 
A    9
 C7 
A   10
 C8 
A   11
 C9 
A   12
 O2 
A   13
 H1 
A   14
 H2 
A   15
 H3 
A   16
 H4 
A   17
 H5 
A   18
 H6 
A   19
 H7 
M  END
>  <ref_pdb>  (412) 
x0051_0B

>  <ref_mols>  (412) 
x0680_0B,x0386_0B

>  <original SMILES>  (412) 
[H]Oc1nc(-c2c([H])c([H])c([H])c([H])c2[H])c([H])o1

>  <index>  (412) 
523

>  <∆∆G>  (412) 
-5.570605

>  <∆G_bound>  (412) 
-5.495502

>  <∆G_unbound>  (412) 
0.075103

>  <comRMSD>  (412) 
0.620233

>  <N_constrained_atoms>  (412) 
13.0

>  <N_unconstrained_atoms>  (412) 
0.0

>  <runtime>  (412) 
27.248054

>  <LE>  (412) 
0.428508

>  <percent_hybrid>  (412) 
25.0

>  <dist>  (412) 
3.0

>  <ecfp4>  (412) 
0.183673

>  <daylight>  (412) 
0.451613

>  <topodist>  (412) 
2.0

>  <mces>  (412) 
12.0

>  <tdn>  (412) 
1.0

>  <tup>  (412) 
1.0

>  <rdn>  (412) 
0.0

>  <rup>  (412) 
0.0

>  <ldn>  (412) 
0.0

>  <lup>  (412) 
0.0

>  <mut>  (412) 
1.0

>  <maj>  (412) 
1.0

>  <min>  (412) 
0.0

>  <hyb>  (412) 
0.0

>  <sub>  (412) 
2.0

>  <query_index>  (412) 
296.0

>  <max_hit_Tanimoto>  (412) 
0.12336

>  <largest_ring>  (412) 
6

>  <N_interactions_kept>  (412) 
3.5

>  <N_interactions_lost>  (412) 
0.5

>  <interaction_uniqueness_metric>  (412) 
0.016266

>  <ad_hoc_penalty>  (412) 
-18.703918

>  <N_rotatable_bonds>  (412) 
2

>  <N_HA>  (412) 
12

>  <cluster>  (412) 
5741

>  <N_interactions>  (412) 
3

>  <Enamine>  (412) 
0

>  <Mcule>  (412) 
1

>  <N_PAINS>  (412) 
0

>  <UFF_Gibbs>  (412) 
60.678864

>  <strain_per_HA>  (412) 
5.056572

>  <saltbridge:HIS:51>  (412) 
0

>  <pistack:HIS:51>  (412) 
0

>  <hydroph_interaction:HIS:51>  (412) 
0

>  <hbond:ALA:132>  (412) 
0

>  <hbond:SER:135>  (412) 
0

>  <hydroph_interaction:TYR:150>  (412) 
0

>  <pistack:TYR:161>  (412) 
0

>  <hydroph_interaction:TYR:161>  (412) 
3

>  <hydroph_interaction:ASP:83>  (412) 
0

>  <hbond:TYR:130>  (412) 
0

>  <hydroph_interaction:ALA:132>  (412) 
0

>  <hbond:HIS:51>  (412) 
0

>  <hbond:ASP:129>  (412) 
0

>  <hbond:TYR:150>  (412) 
0

>  <hbond:GLY:151>  (412) 
0

>  <hbond:TYR:161>  (412) 
0

>  <hydroph_interaction:TYR:130>  (412) 
0

>  <hydroph_interaction:PRO:131>  (412) 
0

>  <hydroph_interaction:ASP:129>  (412) 
0

>  <saltbridge:ASP:75>  (412) 
0

>  <saltbridge:ASP:83>  (412) 
0

>  <hydroph_interaction:ASN:152>  (412) 
0

>  <halogenbond:TYR:150>  (412) 
0

>  <hbond:ASP:83>  (412) 
0

>  <hydroph_interaction:VAL:155>  (412) 
0

>  <pication:TYR:161>  (412) 
0

>  <hbond:PRO:131>  (412) 
0

>  <hbond:LEU:128>  (412) 
0

>  <saltbridge:ASP:129>  (412) 
0

>  <hbond:THR:134>  (412) 
0

>  <pication:HIS:51>  (412) 
0

>  <hbond:SER:81>  (412) 
0

>  <hbond:GLY:159>  (412) 
0

>  <hydroph_interaction:PRO:101>  (412) 
0

>  <hydroph_interaction:THR:134>  (412) 
0

>  <hbond:GLY:82>  (412) 
0

>  <hydroph_interaction:GLU:104>  (412) 
0

>  <hydroph_interaction:VAL:36>  (412) 
0

>  <hydroph_interaction:MET:49>  (412) 
0

>  <halogenbond:GLU:104>  (412) 
0

>  <hydroph_interaction:LYS:107>  (412) 
0

$$$$
CSCS00020646180
     RDKit          3D

 27 29  0  0  0  0  0  0  0  0999 V2000
   -2.5750    5.2740  -17.9750 O   0  0  0  0  0  0  0  0  0  0  0  0
   -3.7790    5.2910  -18.5800 C   0  0  0  0  0  0  0  0  0  0  0  0
   -5.0460    5.2110  -17.7900 C   0  0  0  0  0  0  0  0  0  0  0  0
   -6.3830    5.2610  -18.5770 C   0  0  0  0  0  0  0  0  0  0  0  0
   -6.6180    5.4100  -20.2410 S   0  0  0  0  0  0  0  0  0  0  0  0
   -4.9610    5.4500  -20.8280 C   0  0  0  0  0  0  0  0  0  0  0  0
   -4.8690    5.5600  -22.3290 C   0  0  0  0  0  0  0  0  0  0  0  0
   -3.6130    5.5890  -22.9150 C   0  0  0  0  0  0  0  0  0  0  0  0
   -2.3730    5.5090  -22.0210 C   0  0  0  0  0  0  0  0  0  0  0  0
   -2.5540    5.4170  -20.6550 C   0  0  0  0  0  0  0  0  0  0  0  0
   -3.8070    5.3900  -20.0580 C   0  0  0  0  0  0  0  0  0  0  0  0
   -7.5870    5.1560  -17.7940 C   0  0  0  0  0  0  0  0  0  0  0  0
   -7.4320    5.3410  -16.4280 C   0  0  0  0  0  0  0  0  0  0  0  0
   -8.5790    5.2530  -15.4510 C   0  0  0  0  0  0  0  0  0  0  0  0
   -9.8670    4.9450  -16.1540 C   0  0  0  0  0  0  0  0  0  0  0  0
   -9.9760    4.7610  -17.6680 C   0  0  0  0  0  0  0  0  0  0  0  0
   -8.8120    4.8760  -18.4090 C   0  0  0  0  0  0  0  0  0  0  0  0
   -4.9620    5.1130  -16.7130 H   0  0  0  0  0  0  0  0  0  0  0  0
   -5.7610    5.6140  -22.9450 H   0  0  0  0  0  0  0  0  0  0  0  0
   -3.5140    5.6630  -23.9970 H   0  0  0  0  0  0  0  0  0  0  0  0
   -1.3700    5.5230  -22.4450 H   0  0  0  0  0  0  0  0  0  0  0  0
   -1.6760    5.3620  -20.0180 H   0  0  0  0  0  0  0  0  0  0  0  0
   -6.4460    5.5570  -16.0320 H   0  0  0  0  0  0  0  0  0  0  0  0
   -8.4850    5.3890  -14.3770 H   0  0  0  0  0  0  0  0  0  0  0  0
  -10.7380    4.8500  -15.5290 H   0  0  0  0  0  0  0  0  0  0  0  0
  -10.9250    4.5440  -18.1440 H   0  0  0  0  0  0  0  0  0  0  0  0
   -8.8650    4.7440  -19.4880 H   0  0  0  0  0  0  0  0  0  0  0  0
  1  2  2  0
  2  3  1  0
  3  4  2  0
  4  5  1  0
  5  6  1  0
  6  7  2  0
  7  8  1  0
  8  9  2  0
  9 10  1  0
 10 11  2  0
  4 12  1  0
 12 13  2  0
 13 14  1  0
 14 15  2  0
 15 16  1  0
 16 17  2  0
 11  2  1  0
 11  6  1  0
 17 12  1  0
  3 18  1  0
  7 19  1  0
  8 20  1  0
  9 21  1  0
 10 22  1  0
 13 23  1  0
 14 24  1  0
 15 25  1  0
 16 26  1  0
 17 27  1  0
A    1
 O1 
A    2
 C1 
A    3
 C2 
A    4
 C3 
A    5
 S1 
A    6
 C4 
A    7
 C5 
A    8
 C6 
A    9
 C7 
A   10
 C8 
A   11
 C9 
A   12
 C10
A   13
 C11
A   14
 C12
A   15
 C13
A   16
 C14
A   17
 C15
A   18
 H1 
A   19
 H2 
A   20
 H3 
A   21
 H4 
A   22
 H5 
A   23
 H6 
A   24
 H7 
A   25
 H8 
A   26
 H9 
A   27
 H10
M  END
>  <ref_pdb>  (413) 
x0051_0B

>  <ref_mols>  (413) 
x0852_0B,x0680_0B

>  <original SMILES>  (413) 
[H]c1c([H])c([H])c(-c2sc3c([H])c([H])c([H])c([H])c3c(=O)c2[H])c([H])c1[H]

>  <index>  (413) 
390

>  <∆∆G>  (413) 
-6.510392

>  <∆G_bound>  (413) 
-6.384868

>  <∆G_unbound>  (413) 
0.125524

>  <comRMSD>  (413) 
0.62101

>  <N_constrained_atoms>  (413) 
19.0

>  <N_unconstrained_atoms>  (413) 
1.0

>  <runtime>  (413) 
37.165508

>  <LE>  (413) 
0.32552

>  <percent_hybrid>  (413) 
20.0

>  <dist>  (413) 
6.0

>  <ecfp4>  (413) 
0.081967

>  <daylight>  (413) 
0.15122

>  <topodist>  (413) 
3.0

>  <mces>  (413) 
19.0

>  <tdn>  (413) 
1.0

>  <tup>  (413) 
0.0

>  <rdn>  (413) 
1.0

>  <rup>  (413) 
0.0

>  <ldn>  (413) 
1.0

>  <lup>  (413) 
0.0

>  <mut>  (413) 
2.0

>  <maj>  (413) 
2.0

>  <min>  (413) 
0.0

>  <hyb>  (413) 
1.0

>  <sub>  (413) 
3.0

>  <query_index>  (413) 
135.0

>  <max_hit_Tanimoto>  (413) 
0.165109

>  <largest_ring>  (413) 
0

>  <N_interactions_kept>  (413) 
6.0

>  <N_interactions_lost>  (413) 
1.5

>  <interaction_uniqueness_metric>  (413) 
0.053002

>  <ad_hoc_penalty>  (413) 
-18.663289

>  <N_rotatable_bonds>  (413) 
1

>  <N_HA>  (413) 
17

>  <cluster>  (413) 
5861

>  <N_interactions>  (413) 
4

>  <Enamine>  (413) 
1

>  <Mcule>  (413) 
0

>  <N_PAINS>  (413) 
0

>  <UFF_Gibbs>  (413) 
125.681478

>  <strain_per_HA>  (413) 
7.393028

>  <saltbridge:HIS:51>  (413) 
0

>  <pistack:HIS:51>  (413) 
0

>  <hydroph_interaction:HIS:51>  (413) 
0

>  <hbond:ALA:132>  (413) 
0

>  <hbond:SER:135>  (413) 
0

>  <hydroph_interaction:TYR:150>  (413) 
0

>  <pistack:TYR:161>  (413) 
0

>  <hydroph_interaction:TYR:161>  (413) 
3

>  <hydroph_interaction:ASP:83>  (413) 
0

>  <hbond:TYR:130>  (413) 
0

>  <hydroph_interaction:ALA:132>  (413) 
0

>  <hbond:HIS:51>  (413) 
0

>  <hbond:ASP:129>  (413) 
0

>  <hbond:TYR:150>  (413) 
0

>  <hbond:GLY:151>  (413) 
0

>  <hbond:TYR:161>  (413) 
0

>  <hydroph_interaction:TYR:130>  (413) 
0

>  <hydroph_interaction:PRO:131>  (413) 
0

>  <hydroph_interaction:ASP:129>  (413) 
1

>  <saltbridge:ASP:75>  (413) 
0

>  <saltbridge:ASP:83>  (413) 
0

>  <hydroph_interaction:ASN:152>  (413) 
0

>  <halogenbond:TYR:150>  (413) 
0

>  <hbond:ASP:83>  (413) 
0

>  <hydroph_interaction:VAL:155>  (413) 
0

>  <pication:TYR:161>  (413) 
0

>  <hbond:PRO:131>  (413) 
0

>  <hbond:LEU:128>  (413) 
0

>  <saltbridge:ASP:129>  (413) 
0

>  <hbond:THR:134>  (413) 
0

>  <pication:HIS:51>  (413) 
0

>  <hbond:SER:81>  (413) 
0

>  <hbond:GLY:159>  (413) 
0

>  <hydroph_interaction:PRO:101>  (413) 
0

>  <hydroph_interaction:THR:134>  (413) 
0

>  <hbond:GLY:82>  (413) 
0

>  <hydroph_interaction:GLU:104>  (413) 
0

>  <hydroph_interaction:VAL:36>  (413) 
0

>  <hydroph_interaction:MET:49>  (413) 
0

>  <halogenbond:GLU:104>  (413) 
0

>  <hydroph_interaction:LYS:107>  (413) 
0

$$$$
NMMWGZIXIGGLKN-UHFFFAOYSA-N
     RDKit          3D

 41 43  0  0  0  0  0  0  0  0999 V2000
   -9.0560    7.3550  -13.8980 C   0  0  0  0  0  0  0  0  0  0  0  0
   -7.8430    7.4010  -14.4840 N   0  0  0  0  0  0  0  0  0  0  0  0
   -7.3100    6.1080  -14.8780 C   0  0  0  0  0  0  0  0  0  0  0  0
   -7.7840    5.6630  -16.2340 C   0  0  0  0  0  0  0  0  0  0  0  0
   -9.0780    5.1370  -16.4850 C   0  0  0  0  0  0  0  0  0  0  0  0
   -9.4140    4.7650  -17.7940 C   0  0  0  0  0  0  0  0  0  0  0  0
   -8.4750    4.9190  -18.8100 C   0  0  0  0  0  0  0  0  0  0  0  0
   -7.2080    5.4310  -18.5660 C   0  0  0  0  0  0  0  0  0  0  0  0
   -6.0410    5.6280  -19.8060 Cl  0  0  0  0  0  0  0  0  0  0  0  0
   -6.8720    5.7970  -17.2800 C   0  0  0  0  0  0  0  0  0  0  0  0
  -10.0800    7.8470  -14.3220 O   0  0  0  0  0  0  0  0  0  0  0  0
   -9.0240    6.5940  -12.6540 C   0  0  0  0  0  0  0  0  0  0  0  0
   -8.8570    7.3270  -11.3320 C   0  0  0  0  0  0  0  0  0  0  0  0
   -8.8160    6.4740  -10.0780 C   0  0  0  0  0  0  0  0  0  0  0  0
   -8.9410    4.9640  -10.1950 C   0  0  0  0  0  0  0  0  0  0  0  0
   -8.9080    4.1700   -9.0820 N   0  0  0  0  0  0  0  0  0  0  0  0
   -9.4010    2.7930   -9.0610 C   0  0  0  0  0  0  0  0  0  0  0  0
   -9.6640    2.6250   -7.7230 C   0  0  0  0  0  0  0  0  0  0  0  0
   -9.3520    3.7210   -6.8890 C   0  0  0  0  0  0  0  0  0  0  0  0
   -8.6660    4.6410   -7.7140 C   0  0  0  0  0  0  0  0  0  0  0  0
   -9.0920    4.4420  -11.4920 C   0  0  0  0  0  0  0  0  0  0  0  0
   -9.1320    5.2020  -12.6510 C   0  0  0  0  0  0  0  0  0  0  0  0
   -7.1830    8.1160  -14.2160 H   0  0  0  0  0  0  0  0  0  0  0  0
   -7.6270    5.4010  -14.1030 H   0  0  0  0  0  0  0  0  0  0  0  0
   -6.2170    6.1800  -14.8660 H   0  0  0  0  0  0  0  0  0  0  0  0
   -9.8130    5.0200  -15.6810 H   0  0  0  0  0  0  0  0  0  0  0  0
  -10.4260    4.3720  -17.9150 H   0  0  0  0  0  0  0  0  0  0  0  0
   -8.7480    4.6270  -19.8300 H   0  0  0  0  0  0  0  0  0  0  0  0
   -5.8760    6.2030  -17.0780 H   0  0  0  0  0  0  0  0  0  0  0  0
   -8.7580    8.4100  -11.1670 H   0  0  0  0  0  0  0  0  0  0  0  0
   -8.6970    6.9350   -9.0900 H   0  0  0  0  0  0  0  0  0  0  0  0
   -8.6230    2.1550   -9.4920 H   0  0  0  0  0  0  0  0  0  0  0  0
  -10.2370    2.7010   -9.7560 H   0  0  0  0  0  0  0  0  0  0  0  0
   -9.1250    1.7440   -7.3730 H   0  0  0  0  0  0  0  0  0  0  0  0
  -10.7290    2.3880   -7.6310 H   0  0  0  0  0  0  0  0  0  0  0  0
   -8.7100    3.3910   -6.0650 H   0  0  0  0  0  0  0  0  0  0  0  0
  -10.2870    4.1210   -6.4780 H   0  0  0  0  0  0  0  0  0  0  0  0
   -9.1170    5.6270   -7.5490 H   0  0  0  0  0  0  0  0  0  0  0  0
   -7.5910    4.7440   -7.5780 H   0  0  0  0  0  0  0  0  0  0  0  0
   -9.1930    3.3700  -11.7000 H   0  0  0  0  0  0  0  0  0  0  0  0
   -9.2550    4.5890  -13.5550 H   0  0  0  0  0  0  0  0  0  0  0  0
  1  2  1  0
  2  3  1  0
  3  4  1  0
  4  5  2  0
  5  6  1  0
  6  7  2  0
  7  8  1  0
  8  9  1  0
  8 10  2  0
  1 11  2  0
  1 12  1  0
 12 13  2  0
 13 14  1  0
 14 15  2  0
 15 16  1  0
 16 17  1  0
 17 18  1  0
 18 19  1  0
 19 20  1  0
 15 21  1  0
 21 22  2  0
 10  4  1  0
 22 12  1  0
 20 16  1  0
  2 23  1  0
  3 24  1  0
  3 25  1  0
  5 26  1  0
  6 27  1  0
  7 28  1  0
 10 29  1  0
 13 30  1  0
 14 31  1  0
 17 32  1  0
 17 33  1  0
 18 34  1  0
 18 35  1  0
 19 36  1  0
 19 37  1  0
 20 38  1  0
 20 39  1  0
 21 40  1  0
 22 41  1  0
A    1
 C1 
A    2
 N1 
A    3
 C2 
A    4
 C3 
A    5
 C4 
A    6
 C5 
A    7
 C6 
A    8
 C7 
A    9
CL1 
A   10
 C8 
A   11
 O1 
A   12
 C9 
A   13
 C10
A   14
 C11
A   15
 C12
A   16
 N2 
A   17
 C13
A   18
 C14
A   19
 C15
A   20
 C16
A   21
 C17
A   22
 C18
A   23
 H1 
A   24
 H2 
A   25
 H3 
A   26
 H4 
A   27
 H5 
A   28
 H6 
A   29
 H7 
A   30
 H8 
A   31
 H9 
A   32
 H10
A   33
 H11
A   34
 H12
A   35
 H13
A   36
 H14
A   37
 H15
A   38
 H16
A   39
 H17
A   40
 H18
A   41
 H19
M  END
>  <ref_pdb>  (414) 
x0051_0B

>  <ref_mols>  (414) 
x0589_0B,x0404_0B

>  <original SMILES>  (414) 
[H]c1c([H])c(Cl)c([H])c(C([H])([H])N([H])C(=O)c2c([H])c([H])c(N3C([H])([H])C([H])([H])C([H])([H])C3([H])[H])c([H])c2[H])c1[H]

>  <index>  (414) 
542

>  <∆∆G>  (414) 
-6.802647

>  <∆G_bound>  (414) 
-6.442979

>  <∆G_unbound>  (414) 
0.359668

>  <comRMSD>  (414) 
0.725796

>  <N_constrained_atoms>  (414) 
23.0

>  <N_unconstrained_atoms>  (414) 
1.0

>  <runtime>  (414) 
70.457338

>  <LE>  (414) 
0.283444

>  <percent_hybrid>  (414) 
35.0

>  <dist>  (414) 
7.0

>  <ecfp4>  (414) 
0.184211

>  <daylight>  (414) 
0.213115

>  <topodist>  (414) 
3.0

>  <mces>  (414) 
24.0

>  <tdn>  (414) 
2.0

>  <tup>  (414) 
0.0

>  <rdn>  (414) 
0.0

>  <rup>  (414) 
0.0

>  <ldn>  (414) 
1.0

>  <lup>  (414) 
0.0

>  <mut>  (414) 
3.0

>  <maj>  (414) 
2.0

>  <min>  (414) 
1.0

>  <hyb>  (414) 
1.0

>  <sub>  (414) 
1.0

>  <query_index>  (414) 
29.0

>  <max_hit_Tanimoto>  (414) 
0.255613

>  <largest_ring>  (414) 
6

>  <N_interactions_kept>  (414) 
2.5

>  <N_interactions_lost>  (414) 
1.0

>  <interaction_uniqueness_metric>  (414) 
0.063676

>  <ad_hoc_penalty>  (414) 
-18.612536

>  <N_rotatable_bonds>  (414) 
4

>  <N_HA>  (414) 
22

>  <cluster>  (414) 
5722

>  <N_interactions>  (414) 
4

>  <Enamine>  (414) 
0

>  <Mcule>  (414) 
1

>  <N_PAINS>  (414) 
0

>  <UFF_Gibbs>  (414) 
119.339817

>  <strain_per_HA>  (414) 
5.424537

>  <saltbridge:HIS:51>  (414) 
0

>  <pistack:HIS:51>  (414) 
1

>  <hydroph_interaction:HIS:51>  (414) 
0

>  <hbond:ALA:132>  (414) 
0

>  <hbond:SER:135>  (414) 
0

>  <hydroph_interaction:TYR:150>  (414) 
0

>  <pistack:TYR:161>  (414) 
0

>  <hydroph_interaction:TYR:161>  (414) 
2

>  <hydroph_interaction:ASP:83>  (414) 
0

>  <hbond:TYR:130>  (414) 
0

>  <hydroph_interaction:ALA:132>  (414) 
1

>  <hbond:HIS:51>  (414) 
0

>  <hbond:ASP:129>  (414) 
0

>  <hbond:TYR:150>  (414) 
0

>  <hbond:GLY:151>  (414) 
0

>  <hbond:TYR:161>  (414) 
0

>  <hydroph_interaction:TYR:130>  (414) 
0

>  <hydroph_interaction:PRO:131>  (414) 
0

>  <hydroph_interaction:ASP:129>  (414) 
0

>  <saltbridge:ASP:75>  (414) 
0

>  <saltbridge:ASP:83>  (414) 
0

>  <hydroph_interaction:ASN:152>  (414) 
0

>  <halogenbond:TYR:150>  (414) 
0

>  <hbond:ASP:83>  (414) 
0

>  <hydroph_interaction:VAL:155>  (414) 
0

>  <pication:TYR:161>  (414) 
0

>  <hbond:PRO:131>  (414) 
0

>  <hbond:LEU:128>  (414) 
0

>  <saltbridge:ASP:129>  (414) 
0

>  <hbond:THR:134>  (414) 
0

>  <pication:HIS:51>  (414) 
0

>  <hbond:SER:81>  (414) 
0

>  <hbond:GLY:159>  (414) 
0

>  <hydroph_interaction:PRO:101>  (414) 
0

>  <hydroph_interaction:THR:134>  (414) 
0

>  <hbond:GLY:82>  (414) 
0

>  <hydroph_interaction:GLU:104>  (414) 
0

>  <hydroph_interaction:VAL:36>  (414) 
0

>  <hydroph_interaction:MET:49>  (414) 
0

>  <halogenbond:GLU:104>  (414) 
0

>  <hydroph_interaction:LYS:107>  (414) 
0

$$$$
MCULE-5900465413
     RDKit          3D

 17 18  0  0  0  0  0  0  0  0999 V2000
   -7.9010    5.0700  -18.2320 C   0  0  0  0  0  0  0  0  0  0  0  0
   -8.3330    5.1030  -16.8920 C   0  0  0  0  0  0  0  0  0  0  0  0
   -9.6680    4.8560  -16.9000 C   0  0  0  0  0  0  0  0  0  0  0  0
  -10.1150    4.6730  -18.1740 O   0  0  0  0  0  0  0  0  0  0  0  0
   -9.0320    4.8050  -18.9870 C   0  0  0  0  0  0  0  0  0  0  0  0
   -6.5590    5.2560  -18.7250 C   0  0  0  0  0  0  0  0  0  0  0  0
   -5.4660    5.3420  -17.8770 C   0  0  0  0  0  0  0  0  0  0  0  0
   -4.1890    5.4940  -18.2900 N   0  0  0  0  0  0  0  0  0  0  0  0
   -4.0220    5.5610  -19.6170 C   0  0  0  0  0  0  0  0  0  0  0  0
   -4.9940    5.4970  -20.5390 N   0  0  0  0  0  0  0  0  0  0  0  0
   -6.2520    5.3440  -20.0650 C   0  0  0  0  0  0  0  0  0  0  0  0
   -7.7380    5.2810  -16.0070 H   0  0  0  0  0  0  0  0  0  0  0  0
  -10.4030    4.7790  -16.1190 H   0  0  0  0  0  0  0  0  0  0  0  0
   -9.2340    4.6820  -20.0450 H   0  0  0  0  0  0  0  0  0  0  0  0
   -5.5730    5.2850  -16.7980 H   0  0  0  0  0  0  0  0  0  0  0  0
   -3.0080    5.6800  -19.9820 H   0  0  0  0  0  0  0  0  0  0  0  0
   -7.0170    5.2890  -20.8350 H   0  0  0  0  0  0  0  0  0  0  0  0
  1  2  1  0
  2  3  2  0
  3  4  1  0
  4  5  1  0
  1  6  1  0
  6  7  2  0
  7  8  1  0
  8  9  2  0
  9 10  1  0
 10 11  2  0
  1  5  2  0
  6 11  1  0
  2 12  1  0
  3 13  1  0
  5 14  1  0
  7 15  1  0
  9 16  1  0
 11 17  1  0
A    1
 C1 
A    2
 C2 
A    3
 C3 
A    4
 O1 
A    5
 C4 
A    6
 C5 
A    7
 C6 
A    8
 N1 
A    9
 C7 
A   10
 N2 
A   11
 C8 
A   12
 H1 
A   13
 H2 
A   14
 H3 
A   15
 H4 
A   16
 H5 
A   17
 H6 
M  END
>  <ref_pdb>  (415) 
x0051_0B

>  <ref_mols>  (415) 
x0680_0B,x0386_0B

>  <original SMILES>  (415) 
[H]c1nc([H])c(-c2c([H])oc([H])c2[H])c([H])n1

>  <index>  (415) 
830

>  <∆∆G>  (415) 
-5.115528

>  <∆G_bound>  (415) 
-5.077035

>  <∆G_unbound>  (415) 
0.038492

>  <comRMSD>  (415) 
0.587281

>  <N_constrained_atoms>  (415) 
13.0

>  <N_unconstrained_atoms>  (415) 
0.0

>  <runtime>  (415) 
24.840628

>  <LE>  (415) 
0.393502

>  <percent_hybrid>  (415) 
25.0

>  <dist>  (415) 
3.0

>  <ecfp4>  (415) 
0.217391

>  <daylight>  (415) 
0.282258

>  <topodist>  (415) 
1.0

>  <mces>  (415) 
12.0

>  <tdn>  (415) 
1.0

>  <tup>  (415) 
0.0

>  <rdn>  (415) 
0.0

>  <rup>  (415) 
0.0

>  <ldn>  (415) 
0.0

>  <lup>  (415) 
0.0

>  <mut>  (415) 
2.0

>  <maj>  (415) 
2.0

>  <min>  (415) 
0.0

>  <hyb>  (415) 
0.0

>  <sub>  (415) 
1.0

>  <query_index>  (415) 
296.0

>  <max_hit_Tanimoto>  (415) 
0.097614

>  <largest_ring>  (415) 
6

>  <N_interactions_kept>  (415) 
3.5

>  <N_interactions_lost>  (415) 
0.5

>  <interaction_uniqueness_metric>  (415) 
0.013281

>  <ad_hoc_penalty>  (415) 
-18.607634

>  <N_rotatable_bonds>  (415) 
1

>  <N_HA>  (415) 
11

>  <cluster>  (415) 
5459

>  <N_interactions>  (415) 
2

>  <Enamine>  (415) 
0

>  <Mcule>  (415) 
1

>  <N_PAINS>  (415) 
0

>  <UFF_Gibbs>  (415) 
18.723997

>  <strain_per_HA>  (415) 
1.702182

>  <saltbridge:HIS:51>  (415) 
0

>  <pistack:HIS:51>  (415) 
0

>  <hydroph_interaction:HIS:51>  (415) 
0

>  <hbond:ALA:132>  (415) 
0

>  <hbond:SER:135>  (415) 
0

>  <hydroph_interaction:TYR:150>  (415) 
0

>  <pistack:TYR:161>  (415) 
0

>  <hydroph_interaction:TYR:161>  (415) 
2

>  <hydroph_interaction:ASP:83>  (415) 
0

>  <hbond:TYR:130>  (415) 
0

>  <hydroph_interaction:ALA:132>  (415) 
0

>  <hbond:HIS:51>  (415) 
0

>  <hbond:ASP:129>  (415) 
0

>  <hbond:TYR:150>  (415) 
0

>  <hbond:GLY:151>  (415) 
0

>  <hbond:TYR:161>  (415) 
0

>  <hydroph_interaction:TYR:130>  (415) 
0

>  <hydroph_interaction:PRO:131>  (415) 
0

>  <hydroph_interaction:ASP:129>  (415) 
0

>  <saltbridge:ASP:75>  (415) 
0

>  <saltbridge:ASP:83>  (415) 
0

>  <hydroph_interaction:ASN:152>  (415) 
0

>  <halogenbond:TYR:150>  (415) 
0

>  <hbond:ASP:83>  (415) 
0

>  <hydroph_interaction:VAL:155>  (415) 
0

>  <pication:TYR:161>  (415) 
0

>  <hbond:PRO:131>  (415) 
0

>  <hbond:LEU:128>  (415) 
0

>  <saltbridge:ASP:129>  (415) 
0

>  <hbond:THR:134>  (415) 
0

>  <pication:HIS:51>  (415) 
0

>  <hbond:SER:81>  (415) 
0

>  <hbond:GLY:159>  (415) 
0

>  <hydroph_interaction:PRO:101>  (415) 
0

>  <hydroph_interaction:THR:134>  (415) 
0

>  <hbond:GLY:82>  (415) 
0

>  <hydroph_interaction:GLU:104>  (415) 
0

>  <hydroph_interaction:VAL:36>  (415) 
0

>  <hydroph_interaction:MET:49>  (415) 
0

>  <halogenbond:GLU:104>  (415) 
0

>  <hydroph_interaction:LYS:107>  (415) 
0

$$$$
CSSB03437176666
     RDKit          3D

 44 48  0  0  0  0  0  0  0  0999 V2000
   -5.8380   11.2010  -24.9150 O   0  0  0  0  0  0  0  0  0  0  0  0
   -5.8950    9.8320  -24.5000 C   0  0  0  0  0  0  0  0  0  0  0  0
   -6.7550    8.9500  -25.3110 C   0  0  0  0  0  0  0  0  0  0  0  0
   -6.8430    7.6160  -24.9630 C   0  0  0  0  0  0  0  0  0  0  0  0
   -6.1870    7.0960  -23.8780 C   0  0  0  0  0  0  0  0  0  0  0  0
   -5.3910    7.8840  -23.0680 C   0  0  0  0  0  0  0  0  0  0  0  0
   -4.7890    7.2830  -21.9710 N   0  0  0  0  0  0  0  0  0  0  0  0
   -5.3670    7.7400  -20.8060 C   0  0  0  0  0  0  0  0  0  0  0  0
   -5.5730    8.9300  -20.6090 O   0  0  0  0  0  0  0  0  0  0  0  0
   -5.7670    6.7300  -19.6910 C   0  0  0  0  0  0  0  0  0  0  0  0
   -5.2280    6.8300  -18.2580 C   0  0  0  0  0  0  0  0  0  0  0  0
   -5.7540    5.8340  -17.2530 C   0  0  0  0  0  0  0  0  0  0  0  0
   -5.0870    5.4270  -16.3080 O   0  0  0  0  0  0  0  0  0  0  0  0
   -7.0840    5.4490  -17.5010 C   0  0  0  0  0  0  0  0  0  0  0  0
   -7.5270    5.3760  -18.8540 C   0  0  0  0  0  0  0  0  0  0  0  0
   -6.6800    5.6860  -19.9230 O   0  0  0  0  0  0  0  0  0  0  0  0
   -8.8540    4.9940  -19.1560 C   0  0  0  0  0  0  0  0  0  0  0  0
   -9.7790    4.6890  -18.1460 C   0  0  0  0  0  0  0  0  0  0  0  0
   -9.2930    4.7850  -16.7360 C   0  0  0  0  0  0  0  0  0  0  0  0
   -7.9680    5.1540  -16.4610 C   0  0  0  0  0  0  0  0  0  0  0  0
   -5.2310    9.2730  -23.3900 C   0  0  0  0  0  0  0  0  0  0  0  0
   -7.6490    9.0730  -26.4220 C   0  0  0  0  0  0  0  0  0  0  0  0
   -8.0400    7.9330  -26.8930 N   0  0  0  0  0  0  0  0  0  0  0  0
   -9.0350    8.1020  -27.7720 C   0  0  0  0  0  0  0  0  0  0  0  0
   -9.3760    9.4230  -28.0100 C   0  0  0  0  0  0  0  0  0  0  0  0
   -8.3510   10.4760  -27.1060 S   0  0  0  0  0  0  0  0  0  0  0  0
  -10.4280    9.7260  -28.8690 C   0  0  0  0  0  0  0  0  0  0  0  0
  -11.1130    8.6700  -29.4740 C   0  0  0  0  0  0  0  0  0  0  0  0
  -10.7620    7.3460  -29.2480 C   0  0  0  0  0  0  0  0  0  0  0  0
   -9.7130    7.0530  -28.3940 C   0  0  0  0  0  0  0  0  0  0  0  0
   -5.8710   11.7310  -24.0930 H   0  0  0  0  0  0  0  0  0  0  0  0
   -7.4630    6.9580  -25.5530 H   0  0  0  0  0  0  0  0  0  0  0  0
   -6.2410    6.0650  -23.5640 H   0  0  0  0  0  0  0  0  0  0  0  0
   -3.8110    7.0410  -21.9220 H   0  0  0  0  0  0  0  0  0  0  0  0
   -4.5210    7.5760  -17.9130 H   0  0  0  0  0  0  0  0  0  0  0  0
   -9.1740    4.9380  -20.1910 H   0  0  0  0  0  0  0  0  0  0  0  0
  -10.8000    4.4030  -18.3800 H   0  0  0  0  0  0  0  0  0  0  0  0
   -9.9450    4.5710  -15.8970 H   0  0  0  0  0  0  0  0  0  0  0  0
   -7.6700    5.2010  -15.4210 H   0  0  0  0  0  0  0  0  0  0  0  0
   -4.6000    9.9220  -22.7710 H   0  0  0  0  0  0  0  0  0  0  0  0
  -10.7130   10.7580  -29.0630 H   0  0  0  0  0  0  0  0  0  0  0  0
  -11.9430    8.8940  -30.1450 H   0  0  0  0  0  0  0  0  0  0  0  0
  -11.3050    6.5430  -29.7350 H   0  0  0  0  0  0  0  0  0  0  0  0
   -9.4220    6.0250  -28.1940 H   0  0  0  0  0  0  0  0  0  0  0  0
  1  2  1  0
  2  3  2  0
  3  4  1  0
  4  5  2  0
  5  6  1  0
  6  7  1  0
  7  8  1  0
  8  9  2  0
  8 10  1  0
 10 11  2  0
 11 12  1  0
 12 13  2  0
 12 14  1  0
 14 15  2  0
 15 16  1  0
 15 17  1  0
 17 18  2  0
 18 19  1  0
 19 20  2  0
  6 21  2  0
  3 22  1  0
 22 23  2  0
 23 24  1  0
 24 25  2  0
 25 26  1  0
 25 27  1  0
 27 28  2  0
 28 29  1  0
 29 30  2  0
 21  2  1  0
 16 10  1  0
 20 14  1  0
 26 22  1  0
 30 24  1  0
  1 31  1  0
  4 32  1  0
  5 33  1  0
  7 34  1  0
 11 35  1  0
 17 36  1  0
 18 37  1  0
 19 38  1  0
 20 39  1  0
 21 40  1  0
 27 41  1  0
 28 42  1  0
 29 43  1  0
 30 44  1  0
A    1
 O1 
A    2
 C1 
A    3
 C2 
A    4
 C3 
A    5
 C4 
A    6
 C5 
A    7
 N1 
A    8
 C6 
A    9
 O2 
A   10
 C7 
A   11
 C8 
A   12
 C9 
A   13
 O3 
A   14
 C10
A   15
 C11
A   16
 O4 
A   17
 C12
A   18
 C13
A   19
 C14
A   20
 C15
A   21
 C16
A   22
 C17
A   23
 N2 
A   24
 C18
A   25
 C19
A   26
 S1 
A   27
 C20
A   28
 C21
A   29
 C22
A   30
 C23
A   31
 H1 
A   32
 H2 
A   33
 H3 
A   34
 H4 
A   35
 H5 
A   36
 H6 
A   37
 H7 
A   38
 H8 
A   39
 H9 
A   40
 H10
A   41
 H11
A   42
 H12
A   43
 H13
A   44
 H14
M  END
>  <ref_pdb>  (416) 
x0051_0B

>  <ref_mols>  (416) 
x0846_1B,x0727_0B

>  <original SMILES>  (416) 
[H]Oc1c([H])c(N([H])C(=O)c2oc3c([H])c([H])c([H])c([H])c3c(=O)c2[H])c([H])c([H])c1-c1nc2c([H])c([H])c([H])c([H])c2s1

>  <index>  (416) 
395

>  <∆∆G>  (416) 
-8.569096

>  <∆G_bound>  (416) 
-7.654376

>  <∆G_unbound>  (416) 
0.914721

>  <comRMSD>  (416) 
0.882884

>  <N_constrained_atoms>  (416) 
29.0

>  <N_unconstrained_atoms>  (416) 
2.0

>  <runtime>  (416) 
58.47888

>  <LE>  (416) 
0.276422

>  <percent_hybrid>  (416) 
38.0

>  <dist>  (416) 
12.0

>  <ecfp4>  (416) 
0.183673

>  <daylight>  (416) 
0.274336

>  <topodist>  (416) 
6.0

>  <mces>  (416) 
32.0

>  <tdn>  (416) 
2.0

>  <tup>  (416) 
2.0

>  <rdn>  (416) 
0.0

>  <rup>  (416) 
0.0

>  <ldn>  (416) 
2.0

>  <lup>  (416) 
0.0

>  <mut>  (416) 
5.0

>  <maj>  (416) 
5.0

>  <min>  (416) 
0.0

>  <hyb>  (416) 
1.0

>  <sub>  (416) 
0.0

>  <query_index>  (416) 
17.0

>  <max_hit_Tanimoto>  (416) 
0.213942

>  <largest_ring>  (416) 
0

>  <N_interactions_kept>  (416) 
1.0

>  <N_interactions_lost>  (416) 
2.0

>  <interaction_uniqueness_metric>  (416) 
0.178411

>  <ad_hoc_penalty>  (416) 
-18.598808

>  <N_rotatable_bonds>  (416) 
4

>  <N_HA>  (416) 
30

>  <cluster>  (416) 
5856

>  <N_interactions>  (416) 
5

>  <Enamine>  (416) 
1

>  <Mcule>  (416) 
0

>  <N_PAINS>  (416) 
0

>  <UFF_Gibbs>  (416) 
260.71926

>  <strain_per_HA>  (416) 
8.690642

>  <saltbridge:HIS:51>  (416) 
0

>  <pistack:HIS:51>  (416) 
0

>  <hydroph_interaction:HIS:51>  (416) 
0

>  <hbond:ALA:132>  (416) 
1

>  <hbond:SER:135>  (416) 
0

>  <hydroph_interaction:TYR:150>  (416) 
1

>  <pistack:TYR:161>  (416) 
1

>  <hydroph_interaction:TYR:161>  (416) 
0

>  <hydroph_interaction:ASP:83>  (416) 
0

>  <hbond:TYR:130>  (416) 
0

>  <hydroph_interaction:ALA:132>  (416) 
0

>  <hbond:HIS:51>  (416) 
0

>  <hbond:ASP:129>  (416) 
0

>  <hbond:TYR:150>  (416) 
0

>  <hbond:GLY:151>  (416) 
0

>  <hbond:TYR:161>  (416) 
0

>  <hydroph_interaction:TYR:130>  (416) 
0

>  <hydroph_interaction:PRO:131>  (416) 
1

>  <hydroph_interaction:ASP:129>  (416) 
1

>  <saltbridge:ASP:75>  (416) 
0

>  <saltbridge:ASP:83>  (416) 
0

>  <hydroph_interaction:ASN:152>  (416) 
0

>  <halogenbond:TYR:150>  (416) 
0

>  <hbond:ASP:83>  (416) 
0

>  <hydroph_interaction:VAL:155>  (416) 
0

>  <pication:TYR:161>  (416) 
0

>  <hbond:PRO:131>  (416) 
0

>  <hbond:LEU:128>  (416) 
0

>  <saltbridge:ASP:129>  (416) 
0

>  <hbond:THR:134>  (416) 
0

>  <pication:HIS:51>  (416) 
0

>  <hbond:SER:81>  (416) 
0

>  <hbond:GLY:159>  (416) 
0

>  <hydroph_interaction:PRO:101>  (416) 
0

>  <hydroph_interaction:THR:134>  (416) 
0

>  <hbond:GLY:82>  (416) 
0

>  <hydroph_interaction:GLU:104>  (416) 
0

>  <hydroph_interaction:VAL:36>  (416) 
0

>  <hydroph_interaction:MET:49>  (416) 
0

>  <halogenbond:GLU:104>  (416) 
0

>  <hydroph_interaction:LYS:107>  (416) 
0

$$$$
CSSB00020630943
     RDKit          3D

 41 42  0  0  0  0  0  0  0  0999 V2000
   -3.4580    5.2600  -19.5780 C   0  0  0  0  0  0  0  0  0  0  0  0
   -4.2620    5.2140  -20.8900 C   0  0  0  0  0  0  0  0  0  0  0  0
   -4.0030    6.2890  -21.7190 C   0  0  0  0  0  0  0  0  0  0  0  0
   -5.6830    5.0750  -20.6020 N   0  0  0  0  0  0  0  0  0  0  0  0
   -6.3630    5.9870  -19.8410 C   0  0  0  0  0  0  0  0  0  0  0  0
   -6.1070    7.1880  -19.9040 O   0  0  0  0  0  0  0  0  0  0  0  0
   -7.3680    5.5580  -18.9740 C   0  0  0  0  0  0  0  0  0  0  0  0
   -8.5480    4.9540  -19.4560 C   0  0  0  0  0  0  0  0  0  0  0  0
   -9.6510    4.5190  -18.5070 C   0  0  0  0  0  0  0  0  0  0  0  0
   -9.3490    4.7860  -17.0600 C   0  0  0  0  0  0  0  0  0  0  0  0
   -8.1630    5.3720  -16.6550 C   0  0  0  0  0  0  0  0  0  0  0  0
   -7.1940    5.7500  -17.5960 C   0  0  0  0  0  0  0  0  0  0  0  0
   -6.0300    6.3330  -17.2040 O   0  0  0  0  0  0  0  0  0  0  0  0
   -5.3420    5.8600  -16.0350 C   0  0  0  0  0  0  0  0  0  0  0  0
   -5.2800    6.9580  -15.1720 C   0  0  0  0  0  0  0  0  0  0  0  0
   -4.1020    7.0770  -14.4420 C   0  0  0  0  0  0  0  0  0  0  0  0
   -3.6040    5.7900  -13.9700 N   0  0  0  0  0  0  0  0  0  0  0  0
   -3.3800    4.8230  -15.0410 C   0  0  0  0  0  0  0  0  0  0  0  0
   -3.9540    5.2210  -16.2490 C   0  0  0  0  0  0  0  0  0  0  0  0
   -4.0410    4.8630  -18.7410 H   0  0  0  0  0  0  0  0  0  0  0  0
   -3.1310    6.2840  -19.3690 H   0  0  0  0  0  0  0  0  0  0  0  0
   -2.5550    4.6460  -19.6630 H   0  0  0  0  0  0  0  0  0  0  0  0
   -3.9270    4.3340  -21.4500 H   0  0  0  0  0  0  0  0  0  0  0  0
   -4.3750    7.2250  -21.2930 H   0  0  0  0  0  0  0  0  0  0  0  0
   -4.4860    6.1560  -22.6940 H   0  0  0  0  0  0  0  0  0  0  0  0
   -2.9260    6.3980  -21.8830 H   0  0  0  0  0  0  0  0  0  0  0  0
   -6.1270    4.1730  -20.7560 H   0  0  0  0  0  0  0  0  0  0  0  0
   -8.6880    4.7950  -20.5220 H   0  0  0  0  0  0  0  0  0  0  0  0
  -10.5690    4.0620  -18.8260 H   0  0  0  0  0  0  0  0  0  0  0  0
  -10.0820    4.5110  -16.2920 H   0  0  0  0  0  0  0  0  0  0  0  0
   -7.9980    5.5370  -15.5950 H   0  0  0  0  0  0  0  0  0  0  0  0
   -5.9680    5.0210  -15.7370 H   0  0  0  0  0  0  0  0  0  0  0  0
   -6.1850    7.1220  -14.5930 H   0  0  0  0  0  0  0  0  0  0  0  0
   -5.2810    7.8420  -15.8220 H   0  0  0  0  0  0  0  0  0  0  0  0
   -4.2640    7.7300  -13.5780 H   0  0  0  0  0  0  0  0  0  0  0  0
   -3.3390    7.5600  -15.0650 H   0  0  0  0  0  0  0  0  0  0  0  0
   -2.7460    5.9320  -13.4360 H   0  0  0  0  0  0  0  0  0  0  0  0
   -2.3000    4.6750  -15.1630 H   0  0  0  0  0  0  0  0  0  0  0  0
   -3.7880    3.8510  -14.7380 H   0  0  0  0  0  0  0  0  0  0  0  0
   -4.0740    4.3310  -16.8720 H   0  0  0  0  0  0  0  0  0  0  0  0
   -3.2660    5.8690  -16.7990 H   0  0  0  0  0  0  0  0  0  0  0  0
  1  2  1  0
  2  3  1  0
  2  4  1  0
  4  5  1  0
  5  6  2  0
  5  7  1  0
  7  8  2  0
  8  9  1  0
  9 10  2  0
 10 11  1  0
 11 12  2  0
 12 13  1  0
 13 14  1  0
 14 15  1  0
 15 16  1  0
 16 17  1  0
 17 18  1  0
 18 19  1  0
 12  7  1  0
 19 14  1  0
  1 20  1  0
  1 21  1  0
  1 22  1  0
  2 23  1  0
  3 24  1  0
  3 25  1  0
  3 26  1  0
  4 27  1  0
  8 28  1  0
  9 29  1  0
 10 30  1  0
 11 31  1  0
 14 32  1  0
 15 33  1  0
 15 34  1  0
 16 35  1  0
 16 36  1  0
 17 37  1  0
 18 38  1  0
 18 39  1  0
 19 40  1  0
 19 41  1  0
A    1
 C1 
A    2
 C2 
A    3
 C3 
A    4
 N1 
A    5
 C4 
A    6
 O1 
A    7
 C5 
A    8
 C6 
A    9
 C7 
A   10
 C8 
A   11
 C9 
A   12
 C10
A   13
 O2 
A   14
 C11
A   15
 C12
A   16
 C13
A   17
 N2 
A   18
 C14
A   19
 C15
A   20
 H1 
A   21
 H2 
A   22
 H3 
A   23
 H4 
A   24
 H5 
A   25
 H6 
A   26
 H7 
A   27
 H8 
A   28
 H9 
A   29
 H10
A   30
 H11
A   31
 H12
A   32
 H13
A   33
 H14
A   34
 H15
A   35
 H16
A   36
 H17
A   37
 H18
A   38
 H19
A   39
 H20
A   40
 H21
A   41
 H22
M  END
>  <ref_pdb>  (417) 
x0051_0B

>  <ref_mols>  (417) 
x0904_0B,x0429_0B

>  <original SMILES>  (417) 
[H]c1c([H])c([H])c(C(=O)N([H])C([H])(C([H])([H])[H])C([H])([H])[H])c(OC2([H])C([H])([H])C([H])([H])N([H])C([H])([H])C2([H])[H])c1[H]

>  <index>  (417) 
559

>  <∆∆G>  (417) 
-7.174954

>  <∆G_bound>  (417) 
-5.718143

>  <∆G_unbound>  (417) 
1.456811

>  <comRMSD>  (417) 
0.967408

>  <N_constrained_atoms>  (417) 
22.0

>  <N_unconstrained_atoms>  (417) 
1.0

>  <runtime>  (417) 
41.128656

>  <LE>  (417) 
0.311955

>  <percent_hybrid>  (417) 
43.0

>  <dist>  (417) 
9.0

>  <ecfp4>  (417) 
0.183099

>  <daylight>  (417) 
0.20398

>  <topodist>  (417) 
4.0

>  <mces>  (417) 
20.0

>  <tdn>  (417) 
2.0

>  <tup>  (417) 
0.0

>  <rdn>  (417) 
1.0

>  <rup>  (417) 
0.0

>  <ldn>  (417) 
1.0

>  <lup>  (417) 
0.0

>  <mut>  (417) 
5.0

>  <maj>  (417) 
5.0

>  <min>  (417) 
0.0

>  <hyb>  (417) 
0.0

>  <sub>  (417) 
1.0

>  <query_index>  (417) 
49.0

>  <max_hit_Tanimoto>  (417) 
0.213355

>  <largest_ring>  (417) 
6

>  <N_interactions_kept>  (417) 
2.0

>  <N_interactions_lost>  (417) 
1.5

>  <interaction_uniqueness_metric>  (417) 
0.056279

>  <ad_hoc_penalty>  (417) 
-18.597037

>  <N_rotatable_bonds>  (417) 
6

>  <N_HA>  (417) 
19

>  <cluster>  (417) 
5707

>  <N_interactions>  (417) 
6

>  <Enamine>  (417) 
1

>  <Mcule>  (417) 
0

>  <N_PAINS>  (417) 
0

>  <UFF_Gibbs>  (417) 
98.168502

>  <strain_per_HA>  (417) 
5.166763

>  <saltbridge:HIS:51>  (417) 
0

>  <pistack:HIS:51>  (417) 
0

>  <hydroph_interaction:HIS:51>  (417) 
0

>  <hbond:ALA:132>  (417) 
0

>  <hbond:SER:135>  (417) 
0

>  <hydroph_interaction:TYR:150>  (417) 
1

>  <pistack:TYR:161>  (417) 
0

>  <hydroph_interaction:TYR:161>  (417) 
4

>  <hydroph_interaction:ASP:83>  (417) 
0

>  <hbond:TYR:130>  (417) 
0

>  <hydroph_interaction:ALA:132>  (417) 
1

>  <hbond:HIS:51>  (417) 
0

>  <hbond:ASP:129>  (417) 
0

>  <hbond:TYR:150>  (417) 
0

>  <hbond:GLY:151>  (417) 
0

>  <hbond:TYR:161>  (417) 
0

>  <hydroph_interaction:TYR:130>  (417) 
0

>  <hydroph_interaction:PRO:131>  (417) 
0

>  <hydroph_interaction:ASP:129>  (417) 
0

>  <saltbridge:ASP:75>  (417) 
0

>  <saltbridge:ASP:83>  (417) 
0

>  <hydroph_interaction:ASN:152>  (417) 
0

>  <halogenbond:TYR:150>  (417) 
0

>  <hbond:ASP:83>  (417) 
0

>  <hydroph_interaction:VAL:155>  (417) 
0

>  <pication:TYR:161>  (417) 
0

>  <hbond:PRO:131>  (417) 
0

>  <hbond:LEU:128>  (417) 
0

>  <saltbridge:ASP:129>  (417) 
0

>  <hbond:THR:134>  (417) 
0

>  <pication:HIS:51>  (417) 
0

>  <hbond:SER:81>  (417) 
0

>  <hbond:GLY:159>  (417) 
0

>  <hydroph_interaction:PRO:101>  (417) 
0

>  <hydroph_interaction:THR:134>  (417) 
0

>  <hbond:GLY:82>  (417) 
0

>  <hydroph_interaction:GLU:104>  (417) 
0

>  <hydroph_interaction:VAL:36>  (417) 
0

>  <hydroph_interaction:MET:49>  (417) 
0

>  <halogenbond:GLU:104>  (417) 
0

>  <hydroph_interaction:LYS:107>  (417) 
0

$$$$
MCULE-3387017402
     RDKit          3D

 47 49  0  0  0  0  0  0  0  0999 V2000
   -7.1600    9.5540  -26.3480 C   0  0  0  0  0  0  0  0  0  0  0  0
   -5.9480    9.3100  -25.4410 C   0  0  0  0  0  0  0  0  0  0  0  0
   -6.1930    9.5870  -24.0520 O   0  0  0  0  0  0  0  0  0  0  0  0
   -6.0740    8.5310  -23.1520 C   0  0  0  0  0  0  0  0  0  0  0  0
   -6.0700    7.1740  -23.4600 C   0  0  0  0  0  0  0  0  0  0  0  0
   -5.9510    6.2050  -22.4450 C   0  0  0  0  0  0  0  0  0  0  0  0
   -5.8380    6.5670  -21.0900 C   0  0  0  0  0  0  0  0  0  0  0  0
   -5.8350    7.9310  -20.7570 C   0  0  0  0  0  0  0  0  0  0  0  0
   -5.9490    8.8960  -21.7900 C   0  0  0  0  0  0  0  0  0  0  0  0
   -5.7300    5.5240  -20.1630 O   0  0  0  0  0  0  0  0  0  0  0  0
   -6.6110    5.3410  -19.0880 C   0  0  0  0  0  0  0  0  0  0  0  0
   -6.0390    5.3820  -17.8150 C   0  0  0  0  0  0  0  0  0  0  0  0
   -6.8120    5.2060  -16.6690 C   0  0  0  0  0  0  0  0  0  0  0  0
   -6.2260    5.2450  -15.3990 C   0  0  0  0  0  0  0  0  0  0  0  0
   -8.1860    4.9830  -16.7970 C   0  0  0  0  0  0  0  0  0  0  0  0
   -8.7790    4.9370  -18.0590 C   0  0  0  0  0  0  0  0  0  0  0  0
  -10.2450    4.6970  -18.1710 C   0  0  0  0  0  0  0  0  0  0  0  0
   -7.9940    5.1140  -19.2080 C   0  0  0  0  0  0  0  0  0  0  0  0
   -7.6960   10.6520  -26.3960 O   0  0  0  0  0  0  0  0  0  0  0  0
   -7.5580    8.4530  -27.0730 N   0  0  0  0  0  0  0  0  0  0  0  0
   -8.8370    8.3220  -27.6200 C   0  0  0  0  0  0  0  0  0  0  0  0
   -9.7050    9.4230  -27.7030 C   0  0  0  0  0  0  0  0  0  0  0  0
  -10.9770    9.2630  -28.2470 C   0  0  0  0  0  0  0  0  0  0  0  0
  -11.3850    8.0230  -28.7120 C   0  0  0  0  0  0  0  0  0  0  0  0
  -10.5310    6.9230  -28.6320 C   0  0  0  0  0  0  0  0  0  0  0  0
   -9.2440    7.0710  -28.0800 C   0  0  0  0  0  0  0  0  0  0  0  0
  -13.2670    7.7780  -29.5530 I   0  0  0  0  0  0  0  0  0  0  0  0
   -5.6420    8.2680  -25.5800 H   0  0  0  0  0  0  0  0  0  0  0  0
   -5.1210    9.9250  -25.8210 H   0  0  0  0  0  0  0  0  0  0  0  0
   -6.1610    6.8460  -24.4940 H   0  0  0  0  0  0  0  0  0  0  0  0
   -5.9500    5.1500  -22.7090 H   0  0  0  0  0  0  0  0  0  0  0  0
   -5.7450    8.2650  -19.7290 H   0  0  0  0  0  0  0  0  0  0  0  0
   -5.9450    9.9490  -21.5160 H   0  0  0  0  0  0  0  0  0  0  0  0
   -4.9700    5.5540  -17.7270 H   0  0  0  0  0  0  0  0  0  0  0  0
   -5.1720    4.9600  -15.4710 H   0  0  0  0  0  0  0  0  0  0  0  0
   -6.7310    4.5590  -14.7160 H   0  0  0  0  0  0  0  0  0  0  0  0
   -6.2920    6.2470  -14.9630 H   0  0  0  0  0  0  0  0  0  0  0  0
   -8.8010    4.8420  -15.9040 H   0  0  0  0  0  0  0  0  0  0  0  0
  -10.6520    4.5990  -17.1650 H   0  0  0  0  0  0  0  0  0  0  0  0
  -10.5410    3.8330  -18.7260 H   0  0  0  0  0  0  0  0  0  0  0  0
  -10.7520    5.5530  -18.6250 H   0  0  0  0  0  0  0  0  0  0  0  0
   -8.4550    5.0760  -20.1900 H   0  0  0  0  0  0  0  0  0  0  0  0
   -7.0520    7.5970  -26.8600 H   0  0  0  0  0  0  0  0  0  0  0  0
   -9.4220   10.4090  -27.3530 H   0  0  0  0  0  0  0  0  0  0  0  0
  -11.6340   10.1280  -28.3010 H   0  0  0  0  0  0  0  0  0  0  0  0
  -10.8410    5.9450  -28.9910 H   0  0  0  0  0  0  0  0  0  0  0  0
   -8.5900    6.2040  -28.0230 H   0  0  0  0  0  0  0  0  0  0  0  0
  1  2  1  0
  2  3  1  0
  3  4  1  0
  4  5  2  0
  5  6  1  0
  6  7  2  0
  7  8  1  0
  8  9  2  0
  7 10  1  0
 10 11  1  0
 11 12  2  0
 12 13  1  0
 13 14  1  0
 13 15  2  0
 15 16  1  0
 16 17  1  0
 16 18  2  0
  1 19  2  0
  1 20  1  0
 20 21  1  0
 21 22  2  0
 22 23  1  0
 23 24  2  0
 24 25  1  0
 25 26  2  0
 24 27  1  0
  4  9  1  0
 11 18  1  0
 26 21  1  0
  2 28  1  0
  2 29  1  0
  5 30  1  0
  6 31  1  0
  8 32  1  0
  9 33  1  0
 12 34  1  0
 14 35  1  0
 14 36  1  0
 14 37  1  0
 15 38  1  0
 17 39  1  0
 17 40  1  0
 17 41  1  0
 18 42  1  0
 20 43  1  0
 22 44  1  0
 23 45  1  0
 25 46  1  0
 26 47  1  0
A    1
 C1 
A    2
 C2 
A    3
 O1 
A    4
 C3 
A    5
 C4 
A    6
 C5 
A    7
 C6 
A    8
 C7 
A    9
 C8 
A   10
 O2 
A   11
 C9 
A   12
 C10
A   13
 C11
A   14
 C12
A   15
 C13
A   16
 C14
A   17
 C15
A   18
 C16
A   19
 O3 
A   20
 N1 
A   21
 C17
A   22
 C18
A   23
 C19
A   24
 C20
A   25
 C21
A   26
 C22
A   27
 I1 
A   28
 H1 
A   29
 H2 
A   30
 H3 
A   31
 H4 
A   32
 H5 
A   33
 H6 
A   34
 H7 
A   35
 H8 
A   36
 H9 
A   37
 H10
A   38
 H11
A   39
 H12
A   40
 H13
A   41
 H14
A   42
 H15
A   43
 H16
A   44
 H17
A   45
 H18
A   46
 H19
A   47
 H20
M  END
>  <ref_pdb>  (418) 
x0051_0B

>  <ref_mols>  (418) 
x0605_0B,x0846_1B

>  <original SMILES>  (418) 
[H]c1c([H])c(N([H])C(=O)C([H])([H])Oc2c([H])c([H])c(Oc3c([H])c(C([H])([H])[H])c([H])c(C([H])([H])[H])c3[H])c([H])c2[H])c([H])c([H])c1I

>  <index>  (418) 
962

>  <∆∆G>  (418) 
-11.217123

>  <∆G_bound>  (418) 
-11.292379

>  <∆G_unbound>  (418) 
-0.075256

>  <comRMSD>  (418) 
0.719047

>  <N_constrained_atoms>  (418) 
24.0

>  <N_unconstrained_atoms>  (418) 
5.0

>  <runtime>  (418) 
90.073237

>  <LE>  (418) 
0.386797

>  <percent_hybrid>  (418) 
38.0

>  <dist>  (418) 
9.0

>  <ecfp4>  (418) 
0.219512

>  <daylight>  (418) 
0.219388

>  <topodist>  (418) 
5.0

>  <mces>  (418) 
28.0

>  <tdn>  (418) 
2.0

>  <tup>  (418) 
1.0

>  <rdn>  (418) 
1.0

>  <rup>  (418) 
0.0

>  <ldn>  (418) 
1.0

>  <lup>  (418) 
0.0

>  <mut>  (418) 
3.0

>  <maj>  (418) 
3.0

>  <min>  (418) 
0.0

>  <hyb>  (418) 
1.0

>  <sub>  (418) 
3.0

>  <query_index>  (418) 
197.0

>  <max_hit_Tanimoto>  (418) 
0.214697

>  <largest_ring>  (418) 
6

>  <N_interactions_kept>  (418) 
0.0

>  <N_interactions_lost>  (418) 
2.5

>  <interaction_uniqueness_metric>  (418) 
0.179866

>  <ad_hoc_penalty>  (418) 
-18.593937

>  <N_rotatable_bonds>  (418) 
8

>  <N_HA>  (418) 
27

>  <cluster>  (418) 
5336

>  <N_interactions>  (418) 
6

>  <Enamine>  (418) 
0

>  <Mcule>  (418) 
1

>  <N_PAINS>  (418) 
0

>  <UFF_Gibbs>  (418) 
58.575092

>  <strain_per_HA>  (418) 
2.169448

>  <saltbridge:HIS:51>  (418) 
0

>  <pistack:HIS:51>  (418) 
0

>  <hydroph_interaction:HIS:51>  (418) 
0

>  <hbond:ALA:132>  (418) 
0

>  <hbond:SER:135>  (418) 
0

>  <hydroph_interaction:TYR:150>  (418) 
1

>  <pistack:TYR:161>  (418) 
1

>  <hydroph_interaction:TYR:161>  (418) 
1

>  <hydroph_interaction:ASP:83>  (418) 
0

>  <hbond:TYR:130>  (418) 
0

>  <hydroph_interaction:ALA:132>  (418) 
0

>  <hbond:HIS:51>  (418) 
0

>  <hbond:ASP:129>  (418) 
0

>  <hbond:TYR:150>  (418) 
0

>  <hbond:GLY:151>  (418) 
0

>  <hbond:TYR:161>  (418) 
0

>  <hydroph_interaction:TYR:130>  (418) 
1

>  <hydroph_interaction:PRO:131>  (418) 
1

>  <hydroph_interaction:ASP:129>  (418) 
1

>  <saltbridge:ASP:75>  (418) 
0

>  <saltbridge:ASP:83>  (418) 
0

>  <hydroph_interaction:ASN:152>  (418) 
0

>  <halogenbond:TYR:150>  (418) 
0

>  <hbond:ASP:83>  (418) 
0

>  <hydroph_interaction:VAL:155>  (418) 
0

>  <pication:TYR:161>  (418) 
0

>  <hbond:PRO:131>  (418) 
0

>  <hbond:LEU:128>  (418) 
0

>  <saltbridge:ASP:129>  (418) 
0

>  <hbond:THR:134>  (418) 
0

>  <pication:HIS:51>  (418) 
0

>  <hbond:SER:81>  (418) 
0

>  <hbond:GLY:159>  (418) 
0

>  <hydroph_interaction:PRO:101>  (418) 
0

>  <hydroph_interaction:THR:134>  (418) 
0

>  <hbond:GLY:82>  (418) 
0

>  <hydroph_interaction:GLU:104>  (418) 
0

>  <hydroph_interaction:VAL:36>  (418) 
0

>  <hydroph_interaction:MET:49>  (418) 
0

>  <halogenbond:GLU:104>  (418) 
0

>  <hydroph_interaction:LYS:107>  (418) 
0

$$$$
MCULE-8509991255
     RDKit          3D

 48 51  0  0  0  0  0  0  0  0999 V2000
   -4.1080    6.1750  -20.9280 C   0  0  0  0  0  0  0  0  0  0  0  0
   -3.7200    5.1980  -21.5600 O   0  0  0  0  0  0  0  0  0  0  0  0
   -4.7210    7.2720  -21.7850 C   0  0  0  0  0  0  0  0  0  0  0  0
   -5.6470    6.9290  -22.8580 C   0  0  0  0  0  0  0  0  0  0  0  0
   -6.1180    8.0220  -23.5930 C   0  0  0  0  0  0  0  0  0  0  0  0
   -5.7910    9.4460  -23.4020 C   0  0  0  0  0  0  0  0  0  0  0  0
   -4.9170    9.6950  -22.3560 C   0  0  0  0  0  0  0  0  0  0  0  0
   -4.3900    8.6360  -21.5620 C   0  0  0  0  0  0  0  0  0  0  0  0
   -6.3600   10.5590  -24.2690 C   0  0  0  0  0  0  0  0  0  0  0  0
   -6.2210   10.3340  -25.7100 N   0  0  0  0  0  0  0  0  0  0  0  0
   -7.0140    9.4350  -26.4140 C   0  0  0  0  0  0  0  0  0  0  0  0
   -6.7110    8.2620  -26.5200 O   0  0  0  0  0  0  0  0  0  0  0  0
   -8.1370    9.9860  -26.9750 N   0  0  0  0  0  0  0  0  0  0  0  0
   -9.1160    9.1250  -27.5050 C   0  0  0  0  0  0  0  0  0  0  0  0
   -8.7980    7.7180  -27.8580 C   0  0  0  0  0  0  0  0  0  0  0  0
   -9.6950    6.8140  -28.3600 C   0  0  0  0  0  0  0  0  0  0  0  0
  -11.0280    7.2920  -28.5440 C   0  0  0  0  0  0  0  0  0  0  0  0
  -11.3680    8.6140  -28.2220 C   0  0  0  0  0  0  0  0  0  0  0  0
  -10.4370    9.5320  -27.7100 C   0  0  0  0  0  0  0  0  0  0  0  0
   -4.0390    6.3220  -19.5430 N   0  0  0  0  0  0  0  0  0  0  0  0
   -5.1270    6.0440  -18.6990 C   0  0  0  0  0  0  0  0  0  0  0  0
   -5.1790    6.2410  -17.3150 C   0  0  0  0  0  0  0  0  0  0  0  0
   -6.3510    5.9380  -16.6090 C   0  0  0  0  0  0  0  0  0  0  0  0
   -7.4650    5.4390  -17.3000 C   0  0  0  0  0  0  0  0  0  0  0  0
   -7.3700    5.2470  -18.6710 C   0  0  0  0  0  0  0  0  0  0  0  0
   -8.5870    4.7550  -19.0440 N   0  0  0  0  0  0  0  0  0  0  0  0
   -9.3610    4.6780  -17.9280 C   0  0  0  0  0  0  0  0  0  0  0  0
   -8.7150    5.0820  -16.8550 N   0  0  0  0  0  0  0  0  0  0  0  0
   -6.2260    5.5340  -19.3930 C   0  0  0  0  0  0  0  0  0  0  0  0
   -5.9430    5.9120  -23.0760 H   0  0  0  0  0  0  0  0  0  0  0  0
   -6.8080    7.8090  -24.4060 H   0  0  0  0  0  0  0  0  0  0  0  0
   -4.6210   10.7190  -22.1350 H   0  0  0  0  0  0  0  0  0  0  0  0
   -3.7060    8.9030  -20.7630 H   0  0  0  0  0  0  0  0  0  0  0  0
   -7.4140   10.7050  -24.0410 H   0  0  0  0  0  0  0  0  0  0  0  0
   -5.8710   11.5030  -24.0190 H   0  0  0  0  0  0  0  0  0  0  0  0
   -5.9020   11.1270  -26.2460 H   0  0  0  0  0  0  0  0  0  0  0  0
   -8.3210   10.9720  -27.0760 H   0  0  0  0  0  0  0  0  0  0  0  0
   -7.7900    7.3410  -27.7190 H   0  0  0  0  0  0  0  0  0  0  0  0
   -9.4070    5.7930  -28.6010 H   0  0  0  0  0  0  0  0  0  0  0  0
  -11.7270    6.5510  -28.9450 H   0  0  0  0  0  0  0  0  0  0  0  0
  -12.3920    8.9380  -28.3760 H   0  0  0  0  0  0  0  0  0  0  0  0
  -10.7660   10.5420  -27.4790 H   0  0  0  0  0  0  0  0  0  0  0  0
   -3.3880    7.0120  -19.1920 H   0  0  0  0  0  0  0  0  0  0  0  0
   -4.3370    6.6310  -16.7510 H   0  0  0  0  0  0  0  0  0  0  0  0
   -6.4030    6.0900  -15.5370 H   0  0  0  0  0  0  0  0  0  0  0  0
   -8.8690    4.4960  -19.9780 H   0  0  0  0  0  0  0  0  0  0  0  0
  -10.3790    4.3240  -17.9560 H   0  0  0  0  0  0  0  0  0  0  0  0
   -6.2000    5.3690  -20.4640 H   0  0  0  0  0  0  0  0  0  0  0  0
  1  2  2  0
  1  3  1  0
  3  4  2  0
  4  5  1  0
  5  6  2  0
  6  7  1  0
  7  8  2  0
  6  9  1  0
  9 10  1  0
 10 11  1  0
 11 12  2  0
 11 13  1  0
 13 14  1  0
 14 15  2  0
 15 16  1  0
 16 17  2  0
 17 18  1  0
 18 19  2  0
  1 20  1  0
 20 21  1  0
 21 22  2  0
 22 23  1  0
 23 24  2  0
 24 25  1  0
 25 26  1  0
 26 27  1  0
 27 28  2  0
 25 29  2  0
  3  8  1  0
 14 19  1  0
 29 21  1  0
 28 24  1  0
  4 30  1  0
  5 31  1  0
  7 32  1  0
  8 33  1  0
  9 34  1  0
  9 35  1  0
 10 36  1  0
 13 37  1  0
 15 38  1  0
 16 39  1  0
 17 40  1  0
 18 41  1  0
 19 42  1  0
 20 43  1  0
 22 44  1  0
 23 45  1  0
 26 46  1  0
 27 47  1  0
 29 48  1  0
A    1
 C1 
A    2
 O1 
A    3
 C2 
A    4
 C3 
A    5
 C4 
A    6
 C5 
A    7
 C6 
A    8
 C7 
A    9
 C8 
A   10
 N1 
A   11
 C9 
A   12
 O2 
A   13
 N2 
A   14
 C10
A   15
 C11
A   16
 C12
A   17
 C13
A   18
 C14
A   19
 C15
A   20
 N3 
A   21
 C16
A   22
 C17
A   23
 C18
A   24
 C19
A   25
 C20
A   26
 N4 
A   27
 C21
A   28
 N5 
A   29
 C22
A   30
 H1 
A   31
 H2 
A   32
 H3 
A   33
 H4 
A   34
 H5 
A   35
 H6 
A   36
 H7 
A   37
 H8 
A   38
 H9 
A   39
 H10
A   40
 H11
A   41
 H12
A   42
 H13
A   43
 H14
A   44
 H15
A   45
 H16
A   46
 H17
A   47
 H18
A   48
 H19
M  END
>  <ref_pdb>  (419) 
x0051_0B

>  <ref_mols>  (419) 
x0051_0B,x0846_1B

>  <original SMILES>  (419) 
[H]c1c([H])c([H])c(N([H])C(=O)N([H])C([H])([H])c2c([H])c([H])c(C(=O)N([H])c3c([H])c([H])c4nc([H])n([H])c4c3[H])c([H])c2[H])c([H])c1[H]

>  <index>  (419) 
775

>  <∆∆G>  (419) 
-7.710634

>  <∆G_bound>  (419) 
-7.090665

>  <∆G_unbound>  (419) 
0.619969

>  <comRMSD>  (419) 
0.618041

>  <N_constrained_atoms>  (419) 
30.0

>  <N_unconstrained_atoms>  (419) 
1.0

>  <runtime>  (419) 
59.443847

>  <LE>  (419) 
0.24873

>  <percent_hybrid>  (419) 
40.0

>  <dist>  (419) 
11.0

>  <ecfp4>  (419) 
0.168421

>  <daylight>  (419) 
0.259843

>  <topodist>  (419) 
6.0

>  <mces>  (419) 
31.0

>  <tdn>  (419) 
2.0

>  <tup>  (419) 
1.0

>  <rdn>  (419) 
1.0

>  <rup>  (419) 
0.0

>  <ldn>  (419) 
2.0

>  <lup>  (419) 
0.0

>  <mut>  (419) 
3.0

>  <maj>  (419) 
3.0

>  <min>  (419) 
0.0

>  <hyb>  (419) 
2.0

>  <sub>  (419) 
3.0

>  <query_index>  (419) 
185.0

>  <max_hit_Tanimoto>  (419) 
0.323684

>  <largest_ring>  (419) 
6

>  <N_interactions_kept>  (419) 
1.0

>  <N_interactions_lost>  (419) 
2.5

>  <interaction_uniqueness_metric>  (419) 
0.172098

>  <ad_hoc_penalty>  (419) 
-18.572672

>  <N_rotatable_bonds>  (419) 
5

>  <N_HA>  (419) 
29

>  <cluster>  (419) 
5508

>  <N_interactions>  (419) 
6

>  <Enamine>  (419) 
0

>  <Mcule>  (419) 
1

>  <N_PAINS>  (419) 
0

>  <UFF_Gibbs>  (419) 
110.92119

>  <strain_per_HA>  (419) 
3.824869

>  <saltbridge:HIS:51>  (419) 
0

>  <pistack:HIS:51>  (419) 
0

>  <hydroph_interaction:HIS:51>  (419) 
0

>  <hbond:ALA:132>  (419) 
0

>  <hbond:SER:135>  (419) 
0

>  <hydroph_interaction:TYR:150>  (419) 
0

>  <pistack:TYR:161>  (419) 
2

>  <hydroph_interaction:TYR:161>  (419) 
1

>  <hydroph_interaction:ASP:83>  (419) 
0

>  <hbond:TYR:130>  (419) 
0

>  <hydroph_interaction:ALA:132>  (419) 
0

>  <hbond:HIS:51>  (419) 
0

>  <hbond:ASP:129>  (419) 
1

>  <hbond:TYR:150>  (419) 
0

>  <hbond:GLY:151>  (419) 
0

>  <hbond:TYR:161>  (419) 
0

>  <hydroph_interaction:TYR:130>  (419) 
1

>  <hydroph_interaction:PRO:131>  (419) 
1

>  <hydroph_interaction:ASP:129>  (419) 
0

>  <saltbridge:ASP:75>  (419) 
0

>  <saltbridge:ASP:83>  (419) 
0

>  <hydroph_interaction:ASN:152>  (419) 
0

>  <halogenbond:TYR:150>  (419) 
0

>  <hbond:ASP:83>  (419) 
0

>  <hydroph_interaction:VAL:155>  (419) 
0

>  <pication:TYR:161>  (419) 
0

>  <hbond:PRO:131>  (419) 
0

>  <hbond:LEU:128>  (419) 
0

>  <saltbridge:ASP:129>  (419) 
0

>  <hbond:THR:134>  (419) 
0

>  <pication:HIS:51>  (419) 
0

>  <hbond:SER:81>  (419) 
0

>  <hbond:GLY:159>  (419) 
0

>  <hydroph_interaction:PRO:101>  (419) 
0

>  <hydroph_interaction:THR:134>  (419) 
0

>  <hbond:GLY:82>  (419) 
0

>  <hydroph_interaction:GLU:104>  (419) 
0

>  <hydroph_interaction:VAL:36>  (419) 
0

>  <hydroph_interaction:MET:49>  (419) 
0

>  <halogenbond:GLU:104>  (419) 
0

>  <hydroph_interaction:LYS:107>  (419) 
0

$$$$
MCULE-3030152971
     RDKit          3D

 50 52  0  0  0  0  0  0  0  0999 V2000
   -8.6100    4.9740  -10.2990 C   0  0  0  0  0  0  0  0  0  0  0  0
   -8.4870    6.3990  -10.2900 C   0  0  0  0  0  0  0  0  0  0  0  0
   -8.5440    7.1090  -11.4950 C   0  0  0  0  0  0  0  0  0  0  0  0
   -8.7210    6.4230  -12.7000 C   0  0  0  0  0  0  0  0  0  0  0  0
   -8.7510    7.2860  -14.2090 S   0  0  0  0  0  6  0  0  0  0  0  0
   -7.6310    6.3090  -15.0490 N   0  0  0  0  0  0  0  0  0  0  0  0
   -8.0590    5.7390  -16.2900 C   0  0  0  0  0  0  0  0  0  0  0  0
   -9.4590    5.3310  -16.5110 C   0  0  0  0  0  0  0  0  0  0  0  0
   -9.9340    4.7650  -17.8040 C   0  0  0  0  0  0  0  0  0  0  0  0
   -8.9050    4.6170  -18.8980 C   0  0  0  0  0  0  0  0  0  0  0  0
   -7.5800    5.0190  -18.6000 C   0  0  0  0  0  0  0  0  0  0  0  0
   -7.1640    5.5520  -17.3580 C   0  0  0  0  0  0  0  0  0  0  0  0
   -5.9810    5.8680  -17.2070 O   0  0  0  0  0  0  0  0  0  0  0  0
   -5.4590    5.4320  -15.9380 C   0  0  0  0  0  0  0  0  0  0  0  0
   -3.9840    5.0480  -16.1030 C   0  0  0  0  0  0  0  0  0  0  0  0
   -8.2550    8.6330  -13.9850 O   0  0  0  0  0  0  0  0  0  0  0  0
  -10.0140    7.0470  -14.8350 O   0  0  0  0  0  0  0  0  0  0  0  0
   -8.8590    5.0520  -12.7460 C   0  0  0  0  0  0  0  0  0  0  0  0
   -8.8020    4.2690  -11.4720 C   0  0  0  0  0  0  0  0  0  0  0  0
   -8.5270    4.1940   -9.0360 C   0  0  0  0  0  0  0  0  0  0  0  0
   -9.4260    2.9760   -9.1320 C   0  0  0  0  0  0  0  0  0  0  0  0
   -9.5910    2.3210   -7.7870 C   0  0  0  0  0  0  0  0  0  0  0  0
   -8.4400    2.7990   -6.9550 C   0  0  0  0  0  0  0  0  0  0  0  0
   -8.7150    4.2120   -6.5250 C   0  0  0  0  0  0  0  0  0  0  0  0
   -8.6580    5.0750   -7.7690 C   0  0  0  0  0  0  0  0  0  0  0  0
   -8.3440    6.9180   -9.3470 H   0  0  0  0  0  0  0  0  0  0  0  0
   -8.4420    8.1920  -11.4940 H   0  0  0  0  0  0  0  0  0  0  0  0
   -7.2440    5.6210  -14.3990 H   0  0  0  0  0  0  0  0  0  0  0  0
  -10.1900    5.4490  -15.7080 H   0  0  0  0  0  0  0  0  0  0  0  0
  -10.9490    4.4420  -18.0640 H   0  0  0  0  0  0  0  0  0  0  0  0
   -9.1690    4.2150  -19.8730 H   0  0  0  0  0  0  0  0  0  0  0  0
   -6.8340    4.9090  -19.3830 H   0  0  0  0  0  0  0  0  0  0  0  0
   -6.0120    4.5820  -15.5170 H   0  0  0  0  0  0  0  0  0  0  0  0
   -5.5600    6.2690  -15.2390 H   0  0  0  0  0  0  0  0  0  0  0  0
   -3.7400    4.1550  -15.5230 H   0  0  0  0  0  0  0  0  0  0  0  0
   -3.3700    5.8840  -15.7500 H   0  0  0  0  0  0  0  0  0  0  0  0
   -3.7290    4.8750  -17.1560 H   0  0  0  0  0  0  0  0  0  0  0  0
   -9.0050    4.4540  -13.6540 H   0  0  0  0  0  0  0  0  0  0  0  0
   -8.9030    3.1860  -11.4860 H   0  0  0  0  0  0  0  0  0  0  0  0
   -7.5000    3.8010   -9.0000 H   0  0  0  0  0  0  0  0  0  0  0  0
  -10.4020    3.3130   -9.4580 H   0  0  0  0  0  0  0  0  0  0  0  0
   -9.1710    2.1850   -9.8340 H   0  0  0  0  0  0  0  0  0  0  0  0
  -10.5440    2.6190   -7.3290 H   0  0  0  0  0  0  0  0  0  0  0  0
   -9.6030    1.2440   -7.8950 H   0  0  0  0  0  0  0  0  0  0  0  0
   -7.5460    2.8160   -7.5760 H   0  0  0  0  0  0  0  0  0  0  0  0
   -8.2200    2.1460   -6.1200 H   0  0  0  0  0  0  0  0  0  0  0  0
   -7.9720    4.5530   -5.7920 H   0  0  0  0  0  0  0  0  0  0  0  0
   -9.7020    4.2710   -6.0470 H   0  0  0  0  0  0  0  0  0  0  0  0
   -9.5340    5.7170   -7.8050 H   0  0  0  0  0  0  0  0  0  0  0  0
   -7.7930    5.7450   -7.6890 H   0  0  0  0  0  0  0  0  0  0  0  0
  1  2  2  0
  2  3  1  0
  3  4  2  0
  4  5  1  0
  5  6  1  0
  6  7  1  0
  7  8  2  0
  8  9  1  0
  9 10  2  0
 10 11  1  0
 11 12  2  0
 12 13  1  0
 13 14  1  0
 14 15  1  0
  5 16  2  0
  5 17  2  0
  4 18  1  0
 18 19  2  0
  1 20  1  0
 20 21  1  0
 21 22  1  0
 22 23  1  0
 23 24  1  0
 24 25  1  0
 19  1  1  0
 12  7  1  0
 25 20  1  0
  2 26  1  0
  3 27  1  0
  6 28  1  0
  8 29  1  0
  9 30  1  0
 10 31  1  0
 11 32  1  0
 14 33  1  0
 14 34  1  0
 15 35  1  0
 15 36  1  0
 15 37  1  0
 18 38  1  0
 19 39  1  0
 20 40  1  0
 21 41  1  0
 21 42  1  0
 22 43  1  0
 22 44  1  0
 23 45  1  0
 23 46  1  0
 24 47  1  0
 24 48  1  0
 25 49  1  0
 25 50  1  0
A    1
 C1 
A    2
 C2 
A    3
 C3 
A    4
 C4 
A    5
 S1 
A    6
 N1 
A    7
 C5 
A    8
 C6 
A    9
 C7 
A   10
 C8 
A   11
 C9 
A   12
 C10
A   13
 O1 
A   14
 C11
A   15
 C12
A   16
 O2 
A   17
 O3 
A   18
 C13
A   19
 C14
A   20
 C15
A   21
 C16
A   22
 C17
A   23
 C18
A   24
 C19
A   25
 C20
A   26
 H1 
A   27
 H2 
A   28
 H3 
A   29
 H4 
A   30
 H5 
A   31
 H6 
A   32
 H7 
A   33
 H8 
A   34
 H9 
A   35
 H10
A   36
 H11
A   37
 H12
A   38
 H13
A   39
 H14
A   40
 H15
A   41
 H16
A   42
 H17
A   43
 H18
A   44
 H19
A   45
 H20
A   46
 H21
A   47
 H22
A   48
 H23
A   49
 H24
A   50
 H25
M  END
>  <ref_pdb>  (420) 
x0051_0B

>  <ref_mols>  (420) 
x0727_0B,x0404_0B

>  <original SMILES>  (420) 
[H]c1c([H])c([H])c(N([H])S(=O)(=O)c2c([H])c([H])c(C3([H])C([H])([H])C([H])([H])C([H])([H])C([H])([H])C3([H])[H])c([H])c2[H])c(OC([H])([H])C([H])([H])[H])c1[H]

>  <index>  (420) 
357

>  <∆∆G>  (420) 
-8.523281

>  <∆G_bound>  (420) 
-7.849872

>  <∆G_unbound>  (420) 
0.673409

>  <comRMSD>  (420) 
0.502068

>  <N_constrained_atoms>  (420) 
25.0

>  <N_unconstrained_atoms>  (420) 
1.0

>  <runtime>  (420) 
94.195649

>  <LE>  (420) 
0.327818

>  <percent_hybrid>  (420) 
40.0

>  <dist>  (420) 
12.0

>  <ecfp4>  (420) 
0.178571

>  <daylight>  (420) 
0.182203

>  <topodist>  (420) 
5.0

>  <mces>  (420) 
27.0

>  <tdn>  (420) 
2.0

>  <tup>  (420) 
0.0

>  <rdn>  (420) 
1.0

>  <rup>  (420) 
0.0

>  <ldn>  (420) 
2.0

>  <lup>  (420) 
0.0

>  <mut>  (420) 
4.0

>  <maj>  (420) 
4.0

>  <min>  (420) 
0.0

>  <hyb>  (420) 
3.0

>  <sub>  (420) 
1.0

>  <query_index>  (420) 
0.0

>  <max_hit_Tanimoto>  (420) 
0.19975

>  <largest_ring>  (420) 
0

>  <N_interactions_kept>  (420) 
2.5

>  <N_interactions_lost>  (420) 
2.0

>  <interaction_uniqueness_metric>  (420) 
0.166399

>  <ad_hoc_penalty>  (420) 
-18.571462

>  <N_rotatable_bonds>  (420) 
7

>  <N_HA>  (420) 
25

>  <cluster>  (420) 
5892

>  <N_interactions>  (420) 
7

>  <Enamine>  (420) 
0

>  <Mcule>  (420) 
1

>  <N_PAINS>  (420) 
0

>  <UFF_Gibbs>  (420) 
225.652764

>  <strain_per_HA>  (420) 
9.026111

>  <saltbridge:HIS:51>  (420) 
0

>  <pistack:HIS:51>  (420) 
1

>  <hydroph_interaction:HIS:51>  (420) 
0

>  <hbond:ALA:132>  (420) 
0

>  <hbond:SER:135>  (420) 
0

>  <hydroph_interaction:TYR:150>  (420) 
1

>  <pistack:TYR:161>  (420) 
0

>  <hydroph_interaction:TYR:161>  (420) 
3

>  <hydroph_interaction:ASP:83>  (420) 
1

>  <hbond:TYR:130>  (420) 
0

>  <hydroph_interaction:ALA:132>  (420) 
1

>  <hbond:HIS:51>  (420) 
0

>  <hbond:ASP:129>  (420) 
0

>  <hbond:TYR:150>  (420) 
0

>  <hbond:GLY:151>  (420) 
0

>  <hbond:TYR:161>  (420) 
0

>  <hydroph_interaction:TYR:130>  (420) 
0

>  <hydroph_interaction:PRO:131>  (420) 
0

>  <hydroph_interaction:ASP:129>  (420) 
0

>  <saltbridge:ASP:75>  (420) 
0

>  <saltbridge:ASP:83>  (420) 
0

>  <hydroph_interaction:ASN:152>  (420) 
0

>  <halogenbond:TYR:150>  (420) 
0

>  <hbond:ASP:83>  (420) 
0

>  <hydroph_interaction:VAL:155>  (420) 
0

>  <pication:TYR:161>  (420) 
0

>  <hbond:PRO:131>  (420) 
0

>  <hbond:LEU:128>  (420) 
0

>  <saltbridge:ASP:129>  (420) 
0

>  <hbond:THR:134>  (420) 
0

>  <pication:HIS:51>  (420) 
0

>  <hbond:SER:81>  (420) 
0

>  <hbond:GLY:159>  (420) 
0

>  <hydroph_interaction:PRO:101>  (420) 
0

>  <hydroph_interaction:THR:134>  (420) 
0

>  <hbond:GLY:82>  (420) 
0

>  <hydroph_interaction:GLU:104>  (420) 
0

>  <hydroph_interaction:VAL:36>  (420) 
0

>  <hydroph_interaction:MET:49>  (420) 
0

>  <halogenbond:GLU:104>  (420) 
0

>  <hydroph_interaction:LYS:107>  (420) 
0

$$$$
WSMYRBOXYHZYMD-UHFFFAOYSA-N
     RDKit          3D

 30 32  0  0  0  0  0  0  0  0999 V2000
   -8.3660    5.5550  -14.9100 C   0  0  0  0  0  0  0  0  0  0  0  0
   -9.1230    4.7760  -14.0520 N   0  0  0  0  0  0  0  0  0  0  0  0
   -8.9330    4.9900  -12.6260 C   0  0  0  0  0  0  0  0  0  0  0  0
   -8.9590    6.3460  -12.0190 C   0  0  0  0  0  0  0  0  0  0  0  0
   -8.7800    6.4130  -10.7350 N   0  0  0  0  0  0  0  0  0  0  0  0
   -8.6280    5.0830  -10.4540 N   0  0  0  0  0  0  0  0  0  0  0  0
   -8.4030    4.7040   -9.0870 C   0  0  0  0  0  0  0  0  0  0  0  0
   -8.7100    4.2120  -11.5260 C   0  0  0  0  0  0  0  0  0  0  0  0
   -7.5770    6.4300  -14.5550 O   0  0  0  0  0  0  0  0  0  0  0  0
   -8.5730    5.2870  -16.3410 C   0  0  0  0  0  0  0  0  0  0  0  0
   -7.5550    5.5540  -17.2220 C   0  0  0  0  0  0  0  0  0  0  0  0
   -7.7220    5.3190  -18.5920 C   0  0  0  0  0  0  0  0  0  0  0  0
   -6.5380    5.6880  -19.1930 N   0  0  0  0  0  0  0  0  0  0  0  0
   -5.6440    6.1430  -18.2580 C   0  0  0  0  0  0  0  0  0  0  0  0
   -6.2530    6.0650  -17.0280 C   0  0  0  0  0  0  0  0  0  0  0  0
   -8.9030    4.8080  -19.1570 C   0  0  0  0  0  0  0  0  0  0  0  0
   -9.9450    4.5300  -18.2900 C   0  0  0  0  0  0  0  0  0  0  0  0
   -9.7690    4.7780  -16.8130 C   0  0  0  0  0  0  0  0  0  0  0  0
   -9.4470    3.8720  -14.3800 H   0  0  0  0  0  0  0  0  0  0  0  0
   -9.1170    7.2520  -12.5960 H   0  0  0  0  0  0  0  0  0  0  0  0
   -8.9250    5.3980   -8.4240 H   0  0  0  0  0  0  0  0  0  0  0  0
   -8.8030    3.6980   -8.9350 H   0  0  0  0  0  0  0  0  0  0  0  0
   -7.3250    4.7300   -8.8880 H   0  0  0  0  0  0  0  0  0  0  0  0
   -8.6040    3.1290  -11.4000 H   0  0  0  0  0  0  0  0  0  0  0  0
   -6.3570    5.6310  -20.1880 H   0  0  0  0  0  0  0  0  0  0  0  0
   -4.6550    6.4790  -18.5480 H   0  0  0  0  0  0  0  0  0  0  0  0
   -5.8020    6.3520  -16.0680 H   0  0  0  0  0  0  0  0  0  0  0  0
   -9.0060    4.6380  -20.2360 H   0  0  0  0  0  0  0  0  0  0  0  0
  -10.8890    4.1400  -18.6340 H   0  0  0  0  0  0  0  0  0  0  0  0
  -10.5690    4.5610  -16.1230 H   0  0  0  0  0  0  0  0  0  0  0  0
  1  2  1  0
  2  3  1  0
  3  4  1  0
  4  5  2  0
  5  6  1  0
  6  7  1  0
  6  8  1  0
  1  9  2  0
  1 10  1  0
 10 11  1  0
 11 12  2  0
 12 13  1  0
 13 14  1  0
 14 15  2  0
 12 16  1  0
 16 17  2  0
 17 18  1  0
  3  8  2  0
 18 10  2  0
 15 11  1  0
  2 19  1  0
  4 20  1  0
  7 21  1  0
  7 22  1  0
  7 23  1  0
  8 24  1  0
 13 25  1  0
 14 26  1  0
 15 27  1  0
 16 28  1  0
 17 29  1  0
 18 30  1  0
A    1
 C1 
A    2
 N1 
A    3
 C2 
A    4
 C3 
A    5
 N2 
A    6
 N3 
A    7
 C4 
A    8
 C5 
A    9
 O1 
A   10
 C6 
A   11
 C7 
A   12
 C8 
A   13
 N4 
A   14
 C9 
A   15
 C10
A   16
 C11
A   17
 C12
A   18
 C13
A   19
 H1 
A   20
 H2 
A   21
 H3 
A   22
 H4 
A   23
 H5 
A   24
 H6 
A   25
 H7 
A   26
 H8 
A   27
 H9 
A   28
 H10
A   29
 H11
A   30
 H12
M  END
>  <ref_pdb>  (421) 
x0051_0B

>  <ref_mols>  (421) 
x1098_0B,x0386_0B

>  <original SMILES>  (421) 
[H]c1nn(C([H])([H])[H])c([H])c1N([H])C(=O)c1c([H])c([H])c([H])c2c1c([H])c([H])n2[H]

>  <index>  (421) 
888

>  <∆∆G>  (421) 
-7.538398

>  <∆G_bound>  (421) 
-7.137993

>  <∆G_unbound>  (421) 
0.400405

>  <comRMSD>  (421) 
0.640457

>  <N_constrained_atoms>  (421) 
20.0

>  <N_unconstrained_atoms>  (421) 
0.0

>  <runtime>  (421) 
46.34316

>  <LE>  (421) 
0.37692

>  <percent_hybrid>  (421) 
8.0

>  <dist>  (421) 
5.0

>  <ecfp4>  (421) 
0.508197

>  <daylight>  (421) 
0.519231

>  <topodist>  (421) 
3.0

>  <mces>  (421) 
19.0

>  <tdn>  (421) 
2.0

>  <tup>  (421) 
0.0

>  <rdn>  (421) 
0.0

>  <rup>  (421) 
1.0

>  <ldn>  (421) 
0.0

>  <lup>  (421) 
0.0

>  <mut>  (421) 
1.0

>  <maj>  (421) 
1.0

>  <min>  (421) 
0.0

>  <hyb>  (421) 
1.0

>  <sub>  (421) 
2.0

>  <query_index>  (421) 
61.0

>  <max_hit_Tanimoto>  (421) 
0.482005

>  <largest_ring>  (421) 
6

>  <N_interactions_kept>  (421) 
1.5

>  <N_interactions_lost>  (421) 
3.5

>  <interaction_uniqueness_metric>  (421) 
0.164058

>  <ad_hoc_penalty>  (421) 
-18.564329

>  <N_rotatable_bonds>  (421) 
3

>  <N_HA>  (421) 
18

>  <cluster>  (421) 
5406

>  <N_interactions>  (421) 
7

>  <Enamine>  (421) 
0

>  <Mcule>  (421) 
1

>  <N_PAINS>  (421) 
0

>  <UFF_Gibbs>  (421) 
50.652725

>  <strain_per_HA>  (421) 
2.81404

>  <saltbridge:HIS:51>  (421) 
0

>  <pistack:HIS:51>  (421) 
1

>  <hydroph_interaction:HIS:51>  (421) 
0

>  <hbond:ALA:132>  (421) 
0

>  <hbond:SER:135>  (421) 
0

>  <hydroph_interaction:TYR:150>  (421) 
1

>  <pistack:TYR:161>  (421) 
2

>  <hydroph_interaction:TYR:161>  (421) 
0

>  <hydroph_interaction:ASP:83>  (421) 
0

>  <hbond:TYR:130>  (421) 
0

>  <hydroph_interaction:ALA:132>  (421) 
1

>  <hbond:HIS:51>  (421) 
0

>  <hbond:ASP:129>  (421) 
0

>  <hbond:TYR:150>  (421) 
0

>  <hbond:GLY:151>  (421) 
1

>  <hbond:TYR:161>  (421) 
1

>  <hydroph_interaction:TYR:130>  (421) 
0

>  <hydroph_interaction:PRO:131>  (421) 
0

>  <hydroph_interaction:ASP:129>  (421) 
0

>  <saltbridge:ASP:75>  (421) 
0

>  <saltbridge:ASP:83>  (421) 
0

>  <hydroph_interaction:ASN:152>  (421) 
0

>  <halogenbond:TYR:150>  (421) 
0

>  <hbond:ASP:83>  (421) 
0

>  <hydroph_interaction:VAL:155>  (421) 
0

>  <pication:TYR:161>  (421) 
0

>  <hbond:PRO:131>  (421) 
0

>  <hbond:LEU:128>  (421) 
0

>  <saltbridge:ASP:129>  (421) 
0

>  <hbond:THR:134>  (421) 
0

>  <pication:HIS:51>  (421) 
0

>  <hbond:SER:81>  (421) 
0

>  <hbond:GLY:159>  (421) 
0

>  <hydroph_interaction:PRO:101>  (421) 
0

>  <hydroph_interaction:THR:134>  (421) 
0

>  <hbond:GLY:82>  (421) 
0

>  <hydroph_interaction:GLU:104>  (421) 
0

>  <hydroph_interaction:VAL:36>  (421) 
0

>  <hydroph_interaction:MET:49>  (421) 
0

>  <halogenbond:GLU:104>  (421) 
0

>  <hydroph_interaction:LYS:107>  (421) 
0

$$$$
Z2444685070
     RDKit          3D

 48 50  0  0  0  0  0  0  0  0999 V2000
   -2.3360    4.6060  -18.8390 C   0  0  0  0  0  0  0  0  0  0  0  0
   -2.9680    5.4710  -19.8630 C   0  0  0  0  0  0  0  0  0  0  0  0
   -2.1030    6.2390  -20.6320 C   0  0  0  0  0  0  0  0  0  0  0  0
   -3.8450    6.4030  -19.1750 O   0  0  0  0  0  0  0  0  0  0  0  0
   -5.1670    6.0080  -19.0560 C   0  0  0  0  0  0  0  0  0  0  0  0
   -5.7310    5.4350  -20.1730 C   0  0  0  0  0  0  0  0  0  0  0  0
   -7.1470    4.9870  -20.1090 C   0  0  0  0  0  0  0  0  0  0  0  0
   -7.8960    5.1170  -18.9490 C   0  0  0  0  0  0  0  0  0  0  0  0
   -9.2100    4.6760  -18.9160 C   0  0  0  0  0  0  0  0  0  0  0  0
   -9.9610    4.7900  -17.7510 C   0  0  0  0  0  0  0  0  0  0  0  0
   -9.3810    5.3520  -16.5990 C   0  0  0  0  0  0  0  0  0  0  0  0
   -8.0670    5.8030  -16.6340 C   0  0  0  0  0  0  0  0  0  0  0  0
   -7.2980    5.7000  -17.8070 C   0  0  0  0  0  0  0  0  0  0  0  0
   -5.9610    6.1530  -17.8910 C   0  0  0  0  0  0  0  0  0  0  0  0
   -5.4220    6.7870  -16.7700 C   0  0  0  0  0  0  0  0  0  0  0  0
   -5.0250    5.9980  -15.6410 N   0  0  0  0  0  0  0  0  0  0  0  0
   -4.2330    6.8570  -14.7160 C   0  0  0  0  0  0  0  0  0  0  0  0
   -3.3140    6.1390  -13.7420 C   0  0  0  0  0  0  0  0  0  0  0  0
   -2.7090    4.8950  -14.3470 C   0  0  0  0  0  0  0  0  0  0  0  0
   -3.6610    4.0050  -15.0990 C   0  0  0  0  0  0  0  0  0  0  0  0
   -4.6520    3.4700  -14.1370 N   0  0  0  0  0  0  0  0  0  0  0  0
   -4.2880    4.8510  -16.1960 C   0  0  0  0  0  0  0  0  0  0  0  0
   -1.7090    5.2050  -18.1700 H   0  0  0  0  0  0  0  0  0  0  0  0
   -3.0790    4.0870  -18.2270 H   0  0  0  0  0  0  0  0  0  0  0  0
   -1.7230    3.8420  -19.3310 H   0  0  0  0  0  0  0  0  0  0  0  0
   -3.5240    4.8310  -20.5570 H   0  0  0  0  0  0  0  0  0  0  0  0
   -2.6650    6.8750  -21.3210 H   0  0  0  0  0  0  0  0  0  0  0  0
   -1.4900    6.8880  -19.9970 H   0  0  0  0  0  0  0  0  0  0  0  0
   -1.4360    5.6020  -21.2230 H   0  0  0  0  0  0  0  0  0  0  0  0
   -5.1520    5.3120  -21.0940 H   0  0  0  0  0  0  0  0  0  0  0  0
   -7.5060    4.5510  -21.0520 H   0  0  0  0  0  0  0  0  0  0  0  0
   -9.6470    4.2420  -19.8050 H   0  0  0  0  0  0  0  0  0  0  0  0
  -10.9870    4.4480  -17.7330 H   0  0  0  0  0  0  0  0  0  0  0  0
   -9.9610    5.4400  -15.6820 H   0  0  0  0  0  0  0  0  0  0  0  0
   -7.6310    6.2430  -15.7380 H   0  0  0  0  0  0  0  0  0  0  0  0
   -6.0900    7.5830  -16.4210 H   0  0  0  0  0  0  0  0  0  0  0  0
   -4.5470    7.3330  -17.1410 H   0  0  0  0  0  0  0  0  0  0  0  0
   -3.6170    7.5150  -15.3440 H   0  0  0  0  0  0  0  0  0  0  0  0
   -4.8860    7.5340  -14.1500 H   0  0  0  0  0  0  0  0  0  0  0  0
   -3.8910    5.8630  -12.8490 H   0  0  0  0  0  0  0  0  0  0  0  0
   -2.4990    6.8150  -13.4390 H   0  0  0  0  0  0  0  0  0  0  0  0
   -2.2370    4.2990  -13.5550 H   0  0  0  0  0  0  0  0  0  0  0  0
   -1.8920    5.1950  -15.0120 H   0  0  0  0  0  0  0  0  0  0  0  0
   -3.1420    3.1580  -15.5480 H   0  0  0  0  0  0  0  0  0  0  0  0
   -4.6890    4.0680  -13.3120 H   0  0  0  0  0  0  0  0  0  0  0  0
   -5.5830    3.4910  -14.5560 H   0  0  0  0  0  0  0  0  0  0  0  0
   -3.5080    5.1820  -16.8930 H   0  0  0  0  0  0  0  0  0  0  0  0
   -4.9900    4.2210  -16.7530 H   0  0  0  0  0  0  0  0  0  0  0  0
  1  2  1  0
  2  3  1  0
  2  4  1  0
  4  5  1  0
  5  6  2  0
  6  7  1  0
  7  8  2  0
  8  9  1  0
  9 10  2  0
 10 11  1  0
 11 12  2  0
 12 13  1  0
 13 14  2  0
 14 15  1  0
 15 16  1  0
 16 17  1  0
 17 18  1  0
 18 19  1  0
 19 20  1  0
 20 21  1  0
 20 22  1  0
 14  5  1  0
 13  8  1  0
 22 16  1  0
  1 23  1  0
  1 24  1  0
  1 25  1  0
  2 26  1  0
  3 27  1  0
  3 28  1  0
  3 29  1  0
  6 30  1  0
  7 31  1  0
  9 32  1  0
 10 33  1  0
 11 34  1  0
 12 35  1  0
 15 36  1  0
 15 37  1  0
 17 38  1  0
 17 39  1  0
 18 40  1  0
 18 41  1  0
 19 42  1  0
 19 43  1  0
 20 44  1  0
 21 45  1  0
 21 46  1  0
 22 47  1  0
 22 48  1  0
A    1
 C1 
A    2
 C2 
A    3
 C3 
A    4
 O1 
A    5
 C4 
A    6
 C5 
A    7
 C6 
A    8
 C7 
A    9
 C8 
A   10
 C9 
A   11
 C10
A   12
 C11
A   13
 C12
A   14
 C13
A   15
 C14
A   16
 N1 
A   17
 C15
A   18
 C16
A   19
 C17
A   20
 C18
A   21
 N2 
A   22
 C19
A   23
 H1 
A   24
 H2 
A   25
 H3 
A   26
 H4 
A   27
 H5 
A   28
 H6 
A   29
 H7 
A   30
 H8 
A   31
 H9 
A   32
 H10
A   33
 H11
A   34
 H12
A   35
 H13
A   36
 H14
A   37
 H15
A   38
 H16
A   39
 H17
A   40
 H18
A   41
 H19
A   42
 H20
A   43
 H21
A   44
 H22
A   45
 H23
A   46
 H24
A   47
 H25
A   48
 H26
M  END
>  <ref_pdb>  (422) 
x0051_0B

>  <ref_mols>  (422) 
x0429_0B,x0089_0B

>  <original SMILES>  (422) 
[H]c1c([H])c([H])c2c(C([H])([H])N3C([H])([H])C([H])([H])C([H])([H])C([H])(N([H])[H])C3([H])[H])c(OC([H])(C([H])([H])[H])C([H])([H])[H])c([H])c([H])c2c1[H]

>  <index>  (422) 
646

>  <∆∆G>  (422) 
-8.289104

>  <∆G_bound>  (422) 
-7.864795

>  <∆G_unbound>  (422) 
0.42431

>  <comRMSD>  (422) 
0.82615

>  <N_constrained_atoms>  (422) 
18.0

>  <N_unconstrained_atoms>  (422) 
4.0

>  <runtime>  (422) 
28.511585

>  <LE>  (422) 
0.376777

>  <percent_hybrid>  (422) 
25.0

>  <dist>  (422) 
5.0

>  <ecfp4>  (422) 
0.185714

>  <daylight>  (422) 
0.148387

>  <topodist>  (422) 
2.0

>  <mces>  (422) 
22.0

>  <tdn>  (422) 
0.0

>  <tup>  (422) 
1.0

>  <rdn>  (422) 
0.0

>  <rup>  (422) 
0.0

>  <ldn>  (422) 
0.0

>  <lup>  (422) 
1.0

>  <mut>  (422) 
3.0

>  <maj>  (422) 
3.0

>  <min>  (422) 
0.0

>  <hyb>  (422) 
0.0

>  <sub>  (422) 
1.0

>  <query_index>  (422) 
103.0

>  <max_hit_Tanimoto>  (422) 
0.189286

>  <largest_ring>  (422) 
6

>  <N_interactions_kept>  (422) 
2.0

>  <N_interactions_lost>  (422) 
1.5

>  <interaction_uniqueness_metric>  (422) 
0.126166

>  <ad_hoc_penalty>  (422) 
-18.560361

>  <N_rotatable_bonds>  (422) 
7

>  <N_HA>  (422) 
22

>  <cluster>  (422) 
5627

>  <N_interactions>  (422) 
6

>  <Enamine>  (422) 
1

>  <Mcule>  (422) 
0

>  <N_PAINS>  (422) 
0

>  <UFF_Gibbs>  (422) 
101.630228

>  <strain_per_HA>  (422) 
4.619556

>  <saltbridge:HIS:51>  (422) 
0

>  <pistack:HIS:51>  (422) 
0

>  <hydroph_interaction:HIS:51>  (422) 
0

>  <hbond:ALA:132>  (422) 
0

>  <hbond:SER:135>  (422) 
0

>  <hydroph_interaction:TYR:150>  (422) 
1

>  <pistack:TYR:161>  (422) 
0

>  <hydroph_interaction:TYR:161>  (422) 
2

>  <hydroph_interaction:ASP:83>  (422) 
0

>  <hbond:TYR:130>  (422) 
0

>  <hydroph_interaction:ALA:132>  (422) 
1

>  <hbond:HIS:51>  (422) 
0

>  <hbond:ASP:129>  (422) 
0

>  <hbond:TYR:150>  (422) 
0

>  <hbond:GLY:151>  (422) 
0

>  <hbond:TYR:161>  (422) 
1

>  <hydroph_interaction:TYR:130>  (422) 
0

>  <hydroph_interaction:PRO:131>  (422) 
0

>  <hydroph_interaction:ASP:129>  (422) 
0

>  <saltbridge:ASP:75>  (422) 
0

>  <saltbridge:ASP:83>  (422) 
0

>  <hydroph_interaction:ASN:152>  (422) 
0

>  <halogenbond:TYR:150>  (422) 
0

>  <hbond:ASP:83>  (422) 
0

>  <hydroph_interaction:VAL:155>  (422) 
1

>  <pication:TYR:161>  (422) 
0

>  <hbond:PRO:131>  (422) 
0

>  <hbond:LEU:128>  (422) 
0

>  <saltbridge:ASP:129>  (422) 
0

>  <hbond:THR:134>  (422) 
0

>  <pication:HIS:51>  (422) 
0

>  <hbond:SER:81>  (422) 
0

>  <hbond:GLY:159>  (422) 
0

>  <hydroph_interaction:PRO:101>  (422) 
0

>  <hydroph_interaction:THR:134>  (422) 
0

>  <hbond:GLY:82>  (422) 
0

>  <hydroph_interaction:GLU:104>  (422) 
0

>  <hydroph_interaction:VAL:36>  (422) 
0

>  <hydroph_interaction:MET:49>  (422) 
0

>  <halogenbond:GLU:104>  (422) 
0

>  <hydroph_interaction:LYS:107>  (422) 
0

$$$$
Z1567996995
     RDKit          3D

 36 37  0  0  0  0  0  0  0  0999 V2000
   -2.1480    4.4730  -18.9010 C   0  0  0  0  0  0  0  0  0  0  0  0
   -3.1290    5.4700  -19.5120 C   0  0  0  0  0  0  0  0  0  0  0  0
   -4.4690    5.2180  -19.0610 O   0  0  0  0  0  0  0  0  0  0  0  0
   -5.4090    5.1980  -20.0460 C   0  0  0  0  0  0  0  0  0  0  0  0
   -5.2900    4.6360  -21.1150 O   0  0  0  0  0  0  0  0  0  0  0  0
   -6.5390    5.9900  -19.6190 N   0  0  0  0  0  0  0  0  0  0  0  0
   -7.6170    5.5350  -18.7110 C   0  0  0  0  0  0  0  0  0  0  0  0
   -8.9010    4.9010  -19.2910 C   0  0  0  0  0  0  0  0  0  0  0  0
   -9.9820    4.5070  -18.2850 C   0  0  0  0  0  0  0  0  0  0  0  0
   -9.6560    4.7820  -16.8200 C   0  0  0  0  0  0  0  0  0  0  0  0
   -8.3430    5.4010  -16.3960 C   0  0  0  0  0  0  0  0  0  0  0  0
   -8.1230    5.6470  -14.8980 C   0  0  0  0  0  0  0  0  0  0  0  0
   -7.3690    6.5310  -14.5300 O   0  0  0  0  0  0  0  0  0  0  0  0
   -8.8230    4.8220  -14.0840 O   0  0  0  0  0  0  0  0  0  0  0  0
   -8.8320    5.1550  -12.7780 C   0  0  0  0  0  0  0  0  0  0  0  0
   -8.6330    4.2950  -11.7320 C   0  0  0  0  0  0  0  0  0  0  0  0
   -8.7000    4.9600  -10.5690 N   0  0  0  0  0  0  0  0  0  0  0  0
   -8.5420    4.3790   -9.3670 C   0  0  0  0  0  0  0  0  0  0  0  0
   -8.9460    6.2700  -10.7500 N   0  0  0  0  0  0  0  0  0  0  0  0
   -9.0290    6.3850  -12.0980 C   0  0  0  0  0  0  0  0  0  0  0  0
   -7.3990    5.7420  -17.3520 C   0  0  0  0  0  0  0  0  0  0  0  0
   -1.2130    4.9420  -18.5830 H   0  0  0  0  0  0  0  0  0  0  0  0
   -2.6060    4.0000  -18.0300 H   0  0  0  0  0  0  0  0  0  0  0  0
   -1.8800    3.6900  -19.6210 H   0  0  0  0  0  0  0  0  0  0  0  0
   -2.7910    6.4870  -19.2710 H   0  0  0  0  0  0  0  0  0  0  0  0
   -3.1190    5.3620  -20.6020 H   0  0  0  0  0  0  0  0  0  0  0  0
   -6.6300    6.8650  -20.1200 H   0  0  0  0  0  0  0  0  0  0  0  0
   -9.1390    4.7070  -20.3440 H   0  0  0  0  0  0  0  0  0  0  0  0
  -10.9230    4.0700  -18.5710 H   0  0  0  0  0  0  0  0  0  0  0  0
  -10.3920    4.5250  -16.0670 H   0  0  0  0  0  0  0  0  0  0  0  0
   -8.4350    3.2180  -11.7350 H   0  0  0  0  0  0  0  0  0  0  0  0
   -9.2450    4.8250   -8.6650 H   0  0  0  0  0  0  0  0  0  0  0  0
   -7.5240    4.5490   -9.0430 H   0  0  0  0  0  0  0  0  0  0  0  0
   -8.7400    3.3180   -9.4600 H   0  0  0  0  0  0  0  0  0  0  0  0
   -9.2250    7.3650  -12.5120 H   0  0  0  0  0  0  0  0  0  0  0  0
   -6.4660    6.1920  -17.0340 H   0  0  0  0  0  0  0  0  0  0  0  0
  1  2  1  0
  2  3  1  0
  3  4  1  0
  4  5  2  0
  4  6  1  0
  6  7  1  0
  7  8  2  0
  8  9  1  0
  9 10  2  0
 10 11  1  0
 11 12  1  0
 12 13  2  0
 12 14  1  0
 14 15  1  0
 15 16  2  0
 16 17  1  0
 17 18  1  0
 17 19  1  0
 19 20  2  0
 11 21  2  0
 21  7  1  0
 20 15  1  0
  1 22  1  0
  1 23  1  0
  1 24  1  0
  2 25  1  0
  2 26  1  0
  6 27  1  0
  8 28  1  0
  9 29  1  0
 10 30  1  0
 16 31  1  0
 18 32  1  0
 18 33  1  0
 18 34  1  0
 20 35  1  0
 21 36  1  0
A    1
 C1 
A    2
 C2 
A    3
 O1 
A    4
 C3 
A    5
 O2 
A    6
 N1 
A    7
 C4 
A    8
 C5 
A    9
 C6 
A   10
 C7 
A   11
 C8 
A   12
 C9 
A   13
 O3 
A   14
 O4 
A   15
 C10
A   16
 C11
A   17
 N2 
A   18
 C12
A   19
 N3 
A   20
 C13
A   21
 C14
A   22
 H1 
A   23
 H2 
A   24
 H3 
A   25
 H4 
A   26
 H5 
A   27
 H6 
A   28
 H7 
A   29
 H8 
A   30
 H9 
A   31
 H10
A   32
 H11
A   33
 H12
A   34
 H13
A   35
 H14
A   36
 H15
M  END
>  <ref_pdb>  (423) 
x0051_0B

>  <ref_mols>  (423) 
x0443_0B,x1098_0B

>  <original SMILES>  (423) 
[H]c1nn(C([H])([H])[H])c([H])c1OC(=O)c1c([H])c([H])c([H])c(N([H])C(=O)OC([H])([H])C([H])([H])[H])c1[H]

>  <index>  (423) 
691

>  <∆∆G>  (423) 
-6.632735

>  <∆G_bound>  (423) 
-5.929359

>  <∆G_unbound>  (423) 
0.703376

>  <comRMSD>  (423) 
0.842248

>  <N_constrained_atoms>  (423) 
19.0

>  <N_unconstrained_atoms>  (423) 
4.0

>  <runtime>  (423) 
46.529174

>  <LE>  (423) 
0.28838

>  <percent_hybrid>  (423) 
19.0

>  <dist>  (423) 
7.0

>  <ecfp4>  (423) 
0.277108

>  <daylight>  (423) 
0.239044

>  <topodist>  (423) 
2.0

>  <mces>  (423) 
22.0

>  <tdn>  (423) 
1.0

>  <tup>  (423) 
0.0

>  <rdn>  (423) 
1.0

>  <rup>  (423) 
0.0

>  <ldn>  (423) 
0.0

>  <lup>  (423) 
0.0

>  <mut>  (423) 
4.0

>  <maj>  (423) 
4.0

>  <min>  (423) 
0.0

>  <hyb>  (423) 
1.0

>  <sub>  (423) 
1.0

>  <query_index>  (423) 
80.0

>  <max_hit_Tanimoto>  (423) 
0.275176

>  <largest_ring>  (423) 
6

>  <N_interactions_kept>  (423) 
3.0

>  <N_interactions_lost>  (423) 
3.0

>  <interaction_uniqueness_metric>  (423) 
0.242813

>  <ad_hoc_penalty>  (423) 
-18.557159

>  <N_rotatable_bonds>  (423) 
6

>  <N_HA>  (423) 
21

>  <cluster>  (423) 
5585

>  <N_interactions>  (423) 
9

>  <Enamine>  (423) 
1

>  <Mcule>  (423) 
0

>  <N_PAINS>  (423) 
0

>  <UFF_Gibbs>  (423) 
110.722226

>  <strain_per_HA>  (423) 
5.272487

>  <saltbridge:HIS:51>  (423) 
1

>  <pistack:HIS:51>  (423) 
1

>  <hydroph_interaction:HIS:51>  (423) 
0

>  <hbond:ALA:132>  (423) 
0

>  <hbond:SER:135>  (423) 
0

>  <hydroph_interaction:TYR:150>  (423) 
1

>  <pistack:TYR:161>  (423) 
0

>  <hydroph_interaction:TYR:161>  (423) 
3

>  <hydroph_interaction:ASP:83>  (423) 
0

>  <hbond:TYR:130>  (423) 
0

>  <hydroph_interaction:ALA:132>  (423) 
1

>  <hbond:HIS:51>  (423) 
0

>  <hbond:ASP:129>  (423) 
1

>  <hbond:TYR:150>  (423) 
0

>  <hbond:GLY:151>  (423) 
0

>  <hbond:TYR:161>  (423) 
0

>  <hydroph_interaction:TYR:130>  (423) 
0

>  <hydroph_interaction:PRO:131>  (423) 
0

>  <hydroph_interaction:ASP:129>  (423) 
0

>  <saltbridge:ASP:75>  (423) 
0

>  <saltbridge:ASP:83>  (423) 
0

>  <hydroph_interaction:ASN:152>  (423) 
0

>  <halogenbond:TYR:150>  (423) 
0

>  <hbond:ASP:83>  (423) 
0

>  <hydroph_interaction:VAL:155>  (423) 
1

>  <pication:TYR:161>  (423) 
0

>  <hbond:PRO:131>  (423) 
0

>  <hbond:LEU:128>  (423) 
0

>  <saltbridge:ASP:129>  (423) 
0

>  <hbond:THR:134>  (423) 
0

>  <pication:HIS:51>  (423) 
0

>  <hbond:SER:81>  (423) 
0

>  <hbond:GLY:159>  (423) 
0

>  <hydroph_interaction:PRO:101>  (423) 
0

>  <hydroph_interaction:THR:134>  (423) 
0

>  <hbond:GLY:82>  (423) 
0

>  <hydroph_interaction:GLU:104>  (423) 
0

>  <hydroph_interaction:VAL:36>  (423) 
0

>  <hydroph_interaction:MET:49>  (423) 
0

>  <halogenbond:GLU:104>  (423) 
0

>  <hydroph_interaction:LYS:107>  (423) 
0

$$$$
ZKNYEZMKJHBQOL-UHFFFAOYSA-N
     RDKit          3D

 48 51  0  0  0  0  0  0  0  0999 V2000
   -8.6670    7.1660  -14.0300 C   0  0  0  0  0  0  0  0  0  0  0  0
   -7.9030    6.3890  -14.9210 N   0  0  0  0  0  0  0  0  0  0  0  0
   -8.2220    5.8310  -16.1430 C   0  0  0  0  0  0  0  0  0  0  0  0
   -7.2920    5.6430  -17.1810 C   0  0  0  0  0  0  0  0  0  0  0  0
   -5.8390    5.9630  -17.1010 C   0  0  0  0  0  0  0  0  0  0  0  0
   -5.3340    5.6340  -18.3220 N   0  0  0  0  0  0  0  0  0  0  0  0
   -4.0130    5.3430  -18.5380 C   0  0  0  0  0  0  0  0  0  0  0  0
   -6.3420    5.1710  -19.1360 C   0  0  0  0  0  0  0  0  0  0  0  0
   -6.3410    4.7830  -20.4390 O   0  0  0  0  0  0  0  0  0  0  0  0
   -7.5500    5.1420  -18.4170 C   0  0  0  0  0  0  0  0  0  0  0  0
   -8.8760    4.7270  -18.7150 C   0  0  0  0  0  0  0  0  0  0  0  0
   -9.8640    4.8480  -17.7380 C   0  0  0  0  0  0  0  0  0  0  0  0
   -9.5260    5.4000  -16.4630 C   0  0  0  0  0  0  0  0  0  0  0  0
   -5.2930    6.3950  -16.1060 O   0  0  0  0  0  0  0  0  0  0  0  0
   -9.2070    8.2590  -14.1580 O   0  0  0  0  0  0  0  0  0  0  0  0
   -8.7110    6.4890  -12.7430 C   0  0  0  0  0  0  0  0  0  0  0  0
   -8.6050    7.1390  -11.5220 C   0  0  0  0  0  0  0  0  0  0  0  0
   -8.6200    6.3800  -10.3450 C   0  0  0  0  0  0  0  0  0  0  0  0
   -8.7400    4.9660  -10.3230 C   0  0  0  0  0  0  0  0  0  0  0  0
   -8.7310    4.2620   -9.1620 N   0  0  0  0  0  0  0  0  0  0  0  0
   -8.8590    2.8160   -9.2030 C   0  0  0  0  0  0  0  0  0  0  0  0
   -9.7690    2.4210   -8.0800 C   0  0  0  0  0  0  0  0  0  0  0  0
   -9.3810    3.0900   -6.7540 C   0  0  0  0  0  0  0  0  0  0  0  0
   -8.9580    4.5450   -6.8010 C   0  0  0  0  0  0  0  0  0  0  0  0
   -8.0790    4.8240   -7.9940 C   0  0  0  0  0  0  0  0  0  0  0  0
   -8.8620    4.3080  -11.5430 C   0  0  0  0  0  0  0  0  0  0  0  0
   -8.8450    5.1190  -12.7950 C   0  0  0  0  0  0  0  0  0  0  0  0
   -7.0030    6.0700  -14.5620 H   0  0  0  0  0  0  0  0  0  0  0  0
   -3.8660    5.1200  -19.5980 H   0  0  0  0  0  0  0  0  0  0  0  0
   -3.3780    6.1830  -18.2390 H   0  0  0  0  0  0  0  0  0  0  0  0
   -3.7540    4.4640  -17.9590 H   0  0  0  0  0  0  0  0  0  0  0  0
   -9.1280    4.3190  -19.6860 H   0  0  0  0  0  0  0  0  0  0  0  0
  -10.8840    4.5340  -17.9440 H   0  0  0  0  0  0  0  0  0  0  0  0
  -10.3200    5.4880  -15.7250 H   0  0  0  0  0  0  0  0  0  0  0  0
   -8.5010    8.2200  -11.4510 H   0  0  0  0  0  0  0  0  0  0  0  0
   -8.5280    6.9280   -9.4090 H   0  0  0  0  0  0  0  0  0  0  0  0
   -9.2750    2.4850  -10.1620 H   0  0  0  0  0  0  0  0  0  0  0  0
   -7.8920    2.3150   -9.0480 H   0  0  0  0  0  0  0  0  0  0  0  0
  -10.7890    2.7190   -8.3340 H   0  0  0  0  0  0  0  0  0  0  0  0
   -9.7890    1.3330   -7.9650 H   0  0  0  0  0  0  0  0  0  0  0  0
  -10.2430    3.0430   -6.0860 H   0  0  0  0  0  0  0  0  0  0  0  0
   -8.5770    2.5020   -6.3020 H   0  0  0  0  0  0  0  0  0  0  0  0
   -9.8570    5.1730   -6.8170 H   0  0  0  0  0  0  0  0  0  0  0  0
   -8.4250    4.8000   -5.8750 H   0  0  0  0  0  0  0  0  0  0  0  0
   -7.0970    4.3580   -7.8270 H   0  0  0  0  0  0  0  0  0  0  0  0
   -7.9340    5.9030   -8.1210 H   0  0  0  0  0  0  0  0  0  0  0  0
   -8.9630    3.2290  -11.6160 H   0  0  0  0  0  0  0  0  0  0  0  0
   -8.9390    4.5170  -13.7130 H   0  0  0  0  0  0  0  0  0  0  0  0
  1  2  1  0
  2  3  1  0
  3  4  2  0
  4  5  1  0
  5  6  1  0
  6  7  1  0
  6  8  1  0
  8  9  2  0
  8 10  1  0
 10 11  2  0
 11 12  1  0
 12 13  2  0
  5 14  2  0
  1 15  2  0
  1 16  1  0
 16 17  2  0
 17 18  1  0
 18 19  2  0
 19 20  1  0
 20 21  1  0
 21 22  1  0
 22 23  1  0
 23 24  1  0
 24 25  1  0
 19 26  1  0
 26 27  2  0
  3 13  1  0
  4 10  1  0
 27 16  1  0
 25 20  1  0
  2 28  1  0
  7 29  1  0
  7 30  1  0
  7 31  1  0
 11 32  1  0
 12 33  1  0
 13 34  1  0
 17 35  1  0
 18 36  1  0
 21 37  1  0
 21 38  1  0
 22 39  1  0
 22 40  1  0
 23 41  1  0
 23 42  1  0
 24 43  1  0
 24 44  1  0
 25 45  1  0
 25 46  1  0
 26 47  1  0
 27 48  1  0
A    1
 C1 
A    2
 N1 
A    3
 C2 
A    4
 C3 
A    5
 C4 
A    6
 N2 
A    7
 C5 
A    8
 C6 
A    9
 O1 
A   10
 C7 
A   11
 C8 
A   12
 C9 
A   13
 C10
A   14
 O2 
A   15
 O3 
A   16
 C11
A   17
 C12
A   18
 C13
A   19
 C14
A   20
 N3 
A   21
 C15
A   22
 C16
A   23
 C17
A   24
 C18
A   25
 C19
A   26
 C20
A   27
 C21
A   28
 H1 
A   29
 H2 
A   30
 H3 
A   31
 H4 
A   32
 H5 
A   33
 H6 
A   34
 H7 
A   35
 H8 
A   36
 H9 
A   37
 H10
A   38
 H11
A   39
 H12
A   40
 H13
A   41
 H14
A   42
 H15
A   43
 H16
A   44
 H17
A   45
 H18
A   46
 H19
A   47
 H20
A   48
 H21
M  END
>  <ref_pdb>  (424) 
x0051_0B

>  <ref_mols>  (424) 
x0727_0B,x0404_0B

>  <original SMILES>  (424) 
[H]c1c([H])c2c(c(N([H])C(=O)c3c([H])c([H])c(N4C([H])([H])C([H])([H])C([H])([H])C([H])([H])C4([H])[H])c([H])c3[H])c1[H])C(=O)N(C([H])([H])[H])C2=O

>  <index>  (424) 
577

>  <∆∆G>  (424) 
-9.682719

>  <∆G_bound>  (424) 
-9.098082

>  <∆G_unbound>  (424) 
0.584637

>  <comRMSD>  (424) 
0.750692

>  <N_constrained_atoms>  (424) 
27.0

>  <N_unconstrained_atoms>  (424) 
1.0

>  <runtime>  (424) 
68.992806

>  <LE>  (424) 
0.345811

>  <percent_hybrid>  (424) 
45.0

>  <dist>  (424) 
9.0

>  <ecfp4>  (424) 
0.190476

>  <daylight>  (424) 
0.166008

>  <topodist>  (424) 
4.0

>  <mces>  (424) 
29.0

>  <tdn>  (424) 
1.0

>  <tup>  (424) 
0.0

>  <rdn>  (424) 
1.0

>  <rup>  (424) 
1.0

>  <ldn>  (424) 
1.0

>  <lup>  (424) 
0.0

>  <mut>  (424) 
4.0

>  <maj>  (424) 
4.0

>  <min>  (424) 
0.0

>  <hyb>  (424) 
1.0

>  <sub>  (424) 
2.0

>  <query_index>  (424) 
0.0

>  <max_hit_Tanimoto>  (424) 
0.20202

>  <largest_ring>  (424) 
6

>  <N_interactions_kept>  (424) 
2.5

>  <N_interactions_lost>  (424) 
2.0

>  <interaction_uniqueness_metric>  (424) 
0.079048

>  <ad_hoc_penalty>  (424) 
-18.552872

>  <N_rotatable_bonds>  (424) 
4

>  <N_HA>  (424) 
27

>  <cluster>  (424) 
508

>  <N_interactions>  (424) 
4

>  <Enamine>  (424) 
0

>  <Mcule>  (424) 
1

>  <N_PAINS>  (424) 
0

>  <UFF_Gibbs>  (424) 
139.812973

>  <strain_per_HA>  (424) 
5.178258

>  <saltbridge:HIS:51>  (424) 
0

>  <pistack:HIS:51>  (424) 
1

>  <hydroph_interaction:HIS:51>  (424) 
1

>  <hbond:ALA:132>  (424) 
0

>  <hbond:SER:135>  (424) 
0

>  <hydroph_interaction:TYR:150>  (424) 
0

>  <pistack:TYR:161>  (424) 
0

>  <hydroph_interaction:TYR:161>  (424) 
2

>  <hydroph_interaction:ASP:83>  (424) 
0

>  <hbond:TYR:130>  (424) 
0

>  <hydroph_interaction:ALA:132>  (424) 
0

>  <hbond:HIS:51>  (424) 
0

>  <hbond:ASP:129>  (424) 
0

>  <hbond:TYR:150>  (424) 
0

>  <hbond:GLY:151>  (424) 
0

>  <hbond:TYR:161>  (424) 
0

>  <hydroph_interaction:TYR:130>  (424) 
0

>  <hydroph_interaction:PRO:131>  (424) 
0

>  <hydroph_interaction:ASP:129>  (424) 
0

>  <saltbridge:ASP:75>  (424) 
0

>  <saltbridge:ASP:83>  (424) 
0

>  <hydroph_interaction:ASN:152>  (424) 
0

>  <halogenbond:TYR:150>  (424) 
0

>  <hbond:ASP:83>  (424) 
0

>  <hydroph_interaction:VAL:155>  (424) 
0

>  <pication:TYR:161>  (424) 
0

>  <hbond:PRO:131>  (424) 
0

>  <hbond:LEU:128>  (424) 
0

>  <saltbridge:ASP:129>  (424) 
0

>  <hbond:THR:134>  (424) 
0

>  <pication:HIS:51>  (424) 
0

>  <hbond:SER:81>  (424) 
0

>  <hbond:GLY:159>  (424) 
0

>  <hydroph_interaction:PRO:101>  (424) 
0

>  <hydroph_interaction:THR:134>  (424) 
0

>  <hbond:GLY:82>  (424) 
0

>  <hydroph_interaction:GLU:104>  (424) 
0

>  <hydroph_interaction:VAL:36>  (424) 
0

>  <hydroph_interaction:MET:49>  (424) 
0

>  <halogenbond:GLU:104>  (424) 
0

>  <hydroph_interaction:LYS:107>  (424) 
0

$$$$
Z2442769931
     RDKit          3D

 31 32  0  0  0  0  0  0  0  0999 V2000
   -2.3850    5.0080  -22.1160 C   0  0  0  0  0  0  0  0  0  0  0  0
   -3.7520    5.0810  -21.9820 N   0  0  0  0  0  0  0  0  0  0  0  0
   -4.3210    5.2350  -20.7390 C   0  0  0  0  0  0  0  0  0  0  0  0
   -3.7410    5.2210  -19.6510 O   0  0  0  0  0  0  0  0  0  0  0  0
   -5.8150    5.4300  -20.6560 C   0  0  0  0  0  0  0  0  0  0  0  0
   -6.1140    5.8890  -19.3550 O   0  0  0  0  0  0  0  0  0  0  0  0
   -7.2710    5.4940  -18.7520 C   0  0  0  0  0  0  0  0  0  0  0  0
   -8.4060    4.9310  -19.3600 C   0  0  0  0  0  0  0  0  0  0  0  0
   -9.5170    4.5890  -18.5790 C   0  0  0  0  0  0  0  0  0  0  0  0
   -9.5810    4.7900  -17.0600 C   0  0  0  0  0  0  0  0  0  0  0  0
   -8.4390    5.3460  -16.5120 C   0  0  0  0  0  0  0  0  0  0  0  0
   -7.2490    5.7080  -17.3780 C   0  0  0  0  0  0  0  0  0  0  0  0
   -6.1150    6.2570  -16.8660 O   0  0  0  0  0  0  0  0  0  0  0  0
   -5.7480    5.7730  -15.5800 C   0  0  0  0  0  0  0  0  0  0  0  0
   -6.8410    5.2470  -14.8340 C   0  0  0  0  0  0  0  0  0  0  0  0
   -8.1520    5.6900  -15.0470 C   0  0  0  0  0  0  0  0  0  0  0  0
   -2.0910    5.3160  -23.1230 H   0  0  0  0  0  0  0  0  0  0  0  0
   -1.8740    5.6580  -21.3990 H   0  0  0  0  0  0  0  0  0  0  0  0
   -2.0540    3.9740  -21.9730 H   0  0  0  0  0  0  0  0  0  0  0  0
   -4.1320    4.2030  -22.3960 H   0  0  0  0  0  0  0  0  0  0  0  0
   -6.1480    6.1560  -21.4060 H   0  0  0  0  0  0  0  0  0  0  0  0
   -6.3470    4.4930  -20.8570 H   0  0  0  0  0  0  0  0  0  0  0  0
   -8.4250    4.7610  -20.4320 H   0  0  0  0  0  0  0  0  0  0  0  0
  -10.4220    4.1530  -18.9840 H   0  0  0  0  0  0  0  0  0  0  0  0
  -10.4940    4.4890  -16.5470 H   0  0  0  0  0  0  0  0  0  0  0  0
   -4.9640    5.0350  -15.6970 H   0  0  0  0  0  0  0  0  0  0  0  0
   -5.3130    6.6160  -15.0340 H   0  0  0  0  0  0  0  0  0  0  0  0
   -6.8480    4.1740  -15.0010 H   0  0  0  0  0  0  0  0  0  0  0  0
   -6.6210    5.3730  -13.7700 H   0  0  0  0  0  0  0  0  0  0  0  0
   -8.9330    5.2320  -14.4440 H   0  0  0  0  0  0  0  0  0  0  0  0
   -8.3200    6.7600  -14.9540 H   0  0  0  0  0  0  0  0  0  0  0  0
  1  2  1  0
  2  3  1  0
  3  4  2  0
  3  5  1  0
  5  6  1  0
  6  7  1  0
  7  8  2  0
  8  9  1  0
  9 10  2  0
 10 11  1  0
 11 12  2  0
 12 13  1  0
 13 14  1  0
 14 15  1  0
 15 16  1  0
 12  7  1  0
 16 11  1  0
  1 17  1  0
  1 18  1  0
  1 19  1  0
  2 20  1  0
  5 21  1  0
  5 22  1  0
  8 23  1  0
  9 24  1  0
 10 25  1  0
 14 26  1  0
 14 27  1  0
 15 28  1  0
 15 29  1  0
 16 30  1  0
 16 31  1  0
A    1
 C1 
A    2
 N1 
A    3
 C2 
A    4
 O1 
A    5
 C3 
A    6
 O2 
A    7
 C4 
A    8
 C5 
A    9
 C6 
A   10
 C7 
A   11
 C8 
A   12
 C9 
A   13
 O3 
A   14
 C10
A   15
 C11
A   16
 C12
A   17
 H1 
A   18
 H2 
A   19
 H3 
A   20
 H4 
A   21
 H5 
A   22
 H6 
A   23
 H7 
A   24
 H8 
A   25
 H9 
A   26
 H10
A   27
 H11
A   28
 H12
A   29
 H13
A   30
 H14
A   31
 H15
M  END
>  <ref_pdb>  (425) 
x0051_0B

>  <ref_mols>  (425) 
x0904_0B,x0455_0B

>  <original SMILES>  (425) 
[H]c1c([H])c(OC([H])([H])C(=O)N([H])C([H])([H])[H])c2c(c1[H])C([H])([H])C([H])([H])C([H])([H])O2

>  <index>  (425) 
541

>  <∆∆G>  (425) 
-6.796564

>  <∆G_bound>  (425) 
-6.271099

>  <∆G_unbound>  (425) 
0.525465

>  <comRMSD>  (425) 
0.635634

>  <N_constrained_atoms>  (425) 
18.0

>  <N_unconstrained_atoms>  (425) 
0.0

>  <runtime>  (425) 
33.026282

>  <LE>  (425) 
0.377587

>  <percent_hybrid>  (425) 
34.0

>  <dist>  (425) 
6.0

>  <ecfp4>  (425) 
0.136364

>  <daylight>  (425) 
0.168367

>  <topodist>  (425) 
1.0

>  <mces>  (425) 
17.0

>  <tdn>  (425) 
1.0

>  <tup>  (425) 
0.0

>  <rdn>  (425) 
0.0

>  <rup>  (425) 
0.0

>  <ldn>  (425) 
0.0

>  <lup>  (425) 
0.0

>  <mut>  (425) 
1.0

>  <maj>  (425) 
1.0

>  <min>  (425) 
0.0

>  <hyb>  (425) 
4.0

>  <sub>  (425) 
1.0

>  <query_index>  (425) 
160.0

>  <max_hit_Tanimoto>  (425) 
0.306595

>  <largest_ring>  (425) 
6

>  <N_interactions_kept>  (425) 
1.0

>  <N_interactions_lost>  (425) 
2.0

>  <interaction_uniqueness_metric>  (425) 
0.106036

>  <ad_hoc_penalty>  (425) 
-18.53218

>  <N_rotatable_bonds>  (425) 
4

>  <N_HA>  (425) 
16

>  <cluster>  (425) 
5723

>  <N_interactions>  (425) 
6

>  <Enamine>  (425) 
1

>  <Mcule>  (425) 
0

>  <N_PAINS>  (425) 
0

>  <UFF_Gibbs>  (425) 
94.157194

>  <strain_per_HA>  (425) 
5.884825

>  <saltbridge:HIS:51>  (425) 
0

>  <pistack:HIS:51>  (425) 
0

>  <hydroph_interaction:HIS:51>  (425) 
0

>  <hbond:ALA:132>  (425) 
0

>  <hbond:SER:135>  (425) 
0

>  <hydroph_interaction:TYR:150>  (425) 
1

>  <pistack:TYR:161>  (425) 
0

>  <hydroph_interaction:TYR:161>  (425) 
2

>  <hydroph_interaction:ASP:83>  (425) 
0

>  <hbond:TYR:130>  (425) 
0

>  <hydroph_interaction:ALA:132>  (425) 
1

>  <hbond:HIS:51>  (425) 
0

>  <hbond:ASP:129>  (425) 
2

>  <hbond:TYR:150>  (425) 
0

>  <hbond:GLY:151>  (425) 
0

>  <hbond:TYR:161>  (425) 
0

>  <hydroph_interaction:TYR:130>  (425) 
0

>  <hydroph_interaction:PRO:131>  (425) 
0

>  <hydroph_interaction:ASP:129>  (425) 
0

>  <saltbridge:ASP:75>  (425) 
0

>  <saltbridge:ASP:83>  (425) 
0

>  <hydroph_interaction:ASN:152>  (425) 
0

>  <halogenbond:TYR:150>  (425) 
0

>  <hbond:ASP:83>  (425) 
0

>  <hydroph_interaction:VAL:155>  (425) 
0

>  <pication:TYR:161>  (425) 
0

>  <hbond:PRO:131>  (425) 
0

>  <hbond:LEU:128>  (425) 
0

>  <saltbridge:ASP:129>  (425) 
0

>  <hbond:THR:134>  (425) 
0

>  <pication:HIS:51>  (425) 
0

>  <hbond:SER:81>  (425) 
0

>  <hbond:GLY:159>  (425) 
0

>  <hydroph_interaction:PRO:101>  (425) 
0

>  <hydroph_interaction:THR:134>  (425) 
0

>  <hbond:GLY:82>  (425) 
0

>  <hydroph_interaction:GLU:104>  (425) 
0

>  <hydroph_interaction:VAL:36>  (425) 
0

>  <hydroph_interaction:MET:49>  (425) 
0

>  <halogenbond:GLU:104>  (425) 
0

>  <hydroph_interaction:LYS:107>  (425) 
0

$$$$
MCULE-2070421809
     RDKit          3D

 22 23  0  0  0  0  0  0  0  0999 V2000
   -7.9790    5.0810  -18.2330 C   0  0  0  0  0  0  0  0  0  0  0  0
   -8.3680    5.0960  -16.9410 C   0  0  0  0  0  0  0  0  0  0  0  0
   -9.7110    4.8670  -16.9210 C   0  0  0  0  0  0  0  0  0  0  0  0
  -10.2820    4.7020  -18.0410 O   0  0  0  0  0  0  0  0  0  0  0  0
   -9.2770    4.8150  -19.0070 C   0  0  0  0  0  0  0  0  0  0  0  0
   -6.5450    5.2750  -18.7140 C   0  0  0  0  0  0  0  0  0  0  0  0
   -6.2140    5.3110  -20.0680 C   0  0  0  0  0  0  0  0  0  0  0  0
   -4.9500    5.4590  -20.5490 N   0  0  0  0  0  0  0  0  0  0  0  0
   -3.9840    5.5730  -19.6190 C   0  0  0  0  0  0  0  0  0  0  0  0
   -4.1750    5.5590  -18.2410 C   0  0  0  0  0  0  0  0  0  0  0  0
   -5.4690    5.4100  -17.8130 C   0  0  0  0  0  0  0  0  0  0  0  0
   -5.6080    5.4040  -16.3960 O   0  0  0  0  0  0  0  0  0  0  0  0
   -4.5220    4.9160  -15.6270 C   0  0  0  0  0  0  0  0  0  0  0  0
   -7.7410    5.2520  -16.0690 H   0  0  0  0  0  0  0  0  0  0  0  0
  -10.2950    4.8190  -16.0100 H   0  0  0  0  0  0  0  0  0  0  0  0
   -9.5620    4.7020  -20.0530 H   0  0  0  0  0  0  0  0  0  0  0  0
   -6.9910    5.2120  -20.8320 H   0  0  0  0  0  0  0  0  0  0  0  0
   -2.9390    5.6920  -19.9310 H   0  0  0  0  0  0  0  0  0  0  0  0
   -3.3230    5.6620  -17.5800 H   0  0  0  0  0  0  0  0  0  0  0  0
   -3.9380    5.7390  -15.2010 H   0  0  0  0  0  0  0  0  0  0  0  0
   -4.8720    4.2310  -14.8470 H   0  0  0  0  0  0  0  0  0  0  0  0
   -3.8600    4.3510  -16.2930 H   0  0  0  0  0  0  0  0  0  0  0  0
  1  2  1  0
  2  3  2  0
  3  4  1  0
  4  5  1  0
  1  6  1  0
  6  7  2  0
  7  8  1  0
  8  9  2  0
  9 10  1  0
 10 11  2  0
 11 12  1  0
 12 13  1  0
  1  5  2  0
  6 11  1  0
  2 14  1  0
  3 15  1  0
  5 16  1  0
  7 17  1  0
  9 18  1  0
 10 19  1  0
 13 20  1  0
 13 21  1  0
 13 22  1  0
A    1
 C1 
A    2
 C2 
A    3
 C3 
A    4
 O1 
A    5
 C4 
A    6
 C5 
A    7
 C6 
A    8
 N1 
A    9
 C7 
A   10
 C8 
A   11
 C9 
A   12
 O2 
A   13
 C10
A   14
 H1 
A   15
 H2 
A   16
 H3 
A   17
 H4 
A   18
 H5 
A   19
 H6 
A   20
 H7 
A   21
 H8 
A   22
 H9 
M  END
>  <ref_pdb>  (426) 
x0051_0B

>  <ref_mols>  (426) 
x0680_0B,x0386_0B

>  <original SMILES>  (426) 
[H]c1nc([H])c(-c2c([H])oc([H])c2[H])c(OC([H])([H])[H])c1[H]

>  <index>  (426) 
587

>  <∆∆G>  (426) 
-6.442628

>  <∆G_bound>  (426) 
-6.476257

>  <∆G_unbound>  (426) 
-0.03363

>  <comRMSD>  (426) 
0.574482

>  <N_constrained_atoms>  (426) 
13.0

>  <N_unconstrained_atoms>  (426) 
1.0

>  <runtime>  (426) 
24.401979

>  <LE>  (426) 
0.460188

>  <percent_hybrid>  (426) 
25.0

>  <dist>  (426) 
2.0

>  <ecfp4>  (426) 
0.354167

>  <daylight>  (426) 
0.360544

>  <topodist>  (426) 
1.0

>  <mces>  (426) 
13.0

>  <tdn>  (426) 
0.0

>  <tup>  (426) 
0.0

>  <rdn>  (426) 
0.0

>  <rup>  (426) 
0.0

>  <ldn>  (426) 
0.0

>  <lup>  (426) 
1.0

>  <mut>  (426) 
1.0

>  <maj>  (426) 
1.0

>  <min>  (426) 
0.0

>  <hyb>  (426) 
0.0

>  <sub>  (426) 
0.0

>  <query_index>  (426) 
296.0

>  <max_hit_Tanimoto>  (426) 
0.125

>  <largest_ring>  (426) 
6

>  <N_interactions_kept>  (426) 
3.5

>  <N_interactions_lost>  (426) 
0.5

>  <interaction_uniqueness_metric>  (426) 
0.016266

>  <ad_hoc_penalty>  (426) 
-18.522634

>  <N_rotatable_bonds>  (426) 
3

>  <N_HA>  (426) 
13

>  <cluster>  (426) 
5681

>  <N_interactions>  (426) 
3

>  <Enamine>  (426) 
0

>  <Mcule>  (426) 
1

>  <N_PAINS>  (426) 
0

>  <UFF_Gibbs>  (426) 
56.62232

>  <strain_per_HA>  (426) 
4.355563

>  <saltbridge:HIS:51>  (426) 
0

>  <pistack:HIS:51>  (426) 
0

>  <hydroph_interaction:HIS:51>  (426) 
0

>  <hbond:ALA:132>  (426) 
0

>  <hbond:SER:135>  (426) 
0

>  <hydroph_interaction:TYR:150>  (426) 
0

>  <pistack:TYR:161>  (426) 
0

>  <hydroph_interaction:TYR:161>  (426) 
3

>  <hydroph_interaction:ASP:83>  (426) 
0

>  <hbond:TYR:130>  (426) 
0

>  <hydroph_interaction:ALA:132>  (426) 
0

>  <hbond:HIS:51>  (426) 
0

>  <hbond:ASP:129>  (426) 
0

>  <hbond:TYR:150>  (426) 
0

>  <hbond:GLY:151>  (426) 
0

>  <hbond:TYR:161>  (426) 
0

>  <hydroph_interaction:TYR:130>  (426) 
0

>  <hydroph_interaction:PRO:131>  (426) 
0

>  <hydroph_interaction:ASP:129>  (426) 
0

>  <saltbridge:ASP:75>  (426) 
0

>  <saltbridge:ASP:83>  (426) 
0

>  <hydroph_interaction:ASN:152>  (426) 
0

>  <halogenbond:TYR:150>  (426) 
0

>  <hbond:ASP:83>  (426) 
0

>  <hydroph_interaction:VAL:155>  (426) 
0

>  <pication:TYR:161>  (426) 
0

>  <hbond:PRO:131>  (426) 
0

>  <hbond:LEU:128>  (426) 
0

>  <saltbridge:ASP:129>  (426) 
0

>  <hbond:THR:134>  (426) 
0

>  <pication:HIS:51>  (426) 
0

>  <hbond:SER:81>  (426) 
0

>  <hbond:GLY:159>  (426) 
0

>  <hydroph_interaction:PRO:101>  (426) 
0

>  <hydroph_interaction:THR:134>  (426) 
0

>  <hbond:GLY:82>  (426) 
0

>  <hydroph_interaction:GLU:104>  (426) 
0

>  <hydroph_interaction:VAL:36>  (426) 
0

>  <hydroph_interaction:MET:49>  (426) 
0

>  <halogenbond:GLU:104>  (426) 
0

>  <hydroph_interaction:LYS:107>  (426) 
0

$$$$
JEIPOGBGMIPQHD-UHFFFAOYSA-N
     RDKit          3D

 30 31  0  0  0  0  0  0  0  0999 V2000
   -4.9080    5.7680  -17.6490 C   0  0  0  0  0  0  0  0  0  0  0  0
   -6.0160    6.0260  -16.8280 N   0  0  0  0  0  0  0  0  0  0  0  0
   -7.3520    5.6150  -17.0390 C   0  0  0  0  0  0  0  0  0  0  0  0
   -8.3720    5.5940  -15.9160 C   0  0  0  0  0  0  0  0  0  0  0  0
   -8.1210    5.9780  -14.5450 C   0  0  0  0  0  0  0  0  0  0  0  0
   -7.0430    5.3810  -13.9700 F   0  0  0  0  0  0  0  0  0  0  0  0
   -9.1610    5.6910  -13.6980 F   0  0  0  0  0  0  0  0  0  0  0  0
   -7.9360    7.3190  -14.3760 F   0  0  0  0  0  0  0  0  0  0  0  0
   -9.6630    5.1760  -16.2150 C   0  0  0  0  0  0  0  0  0  0  0  0
  -10.0190    4.7670  -17.6230 C   0  0  0  0  0  0  0  0  0  0  0  0
   -9.0240    4.8050  -18.6310 C   0  0  0  0  0  0  0  0  0  0  0  0
   -7.7350    5.2160  -18.3370 C   0  0  0  0  0  0  0  0  0  0  0  0
   -3.8290    4.8920  -17.3280 O   0  0  0  0  0  0  0  0  0  0  0  0
   -4.8990    6.5640  -18.9700 C   0  0  0  0  0  0  0  0  0  0  0  0
   -6.4480    7.3130  -19.5020 S   0  0  0  0  0  0  0  0  0  0  0  0
   -5.7170    7.7280  -21.1050 C   0  0  0  0  0  0  0  0  0  0  0  0
   -4.6830    6.6390  -21.3970 C   0  0  0  0  0  0  0  0  0  0  0  0
   -4.5900    5.7030  -20.1790 C   0  0  0  0  0  0  0  0  0  0  0  0
   -5.7910    6.3270  -15.8820 H   0  0  0  0  0  0  0  0  0  0  0  0
  -10.4170    5.1460  -15.4310 H   0  0  0  0  0  0  0  0  0  0  0  0
  -11.0260    4.4450  -17.8690 H   0  0  0  0  0  0  0  0  0  0  0  0
   -9.2680    4.5100  -19.6510 H   0  0  0  0  0  0  0  0  0  0  0  0
   -7.0330    5.2150  -19.1640 H   0  0  0  0  0  0  0  0  0  0  0  0
   -4.1600    7.3690  -18.8800 H   0  0  0  0  0  0  0  0  0  0  0  0
   -6.5060    7.7230  -21.8610 H   0  0  0  0  0  0  0  0  0  0  0  0
   -5.2680    8.7210  -21.0840 H   0  0  0  0  0  0  0  0  0  0  0  0
   -4.9600    6.0790  -22.2950 H   0  0  0  0  0  0  0  0  0  0  0  0
   -3.7040    7.0940  -21.5980 H   0  0  0  0  0  0  0  0  0  0  0  0
   -3.5820    5.2770  -20.1030 H   0  0  0  0  0  0  0  0  0  0  0  0
   -5.2940    4.8670  -20.2850 H   0  0  0  0  0  0  0  0  0  0  0  0
  1  2  1  0
  2  3  1  0
  3  4  2  0
  4  5  1  0
  5  6  1  0
  5  7  1  0
  5  8  1  0
  4  9  1  0
  9 10  2  0
 10 11  1  0
 11 12  2  0
  1 13  2  0
  1 14  1  0
 14 15  1  0
 15 16  1  0
 16 17  1  0
 17 18  1  0
 12  3  1  0
 18 14  1  0
  2 19  1  0
  9 20  1  0
 10 21  1  0
 11 22  1  0
 12 23  1  0
 14 24  1  0
 16 25  1  0
 16 26  1  0
 17 27  1  0
 17 28  1  0
 18 29  1  0
 18 30  1  0
A    1
 C1 
A    2
 N1 
A    3
 C2 
A    4
 C3 
A    5
 C4 
A    6
 F1 
A    7
 F2 
A    8
 F3 
A    9
 C5 
A   10
 C6 
A   11
 C7 
A   12
 C8 
A   13
 O1 
A   14
 C9 
A   15
 S1 
A   16
 C10
A   17
 C11
A   18
 C12
A   19
 H1 
A   20
 H2 
A   21
 H3 
A   22
 H4 
A   23
 H5 
A   24
 H6 
A   25
 H7 
A   26
 H8 
A   27
 H9 
A   28
 H10
A   29
 H11
A   30
 H12
M  END
>  <ref_pdb>  (427) 
x0051_0B

>  <ref_mols>  (427) 
x0229_0B,x0917_0B

>  <original SMILES>  (427) 
[H]c1c([H])c([H])c(C(F)(F)F)c(N([H])C(=O)C2([H])SC([H])([H])C([H])([H])C2([H])[H])c1[H]

>  <index>  (427) 
557

>  <∆∆G>  (427) 
-6.500078

>  <∆G_bound>  (427) 
-5.480618

>  <∆G_unbound>  (427) 
1.01946

>  <comRMSD>  (427) 
0.595311

>  <N_constrained_atoms>  (427) 
20.0

>  <N_unconstrained_atoms>  (427) 
0.0

>  <runtime>  (427) 
30.305295

>  <LE>  (427) 
0.325004

>  <percent_hybrid>  (427) 
45.0

>  <dist>  (427) 
3.0

>  <ecfp4>  (427) 
0.311475

>  <daylight>  (427) 
0.446237

>  <topodist>  (427) 
2.0

>  <mces>  (427) 
19.0

>  <tdn>  (427) 
1.0

>  <tup>  (427) 
0.0

>  <rdn>  (427) 
1.0

>  <rup>  (427) 
0.0

>  <ldn>  (427) 
0.0

>  <lup>  (427) 
0.0

>  <mut>  (427) 
1.0

>  <maj>  (427) 
1.0

>  <min>  (427) 
0.0

>  <hyb>  (427) 
0.0

>  <sub>  (427) 
2.0

>  <query_index>  (427) 
181.0

>  <max_hit_Tanimoto>  (427) 
0.367632

>  <largest_ring>  (427) 
6

>  <N_interactions_kept>  (427) 
2.5

>  <N_interactions_lost>  (427) 
1.5

>  <interaction_uniqueness_metric>  (427) 
0.03824

>  <ad_hoc_penalty>  (427) 
-18.431073

>  <N_rotatable_bonds>  (427) 
2

>  <N_HA>  (427) 
18

>  <cluster>  (427) 
5709

>  <N_interactions>  (427) 
4

>  <Enamine>  (427) 
0

>  <Mcule>  (427) 
1

>  <N_PAINS>  (427) 
0

>  <UFF_Gibbs>  (427) 
93.628608

>  <strain_per_HA>  (427) 
5.201589

>  <saltbridge:HIS:51>  (427) 
0

>  <pistack:HIS:51>  (427) 
0

>  <hydroph_interaction:HIS:51>  (427) 
0

>  <hbond:ALA:132>  (427) 
0

>  <hbond:SER:135>  (427) 
0

>  <hydroph_interaction:TYR:150>  (427) 
0

>  <pistack:TYR:161>  (427) 
0

>  <hydroph_interaction:TYR:161>  (427) 
3

>  <hydroph_interaction:ASP:83>  (427) 
0

>  <hbond:TYR:130>  (427) 
0

>  <hydroph_interaction:ALA:132>  (427) 
1

>  <hbond:HIS:51>  (427) 
0

>  <hbond:ASP:129>  (427) 
0

>  <hbond:TYR:150>  (427) 
0

>  <hbond:GLY:151>  (427) 
0

>  <hbond:TYR:161>  (427) 
0

>  <hydroph_interaction:TYR:130>  (427) 
0

>  <hydroph_interaction:PRO:131>  (427) 
0

>  <hydroph_interaction:ASP:129>  (427) 
0

>  <saltbridge:ASP:75>  (427) 
0

>  <saltbridge:ASP:83>  (427) 
0

>  <hydroph_interaction:ASN:152>  (427) 
0

>  <halogenbond:TYR:150>  (427) 
0

>  <hbond:ASP:83>  (427) 
0

>  <hydroph_interaction:VAL:155>  (427) 
0

>  <pication:TYR:161>  (427) 
0

>  <hbond:PRO:131>  (427) 
0

>  <hbond:LEU:128>  (427) 
0

>  <saltbridge:ASP:129>  (427) 
0

>  <hbond:THR:134>  (427) 
0

>  <pication:HIS:51>  (427) 
0

>  <hbond:SER:81>  (427) 
0

>  <hbond:GLY:159>  (427) 
0

>  <hydroph_interaction:PRO:101>  (427) 
0

>  <hydroph_interaction:THR:134>  (427) 
0

>  <hbond:GLY:82>  (427) 
0

>  <hydroph_interaction:GLU:104>  (427) 
0

>  <hydroph_interaction:VAL:36>  (427) 
0

>  <hydroph_interaction:MET:49>  (427) 
0

>  <halogenbond:GLU:104>  (427) 
0

>  <hydroph_interaction:LYS:107>  (427) 
0

$$$$
MVOQNEDHMIZRKT-UHFFFAOYSA-N
     RDKit          3D

 53 56  0  0  0  0  0  0  0  0999 V2000
   -8.4430    6.9390  -14.0930 C   0  0  0  0  0  0  0  0  0  0  0  0
   -7.5380    6.3550  -15.0660 N   0  0  0  0  0  0  0  0  0  0  0  0
   -8.0680    5.7450  -16.3190 C   0  0  0  0  0  0  0  0  0  0  0  0
   -7.2990    5.4740  -17.5220 C   0  0  0  0  0  0  0  0  0  0  0  0
   -7.9400    4.9220  -18.6390 C   0  0  0  0  0  0  0  0  0  0  0  0
   -9.2760    4.6040  -18.6460 C   0  0  0  0  0  0  0  0  0  0  0  0
  -10.0240    4.8330  -17.5150 C   0  0  0  0  0  0  0  0  0  0  0  0
   -9.4350    5.3940  -16.3680 C   0  0  0  0  0  0  0  0  0  0  0  0
   -5.9280    5.6670  -17.8160 N   0  0  0  0  0  0  0  0  0  0  0  0
   -5.0130    5.5000  -16.9290 C   0  0  0  0  0  0  0  0  0  0  0  0
   -3.5690    5.6590  -17.3150 C   0  0  0  0  0  0  0  0  0  0  0  0
   -5.3250    5.1630  -15.5170 C   0  0  0  0  0  0  0  0  0  0  0  0
   -6.0360    6.3820  -14.8980 C   0  0  0  0  0  0  0  0  0  0  0  0
   -5.4670    7.6110  -15.6470 C   0  0  0  0  0  0  0  0  0  0  0  0
   -5.6020    6.4270  -13.4150 C   0  0  0  0  0  0  0  0  0  0  0  0
   -9.0630    8.0060  -14.2070 O   0  0  0  0  0  0  0  0  0  0  0  0
   -8.6090    6.3080  -12.7740 C   0  0  0  0  0  0  0  0  0  0  0  0
   -8.7880    4.9840  -12.7320 N   0  0  0  0  0  0  0  0  0  0  0  0
   -8.9170    4.3590  -11.5130 N   0  0  0  0  0  0  0  0  0  0  0  0
   -8.8710    5.0450  -10.3500 C   0  0  0  0  0  0  0  0  0  0  0  0
   -8.9960    4.3600   -9.1510 N   0  0  0  0  0  0  0  0  0  0  0  0
   -9.1480    2.8970   -9.2140 C   0  0  0  0  0  0  0  0  0  0  0  0
   -9.6710    2.3880   -7.8720 C   0  0  0  0  0  0  0  0  0  0  0  0
   -8.8410    2.7950   -6.7850 O   0  0  0  0  0  0  0  0  0  0  0  0
   -8.7380    4.2180   -6.7070 C   0  0  0  0  0  0  0  0  0  0  0  0
   -8.2210    4.8680   -8.0020 C   0  0  0  0  0  0  0  0  0  0  0  0
   -8.6970    6.4260  -10.3920 C   0  0  0  0  0  0  0  0  0  0  0  0
   -8.5630    7.0730  -11.6180 C   0  0  0  0  0  0  0  0  0  0  0  0
   -7.3500    4.7340  -19.5360 H   0  0  0  0  0  0  0  0  0  0  0  0
   -9.7260    4.1780  -19.5340 H   0  0  0  0  0  0  0  0  0  0  0  0
  -11.0710    4.5780  -17.5240 H   0  0  0  0  0  0  0  0  0  0  0  0
  -10.0700    5.5620  -15.4990 H   0  0  0  0  0  0  0  0  0  0  0  0
   -3.2910    6.7140  -17.2480 H   0  0  0  0  0  0  0  0  0  0  0  0
   -3.4030    5.3060  -18.3370 H   0  0  0  0  0  0  0  0  0  0  0  0
   -2.9410    5.0770  -16.6350 H   0  0  0  0  0  0  0  0  0  0  0  0
   -4.4010    4.9040  -14.9840 H   0  0  0  0  0  0  0  0  0  0  0  0
   -5.9560    4.2740  -15.4840 H   0  0  0  0  0  0  0  0  0  0  0  0
   -5.7480    8.5420  -15.1420 H   0  0  0  0  0  0  0  0  0  0  0  0
   -4.3730    7.5730  -15.6910 H   0  0  0  0  0  0  0  0  0  0  0  0
   -5.8190    7.6920  -16.6740 H   0  0  0  0  0  0  0  0  0  0  0  0
   -5.9030    5.5150  -12.8860 H   0  0  0  0  0  0  0  0  0  0  0  0
   -4.5210    6.4810  -13.2870 H   0  0  0  0  0  0  0  0  0  0  0  0
   -6.0500    7.2810  -12.8960 H   0  0  0  0  0  0  0  0  0  0  0  0
   -8.1640    2.4550   -9.4170 H   0  0  0  0  0  0  0  0  0  0  0  0
   -9.8430    2.5700   -9.9980 H   0  0  0  0  0  0  0  0  0  0  0  0
   -9.7230    1.3050   -7.8750 H   0  0  0  0  0  0  0  0  0  0  0  0
  -10.6860    2.7520   -7.6840 H   0  0  0  0  0  0  0  0  0  0  0  0
   -9.7350    4.6030   -6.4590 H   0  0  0  0  0  0  0  0  0  0  0  0
   -8.0750    4.4540   -5.8680 H   0  0  0  0  0  0  0  0  0  0  0  0
   -8.3240    5.9580   -7.9250 H   0  0  0  0  0  0  0  0  0  0  0  0
   -7.1590    4.6200   -8.1200 H   0  0  0  0  0  0  0  0  0  0  0  0
   -8.6600    7.0100   -9.4780 H   0  0  0  0  0  0  0  0  0  0  0  0
   -8.4220    8.1480  -11.6710 H   0  0  0  0  0  0  0  0  0  0  0  0
  1  2  1  0
  2  3  1  0
  3  4  1  0
  4  5  2  0
  5  6  1  0
  6  7  2  0
  7  8  1  0
  4  9  1  0
  9 10  2  0
 10 11  1  0
 10 12  1  0
 12 13  1  0
 13 14  1  0
 13 15  1  0
  1 16  2  0
  1 17  1  0
 17 18  2  0
 18 19  1  0
 19 20  2  0
 20 21  1  0
 21 22  1  0
 22 23  1  0
 23 24  1  0
 24 25  1  0
 25 26  1  0
 20 27  1  0
 27 28  2  0
 13  2  1  0
  8  3  2  0
 28 17  1  0
 26 21  1  0
  5 29  1  0
  6 30  1  0
  7 31  1  0
  8 32  1  0
 11 33  1  0
 11 34  1  0
 11 35  1  0
 12 36  1  0
 12 37  1  0
 14 38  1  0
 14 39  1  0
 14 40  1  0
 15 41  1  0
 15 42  1  0
 15 43  1  0
 22 44  1  0
 22 45  1  0
 23 46  1  0
 23 47  1  0
 25 48  1  0
 25 49  1  0
 26 50  1  0
 26 51  1  0
 27 52  1  0
 28 53  1  0
A    1
 C1 
A    2
 N1 
A    3
 C2 
A    4
 C3 
A    5
 C4 
A    6
 C5 
A    7
 C6 
A    8
 C7 
A    9
 N2 
A   10
 C8 
A   11
 C9 
A   12
 C10
A   13
 C11
A   14
 C12
A   15
 C13
A   16
 O1 
A   17
 C14
A   18
 N3 
A   19
 N4 
A   20
 C15
A   21
 N5 
A   22
 C16
A   23
 C17
A   24
 O2 
A   25
 C18
A   26
 C19
A   27
 C20
A   28
 C21
A   29
 H1 
A   30
 H2 
A   31
 H3 
A   32
 H4 
A   33
 H5 
A   34
 H6 
A   35
 H7 
A   36
 H8 
A   37
 H9 
A   38
 H10
A   39
 H11
A   40
 H12
A   41
 H13
A   42
 H14
A   43
 H15
A   44
 H16
A   45
 H17
A   46
 H18
A   47
 H19
A   48
 H20
A   49
 H21
A   50
 H22
A   51
 H23
A   52
 H24
A   53
 H25
M  END
>  <ref_pdb>  (428) 
x0051_0B

>  <ref_mols>  (428) 
x0089_0B,x0404_0B

>  <original SMILES>  (428) 
[H]c1c(C(=O)N2c3c([H])c([H])c([H])c([H])c3N=C(C([H])([H])[H])C([H])([H])C2(C([H])([H])[H])C([H])([H])[H])nnc(N2C([H])([H])C([H])([H])OC([H])([H])C2([H])[H])c1[H]

>  <index>  (428) 
857

>  <∆∆G>  (428) 
-7.39488

>  <∆G_bound>  (428) 
-7.164389

>  <∆G_unbound>  (428) 
0.230491

>  <comRMSD>  (428) 
0.86652

>  <N_constrained_atoms>  (428) 
24.0

>  <N_unconstrained_atoms>  (428) 
6.0

>  <runtime>  (428) 
72.081738

>  <LE>  (428) 
0.246496

>  <percent_hybrid>  (428) 
38.0

>  <dist>  (428) 
12.0

>  <ecfp4>  (428) 
0.180851

>  <daylight>  (428) 
0.185075

>  <topodist>  (428) 
4.0

>  <mces>  (428) 
30.0

>  <tdn>  (428) 
1.0

>  <tup>  (428) 
0.0

>  <rdn>  (428) 
1.0

>  <rup>  (428) 
1.0

>  <ldn>  (428) 
1.0

>  <lup>  (428) 
0.0

>  <mut>  (428) 
6.0

>  <maj>  (428) 
6.0

>  <min>  (428) 
0.0

>  <hyb>  (428) 
2.0

>  <sub>  (428) 
2.0

>  <query_index>  (428) 
3.0

>  <max_hit_Tanimoto>  (428) 
0.18859

>  <largest_ring>  (428) 
7

>  <N_interactions_kept>  (428) 
2.5

>  <N_interactions_lost>  (428) 
2.0

>  <interaction_uniqueness_metric>  (428) 
0.082184

>  <ad_hoc_penalty>  (428) 
-18.412034

>  <N_rotatable_bonds>  (428) 
5

>  <N_HA>  (428) 
28

>  <cluster>  (428) 
5434

>  <N_interactions>  (428) 
6

>  <Enamine>  (428) 
0

>  <Mcule>  (428) 
1

>  <N_PAINS>  (428) 
0

>  <UFF_Gibbs>  (428) 
67.336419

>  <strain_per_HA>  (428) 
2.404872

>  <saltbridge:HIS:51>  (428) 
0

>  <pistack:HIS:51>  (428) 
1

>  <hydroph_interaction:HIS:51>  (428) 
0

>  <hbond:ALA:132>  (428) 
0

>  <hbond:SER:135>  (428) 
0

>  <hydroph_interaction:TYR:150>  (428) 
1

>  <pistack:TYR:161>  (428) 
0

>  <hydroph_interaction:TYR:161>  (428) 
3

>  <hydroph_interaction:ASP:83>  (428) 
0

>  <hbond:TYR:130>  (428) 
0

>  <hydroph_interaction:ALA:132>  (428) 
1

>  <hbond:HIS:51>  (428) 
0

>  <hbond:ASP:129>  (428) 
0

>  <hbond:TYR:150>  (428) 
0

>  <hbond:GLY:151>  (428) 
0

>  <hbond:TYR:161>  (428) 
0

>  <hydroph_interaction:TYR:130>  (428) 
0

>  <hydroph_interaction:PRO:131>  (428) 
0

>  <hydroph_interaction:ASP:129>  (428) 
0

>  <saltbridge:ASP:75>  (428) 
0

>  <saltbridge:ASP:83>  (428) 
0

>  <hydroph_interaction:ASN:152>  (428) 
0

>  <halogenbond:TYR:150>  (428) 
0

>  <hbond:ASP:83>  (428) 
0

>  <hydroph_interaction:VAL:155>  (428) 
0

>  <pication:TYR:161>  (428) 
0

>  <hbond:PRO:131>  (428) 
0

>  <hbond:LEU:128>  (428) 
0

>  <saltbridge:ASP:129>  (428) 
0

>  <hbond:THR:134>  (428) 
0

>  <pication:HIS:51>  (428) 
0

>  <hbond:SER:81>  (428) 
0

>  <hbond:GLY:159>  (428) 
0

>  <hydroph_interaction:PRO:101>  (428) 
0

>  <hydroph_interaction:THR:134>  (428) 
0

>  <hbond:GLY:82>  (428) 
0

>  <hydroph_interaction:GLU:104>  (428) 
0

>  <hydroph_interaction:VAL:36>  (428) 
0

>  <hydroph_interaction:MET:49>  (428) 
0

>  <halogenbond:GLU:104>  (428) 
0

>  <hydroph_interaction:LYS:107>  (428) 
0

$$$$
MCULE-2394264797
     RDKit          3D

 29 30  0  0  0  0  0  0  0  0999 V2000
   -6.2550    5.1530  -20.9290 C   0  0  0  0  0  0  0  0  0  0  0  0
   -5.5760    5.8450  -19.7920 C   0  0  0  0  0  0  0  0  0  0  0  0
   -6.2850    6.2010  -18.6420 C   0  0  0  0  0  0  0  0  0  0  0  0
   -7.6060    5.6330  -18.2560 C   0  0  0  0  0  0  0  0  0  0  0  0
   -7.9680    5.5640  -16.7790 C   0  0  0  0  0  0  0  0  0  0  0  0
   -9.5280    4.9230  -16.5510 S   0  0  0  0  0  0  0  0  0  0  0  0
   -9.7600    4.6990  -18.2400 C   0  0  0  0  0  0  0  0  0  0  0  0
   -8.6830    5.1080  -19.0430 C   0  0  0  0  0  0  0  0  0  0  0  0
   -7.0920    5.9920  -15.7570 C   0  0  0  0  0  0  0  0  0  0  0  0
   -5.8670    6.5120  -16.1950 C   0  0  0  0  0  0  0  0  0  0  0  0
   -5.4760    5.8660  -17.4660 N   0  0  0  0  0  0  0  0  0  0  0  0
   -4.0670    5.5430  -17.5330 C   0  0  0  0  0  0  0  0  0  0  0  0
   -3.6040    4.5090  -16.5670 C   0  0  0  0  0  0  0  0  0  0  0  0
   -2.5900    5.1180  -15.2590 Cl  0  0  0  0  0  0  0  0  0  0  0  0
   -3.2400    6.1500  -18.4460 O   0  0  0  0  0  0  0  0  0  0  0  0
   -7.2100    4.6540  -20.8680 H   0  0  0  0  0  0  0  0  0  0  0  0
   -6.3500    5.8770  -21.7390 H   0  0  0  0  0  0  0  0  0  0  0  0
   -5.5550    4.3950  -21.2920 H   0  0  0  0  0  0  0  0  0  0  0  0
   -4.7050    5.2520  -19.5010 H   0  0  0  0  0  0  0  0  0  0  0  0
   -5.1570    6.7780  -20.1940 H   0  0  0  0  0  0  0  0  0  0  0  0
   -6.3680    7.2910  -18.6840 H   0  0  0  0  0  0  0  0  0  0  0  0
  -10.6680    4.2780  -18.6680 H   0  0  0  0  0  0  0  0  0  0  0  0
   -8.7150    5.0210  -20.1290 H   0  0  0  0  0  0  0  0  0  0  0  0
   -6.9380    5.2300  -14.9940 H   0  0  0  0  0  0  0  0  0  0  0  0
   -7.6860    6.7030  -15.1750 H   0  0  0  0  0  0  0  0  0  0  0  0
   -5.0430    6.3870  -15.5030 H   0  0  0  0  0  0  0  0  0  0  0  0
   -5.8710    7.5790  -16.4200 H   0  0  0  0  0  0  0  0  0  0  0  0
   -4.4610    4.0530  -16.0720 H   0  0  0  0  0  0  0  0  0  0  0  0
   -3.0480    3.7280  -17.0880 H   0  0  0  0  0  0  0  0  0  0  0  0
  1  2  1  0
  2  3  1  0
  3  4  1  0
  4  5  2  0
  5  6  1  0
  6  7  1  0
  7  8  2  0
  5  9  1  0
  9 10  1  0
 10 11  1  0
 11 12  1  0
 12 13  1  0
 13 14  1  0
 12 15  2  0
 11  3  1  0
  8  4  1  0
  1 16  1  0
  1 17  1  0
  1 18  1  0
  2 19  1  0
  2 20  1  0
  3 21  1  0
  7 22  1  0
  8 23  1  0
  9 24  1  0
  9 25  1  0
 10 26  1  0
 10 27  1  0
 13 28  1  0
 13 29  1  0
A    1
 C1 
A    2
 C2 
A    3
 C3 
A    4
 C4 
A    5
 C5 
A    6
 S1 
A    7
 C6 
A    8
 C7 
A    9
 C8 
A   10
 C9 
A   11
 N1 
A   12
 C10
A   13
 C11
A   14
CL1 
A   15
 O1 
A   16
 H1 
A   17
 H2 
A   18
 H3 
A   19
 H4 
A   20
 H5 
A   21
 H6 
A   22
 H7 
A   23
 H8 
A   24
 H9 
A   25
 H10
A   26
 H11
A   27
 H12
A   28
 H13
A   29
 H14
M  END
>  <ref_pdb>  (429) 
x0051_0B

>  <ref_mols>  (429) 
x0472_0B,x0227_0B

>  <original SMILES>  (429) 
[H]c1sc2c(c1[H])C([H])(C([H])([H])C([H])([H])[H])N(C(=O)C([H])([H])Cl)C([H])([H])C2([H])[H]

>  <index>  (429) 
283

>  <∆∆G>  (429) 
-7.385817

>  <∆G_bound>  (429) 
-7.365469

>  <∆G_unbound>  (429) 
0.020348

>  <comRMSD>  (429) 
0.745016

>  <N_constrained_atoms>  (429) 
18.0

>  <N_unconstrained_atoms>  (429) 
0.0

>  <runtime>  (429) 
25.929229

>  <LE>  (429) 
0.410323

>  <percent_hybrid>  (429) 
50.0

>  <dist>  (429) 
4.0

>  <ecfp4>  (429) 
0.396226

>  <daylight>  (429) 
0.666667

>  <topodist>  (429) 
0.0

>  <mces>  (429) 
16.0

>  <tdn>  (429) 
0.0

>  <tup>  (429) 
0.0

>  <rdn>  (429) 
0.0

>  <rup>  (429) 
0.0

>  <ldn>  (429) 
0.0

>  <lup>  (429) 
0.0

>  <mut>  (429) 
3.0

>  <maj>  (429) 
3.0

>  <min>  (429) 
0.0

>  <hyb>  (429) 
1.0

>  <sub>  (429) 
0.0

>  <query_index>  (429) 
78.0

>  <max_hit_Tanimoto>  (429) 
0.509827

>  <largest_ring>  (429) 
0

>  <N_interactions_kept>  (429) 
4.5

>  <N_interactions_lost>  (429) 
0.5

>  <interaction_uniqueness_metric>  (429) 
0.035255

>  <ad_hoc_penalty>  (429) 
-18.395207

>  <N_rotatable_bonds>  (429) 
3

>  <N_HA>  (429) 
15

>  <cluster>  (429) 
5957

>  <N_interactions>  (429) 
3

>  <Enamine>  (429) 
0

>  <Mcule>  (429) 
1

>  <N_PAINS>  (429) 
0

>  <UFF_Gibbs>  (429) 
143.657545

>  <strain_per_HA>  (429) 
9.57717

>  <saltbridge:HIS:51>  (429) 
0

>  <pistack:HIS:51>  (429) 
0

>  <hydroph_interaction:HIS:51>  (429) 
0

>  <hbond:ALA:132>  (429) 
0

>  <hbond:SER:135>  (429) 
0

>  <hydroph_interaction:TYR:150>  (429) 
0

>  <pistack:TYR:161>  (429) 
0

>  <hydroph_interaction:TYR:161>  (429) 
2

>  <hydroph_interaction:ASP:83>  (429) 
0

>  <hbond:TYR:130>  (429) 
0

>  <hydroph_interaction:ALA:132>  (429) 
1

>  <hbond:HIS:51>  (429) 
0

>  <hbond:ASP:129>  (429) 
0

>  <hbond:TYR:150>  (429) 
0

>  <hbond:GLY:151>  (429) 
0

>  <hbond:TYR:161>  (429) 
0

>  <hydroph_interaction:TYR:130>  (429) 
0

>  <hydroph_interaction:PRO:131>  (429) 
0

>  <hydroph_interaction:ASP:129>  (429) 
0

>  <saltbridge:ASP:75>  (429) 
0

>  <saltbridge:ASP:83>  (429) 
0

>  <hydroph_interaction:ASN:152>  (429) 
0

>  <halogenbond:TYR:150>  (429) 
0

>  <hbond:ASP:83>  (429) 
0

>  <hydroph_interaction:VAL:155>  (429) 
0

>  <pication:TYR:161>  (429) 
0

>  <hbond:PRO:131>  (429) 
0

>  <hbond:LEU:128>  (429) 
0

>  <saltbridge:ASP:129>  (429) 
0

>  <hbond:THR:134>  (429) 
0

>  <pication:HIS:51>  (429) 
0

>  <hbond:SER:81>  (429) 
0

>  <hbond:GLY:159>  (429) 
0

>  <hydroph_interaction:PRO:101>  (429) 
0

>  <hydroph_interaction:THR:134>  (429) 
0

>  <hbond:GLY:82>  (429) 
0

>  <hydroph_interaction:GLU:104>  (429) 
0

>  <hydroph_interaction:VAL:36>  (429) 
0

>  <hydroph_interaction:MET:49>  (429) 
0

>  <halogenbond:GLU:104>  (429) 
0

>  <hydroph_interaction:LYS:107>  (429) 
0

$$$$
CSSB03496583017
     RDKit          3D

 29 31  0  0  0  0  0  0  0  0999 V2000
   -3.5020    5.5300  -19.6720 C   0  0  0  0  0  0  0  0  0  0  0  0
   -3.7400    5.3200  -18.2140 C   0  0  0  0  0  0  0  0  0  0  0  0
   -5.0430    6.0740  -18.1690 C   0  0  0  0  0  0  0  0  0  0  0  0
   -4.8080    7.5810  -18.1850 C   0  0  0  0  0  0  0  0  0  0  0  0
   -4.7850    8.0170  -19.6050 N   0  0  0  0  0  0  0  0  0  0  0  0
   -5.5320    7.0600  -20.2890 C   0  0  0  0  0  0  0  0  0  0  0  0
   -5.0610    5.7580  -19.7000 C   0  0  0  0  0  0  0  0  0  0  0  0
   -6.1270    5.6210  -17.3240 O   0  0  0  0  0  0  0  0  0  0  0  0
   -7.4180    5.3640  -17.7160 C   0  0  0  0  0  0  0  0  0  0  0  0
   -7.9060    5.2310  -19.0130 C   0  0  0  0  0  0  0  0  0  0  0  0
   -9.2490    4.9540  -19.2500 C   0  0  0  0  0  0  0  0  0  0  0  0
  -10.2190    4.7940  -18.0850 C   0  0  0  0  0  0  0  0  0  0  0  0
   -9.6270    4.9480  -16.8120 C   0  0  0  0  0  0  0  0  0  0  0  0
   -8.2780    5.2230  -16.6300 C   0  0  0  0  0  0  0  0  0  0  0  0
   -2.8790    6.4080  -19.8810 H   0  0  0  0  0  0  0  0  0  0  0  0
   -3.0880    4.6570  -20.1690 H   0  0  0  0  0  0  0  0  0  0  0  0
   -3.8540    4.2770  -17.9170 H   0  0  0  0  0  0  0  0  0  0  0  0
   -2.9680    5.8140  -17.6100 H   0  0  0  0  0  0  0  0  0  0  0  0
   -3.8380    7.8170  -17.7330 H   0  0  0  0  0  0  0  0  0  0  0  0
   -5.5200    8.2330  -17.6870 H   0  0  0  0  0  0  0  0  0  0  0  0
   -5.2620    8.9150  -19.6770 H   0  0  0  0  0  0  0  0  0  0  0  0
   -5.2960    7.1040  -21.3560 H   0  0  0  0  0  0  0  0  0  0  0  0
   -6.6170    7.2060  -20.1810 H   0  0  0  0  0  0  0  0  0  0  0  0
   -5.6320    4.8740  -20.0100 H   0  0  0  0  0  0  0  0  0  0  0  0
   -7.2680    5.3360  -19.8790 H   0  0  0  0  0  0  0  0  0  0  0  0
   -9.6070    4.8550  -20.2680 H   0  0  0  0  0  0  0  0  0  0  0  0
  -11.2750    4.5790  -18.2240 H   0  0  0  0  0  0  0  0  0  0  0  0
  -10.3240    4.8270  -15.9780 H   0  0  0  0  0  0  0  0  0  0  0  0
   -7.8840    5.3280  -15.6150 H   0  0  0  0  0  0  0  0  0  0  0  0
  1  2  1  0
  2  3  1  0
  3  4  1  0
  4  5  1  0
  5  6  1  0
  6  7  1  0
  3  8  1  0
  8  9  1  0
  9 10  2  0
 10 11  1  0
 11 12  2  0
 12 13  1  0
 13 14  2  0
  7  1  1  0
  7  3  1  0
 14  9  1  0
  1 15  1  0
  1 16  1  0
  2 17  1  0
  2 18  1  0
  4 19  1  0
  4 20  1  0
  5 21  1  0
  6 22  1  0
  6 23  1  0
  7 24  1  0
 10 25  1  0
 11 26  1  0
 12 27  1  0
 13 28  1  0
 14 29  1  0
A    1
 C1 
A    2
 C2 
A    3
 C3 
A    4
 C4 
A    5
 N1 
A    6
 C5 
A    7
 C6 
A    8
 O1 
A    9
 C7 
A   10
 C8 
A   11
 C9 
A   12
 C10
A   13
 C11
A   14
 C12
A   15
 H1 
A   16
 H2 
A   17
 H3 
A   18
 H4 
A   19
 H5 
A   20
 H6 
A   21
 H7 
A   22
 H8 
A   23
 H9 
A   24
 H10
A   25
 H11
A   26
 H12
A   27
 H13
A   28
 H14
A   29
 H15
M  END
>  <ref_pdb>  (430) 
x0051_0B

>  <ref_mols>  (430) 
x0490_0B,x0945_0B

>  <original SMILES>  (430) 
[H]c1c([H])c([H])c(OC23C([H])([H])N([H])C([H])([H])C2([H])C([H])([H])C3([H])[H])c([H])c1[H]

>  <index>  (430) 
456

>  <∆∆G>  (430) 
-5.735578

>  <∆G_bound>  (430) 
-5.616547

>  <∆G_unbound>  (430) 
0.119031

>  <comRMSD>  (430) 
0.820141

>  <N_constrained_atoms>  (430) 
17.0

>  <N_unconstrained_atoms>  (430) 
1.0

>  <runtime>  (430) 
32.96418

>  <LE>  (430) 
0.318643

>  <percent_hybrid>  (430) 
34.0

>  <dist>  (430) 
4.0

>  <ecfp4>  (430) 
0.185185

>  <daylight>  (430) 
0.161972

>  <topodist>  (430) 
3.0

>  <mces>  (430) 
15.0

>  <tdn>  (430) 
1.0

>  <tup>  (430) 
0.0

>  <rdn>  (430) 
0.0

>  <rup>  (430) 
1.0

>  <ldn>  (430) 
1.0

>  <lup>  (430) 
0.0

>  <mut>  (430) 
1.0

>  <maj>  (430) 
1.0

>  <min>  (430) 
0.0

>  <hyb>  (430) 
0.0

>  <sub>  (430) 
3.0

>  <query_index>  (430) 
227.0

>  <max_hit_Tanimoto>  (430) 
0.152924

>  <largest_ring>  (430) 
0

>  <N_interactions_kept>  (430) 
1.0

>  <N_interactions_lost>  (430) 
1.5

>  <interaction_uniqueness_metric>  (430) 
0.034305

>  <ad_hoc_penalty>  (430) 
-18.395058

>  <N_rotatable_bonds>  (430) 
2

>  <N_HA>  (430) 
14

>  <cluster>  (430) 
5804

>  <N_interactions>  (430) 
5

>  <Enamine>  (430) 
1

>  <Mcule>  (430) 
0

>  <N_PAINS>  (430) 
0

>  <UFF_Gibbs>  (430) 
91.709832

>  <strain_per_HA>  (430) 
6.550702

>  <saltbridge:HIS:51>  (430) 
0

>  <pistack:HIS:51>  (430) 
0

>  <hydroph_interaction:HIS:51>  (430) 
0

>  <hbond:ALA:132>  (430) 
0

>  <hbond:SER:135>  (430) 
0

>  <hydroph_interaction:TYR:150>  (430) 
1

>  <pistack:TYR:161>  (430) 
0

>  <hydroph_interaction:TYR:161>  (430) 
4

>  <hydroph_interaction:ASP:83>  (430) 
0

>  <hbond:TYR:130>  (430) 
0

>  <hydroph_interaction:ALA:132>  (430) 
0

>  <hbond:HIS:51>  (430) 
0

>  <hbond:ASP:129>  (430) 
0

>  <hbond:TYR:150>  (430) 
0

>  <hbond:GLY:151>  (430) 
0

>  <hbond:TYR:161>  (430) 
0

>  <hydroph_interaction:TYR:130>  (430) 
0

>  <hydroph_interaction:PRO:131>  (430) 
0

>  <hydroph_interaction:ASP:129>  (430) 
0

>  <saltbridge:ASP:75>  (430) 
0

>  <saltbridge:ASP:83>  (430) 
0

>  <hydroph_interaction:ASN:152>  (430) 
0

>  <halogenbond:TYR:150>  (430) 
0

>  <hbond:ASP:83>  (430) 
0

>  <hydroph_interaction:VAL:155>  (430) 
0

>  <pication:TYR:161>  (430) 
0

>  <hbond:PRO:131>  (430) 
0

>  <hbond:LEU:128>  (430) 
0

>  <saltbridge:ASP:129>  (430) 
0

>  <hbond:THR:134>  (430) 
0

>  <pication:HIS:51>  (430) 
0

>  <hbond:SER:81>  (430) 
0

>  <hbond:GLY:159>  (430) 
0

>  <hydroph_interaction:PRO:101>  (430) 
0

>  <hydroph_interaction:THR:134>  (430) 
0

>  <hbond:GLY:82>  (430) 
0

>  <hydroph_interaction:GLU:104>  (430) 
0

>  <hydroph_interaction:VAL:36>  (430) 
0

>  <hydroph_interaction:MET:49>  (430) 
0

>  <halogenbond:GLU:104>  (430) 
0

>  <hydroph_interaction:LYS:107>  (430) 
0

$$$$
MCULE-1397610408
     RDKit          3D

 21 22  0  0  0  0  0  0  0  0999 V2000
   -7.9320    5.0680  -18.1940 N   0  0  0  0  0  0  0  0  0  0  0  0
   -8.4400    5.0690  -16.9480 C   0  0  0  0  0  0  0  0  0  0  0  0
   -9.6990    4.8870  -16.8880 C   0  0  0  0  0  0  0  0  0  0  0  0
  -10.1670    4.7400  -18.1750 C   0  0  0  0  0  0  0  0  0  0  0  0
   -9.0240    4.8540  -19.0460 N   0  0  0  0  0  0  0  0  0  0  0  0
   -6.5450    5.2310  -18.6580 C   0  0  0  0  0  0  0  0  0  0  0  0
   -6.2560    5.2950  -20.0240 C   0  0  0  0  0  0  0  0  0  0  0  0
   -5.0060    5.4280  -20.5310 N   0  0  0  0  0  0  0  0  0  0  0  0
   -3.9960    5.4970  -19.6400 C   0  0  0  0  0  0  0  0  0  0  0  0
   -4.1770    5.4460  -18.2640 C   0  0  0  0  0  0  0  0  0  0  0  0
   -2.7680    5.5500  -17.2660 Cl  0  0  0  0  0  0  0  0  0  0  0  0
   -5.4600    5.3170  -17.7710 C   0  0  0  0  0  0  0  0  0  0  0  0
   -5.5630    5.2760  -16.2370 C   0  0  0  0  0  0  0  0  0  0  0  0
   -7.7890    5.2150  -16.0920 H   0  0  0  0  0  0  0  0  0  0  0  0
  -10.2960    4.8530  -15.9860 H   0  0  0  0  0  0  0  0  0  0  0  0
  -11.1970    4.5710  -18.4780 H   0  0  0  0  0  0  0  0  0  0  0  0
   -7.0300    5.2380  -20.7840 H   0  0  0  0  0  0  0  0  0  0  0  0
   -3.0050    5.5980  -20.0780 H   0  0  0  0  0  0  0  0  0  0  0  0
   -6.3070    4.5610  -15.8770 H   0  0  0  0  0  0  0  0  0  0  0  0
   -5.8780    6.2430  -15.8320 H   0  0  0  0  0  0  0  0  0  0  0  0
   -4.5880    5.0210  -15.8050 H   0  0  0  0  0  0  0  0  0  0  0  0
  1  2  1  0
  2  3  2  0
  3  4  1  0
  4  5  2  0
  1  6  1  0
  6  7  2  0
  7  8  1  0
  8  9  2  0
  9 10  1  0
 10 11  1  0
 10 12  2  0
 12 13  1  0
  5  1  1  0
 12  6  1  0
  2 14  1  0
  3 15  1  0
  4 16  1  0
  7 17  1  0
  9 18  1  0
 13 19  1  0
 13 20  1  0
 13 21  1  0
A    1
 N1 
A    2
 C1 
A    3
 C2 
A    4
 C3 
A    5
 N2 
A    6
 C4 
A    7
 C5 
A    8
 N3 
A    9
 C6 
A   10
 C7 
A   11
CL1 
A   12
 C8 
A   13
 C9 
A   14
 H1 
A   15
 H2 
A   16
 H3 
A   17
 H4 
A   18
 H5 
A   19
 H6 
A   20
 H7 
A   21
 H8 
M  END
>  <ref_pdb>  (431) 
x0051_0B

>  <ref_mols>  (431) 
x0680_0B,x0386_0B

>  <original SMILES>  (431) 
[H]c1nn(-c2c([H])nc([H])c(Cl)c2C([H])([H])[H])c([H])c1[H]

>  <index>  (431) 
481

>  <∆∆G>  (431) 
-5.927024

>  <∆G_bound>  (431) 
-6.029663

>  <∆G_unbound>  (431) 
-0.102639

>  <comRMSD>  (431) 
0.559883

>  <N_constrained_atoms>  (431) 
13.0

>  <N_unconstrained_atoms>  (431) 
1.0

>  <runtime>  (431) 
21.29222

>  <LE>  (431) 
0.423359

>  <percent_hybrid>  (431) 
25.0

>  <dist>  (431) 
3.0

>  <ecfp4>  (431) 
0.160714

>  <daylight>  (431) 
0.184211

>  <topodist>  (431) 
1.0

>  <mces>  (431) 
13.0

>  <tdn>  (431) 
0.0

>  <tup>  (431) 
1.0

>  <rdn>  (431) 
0.0

>  <rup>  (431) 
0.0

>  <ldn>  (431) 
0.0

>  <lup>  (431) 
0.0

>  <mut>  (431) 
2.0

>  <maj>  (431) 
2.0

>  <min>  (431) 
0.0

>  <hyb>  (431) 
0.0

>  <sub>  (431) 
1.0

>  <query_index>  (431) 
296.0

>  <max_hit_Tanimoto>  (431) 
0.146184

>  <largest_ring>  (431) 
0

>  <N_interactions_kept>  (431) 
3.5

>  <N_interactions_lost>  (431) 
0.5

>  <interaction_uniqueness_metric>  (431) 
0.016266

>  <ad_hoc_penalty>  (431) 
-18.359023

>  <N_rotatable_bonds>  (431) 
2

>  <N_HA>  (431) 
13

>  <cluster>  (431) 
5780

>  <N_interactions>  (431) 
3

>  <Enamine>  (431) 
0

>  <Mcule>  (431) 
1

>  <N_PAINS>  (431) 
0

>  <UFF_Gibbs>  (431) 
77.916095

>  <strain_per_HA>  (431) 
5.993546

>  <saltbridge:HIS:51>  (431) 
0

>  <pistack:HIS:51>  (431) 
0

>  <hydroph_interaction:HIS:51>  (431) 
0

>  <hbond:ALA:132>  (431) 
0

>  <hbond:SER:135>  (431) 
0

>  <hydroph_interaction:TYR:150>  (431) 
0

>  <pistack:TYR:161>  (431) 
0

>  <hydroph_interaction:TYR:161>  (431) 
3

>  <hydroph_interaction:ASP:83>  (431) 
0

>  <hbond:TYR:130>  (431) 
0

>  <hydroph_interaction:ALA:132>  (431) 
0

>  <hbond:HIS:51>  (431) 
0

>  <hbond:ASP:129>  (431) 
0

>  <hbond:TYR:150>  (431) 
0

>  <hbond:GLY:151>  (431) 
0

>  <hbond:TYR:161>  (431) 
0

>  <hydroph_interaction:TYR:130>  (431) 
0

>  <hydroph_interaction:PRO:131>  (431) 
0

>  <hydroph_interaction:ASP:129>  (431) 
0

>  <saltbridge:ASP:75>  (431) 
0

>  <saltbridge:ASP:83>  (431) 
0

>  <hydroph_interaction:ASN:152>  (431) 
0

>  <halogenbond:TYR:150>  (431) 
0

>  <hbond:ASP:83>  (431) 
0

>  <hydroph_interaction:VAL:155>  (431) 
0

>  <pication:TYR:161>  (431) 
0

>  <hbond:PRO:131>  (431) 
0

>  <hbond:LEU:128>  (431) 
0

>  <saltbridge:ASP:129>  (431) 
0

>  <hbond:THR:134>  (431) 
0

>  <pication:HIS:51>  (431) 
0

>  <hbond:SER:81>  (431) 
0

>  <hbond:GLY:159>  (431) 
0

>  <hydroph_interaction:PRO:101>  (431) 
0

>  <hydroph_interaction:THR:134>  (431) 
0

>  <hbond:GLY:82>  (431) 
0

>  <hydroph_interaction:GLU:104>  (431) 
0

>  <hydroph_interaction:VAL:36>  (431) 
0

>  <hydroph_interaction:MET:49>  (431) 
0

>  <halogenbond:GLU:104>  (431) 
0

>  <hydroph_interaction:LYS:107>  (431) 
0

$$$$
XMWFGPFHGHTRHG-UHFFFAOYSA-N
     RDKit          3D

 34 35  0  0  0  0  0  0  0  0999 V2000
   -5.4550    5.7050  -17.5500 N   0  0  0  0  0  0  0  0  0  0  0  0
   -4.0580    5.3240  -17.8840 C   0  0  0  0  0  0  0  0  0  0  0  0
   -3.4670    6.0530  -19.0950 C   0  0  0  0  0  0  0  0  0  0  0  0
   -3.1360    5.4490  -16.6430 C   0  0  0  0  0  0  0  0  0  0  0  0
   -3.2970    4.4550  -15.6730 C   0  0  0  0  0  0  0  0  0  0  0  0
   -2.4270    4.4190  -14.5790 C   0  0  0  0  0  0  0  0  0  0  0  0
   -1.7000    4.3640  -13.6790 N   0  0  0  0  0  0  0  0  0  0  0  0
   -6.4500    5.9080  -18.6390 C   0  0  0  0  0  0  0  0  0  0  0  0
   -5.9580    5.3660  -19.9480 C   0  0  0  0  0  0  0  0  0  0  0  0
   -7.7020    5.5040  -18.1890 C   0  0  0  0  0  0  0  0  0  0  0  0
   -8.0410    5.5270  -16.8290 C   0  0  0  0  0  0  0  0  0  0  0  0
   -9.6150    5.0110  -16.5470 S   0  0  0  0  0  0  0  0  0  0  0  0
   -9.9020    4.7230  -18.2080 C   0  0  0  0  0  0  0  0  0  0  0  0
   -8.7900    5.0270  -18.9850 C   0  0  0  0  0  0  0  0  0  0  0  0
   -7.1290    5.9570  -15.7280 C   0  0  0  0  0  0  0  0  0  0  0  0
   -5.7870    6.3750  -16.3050 C   0  0  0  0  0  0  0  0  0  0  0  0
   -4.0700    4.2680  -18.1350 H   0  0  0  0  0  0  0  0  0  0  0  0
   -4.1710    6.8020  -19.4750 H   0  0  0  0  0  0  0  0  0  0  0  0
   -3.2620    5.3680  -19.9240 H   0  0  0  0  0  0  0  0  0  0  0  0
   -2.5350    6.5720  -18.8480 H   0  0  0  0  0  0  0  0  0  0  0  0
   -3.2990    6.4290  -16.1730 H   0  0  0  0  0  0  0  0  0  0  0  0
   -2.0860    5.4250  -16.9590 H   0  0  0  0  0  0  0  0  0  0  0  0
   -4.3190    4.5310  -15.2860 H   0  0  0  0  0  0  0  0  0  0  0  0
   -3.2550    3.4910  -16.1670 H   0  0  0  0  0  0  0  0  0  0  0  0
   -6.5640    6.9830  -18.8150 H   0  0  0  0  0  0  0  0  0  0  0  0
   -5.7970    6.1660  -20.6820 H   0  0  0  0  0  0  0  0  0  0  0  0
   -5.0090    4.8430  -19.8250 H   0  0  0  0  0  0  0  0  0  0  0  0
   -6.6660    4.6560  -20.3890 H   0  0  0  0  0  0  0  0  0  0  0  0
  -10.8610    4.3500  -18.5340 H   0  0  0  0  0  0  0  0  0  0  0  0
   -8.7700    4.9140  -20.0610 H   0  0  0  0  0  0  0  0  0  0  0  0
   -7.5550    6.7920  -15.1610 H   0  0  0  0  0  0  0  0  0  0  0  0
   -6.9870    5.1230  -15.0310 H   0  0  0  0  0  0  0  0  0  0  0  0
   -5.8110    7.4580  -16.4790 H   0  0  0  0  0  0  0  0  0  0  0  0
   -5.0180    6.1870  -15.5450 H   0  0  0  0  0  0  0  0  0  0  0  0
  1  2  1  0
  2  3  1  0
  2  4  1  0
  4  5  1  0
  5  6  1  0
  6  7  3  0
  1  8  1  0
  8  9  1  0
  8 10  1  0
 10 11  2  0
 11 12  1  0
 12 13  1  0
 13 14  2  0
 11 15  1  0
 15 16  1  0
 16  1  1  0
 14 10  1  0
  2 17  1  0
  3 18  1  0
  3 19  1  0
  3 20  1  0
  4 21  1  0
  4 22  1  0
  5 23  1  0
  5 24  1  0
  8 25  1  0
  9 26  1  0
  9 27  1  0
  9 28  1  0
 13 29  1  0
 14 30  1  0
 15 31  1  0
 15 32  1  0
 16 33  1  0
 16 34  1  0
A    1
 N1 
A    2
 C1 
A    3
 C2 
A    4
 C3 
A    5
 C4 
A    6
 C5 
A    7
 N2 
A    8
 C6 
A    9
 C7 
A   10
 C8 
A   11
 C9 
A   12
 S1 
A   13
 C10
A   14
 C11
A   15
 C12
A   16
 C13
A   17
 H1 
A   18
 H2 
A   19
 H3 
A   20
 H4 
A   21
 H5 
A   22
 H6 
A   23
 H7 
A   24
 H8 
A   25
 H9 
A   26
 H10
A   27
 H11
A   28
 H12
A   29
 H13
A   30
 H14
A   31
 H15
A   32
 H16
A   33
 H17
A   34
 H18
M  END
>  <ref_pdb>  (432) 
x0051_0B

>  <ref_mols>  (432) 
x0472_0B,x0386_0B

>  <original SMILES>  (432) 
[H]c1sc2c(c1[H])C([H])(C([H])([H])[H])N(C([H])(C([H])([H])[H])C([H])([H])C([H])([H])C#N)C([H])([H])C2([H])[H]

>  <index>  (432) 
473

>  <∆∆G>  (432) 
-6.830667

>  <∆G_bound>  (432) 
-6.972473

>  <∆G_unbound>  (432) 
-0.141806

>  <comRMSD>  (432) 
0.394657

>  <N_constrained_atoms>  (432) 
14.0

>  <N_unconstrained_atoms>  (432) 
2.0

>  <runtime>  (432) 
26.098632

>  <LE>  (432) 
0.426917

>  <percent_hybrid>  (432) 
13.0

>  <dist>  (432) 
4.0

>  <ecfp4>  (432) 
0.461538

>  <daylight>  (432) 
0.666667

>  <topodist>  (432) 
2.0

>  <mces>  (432) 
15.0

>  <tdn>  (432) 
0.0

>  <tup>  (432) 
0.0

>  <rdn>  (432) 
0.0

>  <rup>  (432) 
0.0

>  <ldn>  (432) 
0.0

>  <lup>  (432) 
2.0

>  <mut>  (432) 
1.0

>  <maj>  (432) 
1.0

>  <min>  (432) 
0.0

>  <hyb>  (432) 
1.0

>  <sub>  (432) 
0.0

>  <query_index>  (432) 
75.0

>  <max_hit_Tanimoto>  (432) 
0.655222

>  <largest_ring>  (432) 
0

>  <N_interactions_kept>  (432) 
2.0

>  <N_interactions_lost>  (432) 
1.0

>  <interaction_uniqueness_metric>  (432) 
0.153242

>  <ad_hoc_penalty>  (432) 
-18.357702

>  <N_rotatable_bonds>  (432) 
5

>  <N_HA>  (432) 
16

>  <cluster>  (432) 
5788

>  <N_interactions>  (432) 
5

>  <Enamine>  (432) 
0

>  <Mcule>  (432) 
1

>  <N_PAINS>  (432) 
0

>  <UFF_Gibbs>  (432) 
122.469674

>  <strain_per_HA>  (432) 
7.654355

>  <saltbridge:HIS:51>  (432) 
0

>  <pistack:HIS:51>  (432) 
0

>  <hydroph_interaction:HIS:51>  (432) 
0

>  <hbond:ALA:132>  (432) 
0

>  <hbond:SER:135>  (432) 
0

>  <hydroph_interaction:TYR:150>  (432) 
0

>  <pistack:TYR:161>  (432) 
0

>  <hydroph_interaction:TYR:161>  (432) 
2

>  <hydroph_interaction:ASP:83>  (432) 
0

>  <hbond:TYR:130>  (432) 
0

>  <hydroph_interaction:ALA:132>  (432) 
1

>  <hbond:HIS:51>  (432) 
0

>  <hbond:ASP:129>  (432) 
0

>  <hbond:TYR:150>  (432) 
0

>  <hbond:GLY:151>  (432) 
0

>  <hbond:TYR:161>  (432) 
0

>  <hydroph_interaction:TYR:130>  (432) 
0

>  <hydroph_interaction:PRO:131>  (432) 
0

>  <hydroph_interaction:ASP:129>  (432) 
0

>  <saltbridge:ASP:75>  (432) 
0

>  <saltbridge:ASP:83>  (432) 
0

>  <hydroph_interaction:ASN:152>  (432) 
0

>  <halogenbond:TYR:150>  (432) 
0

>  <hbond:ASP:83>  (432) 
0

>  <hydroph_interaction:VAL:155>  (432) 
1

>  <pication:TYR:161>  (432) 
1

>  <hbond:PRO:131>  (432) 
0

>  <hbond:LEU:128>  (432) 
0

>  <saltbridge:ASP:129>  (432) 
0

>  <hbond:THR:134>  (432) 
0

>  <pication:HIS:51>  (432) 
0

>  <hbond:SER:81>  (432) 
0

>  <hbond:GLY:159>  (432) 
0

>  <hydroph_interaction:PRO:101>  (432) 
0

>  <hydroph_interaction:THR:134>  (432) 
0

>  <hbond:GLY:82>  (432) 
0

>  <hydroph_interaction:GLU:104>  (432) 
0

>  <hydroph_interaction:VAL:36>  (432) 
0

>  <hydroph_interaction:MET:49>  (432) 
0

>  <halogenbond:GLU:104>  (432) 
0

>  <hydroph_interaction:LYS:107>  (432) 
0

$$$$
MCULE-9445158135
     RDKit          3D

 41 43  0  0  0  0  0  0  0  0999 V2000
   -3.4740    5.4430  -20.6020 C   0  0  0  0  0  0  0  0  0  0  0  0
   -4.9090    5.9060  -20.9320 C   0  0  0  0  0  0  0  0  0  0  0  0
   -5.4840    5.0960  -22.0870 C   0  0  0  0  0  0  0  0  0  0  0  0
   -4.8930    7.4070  -21.2870 C   0  0  0  0  0  0  0  0  0  0  0  0
   -5.7570    5.6870  -19.7000 C   0  0  0  0  0  0  0  0  0  0  0  0
   -7.1610    5.3780  -19.9110 N   0  0  0  0  0  0  0  0  0  0  0  0
   -7.8870    5.2120  -18.8260 C   0  0  0  0  0  0  0  0  0  0  0  0
   -7.2860    5.3350  -17.4760 C   0  0  0  0  0  0  0  0  0  0  0  0
   -8.1340    5.1520  -16.3960 C   0  0  0  0  0  0  0  0  0  0  0  0
   -9.4850    4.8690  -16.6190 C   0  0  0  0  0  0  0  0  0  0  0  0
  -10.0940    4.7410  -17.8730 C   0  0  0  0  0  0  0  0  0  0  0  0
   -9.2340    4.9220  -18.9560 C   0  0  0  0  0  0  0  0  0  0  0  0
   -5.9110    5.6240  -17.3970 C   0  0  0  0  0  0  0  0  0  0  0  0
   -5.2590    5.7380  -16.1460 N   0  0  0  0  0  0  0  0  0  0  0  0
   -5.2470    7.1050  -15.5800 C   0  0  0  0  0  0  0  0  0  0  0  0
   -4.1570    7.2280  -14.5040 C   0  0  0  0  0  0  0  0  0  0  0  0
   -3.8110    5.9420  -13.9370 O   0  0  0  0  0  0  0  0  0  0  0  0
   -3.2780    5.0110  -14.8980 C   0  0  0  0  0  0  0  0  0  0  0  0
   -3.8810    5.2000  -16.2900 C   0  0  0  0  0  0  0  0  0  0  0  0
   -5.1660    5.7990  -18.5010 N   0  0  0  0  0  0  0  0  0  0  0  0
   -3.4090    5.0780  -19.5720 H   0  0  0  0  0  0  0  0  0  0  0  0
   -2.7590    6.2680  -20.6910 H   0  0  0  0  0  0  0  0  0  0  0  0
   -3.1610    4.6560  -21.3000 H   0  0  0  0  0  0  0  0  0  0  0  0
   -6.1090    4.2660  -21.7400 H   0  0  0  0  0  0  0  0  0  0  0  0
   -4.6710    4.6840  -22.6900 H   0  0  0  0  0  0  0  0  0  0  0  0
   -6.1030    5.7190  -22.7410 H   0  0  0  0  0  0  0  0  0  0  0  0
   -5.8840    7.7500  -21.6160 H   0  0  0  0  0  0  0  0  0  0  0  0
   -4.1780    7.6400  -22.0850 H   0  0  0  0  0  0  0  0  0  0  0  0
   -4.6130    7.9870  -20.3990 H   0  0  0  0  0  0  0  0  0  0  0  0
   -7.7440    5.2300  -15.3830 H   0  0  0  0  0  0  0  0  0  0  0  0
  -10.1650    4.7240  -15.7850 H   0  0  0  0  0  0  0  0  0  0  0  0
  -11.1580    4.5170  -18.0050 H   0  0  0  0  0  0  0  0  0  0  0  0
   -9.6390    4.8380  -19.9680 H   0  0  0  0  0  0  0  0  0  0  0  0
   -6.2280    7.2660  -15.1130 H   0  0  0  0  0  0  0  0  0  0  0  0
   -5.1430    7.8820  -16.3470 H   0  0  0  0  0  0  0  0  0  0  0  0
   -3.2440    7.5930  -14.9830 H   0  0  0  0  0  0  0  0  0  0  0  0
   -4.3230    7.8890  -13.6570 H   0  0  0  0  0  0  0  0  0  0  0  0
   -3.4870    4.0070  -14.5350 H   0  0  0  0  0  0  0  0  0  0  0  0
   -2.1890    5.1320  -14.9250 H   0  0  0  0  0  0  0  0  0  0  0  0
   -3.9020    4.2480  -16.8170 H   0  0  0  0  0  0  0  0  0  0  0  0
   -3.2430    5.8910  -16.8560 H   0  0  0  0  0  0  0  0  0  0  0  0
  1  2  1  0
  2  3  1  0
  2  4  1  0
  2  5  1  0
  5  6  2  0
  6  7  1  0
  7  8  2  0
  8  9  1  0
  9 10  2  0
 10 11  1  0
 11 12  2  0
  8 13  1  0
 13 14  1  0
 14 15  1  0
 15 16  1  0
 16 17  1  0
 17 18  1  0
 18 19  1  0
 13 20  2  0
  5 20  1  0
 12  7  1  0
 19 14  1  0
  1 21  1  0
  1 22  1  0
  1 23  1  0
  3 24  1  0
  3 25  1  0
  3 26  1  0
  4 27  1  0
  4 28  1  0
  4 29  1  0
  9 30  1  0
 10 31  1  0
 11 32  1  0
 12 33  1  0
 15 34  1  0
 15 35  1  0
 16 36  1  0
 16 37  1  0
 18 38  1  0
 18 39  1  0
 19 40  1  0
 19 41  1  0
A    1
 C1 
A    2
 C2 
A    3
 C3 
A    4
 C4 
A    5
 C5 
A    6
 N1 
A    7
 C6 
A    8
 C7 
A    9
 C8 
A   10
 C9 
A   11
 C10
A   12
 C11
A   13
 C12
A   14
 N2 
A   15
 C13
A   16
 C14
A   17
 O1 
A   18
 C15
A   19
 C16
A   20
 N3 
A   21
 H1 
A   22
 H2 
A   23
 H3 
A   24
 H4 
A   25
 H5 
A   26
 H6 
A   27
 H7 
A   28
 H8 
A   29
 H9 
A   30
 H10
A   31
 H11
A   32
 H12
A   33
 H13
A   34
 H14
A   35
 H15
A   36
 H16
A   37
 H17
A   38
 H18
A   39
 H19
A   40
 H20
A   41
 H21
M  END
>  <ref_pdb>  (433) 
x0051_0B

>  <ref_mols>  (433) 
x0101_0B,x0429_0B

>  <original SMILES>  (433) 
[H]c1c([H])c([H])c2c(N3C([H])([H])C([H])([H])OC([H])([H])C3([H])[H])nc(C(C([H])([H])[H])(C([H])([H])[H])C([H])([H])[H])nc2c1[H]

>  <index>  (433) 
752

>  <∆∆G>  (433) 
-7.7016

>  <∆G_bound>  (433) 
-7.542088

>  <∆G_unbound>  (433) 
0.159512

>  <comRMSD>  (433) 
0.452941

>  <N_constrained_atoms>  (433) 
23.0

>  <N_unconstrained_atoms>  (433) 
0.0

>  <runtime>  (433) 
30.180411

>  <LE>  (433) 
0.334852

>  <percent_hybrid>  (433) 
47.0

>  <dist>  (433) 
4.0

>  <ecfp4>  (433) 
0.227273

>  <daylight>  (433) 
0.384615

>  <topodist>  (433) 
2.0

>  <mces>  (433) 
22.0

>  <tdn>  (433) 
2.0

>  <tup>  (433) 
0.0

>  <rdn>  (433) 
0.0

>  <rup>  (433) 
0.0

>  <ldn>  (433) 
0.0

>  <lup>  (433) 
0.0

>  <mut>  (433) 
2.0

>  <maj>  (433) 
2.0

>  <min>  (433) 
0.0

>  <hyb>  (433) 
0.0

>  <sub>  (433) 
2.0

>  <query_index>  (433) 
278.0

>  <max_hit_Tanimoto>  (433) 
0.360885

>  <largest_ring>  (433) 
6

>  <N_interactions_kept>  (433) 
1.0

>  <N_interactions_lost>  (433) 
3.0

>  <interaction_uniqueness_metric>  (433) 
0.078619

>  <ad_hoc_penalty>  (433) 
-18.348302

>  <N_rotatable_bonds>  (433) 
1

>  <N_HA>  (433) 
20

>  <cluster>  (433) 
5530

>  <N_interactions>  (433) 
5

>  <Enamine>  (433) 
0

>  <Mcule>  (433) 
1

>  <N_PAINS>  (433) 
0

>  <UFF_Gibbs>  (433) 
65.795168

>  <strain_per_HA>  (433) 
3.289758

>  <saltbridge:HIS:51>  (433) 
0

>  <pistack:HIS:51>  (433) 
0

>  <hydroph_interaction:HIS:51>  (433) 
0

>  <hbond:ALA:132>  (433) 
0

>  <hbond:SER:135>  (433) 
0

>  <hydroph_interaction:TYR:150>  (433) 
1

>  <pistack:TYR:161>  (433) 
1

>  <hydroph_interaction:TYR:161>  (433) 
2

>  <hydroph_interaction:ASP:83>  (433) 
0

>  <hbond:TYR:130>  (433) 
0

>  <hydroph_interaction:ALA:132>  (433) 
0

>  <hbond:HIS:51>  (433) 
0

>  <hbond:ASP:129>  (433) 
0

>  <hbond:TYR:150>  (433) 
0

>  <hbond:GLY:151>  (433) 
0

>  <hbond:TYR:161>  (433) 
0

>  <hydroph_interaction:TYR:130>  (433) 
0

>  <hydroph_interaction:PRO:131>  (433) 
0

>  <hydroph_interaction:ASP:129>  (433) 
1

>  <saltbridge:ASP:75>  (433) 
0

>  <saltbridge:ASP:83>  (433) 
0

>  <hydroph_interaction:ASN:152>  (433) 
0

>  <halogenbond:TYR:150>  (433) 
0

>  <hbond:ASP:83>  (433) 
0

>  <hydroph_interaction:VAL:155>  (433) 
0

>  <pication:TYR:161>  (433) 
0

>  <hbond:PRO:131>  (433) 
0

>  <hbond:LEU:128>  (433) 
0

>  <saltbridge:ASP:129>  (433) 
0

>  <hbond:THR:134>  (433) 
0

>  <pication:HIS:51>  (433) 
0

>  <hbond:SER:81>  (433) 
0

>  <hbond:GLY:159>  (433) 
0

>  <hydroph_interaction:PRO:101>  (433) 
0

>  <hydroph_interaction:THR:134>  (433) 
0

>  <hbond:GLY:82>  (433) 
0

>  <hydroph_interaction:GLU:104>  (433) 
0

>  <hydroph_interaction:VAL:36>  (433) 
0

>  <hydroph_interaction:MET:49>  (433) 
0

>  <halogenbond:GLU:104>  (433) 
0

>  <hydroph_interaction:LYS:107>  (433) 
0

$$$$
MCULE-5039398101
     RDKit          3D

 31 33  0  0  0  0  0  0  0  0999 V2000
   -7.1510    5.6510  -18.2220 C   0  0  0  0  0  0  0  0  0  0  0  0
   -7.1120    5.9080  -16.8690 C   0  0  0  0  0  0  0  0  0  0  0  0
   -5.9220    6.1650  -16.2420 C   0  0  0  0  0  0  0  0  0  0  0  0
   -4.6960    6.1900  -16.8920 C   0  0  0  0  0  0  0  0  0  0  0  0
   -4.6930    5.9340  -18.2740 C   0  0  0  0  0  0  0  0  0  0  0  0
   -3.3980    5.9460  -19.0080 C   0  0  0  0  0  0  0  0  0  0  0  0
   -3.4600    5.6600  -20.5140 C   0  0  0  0  0  0  0  0  0  0  0  0
   -4.8110    5.3970  -21.0920 C   0  0  0  0  0  0  0  0  0  0  0  0
   -5.9630    5.4050  -20.3230 C   0  0  0  0  0  0  0  0  0  0  0  0
   -5.9400    5.6610  -18.9550 C   0  0  0  0  0  0  0  0  0  0  0  0
   -8.3460    5.8910  -16.1720 O   0  0  0  0  0  0  0  0  0  0  0  0
   -9.1000    4.7660  -16.5780 C   0  0  0  0  0  0  0  0  0  0  0  0
   -9.2490    4.6200  -18.1040 C   0  0  0  0  0  0  0  0  0  0  0  0
  -10.6700    4.9920  -18.5480 C   0  0  0  0  0  0  0  0  0  0  0  0
   -8.9580    3.1960  -18.4780 C   0  0  0  0  0  0  0  0  0  0  0  0
   -8.2950    5.3880  -18.8810 N   0  0  0  0  0  0  0  0  0  0  0  0
   -5.9360    6.3630  -15.1660 H   0  0  0  0  0  0  0  0  0  0  0  0
   -3.7740    6.3990  -16.3560 H   0  0  0  0  0  0  0  0  0  0  0  0
   -2.4470    6.1470  -18.5150 H   0  0  0  0  0  0  0  0  0  0  0  0
   -2.5720    5.6460  -21.1350 H   0  0  0  0  0  0  0  0  0  0  0  0
   -4.9190    5.1860  -22.1610 H   0  0  0  0  0  0  0  0  0  0  0  0
   -6.9100    5.2010  -20.8200 H   0  0  0  0  0  0  0  0  0  0  0  0
  -10.0700    4.7850  -16.0630 H   0  0  0  0  0  0  0  0  0  0  0  0
   -8.5500    3.9060  -16.1920 H   0  0  0  0  0  0  0  0  0  0  0  0
  -11.3620    4.1600  -18.4820 H   0  0  0  0  0  0  0  0  0  0  0  0
  -11.0630    5.7720  -17.9180 H   0  0  0  0  0  0  0  0  0  0  0  0
  -10.6790    5.3830  -19.5730 H   0  0  0  0  0  0  0  0  0  0  0  0
   -8.9060    2.5830  -17.5890 H   0  0  0  0  0  0  0  0  0  0  0  0
   -8.0170    3.1230  -19.0250 H   0  0  0  0  0  0  0  0  0  0  0  0
   -9.7280    2.7740  -19.0830 H   0  0  0  0  0  0  0  0  0  0  0  0
   -8.0300    4.9210  -19.7460 H   0  0  0  0  0  0  0  0  0  0  0  0
  1  2  1  0
  2  3  2  0
  3  4  1  0
  4  5  2  0
  5  6  1  0
  6  7  2  0
  7  8  1  0
  8  9  2  0
  9 10  1  0
  2 11  1  0
 11 12  1  0
 12 13  1  0
 13 14  1  0
 13 15  1  0
 13 16  1  0
 10  1  2  0
 16  1  1  0
 10  5  1  0
  3 17  1  0
  4 18  1  0
  6 19  1  0
  7 20  1  0
  8 21  1  0
  9 22  1  0
 12 23  1  0
 12 24  1  0
 14 25  1  0
 14 26  1  0
 14 27  1  0
 15 28  1  0
 15 29  1  0
 15 30  1  0
 16 31  1  0
A    1
 C1 
A    2
 C2 
A    3
 C3 
A    4
 C4 
A    5
 C5 
A    6
 C6 
A    7
 C7 
A    8
 C8 
A    9
 C9 
A   10
 C10
A   11
 O1 
A   12
 C11
A   13
 C12
A   14
 C13
A   15
 C14
A   16
 N1 
A   17
 H1 
A   18
 H2 
A   19
 H3 
A   20
 H4 
A   21
 H5 
A   22
 H6 
A   23
 H7 
A   24
 H8 
A   25
 H9 
A   26
 H10
A   27
 H11
A   28
 H12
A   29
 H13
A   30
 H14
A   31
 H15
M  END
>  <ref_pdb>  (434) 
x0051_0B

>  <ref_mols>  (434) 
x0051_0B,x0101_0B

>  <original SMILES>  (434) 
[H]c1c([H])c([H])c2c3c(c([H])c([H])c2c1[H])OC([H])([H])C(C([H])([H])[H])(C([H])([H])[H])N3[H]

>  <index>  (434) 
299

>  <∆∆G>  (434) 
-8.253496

>  <∆G_bound>  (434) 
-8.666023

>  <∆G_unbound>  (434) 
-0.412527

>  <comRMSD>  (434) 
0.779108

>  <N_constrained_atoms>  (434) 
17.0

>  <N_unconstrained_atoms>  (434) 
1.0

>  <runtime>  (434) 
30.538658

>  <LE>  (434) 
0.458528

>  <percent_hybrid>  (434) 
45.0

>  <dist>  (434) 
6.0

>  <ecfp4>  (434) 
0.288136

>  <daylight>  (434) 
0.389189

>  <topodist>  (434) 
3.0

>  <mces>  (434) 
17.0

>  <tdn>  (434) 
1.0

>  <tup>  (434) 
0.0

>  <rdn>  (434) 
1.0

>  <rup>  (434) 
1.0

>  <ldn>  (434) 
0.0

>  <lup>  (434) 
0.0

>  <mut>  (434) 
3.0

>  <maj>  (434) 
3.0

>  <min>  (434) 
0.0

>  <hyb>  (434) 
0.0

>  <sub>  (434) 
2.0

>  <query_index>  (434) 
294.0

>  <max_hit_Tanimoto>  (434) 
0.190715

>  <largest_ring>  (434) 
0

>  <N_interactions_kept>  (434) 
3.0

>  <N_interactions_lost>  (434) 
2.0

>  <interaction_uniqueness_metric>  (434) 
0.043143

>  <ad_hoc_penalty>  (434) 
-18.338889

>  <N_rotatable_bonds>  (434) 
2

>  <N_HA>  (434) 
16

>  <cluster>  (434) 
5944

>  <N_interactions>  (434) 
5

>  <Enamine>  (434) 
0

>  <Mcule>  (434) 
1

>  <N_PAINS>  (434) 
0

>  <UFF_Gibbs>  (434) 
150.002887

>  <strain_per_HA>  (434) 
9.37518

>  <saltbridge:HIS:51>  (434) 
0

>  <pistack:HIS:51>  (434) 
0

>  <hydroph_interaction:HIS:51>  (434) 
0

>  <hbond:ALA:132>  (434) 
0

>  <hbond:SER:135>  (434) 
0

>  <hydroph_interaction:TYR:150>  (434) 
0

>  <pistack:TYR:161>  (434) 
0

>  <hydroph_interaction:TYR:161>  (434) 
4

>  <hydroph_interaction:ASP:83>  (434) 
0

>  <hbond:TYR:130>  (434) 
1

>  <hydroph_interaction:ALA:132>  (434) 
0

>  <hbond:HIS:51>  (434) 
0

>  <hbond:ASP:129>  (434) 
0

>  <hbond:TYR:150>  (434) 
0

>  <hbond:GLY:151>  (434) 
0

>  <hbond:TYR:161>  (434) 
0

>  <hydroph_interaction:TYR:130>  (434) 
0

>  <hydroph_interaction:PRO:131>  (434) 
0

>  <hydroph_interaction:ASP:129>  (434) 
0

>  <saltbridge:ASP:75>  (434) 
0

>  <saltbridge:ASP:83>  (434) 
0

>  <hydroph_interaction:ASN:152>  (434) 
0

>  <halogenbond:TYR:150>  (434) 
0

>  <hbond:ASP:83>  (434) 
0

>  <hydroph_interaction:VAL:155>  (434) 
0

>  <pication:TYR:161>  (434) 
0

>  <hbond:PRO:131>  (434) 
0

>  <hbond:LEU:128>  (434) 
0

>  <saltbridge:ASP:129>  (434) 
0

>  <hbond:THR:134>  (434) 
0

>  <pication:HIS:51>  (434) 
0

>  <hbond:SER:81>  (434) 
0

>  <hbond:GLY:159>  (434) 
0

>  <hydroph_interaction:PRO:101>  (434) 
0

>  <hydroph_interaction:THR:134>  (434) 
0

>  <hbond:GLY:82>  (434) 
0

>  <hydroph_interaction:GLU:104>  (434) 
0

>  <hydroph_interaction:VAL:36>  (434) 
0

>  <hydroph_interaction:MET:49>  (434) 
0

>  <halogenbond:GLU:104>  (434) 
0

>  <hydroph_interaction:LYS:107>  (434) 
0

$$$$
PV-006922484195
     RDKit          3D

 47 50  0  0  0  0  0  0  0  0999 V2000
   -7.9260    8.4150  -14.1530 O   0  0  0  0  0  0  0  0  0  0  0  0
   -9.1630    7.7170  -13.9140 S   0  0  0  0  0  6  0  0  0  0  0  0
  -10.4100    8.4010  -13.9480 O   0  0  0  0  0  0  0  0  0  0  0  0
   -9.3410    6.4650  -14.9680 N   0  0  0  0  0  0  0  0  0  0  0  0
   -8.1700    5.6750  -15.3940 C   0  0  0  0  0  0  0  0  0  0  0  0
   -8.4570    5.3220  -16.7800 C   0  0  0  0  0  0  0  0  0  0  0  0
   -9.7510    4.9590  -17.0280 C   0  0  0  0  0  0  0  0  0  0  0  0
  -10.2050    4.6270  -18.3140 C   0  0  0  0  0  0  0  0  0  0  0  0
   -9.3000    4.6760  -19.3000 C   0  0  0  0  0  0  0  0  0  0  0  0
   -7.9640    5.0260  -19.0950 C   0  0  0  0  0  0  0  0  0  0  0  0
   -7.5440    5.3460  -17.8340 C   0  0  0  0  0  0  0  0  0  0  0  0
   -5.8540    5.7570  -17.7370 S   0  0  0  0  0  0  0  0  0  0  0  0
   -5.6520    5.5140  -19.3900 C   0  0  0  0  0  0  0  0  0  0  0  0
   -6.9250    5.0980  -20.0710 C   0  0  0  0  0  0  0  0  0  0  0  0
   -9.0010    6.7550  -12.4760 C   0  0  0  0  0  0  0  0  0  0  0  0
   -8.7950    7.3820  -11.2670 C   0  0  0  0  0  0  0  0  0  0  0  0
   -8.6580    6.5160  -10.0580 C   0  0  0  0  0  0  0  0  0  0  0  0
   -8.7430    5.0220  -10.1680 C   0  0  0  0  0  0  0  0  0  0  0  0
   -8.6240    4.2150   -9.0900 N   0  0  0  0  0  0  0  0  0  0  0  0
   -8.9910    2.7870   -9.2140 C   0  0  0  0  0  0  0  0  0  0  0  0
   -9.6540    2.3170   -7.9230 C   0  0  0  0  0  0  0  0  0  0  0  0
   -8.8630    2.6520   -6.7450 N   0  0  0  0  0  0  0  0  0  0  0  0
   -8.7550    4.1000   -6.6350 C   0  0  0  0  0  0  0  0  0  0  0  0
   -8.0250    4.7160   -7.8380 C   0  0  0  0  0  0  0  0  0  0  0  0
   -8.9570    4.5200  -11.4620 C   0  0  0  0  0  0  0  0  0  0  0  0
   -9.0830    5.3540  -12.5860 C   0  0  0  0  0  0  0  0  0  0  0  0
  -10.0840    6.6170  -15.6520 H   0  0  0  0  0  0  0  0  0  0  0  0
   -7.2500    6.2590  -15.3080 H   0  0  0  0  0  0  0  0  0  0  0  0
   -8.0830    4.7810  -14.7660 H   0  0  0  0  0  0  0  0  0  0  0  0
  -10.4190    4.9470  -16.1640 H   0  0  0  0  0  0  0  0  0  0  0  0
  -11.2510    4.3620  -18.4130 H   0  0  0  0  0  0  0  0  0  0  0  0
   -9.6120    4.4310  -20.3080 H   0  0  0  0  0  0  0  0  0  0  0  0
   -4.7550    5.6160  -19.9870 H   0  0  0  0  0  0  0  0  0  0  0  0
   -7.0240    4.8860  -21.1300 H   0  0  0  0  0  0  0  0  0  0  0  0
   -8.7170    8.4620  -11.0890 H   0  0  0  0  0  0  0  0  0  0  0  0
   -8.4980    7.0770   -9.1310 H   0  0  0  0  0  0  0  0  0  0  0  0
   -9.6320    2.5750  -10.0770 H   0  0  0  0  0  0  0  0  0  0  0  0
   -8.0750    2.2050   -9.3860 H   0  0  0  0  0  0  0  0  0  0  0  0
  -10.6430    2.7720   -7.8210 H   0  0  0  0  0  0  0  0  0  0  0  0
   -9.8080    1.2390   -7.9620 H   0  0  0  0  0  0  0  0  0  0  0  0
   -9.3300    2.2730   -5.9270 H   0  0  0  0  0  0  0  0  0  0  0  0
   -8.2260    4.3450   -5.7060 H   0  0  0  0  0  0  0  0  0  0  0  0
   -9.7600    4.5280   -6.5470 H   0  0  0  0  0  0  0  0  0  0  0  0
   -8.1860    5.7990   -7.7880 H   0  0  0  0  0  0  0  0  0  0  0  0
   -6.9500    4.5600   -7.8820 H   0  0  0  0  0  0  0  0  0  0  0  0
   -9.0310    3.4440  -11.6200 H   0  0  0  0  0  0  0  0  0  0  0  0
   -9.2480    4.8870  -13.5540 H   0  0  0  0  0  0  0  0  0  0  0  0
  1  2  2  0
  2  3  2  0
  2  4  1  0
  4  5  1  0
  5  6  1  0
  6  7  2  0
  7  8  1  0
  8  9  2  0
  9 10  1  0
 10 11  2  0
 11 12  1  0
 12 13  1  0
 13 14  2  0
  2 15  1  0
 15 16  2  0
 16 17  1  0
 17 18  2  0
 18 19  1  0
 19 20  1  0
 20 21  1  0
 21 22  1  0
 22 23  1  0
 23 24  1  0
 18 25  1  0
 25 26  2  0
 11  6  1  0
 14 10  1  0
 26 15  1  0
 24 19  1  0
  4 27  1  0
  5 28  1  0
  5 29  1  0
  7 30  1  0
  8 31  1  0
  9 32  1  0
 13 33  1  0
 14 34  1  0
 16 35  1  0
 17 36  1  0
 20 37  1  0
 20 38  1  0
 21 39  1  0
 21 40  1  0
 22 41  1  0
 23 42  1  0
 23 43  1  0
 24 44  1  0
 24 45  1  0
 25 46  1  0
 26 47  1  0
A    1
 O1 
A    2
 S1 
A    3
 O2 
A    4
 N1 
A    5
 C1 
A    6
 C2 
A    7
 C3 
A    8
 C4 
A    9
 C5 
A   10
 C6 
A   11
 C7 
A   12
 S2 
A   13
 C8 
A   14
 C9 
A   15
 C10
A   16
 C11
A   17
 C12
A   18
 C13
A   19
 N2 
A   20
 C14
A   21
 C15
A   22
 N3 
A   23
 C16
A   24
 C17
A   25
 C18
A   26
 C19
A   27
 H1 
A   28
 H2 
A   29
 H3 
A   30
 H4 
A   31
 H5 
A   32
 H6 
A   33
 H7 
A   34
 H8 
A   35
 H9 
A   36
 H10
A   37
 H11
A   38
 H12
A   39
 H13
A   40
 H14
A   41
 H15
A   42
 H16
A   43
 H17
A   44
 H18
A   45
 H19
A   46
 H20
A   47
 H21
M  END
>  <ref_pdb>  (435) 
x0051_0B

>  <ref_mols>  (435) 
x0490_0B,x0404_0B

>  <original SMILES>  (435) 
[H]c1sc2c(C([H])([H])N([H])S(=O)(=O)c3c([H])c([H])c(N4C([H])([H])C([H])([H])N([H])C([H])([H])C4([H])[H])c([H])c3[H])c([H])c([H])c([H])c2c1[H]

>  <index>  (435) 
627

>  <∆∆G>  (435) 
-9.965283

>  <∆G_bound>  (435) 
-9.619494

>  <∆G_unbound>  (435) 
0.345788

>  <comRMSD>  (435) 
0.768738

>  <N_constrained_atoms>  (435) 
25.0

>  <N_unconstrained_atoms>  (435) 
1.0

>  <runtime>  (435) 
66.123185

>  <LE>  (435) 
0.38328

>  <percent_hybrid>  (435) 
36.0

>  <dist>  (435) 
7.0

>  <ecfp4>  (435) 
0.320513

>  <daylight>  (435) 
0.270916

>  <topodist>  (435) 
2.0

>  <mces>  (435) 
29.0

>  <tdn>  (435) 
2.0

>  <tup>  (435) 
0.0

>  <rdn>  (435) 
0.0

>  <rup>  (435) 
0.0

>  <ldn>  (435) 
0.0

>  <lup>  (435) 
0.0

>  <mut>  (435) 
4.0

>  <maj>  (435) 
4.0

>  <min>  (435) 
0.0

>  <hyb>  (435) 
1.0

>  <sub>  (435) 
0.0

>  <query_index>  (435) 
10.0

>  <max_hit_Tanimoto>  (435) 
0.369536

>  <largest_ring>  (435) 
6

>  <N_interactions_kept>  (435) 
0.0

>  <N_interactions_lost>  (435) 
4.5

>  <interaction_uniqueness_metric>  (435) 
0.257608

>  <ad_hoc_penalty>  (435) 
-18.337481

>  <N_rotatable_bonds>  (435) 
5

>  <N_HA>  (435) 
26

>  <cluster>  (435) 
5646

>  <N_interactions>  (435) 
9

>  <Enamine>  (435) 
1

>  <Mcule>  (435) 
0

>  <N_PAINS>  (435) 
0

>  <UFF_Gibbs>  (435) 
171.081856

>  <strain_per_HA>  (435) 
6.580071

>  <saltbridge:HIS:51>  (435) 
0

>  <pistack:HIS:51>  (435) 
1

>  <hydroph_interaction:HIS:51>  (435) 
1

>  <hbond:ALA:132>  (435) 
0

>  <hbond:SER:135>  (435) 
0

>  <hydroph_interaction:TYR:150>  (435) 
1

>  <pistack:TYR:161>  (435) 
1

>  <hydroph_interaction:TYR:161>  (435) 
3

>  <hydroph_interaction:ASP:83>  (435) 
0

>  <hbond:TYR:130>  (435) 
0

>  <hydroph_interaction:ALA:132>  (435) 
1

>  <hbond:HIS:51>  (435) 
0

>  <hbond:ASP:129>  (435) 
0

>  <hbond:TYR:150>  (435) 
0

>  <hbond:GLY:151>  (435) 
0

>  <hbond:TYR:161>  (435) 
0

>  <hydroph_interaction:TYR:130>  (435) 
0

>  <hydroph_interaction:PRO:131>  (435) 
0

>  <hydroph_interaction:ASP:129>  (435) 
0

>  <saltbridge:ASP:75>  (435) 
0

>  <saltbridge:ASP:83>  (435) 
0

>  <hydroph_interaction:ASN:152>  (435) 
0

>  <halogenbond:TYR:150>  (435) 
0

>  <hbond:ASP:83>  (435) 
0

>  <hydroph_interaction:VAL:155>  (435) 
0

>  <pication:TYR:161>  (435) 
0

>  <hbond:PRO:131>  (435) 
0

>  <hbond:LEU:128>  (435) 
0

>  <saltbridge:ASP:129>  (435) 
0

>  <hbond:THR:134>  (435) 
0

>  <pication:HIS:51>  (435) 
0

>  <hbond:SER:81>  (435) 
1

>  <hbond:GLY:159>  (435) 
0

>  <hydroph_interaction:PRO:101>  (435) 
0

>  <hydroph_interaction:THR:134>  (435) 
0

>  <hbond:GLY:82>  (435) 
0

>  <hydroph_interaction:GLU:104>  (435) 
0

>  <hydroph_interaction:VAL:36>  (435) 
0

>  <hydroph_interaction:MET:49>  (435) 
0

>  <halogenbond:GLU:104>  (435) 
0

>  <hydroph_interaction:LYS:107>  (435) 
0

$$$$
Z5318864218
     RDKit          3D

 45 47  0  0  0  0  0  0  0  0999 V2000
   -4.0410    4.9690  -16.8490 C   0  0  0  0  0  0  0  0  0  0  0  0
   -4.8340    5.6210  -17.9700 C   0  0  0  0  0  0  0  0  0  0  0  0
   -6.3380    5.3960  -17.7920 C   0  0  0  0  0  0  0  0  0  0  0  0
   -7.1230    5.1530  -19.0750 C   0  0  0  0  0  0  0  0  0  0  0  0
   -8.5920    4.9280  -18.8470 C   0  0  0  0  0  0  0  0  0  0  0  0
   -9.0950    4.9630  -17.5450 C   0  0  0  0  0  0  0  0  0  0  0  0
   -8.2370    5.2080  -16.4660 C   0  0  0  0  0  0  0  0  0  0  0  0
   -8.9310    5.2270  -15.0980 C   0  0  0  0  0  0  0  0  0  0  0  0
   -8.7960    6.5090  -14.3780 N   0  0  0  0  0  0  0  0  0  0  0  0
   -9.2310    6.3610  -12.9810 C   0  0  0  0  0  0  0  0  0  0  0  0
   -8.1470    5.7680  -12.0710 C   0  0  0  0  0  0  0  0  0  0  0  0
   -8.4850    5.6090  -10.5860 C   0  0  0  0  0  0  0  0  0  0  0  0
   -8.8010    4.4160   -9.7840 C   0  0  0  0  0  0  0  0  0  0  0  0
   -8.9200    2.9780  -10.1160 C   0  0  0  0  0  0  0  0  0  0  0  0
   -8.7050    2.1810   -8.8480 C   0  0  0  0  0  0  0  0  0  0  0  0
   -9.6920    2.6360   -7.7910 C   0  0  0  0  0  0  0  0  0  0  0  0
   -9.3010    4.0360   -7.3470 C   0  0  0  0  0  0  0  0  0  0  0  0
   -8.9850    4.8690   -8.5020 N   0  0  0  0  0  0  0  0  0  0  0  0
   -8.8420    6.2020   -8.3770 N   0  0  0  0  0  0  0  0  0  0  0  0
   -8.5500    6.6400   -9.6150 C   0  0  0  0  0  0  0  0  0  0  0  0
   -6.8930    5.4190  -16.5580 N   0  0  0  0  0  0  0  0  0  0  0  0
   -3.3340    4.2410  -17.2590 H   0  0  0  0  0  0  0  0  0  0  0  0
   -4.7030    4.4480  -16.1500 H   0  0  0  0  0  0  0  0  0  0  0  0
   -3.4700    5.7140  -16.2860 H   0  0  0  0  0  0  0  0  0  0  0  0
   -4.5100    5.2010  -18.9280 H   0  0  0  0  0  0  0  0  0  0  0  0
   -4.6070    6.6920  -17.9880 H   0  0  0  0  0  0  0  0  0  0  0  0
   -6.6730    5.1370  -20.0620 H   0  0  0  0  0  0  0  0  0  0  0  0
   -9.2530    4.7400  -19.6870 H   0  0  0  0  0  0  0  0  0  0  0  0
  -10.1560    4.8020  -17.3650 H   0  0  0  0  0  0  0  0  0  0  0  0
   -8.5170    4.4100  -14.4920 H   0  0  0  0  0  0  0  0  0  0  0  0
   -9.9940    4.9790  -15.2180 H   0  0  0  0  0  0  0  0  0  0  0  0
   -7.8640    6.9110  -14.4110 H   0  0  0  0  0  0  0  0  0  0  0  0
   -9.6240    7.3050  -12.5830 H   0  0  0  0  0  0  0  0  0  0  0  0
  -10.0690    5.6680  -12.9990 H   0  0  0  0  0  0  0  0  0  0  0  0
   -7.8650    4.7830  -12.4650 H   0  0  0  0  0  0  0  0  0  0  0  0
   -7.2420    6.3820  -12.1420 H   0  0  0  0  0  0  0  0  0  0  0  0
   -9.8970    2.7480  -10.5650 H   0  0  0  0  0  0  0  0  0  0  0  0
   -8.1540    2.7070  -10.8540 H   0  0  0  0  0  0  0  0  0  0  0  0
   -8.8370    1.1250   -9.0240 H   0  0  0  0  0  0  0  0  0  0  0  0
   -7.6930    2.3500   -8.4790 H   0  0  0  0  0  0  0  0  0  0  0  0
   -9.6650    1.9530   -6.9600 H   0  0  0  0  0  0  0  0  0  0  0  0
  -10.7100    2.6330   -8.1860 H   0  0  0  0  0  0  0  0  0  0  0  0
  -10.1160    4.5230   -6.8020 H   0  0  0  0  0  0  0  0  0  0  0  0
   -8.4180    3.9960   -6.7010 H   0  0  0  0  0  0  0  0  0  0  0  0
   -8.3890    7.6990   -9.7570 H   0  0  0  0  0  0  0  0  0  0  0  0
  1  2  1  0
  2  3  1  0
  3  4  2  0
  4  5  1  0
  5  6  2  0
  6  7  1  0
  7  8  1  0
  8  9  1  0
  9 10  1  0
 10 11  1  0
 11 12  1  0
 12 13  2  0
 13 14  1  0
 14 15  1  0
 15 16  1  0
 16 17  1  0
 17 18  1  0
 18 19  1  0
 19 20  2  0
  7 21  2  0
 21  3  1  0
 20 12  1  0
 18 13  1  0
  1 22  1  0
  1 23  1  0
  1 24  1  0
  2 25  1  0
  2 26  1  0
  4 27  1  0
  5 28  1  0
  6 29  1  0
  8 30  1  0
  8 31  1  0
  9 32  1  0
 10 33  1  0
 10 34  1  0
 11 35  1  0
 11 36  1  0
 14 37  1  0
 14 38  1  0
 15 39  1  0
 15 40  1  0
 16 41  1  0
 16 42  1  0
 17 43  1  0
 17 44  1  0
 20 45  1  0
A    1
 C1 
A    2
 C2 
A    3
 C3 
A    4
 C4 
A    5
 C5 
A    6
 C6 
A    7
 C7 
A    8
 C8 
A    9
 N1 
A   10
 C9 
A   11
 C10
A   12
 C11
A   13
 C12
A   14
 C13
A   15
 C14
A   16
 C15
A   17
 C16
A   18
 N2 
A   19
 N3 
A   20
 C17
A   21
 N4 
A   22
 H1 
A   23
 H2 
A   24
 H3 
A   25
 H4 
A   26
 H5 
A   27
 H6 
A   28
 H7 
A   29
 H8 
A   30
 H9 
A   31
 H10
A   32
 H11
A   33
 H12
A   34
 H13
A   35
 H14
A   36
 H15
A   37
 H16
A   38
 H17
A   39
 H18
A   40
 H19
A   41
 H20
A   42
 H21
A   43
 H22
A   44
 H23
A   45
 H24
M  END
>  <ref_pdb>  (436) 
x0051_0B

>  <ref_mols>  (436) 
x0605_0B,x0969_1B

>  <original SMILES>  (436) 
[H]c1nn2c(c1C([H])([H])C([H])([H])N([H])C([H])([H])c1nc(C([H])([H])C([H])([H])[H])c([H])c([H])c1[H])C([H])([H])C([H])([H])C([H])([H])C2([H])[H]

>  <index>  (436) 
897

>  <∆∆G>  (436) 
-7.594199

>  <∆G_bound>  (436) 
-7.262147

>  <∆G_unbound>  (436) 
0.332052

>  <comRMSD>  (436) 
0.325295

>  <N_constrained_atoms>  (436) 
17.0

>  <N_unconstrained_atoms>  (436) 
5.0

>  <runtime>  (436) 
78.705388

>  <LE>  (436) 
0.345191

>  <percent_hybrid>  (436) 
42.0

>  <dist>  (436) 
5.0

>  <ecfp4>  (436) 
0.333333

>  <daylight>  (436) 
0.305263

>  <topodist>  (436) 
0.0

>  <mces>  (436) 
23.0

>  <tdn>  (436) 
0.0

>  <tup>  (436) 
0.0

>  <rdn>  (436) 
0.0

>  <rup>  (436) 
0.0

>  <ldn>  (436) 
0.0

>  <lup>  (436) 
0.0

>  <mut>  (436) 
3.0

>  <maj>  (436) 
3.0

>  <min>  (436) 
0.0

>  <hyb>  (436) 
2.0

>  <sub>  (436) 
0.0

>  <query_index>  (436) 
307.0

>  <max_hit_Tanimoto>  (436) 
0.372067

>  <largest_ring>  (436) 
6

>  <N_interactions_kept>  (436) 
2.0

>  <N_interactions_lost>  (436) 
1.0

>  <interaction_uniqueness_metric>  (436) 
0.138996

>  <ad_hoc_penalty>  (436) 
-18.333004

>  <N_rotatable_bonds>  (436) 
7

>  <N_HA>  (436) 
21

>  <cluster>  (436) 
5397

>  <N_interactions>  (436) 
5

>  <Enamine>  (436) 
1

>  <Mcule>  (436) 
0

>  <N_PAINS>  (436) 
0

>  <UFF_Gibbs>  (436) 
52.533188

>  <strain_per_HA>  (436) 
2.50158

>  <saltbridge:HIS:51>  (436) 
0

>  <pistack:HIS:51>  (436) 
1

>  <hydroph_interaction:HIS:51>  (436) 
0

>  <hbond:ALA:132>  (436) 
0

>  <hbond:SER:135>  (436) 
0

>  <hydroph_interaction:TYR:150>  (436) 
0

>  <pistack:TYR:161>  (436) 
1

>  <hydroph_interaction:TYR:161>  (436) 
2

>  <hydroph_interaction:ASP:83>  (436) 
1

>  <hbond:TYR:130>  (436) 
0

>  <hydroph_interaction:ALA:132>  (436) 
0

>  <hbond:HIS:51>  (436) 
0

>  <hbond:ASP:129>  (436) 
0

>  <hbond:TYR:150>  (436) 
0

>  <hbond:GLY:151>  (436) 
0

>  <hbond:TYR:161>  (436) 
0

>  <hydroph_interaction:TYR:130>  (436) 
0

>  <hydroph_interaction:PRO:131>  (436) 
0

>  <hydroph_interaction:ASP:129>  (436) 
0

>  <saltbridge:ASP:75>  (436) 
0

>  <saltbridge:ASP:83>  (436) 
0

>  <hydroph_interaction:ASN:152>  (436) 
0

>  <halogenbond:TYR:150>  (436) 
0

>  <hbond:ASP:83>  (436) 
0

>  <hydroph_interaction:VAL:155>  (436) 
0

>  <pication:TYR:161>  (436) 
0

>  <hbond:PRO:131>  (436) 
0

>  <hbond:LEU:128>  (436) 
0

>  <saltbridge:ASP:129>  (436) 
0

>  <hbond:THR:134>  (436) 
0

>  <pication:HIS:51>  (436) 
0

>  <hbond:SER:81>  (436) 
0

>  <hbond:GLY:159>  (436) 
0

>  <hydroph_interaction:PRO:101>  (436) 
0

>  <hydroph_interaction:THR:134>  (436) 
0

>  <hbond:GLY:82>  (436) 
0

>  <hydroph_interaction:GLU:104>  (436) 
0

>  <hydroph_interaction:VAL:36>  (436) 
0

>  <hydroph_interaction:MET:49>  (436) 
0

>  <halogenbond:GLU:104>  (436) 
0

>  <hydroph_interaction:LYS:107>  (436) 
0

$$$$
CSSB00010700526
     RDKit          3D

 24 25  0  0  0  0  0  0  0  0999 V2000
   -6.1670    6.4250  -20.2480 O   0  0  0  0  0  0  0  0  0  0  0  0
   -6.7850    5.1460  -20.1700 C   0  0  0  0  0  0  0  0  0  0  0  0
   -7.7460    5.0600  -18.9770 C   0  0  0  0  0  0  0  0  0  0  0  0
   -9.2040    4.7800  -19.2940 C   0  0  0  0  0  0  0  0  0  0  0  0
  -10.1050    4.6840  -18.2370 C   0  0  0  0  0  0  0  0  0  0  0  0
   -9.6470    4.8460  -16.9270 C   0  0  0  0  0  0  0  0  0  0  0  0
   -8.2980    5.1100  -16.6180 C   0  0  0  0  0  0  0  0  0  0  0  0
   -7.3510    5.2160  -17.6480 C   0  0  0  0  0  0  0  0  0  0  0  0
   -5.6290    5.5450  -17.3310 S   0  0  0  0  0  0  0  0  0  0  0  0
   -5.7320    6.0840  -15.6150 C   0  0  0  0  0  0  0  0  0  0  0  0
   -6.6050    5.1410  -14.8100 C   0  0  0  0  0  0  0  0  0  0  0  0
   -7.9650    5.2630  -15.1530 C   0  0  0  0  0  0  0  0  0  0  0  0
   -5.2850    6.3180  -19.8490 H   0  0  0  0  0  0  0  0  0  0  0  0
   -6.0020    4.3960  -20.0700 H   0  0  0  0  0  0  0  0  0  0  0  0
   -7.2930    4.9390  -21.1130 H   0  0  0  0  0  0  0  0  0  0  0  0
   -9.5450    4.6560  -20.3250 H   0  0  0  0  0  0  0  0  0  0  0  0
  -11.1540    4.4830  -18.4320 H   0  0  0  0  0  0  0  0  0  0  0  0
  -10.3620    4.7650  -16.1170 H   0  0  0  0  0  0  0  0  0  0  0  0
   -6.1630    7.0920  -15.6050 H   0  0  0  0  0  0  0  0  0  0  0  0
   -4.7220    6.1490  -15.1940 H   0  0  0  0  0  0  0  0  0  0  0  0
   -6.4930    5.3830  -13.7450 H   0  0  0  0  0  0  0  0  0  0  0  0
   -6.2710    4.1070  -14.9210 H   0  0  0  0  0  0  0  0  0  0  0  0
   -8.3400    6.2410  -14.8210 H   0  0  0  0  0  0  0  0  0  0  0  0
   -8.5110    4.5000  -14.5830 H   0  0  0  0  0  0  0  0  0  0  0  0
  1  2  1  0
  2  3  1  0
  3  4  2  0
  4  5  1  0
  5  6  2  0
  6  7  1  0
  7  8  2  0
  8  9  1  0
  9 10  1  0
 10 11  1  0
 11 12  1  0
  8  3  1  0
 12  7  1  0
  1 13  1  0
  2 14  1  0
  2 15  1  0
  4 16  1  0
  5 17  1  0
  6 18  1  0
 10 19  1  0
 10 20  1  0
 11 21  1  0
 11 22  1  0
 12 23  1  0
 12 24  1  0
A    1
 O1 
A    2
 C1 
A    3
 C2 
A    4
 C3 
A    5
 C4 
A    6
 C5 
A    7
 C6 
A    8
 C7 
A    9
 S1 
A   10
 C8 
A   11
 C9 
A   12
 C10
A   13
 H1 
A   14
 H2 
A   15
 H3 
A   16
 H4 
A   17
 H5 
A   18
 H6 
A   19
 H7 
A   20
 H8 
A   21
 H9 
A   22
 H10
A   23
 H11
A   24
 H12
M  END
>  <ref_pdb>  (437) 
x0051_0B

>  <ref_mols>  (437) 
x0455_0B,x0382_0B

>  <original SMILES>  (437) 
[H]OC([H])([H])c1c([H])c([H])c([H])c2c1SC([H])([H])C([H])([H])C2([H])[H]

>  <index>  (437) 
884

>  <∆∆G>  (437) 
-6.099028

>  <∆G_bound>  (437) 
-5.850943

>  <∆G_unbound>  (437) 
0.248085

>  <comRMSD>  (437) 
0.828433

>  <N_constrained_atoms>  (437) 
12.0

>  <N_unconstrained_atoms>  (437) 
1.0

>  <runtime>  (437) 
19.152496

>  <LE>  (437) 
0.469156

>  <percent_hybrid>  (437) 
29.0

>  <dist>  (437) 
2.0

>  <ecfp4>  (437) 
0.272727

>  <daylight>  (437) 
0.211429

>  <topodist>  (437) 
0.0

>  <mces>  (437) 
13.0

>  <tdn>  (437) 
0.0

>  <tup>  (437) 
0.0

>  <rdn>  (437) 
0.0

>  <rup>  (437) 
0.0

>  <ldn>  (437) 
0.0

>  <lup>  (437) 
0.0

>  <mut>  (437) 
2.0

>  <maj>  (437) 
2.0

>  <min>  (437) 
0.0

>  <hyb>  (437) 
0.0

>  <sub>  (437) 
0.0

>  <query_index>  (437) 
293.0

>  <max_hit_Tanimoto>  (437) 
0.157971

>  <largest_ring>  (437) 
6

>  <N_interactions_kept>  (437) 
0.0

>  <N_interactions_lost>  (437) 
1.5

>  <interaction_uniqueness_metric>  (437) 
0.031789

>  <ad_hoc_penalty>  (437) 
-18.313924

>  <N_rotatable_bonds>  (437) 
2

>  <N_HA>  (437) 
12

>  <cluster>  (437) 
5410

>  <N_interactions>  (437) 
4

>  <Enamine>  (437) 
1

>  <Mcule>  (437) 
0

>  <N_PAINS>  (437) 
0

>  <UFF_Gibbs>  (437) 
20.122861

>  <strain_per_HA>  (437) 
1.676905

>  <saltbridge:HIS:51>  (437) 
0

>  <pistack:HIS:51>  (437) 
0

>  <hydroph_interaction:HIS:51>  (437) 
0

>  <hbond:ALA:132>  (437) 
0

>  <hbond:SER:135>  (437) 
0

>  <hydroph_interaction:TYR:150>  (437) 
1

>  <pistack:TYR:161>  (437) 
0

>  <hydroph_interaction:TYR:161>  (437) 
3

>  <hydroph_interaction:ASP:83>  (437) 
0

>  <hbond:TYR:130>  (437) 
0

>  <hydroph_interaction:ALA:132>  (437) 
0

>  <hbond:HIS:51>  (437) 
0

>  <hbond:ASP:129>  (437) 
0

>  <hbond:TYR:150>  (437) 
0

>  <hbond:GLY:151>  (437) 
0

>  <hbond:TYR:161>  (437) 
0

>  <hydroph_interaction:TYR:130>  (437) 
0

>  <hydroph_interaction:PRO:131>  (437) 
0

>  <hydroph_interaction:ASP:129>  (437) 
0

>  <saltbridge:ASP:75>  (437) 
0

>  <saltbridge:ASP:83>  (437) 
0

>  <hydroph_interaction:ASN:152>  (437) 
0

>  <halogenbond:TYR:150>  (437) 
0

>  <hbond:ASP:83>  (437) 
0

>  <hydroph_interaction:VAL:155>  (437) 
0

>  <pication:TYR:161>  (437) 
0

>  <hbond:PRO:131>  (437) 
0

>  <hbond:LEU:128>  (437) 
0

>  <saltbridge:ASP:129>  (437) 
0

>  <hbond:THR:134>  (437) 
0

>  <pication:HIS:51>  (437) 
0

>  <hbond:SER:81>  (437) 
0

>  <hbond:GLY:159>  (437) 
0

>  <hydroph_interaction:PRO:101>  (437) 
0

>  <hydroph_interaction:THR:134>  (437) 
0

>  <hbond:GLY:82>  (437) 
0

>  <hydroph_interaction:GLU:104>  (437) 
0

>  <hydroph_interaction:VAL:36>  (437) 
0

>  <hydroph_interaction:MET:49>  (437) 
0

>  <halogenbond:GLU:104>  (437) 
0

>  <hydroph_interaction:LYS:107>  (437) 
0

$$$$
MCULE-2302017117
     RDKit          3D

 43 45  0  0  0  0  0  0  0  0999 V2000
   -8.4490    6.9290  -13.8980 C   0  0  0  0  0  0  0  0  0  0  0  0
   -8.6160    6.3500  -12.6390 C   0  0  0  0  0  0  0  0  0  0  0  0
   -8.5590    7.0590  -11.4540 C   0  0  0  0  0  0  0  0  0  0  0  0
   -8.7060    6.4370  -10.2150 C   0  0  0  0  0  0  0  0  0  0  0  0
   -8.5940    7.5710   -8.6870 Br  0  0  0  0  0  0  0  0  0  0  0  0
   -8.9200    5.0360  -10.1520 C   0  0  0  0  0  0  0  0  0  0  0  0
   -9.0730    4.3230   -8.9660 N   0  0  0  0  0  0  0  0  0  0  0  0
   -9.1940    3.0340   -9.2010 C   0  0  0  0  0  0  0  0  0  0  0  0
   -9.6250    2.4100   -8.0310 C   0  0  0  0  0  0  0  0  0  0  0  0
   -8.7410    2.7400   -6.9440 O   0  0  0  0  0  0  0  0  0  0  0  0
   -8.7560    3.9470   -6.7320 C   0  0  0  0  0  0  0  0  0  0  0  0
   -8.1630    4.5700   -7.8340 C   0  0  0  0  0  0  0  0  0  0  0  0
   -8.9840    4.3340  -11.3810 C   0  0  0  0  0  0  0  0  0  0  0  0
   -8.8350    4.9780  -12.6110 C   0  0  0  0  0  0  0  0  0  0  0  0
   -8.8800    8.0620  -14.1100 O   0  0  0  0  0  0  0  0  0  0  0  0
   -7.7250    6.0440  -14.7110 N   0  0  0  0  0  0  0  0  0  0  0  0
   -7.9200    5.6090  -16.0490 C   0  0  0  0  0  0  0  0  0  0  0  0
   -9.1810    5.3200  -16.5540 C   0  0  0  0  0  0  0  0  0  0  0  0
   -9.3670    4.9180  -17.8600 C   0  0  0  0  0  0  0  0  0  0  0  0
  -10.7710    4.6470  -18.3420 C   0  0  0  0  0  0  0  0  0  0  0  0
  -11.4900    5.4000  -19.1840 N   0  0  0  0  0  0  0  0  0  0  0  0
   -8.3200    4.7670  -18.7560 C   0  0  0  0  0  0  0  0  0  0  0  0
   -7.0290    5.0260  -18.3280 C   0  0  0  0  0  0  0  0  0  0  0  0
   -6.8020    5.4740  -16.8800 C   0  0  0  0  0  0  0  0  0  0  0  0
   -5.5140    5.7320  -16.4340 C   0  0  0  0  0  0  0  0  0  0  0  0
   -8.3860    8.1320  -11.5790 H   0  0  0  0  0  0  0  0  0  0  0  0
   -8.2440    2.5840   -9.5160 H   0  0  0  0  0  0  0  0  0  0  0  0
   -9.9390    2.8630   -9.9880 H   0  0  0  0  0  0  0  0  0  0  0  0
   -9.5440    1.3340   -8.1720 H   0  0  0  0  0  0  0  0  0  0  0  0
  -10.6410    2.5920   -7.6910 H   0  0  0  0  0  0  0  0  0  0  0  0
   -8.2640    4.0850   -5.7740 H   0  0  0  0  0  0  0  0  0  0  0  0
   -9.8070    4.1830   -6.5570 H   0  0  0  0  0  0  0  0  0  0  0  0
   -7.1990    4.0900   -8.0510 H   0  0  0  0  0  0  0  0  0  0  0  0
   -7.9490    5.6300   -7.7750 H   0  0  0  0  0  0  0  0  0  0  0  0
   -9.1490    3.2610  -11.4620 H   0  0  0  0  0  0  0  0  0  0  0  0
   -8.8890    4.3930  -13.5240 H   0  0  0  0  0  0  0  0  0  0  0  0
   -6.9820    5.5580  -14.2270 H   0  0  0  0  0  0  0  0  0  0  0  0
  -10.0060    5.4440  -15.8470 H   0  0  0  0  0  0  0  0  0  0  0  0
   -8.5030    4.4500  -19.7900 H   0  0  0  0  0  0  0  0  0  0  0  0
   -6.1940    4.9060  -19.0270 H   0  0  0  0  0  0  0  0  0  0  0  0
   -4.7140    5.7380  -17.1710 H   0  0  0  0  0  0  0  0  0  0  0  0
   -5.4750    6.7110  -15.9440 H   0  0  0  0  0  0  0  0  0  0  0  0
   -5.2610    4.9960  -15.6620 H   0  0  0  0  0  0  0  0  0  0  0  0
  1  2  1  0
  2  3  2  0
  3  4  1  0
  4  5  1  0
  4  6  2  0
  6  7  1  0
  7  8  1  0
  8  9  1  0
  9 10  1  0
 10 11  1  0
 11 12  1  0
  6 13  1  0
 13 14  2  0
  1 15  2  0
  1 16  1  0
 16 17  1  0
 17 18  2  0
 18 19  1  0
 19 20  1  0
 20 21  3  0
 19 22  2  0
 22 23  1  0
 23 24  2  0
 24 25  1  0
  2 14  1  0
 12  7  1  0
 17 24  1  0
  3 26  1  0
  8 27  1  0
  8 28  1  0
  9 29  1  0
  9 30  1  0
 11 31  1  0
 11 32  1  0
 12 33  1  0
 12 34  1  0
 13 35  1  0
 14 36  1  0
 16 37  1  0
 18 38  1  0
 22 39  1  0
 23 40  1  0
 25 41  1  0
 25 42  1  0
 25 43  1  0
A    1
 C1 
A    2
 C2 
A    3
 C3 
A    4
 C4 
A    5
BR1 
A    6
 C5 
A    7
 N1 
A    8
 C6 
A    9
 C7 
A   10
 O1 
A   11
 C8 
A   12
 C9 
A   13
 C10
A   14
 C11
A   15
 O2 
A   16
 N2 
A   17
 C12
A   18
 C13
A   19
 C14
A   20
 C15
A   21
 N3 
A   22
 C16
A   23
 C17
A   24
 C18
A   25
 C19
A   26
 H1 
A   27
 H2 
A   28
 H3 
A   29
 H4 
A   30
 H5 
A   31
 H6 
A   32
 H7 
A   33
 H8 
A   34
 H9 
A   35
 H10
A   36
 H11
A   37
 H12
A   38
 H13
A   39
 H14
A   40
 H15
A   41
 H16
A   42
 H17
A   43
 H18
M  END
>  <ref_pdb>  (438) 
x0051_0B

>  <ref_mols>  (438) 
x0553_0B,x0404_0B

>  <original SMILES>  (438) 
[H]c1c([H])c(C([H])([H])[H])c(N([H])C(=O)c2c([H])c([H])c(N3C([H])([H])C([H])([H])OC([H])([H])C3([H])[H])c(Br)c2[H])c([H])c1C#N

>  <index>  (438) 
360

>  <∆∆G>  (438) 
-6.7817

>  <∆G_bound>  (438) 
-6.280129

>  <∆G_unbound>  (438) 
0.501571

>  <comRMSD>  (438) 
0.591642

>  <N_constrained_atoms>  (438) 
24.0

>  <N_unconstrained_atoms>  (438) 
1.0

>  <runtime>  (438) 
83.886667

>  <LE>  (438) 
0.271268

>  <percent_hybrid>  (438) 
38.0

>  <dist>  (438) 
6.0

>  <ecfp4>  (438) 
0.308642

>  <daylight>  (438) 
0.226852

>  <topodist>  (438) 
3.0

>  <mces>  (438) 
26.0

>  <tdn>  (438) 
1.0

>  <tup>  (438) 
1.0

>  <rdn>  (438) 
0.0

>  <rup>  (438) 
0.0

>  <ldn>  (438) 
1.0

>  <lup>  (438) 
0.0

>  <mut>  (438) 
2.0

>  <maj>  (438) 
2.0

>  <min>  (438) 
0.0

>  <hyb>  (438) 
1.0

>  <sub>  (438) 
1.0

>  <query_index>  (438) 
112.0

>  <max_hit_Tanimoto>  (438) 
0.224138

>  <largest_ring>  (438) 
0

>  <N_interactions_kept>  (438) 
1.5

>  <N_interactions_lost>  (438) 
2.0

>  <interaction_uniqueness_metric>  (438) 
0.368339

>  <ad_hoc_penalty>  (438) 
-18.292117

>  <N_rotatable_bonds>  (438) 
4

>  <N_HA>  (438) 
25

>  <cluster>  (438) 
5889

>  <N_interactions>  (438) 
6

>  <Enamine>  (438) 
0

>  <Mcule>  (438) 
1

>  <N_PAINS>  (438) 
0

>  <UFF_Gibbs>  (438) 
298.597708

>  <strain_per_HA>  (438) 
11.943908

>  <saltbridge:HIS:51>  (438) 
0

>  <pistack:HIS:51>  (438) 
1

>  <hydroph_interaction:HIS:51>  (438) 
0

>  <hbond:ALA:132>  (438) 
0

>  <hbond:SER:135>  (438) 
0

>  <hydroph_interaction:TYR:150>  (438) 
0

>  <pistack:TYR:161>  (438) 
1

>  <hydroph_interaction:TYR:161>  (438) 
1

>  <hydroph_interaction:ASP:83>  (438) 
0

>  <hbond:TYR:130>  (438) 
0

>  <hydroph_interaction:ALA:132>  (438) 
1

>  <hbond:HIS:51>  (438) 
0

>  <hbond:ASP:129>  (438) 
0

>  <hbond:TYR:150>  (438) 
0

>  <hbond:GLY:151>  (438) 
0

>  <hbond:TYR:161>  (438) 
0

>  <hydroph_interaction:TYR:130>  (438) 
0

>  <hydroph_interaction:PRO:131>  (438) 
0

>  <hydroph_interaction:ASP:129>  (438) 
0

>  <saltbridge:ASP:75>  (438) 
0

>  <saltbridge:ASP:83>  (438) 
0

>  <hydroph_interaction:ASN:152>  (438) 
0

>  <halogenbond:TYR:150>  (438) 
0

>  <hbond:ASP:83>  (438) 
0

>  <hydroph_interaction:VAL:155>  (438) 
0

>  <pication:TYR:161>  (438) 
0

>  <hbond:PRO:131>  (438) 
1

>  <hbond:LEU:128>  (438) 
0

>  <saltbridge:ASP:129>  (438) 
0

>  <hbond:THR:134>  (438) 
1

>  <pication:HIS:51>  (438) 
0

>  <hbond:SER:81>  (438) 
0

>  <hbond:GLY:159>  (438) 
0

>  <hydroph_interaction:PRO:101>  (438) 
0

>  <hydroph_interaction:THR:134>  (438) 
0

>  <hbond:GLY:82>  (438) 
0

>  <hydroph_interaction:GLU:104>  (438) 
0

>  <hydroph_interaction:VAL:36>  (438) 
0

>  <hydroph_interaction:MET:49>  (438) 
0

>  <halogenbond:GLU:104>  (438) 
0

>  <hydroph_interaction:LYS:107>  (438) 
0

$$$$
QQDKTQOTGAJYBX-UHFFFAOYSA-N
     RDKit          3D

 54 57  0  0  0  0  0  0  0  0999 V2000
   -8.4560    7.0610  -14.1600 C   0  0  0  0  0  0  0  0  0  0  0  0
   -7.6190    6.4470  -15.1280 N   0  0  0  0  0  0  0  0  0  0  0  0
   -8.1750    5.7510  -16.3370 C   0  0  0  0  0  0  0  0  0  0  0  0
   -7.2950    5.4260  -17.5540 C   0  0  0  0  0  0  0  0  0  0  0  0
   -7.9100    4.8070  -18.6290 C   0  0  0  0  0  0  0  0  0  0  0  0
   -9.2540    4.4920  -18.6010 C   0  0  0  0  0  0  0  0  0  0  0  0
  -10.0340    4.7810  -17.4930 C   0  0  0  0  0  0  0  0  0  0  0  0
   -9.5180    5.4070  -16.3500 C   0  0  0  0  0  0  0  0  0  0  0  0
   -5.9210    5.6610  -17.7750 N   0  0  0  0  0  0  0  0  0  0  0  0
   -5.1140    6.5110  -17.0160 C   0  0  0  0  0  0  0  0  0  0  0  0
   -3.7230    6.6030  -17.3890 C   0  0  0  0  0  0  0  0  0  0  0  0
   -5.5290    7.2650  -15.9200 C   0  0  0  0  0  0  0  0  0  0  0  0
   -6.1420    6.4700  -14.9670 C   0  0  0  0  0  0  0  0  0  0  0  0
   -5.6470    5.0240  -14.9530 C   0  0  0  0  0  0  0  0  0  0  0  0
   -5.7650    7.0980  -13.6110 C   0  0  0  0  0  0  0  0  0  0  0  0
   -9.0290    8.1360  -14.2750 O   0  0  0  0  0  0  0  0  0  0  0  0
   -8.6020    6.4330  -12.8270 C   0  0  0  0  0  0  0  0  0  0  0  0
   -8.5310    7.2700  -11.5500 C   0  0  0  0  0  0  0  0  0  0  0  0
   -8.6820    6.5380  -10.2280 C   0  0  0  0  0  0  0  0  0  0  0  0
   -8.8890    5.0340  -10.3290 C   0  0  0  0  0  0  0  0  0  0  0  0
   -9.0330    4.3110   -9.1340 N   0  0  0  0  0  0  0  0  0  0  0  0
   -9.0960    2.8430   -9.2760 C   0  0  0  0  0  0  0  0  0  0  0  0
   -9.6400    2.3080   -7.9590 C   0  0  0  0  0  0  0  0  0  0  0  0
   -8.7630    2.6380   -6.8700 O   0  0  0  0  0  0  0  0  0  0  0  0
   -8.7170    4.0670   -6.7130 C   0  0  0  0  0  0  0  0  0  0  0  0
   -8.1950    4.7460   -7.9940 C   0  0  0  0  0  0  0  0  0  0  0  0
   -8.9400    4.3940  -11.5260 N   0  0  0  0  0  0  0  0  0  0  0  0
   -8.8030    5.0670  -12.7070 C   0  0  0  0  0  0  0  0  0  0  0  0
   -7.3210    4.5620  -19.5150 H   0  0  0  0  0  0  0  0  0  0  0  0
   -9.6930    4.0080  -19.4650 H   0  0  0  0  0  0  0  0  0  0  0  0
  -11.0730    4.5130  -17.5180 H   0  0  0  0  0  0  0  0  0  0  0  0
  -10.1690    5.6160  -15.5050 H   0  0  0  0  0  0  0  0  0  0  0  0
   -3.2170    5.7300  -16.9750 H   0  0  0  0  0  0  0  0  0  0  0  0
   -3.0840    7.4510  -17.1600 H   0  0  0  0  0  0  0  0  0  0  0  0
   -3.6930    6.4910  -18.4730 H   0  0  0  0  0  0  0  0  0  0  0  0
   -4.6510    7.7550  -15.4910 H   0  0  0  0  0  0  0  0  0  0  0  0
   -6.2150    8.0280  -16.2930 H   0  0  0  0  0  0  0  0  0  0  0  0
   -4.8920    4.7440  -15.6860 H   0  0  0  0  0  0  0  0  0  0  0  0
   -6.4820    4.3420  -15.1030 H   0  0  0  0  0  0  0  0  0  0  0  0
   -5.2340    4.7640  -13.9740 H   0  0  0  0  0  0  0  0  0  0  0  0
   -6.0870    6.4580  -12.7810 H   0  0  0  0  0  0  0  0  0  0  0  0
   -4.6850    7.2330  -13.4900 H   0  0  0  0  0  0  0  0  0  0  0  0
   -6.2330    8.0790  -13.4770 H   0  0  0  0  0  0  0  0  0  0  0  0
   -8.3790    8.3430  -11.5610 H   0  0  0  0  0  0  0  0  0  0  0  0
   -8.6430    7.0580   -9.2780 H   0  0  0  0  0  0  0  0  0  0  0  0
   -9.7680    2.5280  -10.0850 H   0  0  0  0  0  0  0  0  0  0  0  0
   -8.0950    2.4250   -9.4550 H   0  0  0  0  0  0  0  0  0  0  0  0
  -10.6390    2.7160   -7.7530 H   0  0  0  0  0  0  0  0  0  0  0  0
   -9.7330    1.2360   -8.0050 H   0  0  0  0  0  0  0  0  0  0  0  0
   -9.7130    4.4260   -6.4530 H   0  0  0  0  0  0  0  0  0  0  0  0
   -8.0460    4.2800   -5.8740 H   0  0  0  0  0  0  0  0  0  0  0  0
   -7.1440    4.4590   -8.1400 H   0  0  0  0  0  0  0  0  0  0  0  0
   -8.2630    5.8360   -7.8630 H   0  0  0  0  0  0  0  0  0  0  0  0
   -8.8630    4.4340  -13.5880 H   0  0  0  0  0  0  0  0  0  0  0  0
  1  2  1  0
  2  3  1  0
  3  4  1  0
  4  5  2  0
  5  6  1  0
  6  7  2  0
  7  8  1  0
  4  9  1  0
  9 10  2  0
 10 11  1  0
 10 12  1  0
 12 13  1  0
 13 14  1  0
 13 15  1  0
  1 16  2  0
  1 17  1  0
 17 18  2  0
 18 19  1  0
 19 20  2  0
 20 21  1  0
 21 22  1  0
 22 23  1  0
 23 24  1  0
 24 25  1  0
 25 26  1  0
 20 27  1  0
 27 28  2  0
 13  2  1  0
  8  3  2  0
 28 17  1  0
 26 21  1  0
  5 29  1  0
  6 30  1  0
  7 31  1  0
  8 32  1  0
 11 33  1  0
 11 34  1  0
 11 35  1  0
 12 36  1  0
 12 37  1  0
 14 38  1  0
 14 39  1  0
 14 40  1  0
 15 41  1  0
 15 42  1  0
 15 43  1  0
 18 44  1  0
 19 45  1  0
 22 46  1  0
 22 47  1  0
 23 48  1  0
 23 49  1  0
 25 50  1  0
 25 51  1  0
 26 52  1  0
 26 53  1  0
 28 54  1  0
A    1
 C1 
A    2
 N1 
A    3
 C2 
A    4
 C3 
A    5
 C4 
A    6
 C5 
A    7
 C6 
A    8
 C7 
A    9
 N2 
A   10
 C8 
A   11
 C9 
A   12
 C10
A   13
 C11
A   14
 C12
A   15
 C13
A   16
 O1 
A   17
 C14
A   18
 C15
A   19
 C16
A   20
 C17
A   21
 N3 
A   22
 C18
A   23
 C19
A   24
 O2 
A   25
 C20
A   26
 C21
A   27
 N4 
A   28
 C22
A   29
 H1 
A   30
 H2 
A   31
 H3 
A   32
 H4 
A   33
 H5 
A   34
 H6 
A   35
 H7 
A   36
 H8 
A   37
 H9 
A   38
 H10
A   39
 H11
A   40
 H12
A   41
 H13
A   42
 H14
A   43
 H15
A   44
 H16
A   45
 H17
A   46
 H18
A   47
 H19
A   48
 H20
A   49
 H21
A   50
 H22
A   51
 H23
A   52
 H24
A   53
 H25
A   54
 H26
M  END
>  <ref_pdb>  (439) 
x0051_0B

>  <ref_mols>  (439) 
x0089_0B,x0404_0B

>  <original SMILES>  (439) 
[H]c1nc(N2C([H])([H])C([H])([H])OC([H])([H])C2([H])[H])c([H])c([H])c1C(=O)N1c2c([H])c([H])c([H])c([H])c2N=C(C([H])([H])[H])C([H])([H])C1(C([H])([H])[H])C([H])([H])[H]

>  <index>  (439) 
714

>  <∆∆G>  (439) 
-7.410786

>  <∆G_bound>  (439) 
-7.785

>  <∆G_unbound>  (439) 
-0.374214

>  <comRMSD>  (439) 
0.879027

>  <N_constrained_atoms>  (439) 
26.0

>  <N_unconstrained_atoms>  (439) 
5.0

>  <runtime>  (439) 
58.598073

>  <LE>  (439) 
0.239058

>  <percent_hybrid>  (439) 
43.0

>  <dist>  (439) 
11.0

>  <ecfp4>  (439) 
0.175258

>  <daylight>  (439) 
0.212698

>  <topodist>  (439) 
4.0

>  <mces>  (439) 
30.0

>  <tdn>  (439) 
1.0

>  <tup>  (439) 
0.0

>  <rdn>  (439) 
1.0

>  <rup>  (439) 
1.0

>  <ldn>  (439) 
1.0

>  <lup>  (439) 
0.0

>  <mut>  (439) 
5.0

>  <maj>  (439) 
5.0

>  <min>  (439) 
0.0

>  <hyb>  (439) 
2.0

>  <sub>  (439) 
2.0

>  <query_index>  (439) 
3.0

>  <max_hit_Tanimoto>  (439) 
0.186218

>  <largest_ring>  (439) 
7

>  <N_interactions_kept>  (439) 
2.0

>  <N_interactions_lost>  (439) 
2.5

>  <interaction_uniqueness_metric>  (439) 
0.119529

>  <ad_hoc_penalty>  (439) 
-18.265322

>  <N_rotatable_bonds>  (439) 
5

>  <N_HA>  (439) 
28

>  <cluster>  (439) 
5566

>  <N_interactions>  (439) 
7

>  <Enamine>  (439) 
0

>  <Mcule>  (439) 
1

>  <N_PAINS>  (439) 
0

>  <UFF_Gibbs>  (439) 
118.827614

>  <strain_per_HA>  (439) 
4.243843

>  <saltbridge:HIS:51>  (439) 
0

>  <pistack:HIS:51>  (439) 
1

>  <hydroph_interaction:HIS:51>  (439) 
1

>  <hbond:ALA:132>  (439) 
0

>  <hbond:SER:135>  (439) 
0

>  <hydroph_interaction:TYR:150>  (439) 
1

>  <pistack:TYR:161>  (439) 
0

>  <hydroph_interaction:TYR:161>  (439) 
3

>  <hydroph_interaction:ASP:83>  (439) 
0

>  <hbond:TYR:130>  (439) 
0

>  <hydroph_interaction:ALA:132>  (439) 
1

>  <hbond:HIS:51>  (439) 
0

>  <hbond:ASP:129>  (439) 
0

>  <hbond:TYR:150>  (439) 
0

>  <hbond:GLY:151>  (439) 
0

>  <hbond:TYR:161>  (439) 
0

>  <hydroph_interaction:TYR:130>  (439) 
0

>  <hydroph_interaction:PRO:131>  (439) 
0

>  <hydroph_interaction:ASP:129>  (439) 
0

>  <saltbridge:ASP:75>  (439) 
0

>  <saltbridge:ASP:83>  (439) 
0

>  <hydroph_interaction:ASN:152>  (439) 
0

>  <halogenbond:TYR:150>  (439) 
0

>  <hbond:ASP:83>  (439) 
0

>  <hydroph_interaction:VAL:155>  (439) 
0

>  <pication:TYR:161>  (439) 
0

>  <hbond:PRO:131>  (439) 
0

>  <hbond:LEU:128>  (439) 
0

>  <saltbridge:ASP:129>  (439) 
0

>  <hbond:THR:134>  (439) 
0

>  <pication:HIS:51>  (439) 
0

>  <hbond:SER:81>  (439) 
0

>  <hbond:GLY:159>  (439) 
0

>  <hydroph_interaction:PRO:101>  (439) 
0

>  <hydroph_interaction:THR:134>  (439) 
0

>  <hbond:GLY:82>  (439) 
0

>  <hydroph_interaction:GLU:104>  (439) 
0

>  <hydroph_interaction:VAL:36>  (439) 
0

>  <hydroph_interaction:MET:49>  (439) 
0

>  <halogenbond:GLU:104>  (439) 
0

>  <hydroph_interaction:LYS:107>  (439) 
0

$$$$
CSSS00011471442
     RDKit          3D

 25 26  0  0  0  0  0  0  0  0999 V2000
   -2.4980    5.5010  -20.0180 C   0  0  0  0  0  0  0  0  0  0  0  0
   -3.9120    5.4180  -19.5090 C   0  0  0  0  0  0  0  0  0  0  0  0
   -5.0490    5.2770  -20.4320 C   0  0  0  0  0  0  0  0  0  0  0  0
   -6.3710    5.1790  -20.0430 C   0  0  0  0  0  0  0  0  0  0  0  0
   -6.6460    5.2210  -18.6720 C   0  0  0  0  0  0  0  0  0  0  0  0
   -7.9760    5.0940  -18.2760 C   0  0  0  0  0  0  0  0  0  0  0  0
   -8.3450    5.1880  -16.9900 N   0  0  0  0  0  0  0  0  0  0  0  0
   -9.6640    4.9950  -16.9740 N   0  0  0  0  0  0  0  0  0  0  0  0
  -10.1960    4.7770  -18.2090 C   0  0  0  0  0  0  0  0  0  0  0  0
   -9.1190    4.8360  -19.0860 C   0  0  0  0  0  0  0  0  0  0  0  0
   -5.5830    5.3710  -17.7270 C   0  0  0  0  0  0  0  0  0  0  0  0
   -5.8260    5.4270  -16.2480 C   0  0  0  0  0  0  0  0  0  0  0  0
   -4.2370    5.4650  -18.1560 C   0  0  0  0  0  0  0  0  0  0  0  0
   -1.8500    4.8880  -19.3740 H   0  0  0  0  0  0  0  0  0  0  0  0
   -2.1370    6.5340  -19.9790 H   0  0  0  0  0  0  0  0  0  0  0  0
   -2.4390    5.1030  -21.0370 H   0  0  0  0  0  0  0  0  0  0  0  0
   -4.8390    5.2390  -21.5090 H   0  0  0  0  0  0  0  0  0  0  0  0
   -7.1640    5.0680  -20.7760 H   0  0  0  0  0  0  0  0  0  0  0  0
  -10.1450    5.0240  -16.0760 H   0  0  0  0  0  0  0  0  0  0  0  0
  -11.2650    4.6020  -18.3610 H   0  0  0  0  0  0  0  0  0  0  0  0
   -9.1640    4.7050  -20.1620 H   0  0  0  0  0  0  0  0  0  0  0  0
   -6.5310    4.6630  -15.9360 H   0  0  0  0  0  0  0  0  0  0  0  0
   -4.8840    5.3070  -15.7100 H   0  0  0  0  0  0  0  0  0  0  0  0
   -6.2610    6.3920  -15.9590 H   0  0  0  0  0  0  0  0  0  0  0  0
   -3.4360    5.5730  -17.4160 H   0  0  0  0  0  0  0  0  0  0  0  0
  1  2  1  0
  2  3  2  0
  3  4  1  0
  4  5  2  0
  5  6  1  0
  6  7  2  0
  7  8  1  0
  8  9  1  0
  9 10  2  0
  5 11  1  0
 11 12  1  0
 11 13  2  0
 13  2  1  0
 10  6  1  0
  1 14  1  0
  1 15  1  0
  1 16  1  0
  3 17  1  0
  4 18  1  0
  8 19  1  0
  9 20  1  0
 10 21  1  0
 12 22  1  0
 12 23  1  0
 12 24  1  0
 13 25  1  0
A    1
 C1 
A    2
 C2 
A    3
 C3 
A    4
 C4 
A    5
 C5 
A    6
 C6 
A    7
 N1 
A    8
 N2 
A    9
 C7 
A   10
 C8 
A   11
 C9 
A   12
 C10
A   13
 C11
A   14
 H1 
A   15
 H2 
A   16
 H3 
A   17
 H4 
A   18
 H5 
A   19
 H6 
A   20
 H7 
A   21
 H8 
A   22
 H9 
A   23
 H10
A   24
 H11
A   25
 H12
M  END
>  <ref_pdb>  (440) 
x0051_0B

>  <ref_mols>  (440) 
x0680_0B,x0386_0B

>  <original SMILES>  (440) 
[H]c1c([H])c(C([H])([H])[H])c([H])c(C([H])([H])[H])c1-c1nn([H])c([H])c1[H]

>  <index>  (440) 
894

>  <∆∆G>  (440) 
-6.975277

>  <∆G_bound>  (440) 
-7.17432

>  <∆G_unbound>  (440) 
-0.199043

>  <comRMSD>  (440) 
0.5454

>  <N_constrained_atoms>  (440) 
13.0

>  <N_unconstrained_atoms>  (440) 
1.0

>  <runtime>  (440) 
26.65661

>  <LE>  (440) 
0.498234

>  <percent_hybrid>  (440) 
25.0

>  <dist>  (440) 
4.0

>  <ecfp4>  (440) 
0.211538

>  <daylight>  (440) 
0.17931

>  <topodist>  (440) 
1.0

>  <mces>  (440) 
13.0

>  <tdn>  (440) 
0.0

>  <tup>  (440) 
1.0

>  <rdn>  (440) 
0.0

>  <rup>  (440) 
0.0

>  <ldn>  (440) 
0.0

>  <lup>  (440) 
0.0

>  <mut>  (440) 
3.0

>  <maj>  (440) 
3.0

>  <min>  (440) 
0.0

>  <hyb>  (440) 
0.0

>  <sub>  (440) 
1.0

>  <query_index>  (440) 
296.0

>  <max_hit_Tanimoto>  (440) 
0.116554

>  <largest_ring>  (440) 
6

>  <N_interactions_kept>  (440) 
2.0

>  <N_interactions_lost>  (440) 
2.0

>  <interaction_uniqueness_metric>  (440) 
0.044868

>  <ad_hoc_penalty>  (440) 
-18.192503

>  <N_rotatable_bonds>  (440) 
3

>  <N_HA>  (440) 
13

>  <cluster>  (440) 
5400

>  <N_interactions>  (440) 
5

>  <Enamine>  (440) 
1

>  <Mcule>  (440) 
0

>  <N_PAINS>  (440) 
0

>  <UFF_Gibbs>  (440) 
24.014057

>  <strain_per_HA>  (440) 
1.847235

>  <saltbridge:HIS:51>  (440) 
0

>  <pistack:HIS:51>  (440) 
0

>  <hydroph_interaction:HIS:51>  (440) 
0

>  <hbond:ALA:132>  (440) 
0

>  <hbond:SER:135>  (440) 
0

>  <hydroph_interaction:TYR:150>  (440) 
1

>  <pistack:TYR:161>  (440) 
1

>  <hydroph_interaction:TYR:161>  (440) 
3

>  <hydroph_interaction:ASP:83>  (440) 
0

>  <hbond:TYR:130>  (440) 
0

>  <hydroph_interaction:ALA:132>  (440) 
0

>  <hbond:HIS:51>  (440) 
0

>  <hbond:ASP:129>  (440) 
0

>  <hbond:TYR:150>  (440) 
0

>  <hbond:GLY:151>  (440) 
0

>  <hbond:TYR:161>  (440) 
0

>  <hydroph_interaction:TYR:130>  (440) 
0

>  <hydroph_interaction:PRO:131>  (440) 
0

>  <hydroph_interaction:ASP:129>  (440) 
0

>  <saltbridge:ASP:75>  (440) 
0

>  <saltbridge:ASP:83>  (440) 
0

>  <hydroph_interaction:ASN:152>  (440) 
0

>  <halogenbond:TYR:150>  (440) 
0

>  <hbond:ASP:83>  (440) 
0

>  <hydroph_interaction:VAL:155>  (440) 
0

>  <pication:TYR:161>  (440) 
0

>  <hbond:PRO:131>  (440) 
0

>  <hbond:LEU:128>  (440) 
0

>  <saltbridge:ASP:129>  (440) 
0

>  <hbond:THR:134>  (440) 
0

>  <pication:HIS:51>  (440) 
0

>  <hbond:SER:81>  (440) 
0

>  <hbond:GLY:159>  (440) 
0

>  <hydroph_interaction:PRO:101>  (440) 
0

>  <hydroph_interaction:THR:134>  (440) 
0

>  <hbond:GLY:82>  (440) 
0

>  <hydroph_interaction:GLU:104>  (440) 
0

>  <hydroph_interaction:VAL:36>  (440) 
0

>  <hydroph_interaction:MET:49>  (440) 
0

>  <halogenbond:GLU:104>  (440) 
0

>  <hydroph_interaction:LYS:107>  (440) 
0

$$$$
CSCS03437706422
     RDKit          3D

 20 21  0  0  0  0  0  0  0  0999 V2000
   -9.8290    5.1040  -15.5340 N   0  0  0  0  0  0  0  0  0  0  0  0
   -9.3430    5.0650  -16.7740 C   0  0  0  0  0  0  0  0  0  0  0  0
   -8.0790    5.2220  -17.0140 N   0  0  0  0  0  0  0  0  0  0  0  0
   -7.8690    5.1240  -18.2730 C   0  0  0  0  0  0  0  0  0  0  0  0
   -8.9310    4.8910  -19.1190 C   0  0  0  0  0  0  0  0  0  0  0  0
  -10.3360    4.7930  -18.1590 S   0  0  0  0  0  0  0  0  0  0  0  0
   -6.4980    5.2480  -18.7240 C   0  0  0  0  0  0  0  0  0  0  0  0
   -6.2260    5.1570  -20.2220 C   0  0  0  0  0  0  0  0  0  0  0  0
   -4.9190    5.2560  -20.6810 C   0  0  0  0  0  0  0  0  0  0  0  0
   -3.8720    5.4340  -19.7720 C   0  0  0  0  0  0  0  0  0  0  0  0
   -4.1110    5.5190  -18.3930 C   0  0  0  0  0  0  0  0  0  0  0  0
   -5.4050    5.4320  -17.8670 C   0  0  0  0  0  0  0  0  0  0  0  0
   -5.5390    5.5560  -16.1490 Cl  0  0  0  0  0  0  0  0  0  0  0  0
   -9.9930    4.1810  -15.1450 H   0  0  0  0  0  0  0  0  0  0  0  0
  -10.5770    5.7660  -15.3740 H   0  0  0  0  0  0  0  0  0  0  0  0
   -8.9630    4.7780  -20.1900 H   0  0  0  0  0  0  0  0  0  0  0  0
   -7.0420    5.0130  -20.9290 H   0  0  0  0  0  0  0  0  0  0  0  0
   -4.7130    5.1900  -21.7450 H   0  0  0  0  0  0  0  0  0  0  0  0
   -2.8520    5.5040  -20.1400 H   0  0  0  0  0  0  0  0  0  0  0  0
   -3.2630    5.6560  -17.7250 H   0  0  0  0  0  0  0  0  0  0  0  0
  1  2  1  0
  2  3  2  0
  3  4  1  0
  4  5  2  0
  5  6  1  0
  4  7  1  0
  7  8  2  0
  8  9  1  0
  9 10  2  0
 10 11  1  0
 11 12  2  0
 12 13  1  0
  6  2  1  0
 12  7  1  0
  1 14  1  0
  1 15  1  0
  5 16  1  0
  8 17  1  0
  9 18  1  0
 10 19  1  0
 11 20  1  0
A    1
 N1 
A    2
 C1 
A    3
 N2 
A    4
 C2 
A    5
 C3 
A    6
 S1 
A    7
 C4 
A    8
 C5 
A    9
 C6 
A   10
 C7 
A   11
 C8 
A   12
 C9 
A   13
CL1 
A   14
 H1 
A   15
 H2 
A   16
 H3 
A   17
 H4 
A   18
 H5 
A   19
 H6 
A   20
 H7 
M  END
>  <ref_pdb>  (441) 
x0051_0B

>  <ref_mols>  (441) 
x0680_0B,x0386_0B

>  <original SMILES>  (441) 
[H]c1sc(N([H])[H])nc1-c1c([H])c([H])c([H])c([H])c1Cl

>  <index>  (441) 
812

>  <∆∆G>  (441) 
-6.144385

>  <∆G_bound>  (441) 
-5.90076

>  <∆G_unbound>  (441) 
0.243626

>  <comRMSD>  (441) 
0.57395

>  <N_constrained_atoms>  (441) 
12.0

>  <N_unconstrained_atoms>  (441) 
1.0

>  <runtime>  (441) 
27.429028

>  <LE>  (441) 
0.472645

>  <percent_hybrid>  (441) 
17.0

>  <dist>  (441) 
4.0

>  <ecfp4>  (441) 
0.145455

>  <daylight>  (441) 
0.166667

>  <topodist>  (441) 
1.0

>  <mces>  (441) 
13.0

>  <tdn>  (441) 
0.0

>  <tup>  (441) 
1.0

>  <rdn>  (441) 
0.0

>  <rup>  (441) 
0.0

>  <ldn>  (441) 
0.0

>  <lup>  (441) 
0.0

>  <mut>  (441) 
3.0

>  <maj>  (441) 
2.0

>  <min>  (441) 
1.0

>  <hyb>  (441) 
0.0

>  <sub>  (441) 
1.0

>  <query_index>  (441) 
296.0

>  <max_hit_Tanimoto>  (441) 
0.11756

>  <largest_ring>  (441) 
6

>  <N_interactions_kept>  (441) 
2.5

>  <N_interactions_lost>  (441) 
1.5

>  <interaction_uniqueness_metric>  (441) 
0.090198

>  <ad_hoc_penalty>  (441) 
-18.178703

>  <N_rotatable_bonds>  (441) 
2

>  <N_HA>  (441) 
13

>  <cluster>  (441) 
5474

>  <N_interactions>  (441) 
4

>  <Enamine>  (441) 
1

>  <Mcule>  (441) 
0

>  <N_PAINS>  (441) 
0

>  <UFF_Gibbs>  (441) 
39.987769

>  <strain_per_HA>  (441) 
3.075982

>  <saltbridge:HIS:51>  (441) 
0

>  <pistack:HIS:51>  (441) 
0

>  <hydroph_interaction:HIS:51>  (441) 
0

>  <hbond:ALA:132>  (441) 
0

>  <hbond:SER:135>  (441) 
2

>  <hydroph_interaction:TYR:150>  (441) 
0

>  <pistack:TYR:161>  (441) 
1

>  <hydroph_interaction:TYR:161>  (441) 
1

>  <hydroph_interaction:ASP:83>  (441) 
0

>  <hbond:TYR:130>  (441) 
0

>  <hydroph_interaction:ALA:132>  (441) 
0

>  <hbond:HIS:51>  (441) 
0

>  <hbond:ASP:129>  (441) 
0

>  <hbond:TYR:150>  (441) 
0

>  <hbond:GLY:151>  (441) 
0

>  <hbond:TYR:161>  (441) 
0

>  <hydroph_interaction:TYR:130>  (441) 
0

>  <hydroph_interaction:PRO:131>  (441) 
0

>  <hydroph_interaction:ASP:129>  (441) 
0

>  <saltbridge:ASP:75>  (441) 
0

>  <saltbridge:ASP:83>  (441) 
0

>  <hydroph_interaction:ASN:152>  (441) 
0

>  <halogenbond:TYR:150>  (441) 
0

>  <hbond:ASP:83>  (441) 
0

>  <hydroph_interaction:VAL:155>  (441) 
0

>  <pication:TYR:161>  (441) 
0

>  <hbond:PRO:131>  (441) 
0

>  <hbond:LEU:128>  (441) 
0

>  <saltbridge:ASP:129>  (441) 
0

>  <hbond:THR:134>  (441) 
0

>  <pication:HIS:51>  (441) 
0

>  <hbond:SER:81>  (441) 
0

>  <hbond:GLY:159>  (441) 
0

>  <hydroph_interaction:PRO:101>  (441) 
0

>  <hydroph_interaction:THR:134>  (441) 
0

>  <hbond:GLY:82>  (441) 
0

>  <hydroph_interaction:GLU:104>  (441) 
0

>  <hydroph_interaction:VAL:36>  (441) 
0

>  <hydroph_interaction:MET:49>  (441) 
0

>  <halogenbond:GLU:104>  (441) 
0

>  <hydroph_interaction:LYS:107>  (441) 
0

$$$$
Z3205060865
     RDKit          3D

 54 56  0  0  0  0  0  0  0  0999 V2000
   -2.4000    4.8150  -21.8610 C   0  0  0  0  0  0  0  0  0  0  0  0
   -3.5560    5.6110  -21.4650 N   0  0  0  0  0  0  0  0  0  0  0  0
   -4.7100    5.4030  -22.3330 C   0  0  0  0  0  0  0  0  0  0  0  0
   -3.9040    5.6830  -20.0460 C   0  0  0  0  0  0  0  0  0  0  0  0
   -5.2920    5.6250  -19.8020 C   0  0  0  0  0  0  0  0  0  0  0  0
   -5.7200    5.7160  -18.5020 O   0  0  0  0  0  0  0  0  0  0  0  0
   -7.0510    5.4340  -18.1300 C   0  0  0  0  0  0  0  0  0  0  0  0
   -7.8750    5.1310  -19.1920 C   0  0  0  0  0  0  0  0  0  0  0  0
   -9.3200    4.7940  -19.1300 C   0  0  0  0  0  0  0  0  0  0  0  0
   -9.8080    4.8180  -17.6720 C   0  0  0  0  0  0  0  0  0  0  0  0
   -8.8540    5.1610  -16.5140 C   0  0  0  0  0  0  0  0  0  0  0  0
   -9.2850    5.1800  -15.1720 C   0  0  0  0  0  0  0  0  0  0  0  0
   -9.1110    6.2760  -14.3090 C   0  0  0  0  0  0  0  0  0  0  0  0
   -8.6250    7.3440  -14.6470 O   0  0  0  0  0  0  0  0  0  0  0  0
   -9.5230    6.0150  -13.0180 N   0  0  0  0  0  0  0  0  0  0  0  0
   -8.6200    5.1900  -12.1990 C   0  0  0  0  0  0  0  0  0  0  0  0
   -8.7350    5.4230  -10.7070 C   0  0  0  0  0  0  0  0  0  0  0  0
   -8.9200    4.4080   -9.6980 C   0  0  0  0  0  0  0  0  0  0  0  0
   -9.0250    2.9380  -10.0710 C   0  0  0  0  0  0  0  0  0  0  0  0
   -8.7100    2.2390   -8.9080 C   0  0  0  0  0  0  0  0  0  0  0  0
   -9.3410    2.6630   -7.7340 C   0  0  0  0  0  0  0  0  0  0  0  0
   -9.1440    4.1280   -7.3250 C   0  0  0  0  0  0  0  0  0  0  0  0
   -8.9780    4.8830   -8.4530 N   0  0  0  0  0  0  0  0  0  0  0  0
   -8.8450    6.2330   -8.4970 N   0  0  0  0  0  0  0  0  0  0  0  0
   -8.7020    6.5580   -9.8360 C   0  0  0  0  0  0  0  0  0  0  0  0
   -7.5300    5.4490  -16.8210 C   0  0  0  0  0  0  0  0  0  0  0  0
   -1.6140    5.4740  -22.2390 H   0  0  0  0  0  0  0  0  0  0  0  0
   -1.9830    4.2640  -21.0110 H   0  0  0  0  0  0  0  0  0  0  0  0
   -2.6420    4.1020  -22.6570 H   0  0  0  0  0  0  0  0  0  0  0  0
   -5.5460    6.0650  -22.0760 H   0  0  0  0  0  0  0  0  0  0  0  0
   -5.0660    4.3690  -22.2300 H   0  0  0  0  0  0  0  0  0  0  0  0
   -4.4290    5.5380  -23.3830 H   0  0  0  0  0  0  0  0  0  0  0  0
   -3.3840    4.9100  -19.4680 H   0  0  0  0  0  0  0  0  0  0  0  0
   -3.5530    6.6400  -19.6340 H   0  0  0  0  0  0  0  0  0  0  0  0
   -5.7710    6.4410  -20.3570 H   0  0  0  0  0  0  0  0  0  0  0  0
   -5.6550    4.6730  -20.2070 H   0  0  0  0  0  0  0  0  0  0  0  0
   -7.4190    5.1430  -20.1770 H   0  0  0  0  0  0  0  0  0  0  0  0
   -9.9120    4.5720  -19.9940 H   0  0  0  0  0  0  0  0  0  0  0  0
  -10.8210    4.6010  -17.3870 H   0  0  0  0  0  0  0  0  0  0  0  0
   -8.7780    4.3530  -14.6660 H   0  0  0  0  0  0  0  0  0  0  0  0
  -10.3460    4.9120  -15.1350 H   0  0  0  0  0  0  0  0  0  0  0  0
  -10.5290    5.8810  -12.8590 H   0  0  0  0  0  0  0  0  0  0  0  0
   -8.7920    4.1360  -12.4610 H   0  0  0  0  0  0  0  0  0  0  0  0
   -7.5760    5.4330  -12.4320 H   0  0  0  0  0  0  0  0  0  0  0  0
   -8.3400    2.6670  -10.8830 H   0  0  0  0  0  0  0  0  0  0  0  0
  -10.0340    2.7110  -10.3840 H   0  0  0  0  0  0  0  0  0  0  0  0
   -7.6280    2.3320   -8.7640 H   0  0  0  0  0  0  0  0  0  0  0  0
   -8.9070    1.1830   -9.0550 H   0  0  0  0  0  0  0  0  0  0  0  0
   -9.0070    2.0290   -6.9110 H   0  0  0  0  0  0  0  0  0  0  0  0
  -10.4170    2.4690   -7.8410 H   0  0  0  0  0  0  0  0  0  0  0  0
   -8.2590    4.2420   -6.6930 H   0  0  0  0  0  0  0  0  0  0  0  0
  -10.0190    4.5120   -6.7980 H   0  0  0  0  0  0  0  0  0  0  0  0
   -8.5800    7.5980  -10.1070 H   0  0  0  0  0  0  0  0  0  0  0  0
   -6.8640    5.6890  -15.9960 H   0  0  0  0  0  0  0  0  0  0  0  0
  1  2  1  0
  2  3  1  0
  2  4  1  0
  4  5  1  0
  5  6  1  0
  6  7  1  0
  7  8  2  0
  8  9  1  0
  9 10  2  0
 10 11  1  0
 11 12  1  0
 12 13  1  0
 13 14  2  0
 13 15  1  0
 15 16  1  0
 16 17  1  0
 17 18  2  0
 18 19  1  0
 19 20  1  0
 20 21  1  0
 21 22  1  0
 22 23  1  0
 23 24  1  0
 24 25  2  0
 11 26  2  0
 26  7  1  0
 25 17  1  0
 23 18  1  0
  1 27  1  0
  1 28  1  0
  1 29  1  0
  3 30  1  0
  3 31  1  0
  3 32  1  0
  4 33  1  0
  4 34  1  0
  5 35  1  0
  5 36  1  0
  8 37  1  0
  9 38  1  0
 10 39  1  0
 12 40  1  0
 12 41  1  0
 15 42  1  0
 16 43  1  0
 16 44  1  0
 19 45  1  0
 19 46  1  0
 20 47  1  0
 20 48  1  0
 21 49  1  0
 21 50  1  0
 22 51  1  0
 22 52  1  0
 25 53  1  0
 26 54  1  0
A    1
 C1 
A    2
 N1 
A    3
 C2 
A    4
 C3 
A    5
 C4 
A    6
 O1 
A    7
 C5 
A    8
 C6 
A    9
 C7 
A   10
 C8 
A   11
 C9 
A   12
 C10
A   13
 C11
A   14
 O2 
A   15
 N2 
A   16
 C12
A   17
 C13
A   18
 C14
A   19
 C15
A   20
 C16
A   21
 C17
A   22
 C18
A   23
 N3 
A   24
 N4 
A   25
 C19
A   26
 C20
A   27
 H1 
A   28
 H2 
A   29
 H3 
A   30
 H4 
A   31
 H5 
A   32
 H6 
A   33
 H7 
A   34
 H8 
A   35
 H9 
A   36
 H10
A   37
 H11
A   38
 H12
A   39
 H13
A   40
 H14
A   41
 H15
A   42
 H16
A   43
 H17
A   44
 H18
A   45
 H19
A   46
 H20
A   47
 H21
A   48
 H22
A   49
 H23
A   50
 H24
A   51
 H25
A   52
 H26
A   53
 H27
A   54
 H28
M  END
>  <ref_pdb>  (442) 
x0051_0B

>  <ref_mols>  (442) 
x0969_1B,x0904_0B

>  <original SMILES>  (442) 
[H]c1nn2c(c1C([H])([H])N([H])C(=O)C([H])([H])c1c([H])c([H])c([H])c(OC([H])([H])C([H])([H])N(C([H])([H])[H])C([H])([H])[H])c1[H])C([H])([H])C([H])([H])C([H])([H])C2([H])[H]

>  <index>  (442) 
681

>  <∆∆G>  (442) 
-9.819113

>  <∆G_bound>  (442) 
-9.298932

>  <∆G_unbound>  (442) 
0.520182

>  <comRMSD>  (442) 
0.617498

>  <N_constrained_atoms>  (442) 
24.0

>  <N_unconstrained_atoms>  (442) 
3.0

>  <runtime>  (442) 
86.886611

>  <LE>  (442) 
0.363671

>  <percent_hybrid>  (442) 
42.0

>  <dist>  (442) 
7.0

>  <ecfp4>  (442) 
0.410256

>  <daylight>  (442) 
0.372881

>  <topodist>  (442) 
2.0

>  <mces>  (442) 
27.0

>  <tdn>  (442) 
1.0

>  <tup>  (442) 
1.0

>  <rdn>  (442) 
0.0

>  <rup>  (442) 
0.0

>  <ldn>  (442) 
0.0

>  <lup>  (442) 
0.0

>  <mut>  (442) 
3.0

>  <maj>  (442) 
3.0

>  <min>  (442) 
0.0

>  <hyb>  (442) 
2.0

>  <sub>  (442) 
0.0

>  <query_index>  (442) 
111.0

>  <max_hit_Tanimoto>  (442) 
0.350823

>  <largest_ring>  (442) 
6

>  <N_interactions_kept>  (442) 
2.0

>  <N_interactions_lost>  (442) 
1.5

>  <interaction_uniqueness_metric>  (442) 
0.345148

>  <ad_hoc_penalty>  (442) 
-18.160635

>  <N_rotatable_bonds>  (442) 
10

>  <N_HA>  (442) 
26

>  <cluster>  (442) 
5594

>  <N_interactions>  (442) 
6

>  <Enamine>  (442) 
1

>  <Mcule>  (442) 
0

>  <N_PAINS>  (442) 
0

>  <UFF_Gibbs>  (442) 
178.112693

>  <strain_per_HA>  (442) 
6.850488

>  <saltbridge:HIS:51>  (442) 
0

>  <pistack:HIS:51>  (442) 
1

>  <hydroph_interaction:HIS:51>  (442) 
0

>  <hbond:ALA:132>  (442) 
0

>  <hbond:SER:135>  (442) 
0

>  <hydroph_interaction:TYR:150>  (442) 
1

>  <pistack:TYR:161>  (442) 
1

>  <hydroph_interaction:TYR:161>  (442) 
0

>  <hydroph_interaction:ASP:83>  (442) 
1

>  <hbond:TYR:130>  (442) 
0

>  <hydroph_interaction:ALA:132>  (442) 
0

>  <hbond:HIS:51>  (442) 
1

>  <hbond:ASP:129>  (442) 
0

>  <hbond:TYR:150>  (442) 
0

>  <hbond:GLY:151>  (442) 
0

>  <hbond:TYR:161>  (442) 
0

>  <hydroph_interaction:TYR:130>  (442) 
0

>  <hydroph_interaction:PRO:131>  (442) 
0

>  <hydroph_interaction:ASP:129>  (442) 
0

>  <saltbridge:ASP:75>  (442) 
0

>  <saltbridge:ASP:83>  (442) 
0

>  <hydroph_interaction:ASN:152>  (442) 
0

>  <halogenbond:TYR:150>  (442) 
0

>  <hbond:ASP:83>  (442) 
0

>  <hydroph_interaction:VAL:155>  (442) 
0

>  <pication:TYR:161>  (442) 
0

>  <hbond:PRO:131>  (442) 
0

>  <hbond:LEU:128>  (442) 
0

>  <saltbridge:ASP:129>  (442) 
1

>  <hbond:THR:134>  (442) 
0

>  <pication:HIS:51>  (442) 
0

>  <hbond:SER:81>  (442) 
0

>  <hbond:GLY:159>  (442) 
0

>  <hydroph_interaction:PRO:101>  (442) 
0

>  <hydroph_interaction:THR:134>  (442) 
0

>  <hbond:GLY:82>  (442) 
0

>  <hydroph_interaction:GLU:104>  (442) 
0

>  <hydroph_interaction:VAL:36>  (442) 
0

>  <hydroph_interaction:MET:49>  (442) 
0

>  <halogenbond:GLU:104>  (442) 
0

>  <hydroph_interaction:LYS:107>  (442) 
0

$$$$
MCULE-4825135232
     RDKit          3D

 52 55  0  0  0  0  0  0  0  0999 V2000
   -6.1660    5.4960  -18.6120 C   0  0  0  0  0  0  0  0  0  0  0  0
   -4.8120    5.4640  -18.1550 N   0  0  0  0  0  0  0  0  0  0  0  0
   -4.3140    5.2660  -16.8140 C   0  0  0  0  0  0  0  0  0  0  0  0
   -5.4030    5.0720  -15.7730 C   0  0  0  0  0  0  0  0  0  0  0  0
   -3.9110    5.6430  -19.1660 N   0  0  0  0  0  0  0  0  0  0  0  0
   -4.6900    5.7820  -20.2460 C   0  0  0  0  0  0  0  0  0  0  0  0
   -6.0240    5.7090  -20.0160 C   0  0  0  0  0  0  0  0  0  0  0  0
   -7.3770    5.3580  -18.0090 C   0  0  0  0  0  0  0  0  0  0  0  0
   -7.7260    5.8060  -16.6000 C   0  0  0  0  0  0  0  0  0  0  0  0
   -9.1250    5.5200  -16.2170 C   0  0  0  0  0  0  0  0  0  0  0  0
   -9.5280    5.9230  -14.9130 N   0  0  0  0  0  0  0  0  0  0  0  0
   -8.9940    6.8800  -14.0240 C   0  0  0  0  0  0  0  0  0  0  0  0
   -8.9330    6.3280  -12.7410 C   0  0  0  0  0  0  0  0  0  0  0  0
   -8.8060    7.0960  -11.5690 C   0  0  0  0  0  0  0  0  0  0  0  0
   -8.7690    6.4540  -10.3330 C   0  0  0  0  0  0  0  0  0  0  0  0
   -8.8640    4.9550  -10.2810 C   0  0  0  0  0  0  0  0  0  0  0  0
   -8.8440    4.2850   -9.0640 N   0  0  0  0  0  0  0  0  0  0  0  0
   -9.0640    2.8250   -9.1320 C   0  0  0  0  0  0  0  0  0  0  0  0
   -9.6580    2.3940   -7.8000 C   0  0  0  0  0  0  0  0  0  0  0  0
   -8.8090    2.8390   -6.7340 O   0  0  0  0  0  0  0  0  0  0  0  0
   -8.7450    4.2720   -6.7340 C   0  0  0  0  0  0  0  0  0  0  0  0
   -8.1020    4.7390   -7.8830 C   0  0  0  0  0  0  0  0  0  0  0  0
   -8.9810    4.2620  -11.4800 C   0  0  0  0  0  0  0  0  0  0  0  0
   -9.0160    4.9380  -12.6910 C   0  0  0  0  0  0  0  0  0  0  0  0
   -8.6150    8.0400  -14.2110 O   0  0  0  0  0  0  0  0  0  0  0  0
   -9.9580    4.8800  -17.1490 C   0  0  0  0  0  0  0  0  0  0  0  0
   -9.5640    4.5170  -18.4120 C   0  0  0  0  0  0  0  0  0  0  0  0
   -8.2950    4.7560  -18.8360 C   0  0  0  0  0  0  0  0  0  0  0  0
   -3.7160    6.1490  -16.5540 H   0  0  0  0  0  0  0  0  0  0  0  0
   -3.6260    4.4160  -16.8170 H   0  0  0  0  0  0  0  0  0  0  0  0
   -5.7250    6.0080  -15.3030 H   0  0  0  0  0  0  0  0  0  0  0  0
   -5.0360    4.3960  -14.9890 H   0  0  0  0  0  0  0  0  0  0  0  0
   -6.2730    4.5910  -16.2280 H   0  0  0  0  0  0  0  0  0  0  0  0
   -4.3690    5.9460  -21.2840 H   0  0  0  0  0  0  0  0  0  0  0  0
   -6.7080    5.8120  -20.8640 H   0  0  0  0  0  0  0  0  0  0  0  0
   -7.0120    6.2920  -15.9420 H   0  0  0  0  0  0  0  0  0  0  0  0
  -10.1640    5.2690  -14.4710 H   0  0  0  0  0  0  0  0  0  0  0  0
   -8.7410    8.1780  -11.5990 H   0  0  0  0  0  0  0  0  0  0  0  0
   -8.6740    7.0390   -9.4220 H   0  0  0  0  0  0  0  0  0  0  0  0
   -8.1400    2.2620   -9.3030 H   0  0  0  0  0  0  0  0  0  0  0  0
   -9.7740    2.5950   -9.9400 H   0  0  0  0  0  0  0  0  0  0  0  0
  -10.6450    2.8470   -7.6560 H   0  0  0  0  0  0  0  0  0  0  0  0
   -9.7790    1.3130   -7.7500 H   0  0  0  0  0  0  0  0  0  0  0  0
   -9.7660    4.6190   -6.5920 H   0  0  0  0  0  0  0  0  0  0  0  0
   -8.1850    4.5810   -5.8420 H   0  0  0  0  0  0  0  0  0  0  0  0
   -8.0740    5.8360   -7.8590 H   0  0  0  0  0  0  0  0  0  0  0  0
   -7.0780    4.3470   -7.8950 H   0  0  0  0  0  0  0  0  0  0  0  0
   -9.0520    3.1770  -11.5090 H   0  0  0  0  0  0  0  0  0  0  0  0
   -9.1130    4.3640  -13.6110 H   0  0  0  0  0  0  0  0  0  0  0  0
  -10.9620    4.6330  -16.9210 H   0  0  0  0  0  0  0  0  0  0  0  0
  -10.2640    4.0410  -19.0640 H   0  0  0  0  0  0  0  0  0  0  0  0
   -8.0130    4.4570  -19.8450 H   0  0  0  0  0  0  0  0  0  0  0  0
  1  2  1  0
  2  3  1  0
  3  4  1  0
  2  5  1  0
  5  6  2  0
  6  7  1  0
  1  8  1  0
  8  9  2  0
  9 10  1  0
 10 11  1  0
 11 12  1  0
 12 13  1  0
 13 14  2  0
 14 15  1  0
 15 16  2  0
 16 17  1  0
 17 18  1  0
 18 19  1  0
 19 20  1  0
 20 21  1  0
 21 22  1  0
 16 23  1  0
 23 24  2  0
 12 25  2  0
 10 26  2  0
 26 27  1  0
 27 28  2  0
  1  7  2  0
  8 28  1  0
 13 24  1  0
 22 17  1  0
  3 29  1  0
  3 30  1  0
  4 31  1  0
  4 32  1  0
  4 33  1  0
  6 34  1  0
  7 35  1  0
  9 36  1  0
 11 37  1  0
 14 38  1  0
 15 39  1  0
 18 40  1  0
 18 41  1  0
 19 42  1  0
 19 43  1  0
 21 44  1  0
 21 45  1  0
 22 46  1  0
 22 47  1  0
 23 48  1  0
 24 49  1  0
 26 50  1  0
 27 51  1  0
 28 52  1  0
A    1
 C1 
A    2
 N1 
A    3
 C2 
A    4
 C3 
A    5
 N2 
A    6
 C4 
A    7
 C5 
A    8
 C6 
A    9
 C7 
A   10
 C8 
A   11
 N3 
A   12
 C9 
A   13
 C10
A   14
 C11
A   15
 C12
A   16
 C13
A   17
 N4 
A   18
 C14
A   19
 C15
A   20
 O1 
A   21
 C16
A   22
 C17
A   23
 C18
A   24
 C19
A   25
 O2 
A   26
 C20
A   27
 C21
A   28
 C22
A   29
 H1 
A   30
 H2 
A   31
 H3 
A   32
 H4 
A   33
 H5 
A   34
 H6 
A   35
 H7 
A   36
 H8 
A   37
 H9 
A   38
 H10
A   39
 H11
A   40
 H12
A   41
 H13
A   42
 H14
A   43
 H15
A   44
 H16
A   45
 H17
A   46
 H18
A   47
 H19
A   48
 H20
A   49
 H21
A   50
 H22
A   51
 H23
A   52
 H24
M  END
>  <ref_pdb>  (443) 
x0051_0B

>  <ref_mols>  (443) 
x0490_0B,x0404_0B

>  <original SMILES>  (443) 
[H]c1nn(C([H])([H])C([H])([H])[H])c(-c2c([H])c([H])c([H])c(N([H])C(=O)c3c([H])c([H])c(N4C([H])([H])C([H])([H])OC([H])([H])C4([H])[H])c([H])c3[H])c2[H])c1[H]

>  <index>  (443) 
155

>  <∆∆G>  (443) 
-9.324655

>  <∆G_bound>  (443) 
-9.484521

>  <∆G_unbound>  (443) 
-0.159865

>  <comRMSD>  (443) 
0.828546

>  <N_constrained_atoms>  (443) 
26.0

>  <N_unconstrained_atoms>  (443) 
2.0

>  <runtime>  (443) 
106.000954

>  <LE>  (443) 
0.333023

>  <percent_hybrid>  (443) 
43.0

>  <dist>  (443) 
10.0

>  <ecfp4>  (443) 
0.255814

>  <daylight>  (443) 
0.191919

>  <topodist>  (443) 
4.0

>  <mces>  (443) 
29.0

>  <tdn>  (443) 
1.0

>  <tup>  (443) 
0.0

>  <rdn>  (443) 
1.0

>  <rup>  (443) 
1.0

>  <ldn>  (443) 
0.0

>  <lup>  (443) 
1.0

>  <mut>  (443) 
5.0

>  <maj>  (443) 
5.0

>  <min>  (443) 
0.0

>  <hyb>  (443) 
1.0

>  <sub>  (443) 
1.0

>  <query_index>  (443) 
10.0

>  <max_hit_Tanimoto>  (443) 
0.220395

>  <largest_ring>  (443) 
0

>  <N_interactions_kept>  (443) 
2.0

>  <N_interactions_lost>  (443) 
2.5

>  <interaction_uniqueness_metric>  (443) 
0.19325

>  <ad_hoc_penalty>  (443) 
-18.142904

>  <N_rotatable_bonds>  (443) 
6

>  <N_HA>  (443) 
28

>  <cluster>  (443) 
6077

>  <N_interactions>  (443) 
8

>  <Enamine>  (443) 
0

>  <Mcule>  (443) 
1

>  <N_PAINS>  (443) 
0

>  <UFF_Gibbs>  (443) 
423.261043

>  <strain_per_HA>  (443) 
15.116466

>  <saltbridge:HIS:51>  (443) 
0

>  <pistack:HIS:51>  (443) 
1

>  <hydroph_interaction:HIS:51>  (443) 
1

>  <hbond:ALA:132>  (443) 
0

>  <hbond:SER:135>  (443) 
0

>  <hydroph_interaction:TYR:150>  (443) 
1

>  <pistack:TYR:161>  (443) 
0

>  <hydroph_interaction:TYR:161>  (443) 
3

>  <hydroph_interaction:ASP:83>  (443) 
0

>  <hbond:TYR:130>  (443) 
0

>  <hydroph_interaction:ALA:132>  (443) 
1

>  <hbond:HIS:51>  (443) 
1

>  <hbond:ASP:129>  (443) 
0

>  <hbond:TYR:150>  (443) 
0

>  <hbond:GLY:151>  (443) 
0

>  <hbond:TYR:161>  (443) 
0

>  <hydroph_interaction:TYR:130>  (443) 
0

>  <hydroph_interaction:PRO:131>  (443) 
0

>  <hydroph_interaction:ASP:129>  (443) 
0

>  <saltbridge:ASP:75>  (443) 
0

>  <saltbridge:ASP:83>  (443) 
0

>  <hydroph_interaction:ASN:152>  (443) 
0

>  <halogenbond:TYR:150>  (443) 
0

>  <hbond:ASP:83>  (443) 
0

>  <hydroph_interaction:VAL:155>  (443) 
0

>  <pication:TYR:161>  (443) 
0

>  <hbond:PRO:131>  (443) 
0

>  <hbond:LEU:128>  (443) 
0

>  <saltbridge:ASP:129>  (443) 
0

>  <hbond:THR:134>  (443) 
0

>  <pication:HIS:51>  (443) 
0

>  <hbond:SER:81>  (443) 
0

>  <hbond:GLY:159>  (443) 
0

>  <hydroph_interaction:PRO:101>  (443) 
0

>  <hydroph_interaction:THR:134>  (443) 
0

>  <hbond:GLY:82>  (443) 
0

>  <hydroph_interaction:GLU:104>  (443) 
0

>  <hydroph_interaction:VAL:36>  (443) 
0

>  <hydroph_interaction:MET:49>  (443) 
0

>  <halogenbond:GLU:104>  (443) 
0

>  <hydroph_interaction:LYS:107>  (443) 
0

$$$$
Z2079182017
     RDKit          3D

 44 48  0  0  0  0  0  0  0  0999 V2000
   -5.9400    4.9030  -21.3500 O   0  0  0  0  0  0  0  0  0  0  0  0
   -6.0140    5.9540  -20.7230 C   0  0  0  0  0  0  0  0  0  0  0  0
   -5.9330    7.2230  -21.6180 C   0  0  0  0  0  0  0  0  0  0  0  0
   -6.1830    7.0670  -23.1350 C   0  0  0  0  0  0  0  0  0  0  0  0
   -6.1660    8.1600  -23.9800 C   0  0  0  0  0  0  0  0  0  0  0  0
   -5.9170    9.4330  -23.4830 C   0  0  0  0  0  0  0  0  0  0  0  0
   -5.9360   10.5350  -24.3670 C   0  0  0  0  0  0  0  0  0  0  0  0
   -5.5910   10.1080  -26.1090 S   0  0  0  0  0  0  0  0  0  0  0  0
   -7.0510    9.4370  -26.7520 C   0  0  0  0  0  0  0  0  0  0  0  0
   -7.2750    8.0600  -27.1550 N   0  0  0  0  0  0  0  0  0  0  0  0
   -8.5730    8.0710  -27.5770 C   0  0  0  0  0  0  0  0  0  0  0  0
   -9.3910    6.9140  -28.1090 C   0  0  0  0  0  0  0  0  0  0  0  0
  -10.7160    7.1240  -28.4830 C   0  0  0  0  0  0  0  0  0  0  0  0
  -11.3980    8.4870  -28.3840 C   0  0  0  0  0  0  0  0  0  0  0  0
  -10.4910    9.6100  -27.8370 C   0  0  0  0  0  0  0  0  0  0  0  0
   -9.1600    9.3410  -27.4730 C   0  0  0  0  0  0  0  0  0  0  0  0
   -8.1760   10.1730  -26.9560 N   0  0  0  0  0  0  0  0  0  0  0  0
   -5.6570    9.6130  -22.0930 C   0  0  0  0  0  0  0  0  0  0  0  0
   -5.6610    8.5340  -21.1680 C   0  0  0  0  0  0  0  0  0  0  0  0
   -6.1550    6.0100  -19.3060 N   0  0  0  0  0  0  0  0  0  0  0  0
   -5.0280    6.0340  -18.3300 C   0  0  0  0  0  0  0  0  0  0  0  0
   -5.6900    6.3640  -16.9780 C   0  0  0  0  0  0  0  0  0  0  0  0
   -6.9930    5.7930  -17.2120 N   0  0  0  0  0  0  0  0  0  0  0  0
   -7.9290    5.4550  -16.3300 N   0  0  0  0  0  0  0  0  0  0  0  0
   -8.8880    4.9800  -17.1420 C   0  0  0  0  0  0  0  0  0  0  0  0
   -8.5310    5.0290  -18.5360 C   0  0  0  0  0  0  0  0  0  0  0  0
   -7.2680    5.5800  -18.5320 C   0  0  0  0  0  0  0  0  0  0  0  0
   -6.3870    6.0850  -23.5460 H   0  0  0  0  0  0  0  0  0  0  0  0
   -6.3580    8.0120  -25.0400 H   0  0  0  0  0  0  0  0  0  0  0  0
   -5.2000   11.2720  -24.0250 H   0  0  0  0  0  0  0  0  0  0  0  0
   -6.9150   11.0240  -24.3030 H   0  0  0  0  0  0  0  0  0  0  0  0
   -8.9420    5.9290  -28.1920 H   0  0  0  0  0  0  0  0  0  0  0  0
  -11.2880    6.2800  -28.8600 H   0  0  0  0  0  0  0  0  0  0  0  0
  -12.4320    8.6490  -28.6750 H   0  0  0  0  0  0  0  0  0  0  0  0
  -10.8990   10.6120  -27.7350 H   0  0  0  0  0  0  0  0  0  0  0  0
   -8.2650   11.1580  -26.7570 H   0  0  0  0  0  0  0  0  0  0  0  0
   -5.4530   10.6140  -21.7110 H   0  0  0  0  0  0  0  0  0  0  0  0
   -5.4650    8.7160  -20.1150 H   0  0  0  0  0  0  0  0  0  0  0  0
   -4.3040    6.7990  -18.6200 H   0  0  0  0  0  0  0  0  0  0  0  0
   -4.5350    5.0560  -18.3200 H   0  0  0  0  0  0  0  0  0  0  0  0
   -5.2240    5.8490  -16.1360 H   0  0  0  0  0  0  0  0  0  0  0  0
   -5.7970    7.4360  -16.8000 H   0  0  0  0  0  0  0  0  0  0  0  0
   -9.8080    4.6140  -16.7020 H   0  0  0  0  0  0  0  0  0  0  0  0
   -9.1110    4.7140  -19.3920 H   0  0  0  0  0  0  0  0  0  0  0  0
  1  2  2  0
  2  3  1  0
  3  4  2  0
  4  5  1  0
  5  6  2  0
  6  7  1  0
  7  8  1  0
  8  9  1  0
  9 10  2  0
 10 11  1  0
 11 12  2  0
 12 13  1  0
 13 14  2  0
 14 15  1  0
 15 16  2  0
 16 17  1  0
  6 18  1  0
 18 19  2  0
  2 20  1  0
 20 21  1  0
 21 22  1  0
 22 23  1  0
 23 24  1  0
 24 25  2  0
 25 26  1  0
 26 27  2  0
 19  3  1  0
 17  9  1  0
 16 11  1  0
 27 20  1  0
 27 23  1  0
  4 28  1  0
  5 29  1  0
  7 30  1  0
  7 31  1  0
 12 32  1  0
 13 33  1  0
 14 34  1  0
 15 35  1  0
 17 36  1  0
 18 37  1  0
 19 38  1  0
 21 39  1  0
 21 40  1  0
 22 41  1  0
 22 42  1  0
 25 43  1  0
 26 44  1  0
A    1
 O1 
A    2
 C1 
A    3
 C2 
A    4
 C3 
A    5
 C4 
A    6
 C5 
A    7
 C6 
A    8
 S1 
A    9
 C7 
A   10
 N1 
A   11
 C8 
A   12
 C9 
A   13
 C10
A   14
 C11
A   15
 C12
A   16
 C13
A   17
 N2 
A   18
 C14
A   19
 C15
A   20
 N3 
A   21
 C16
A   22
 C17
A   23
 N4 
A   24
 N5 
A   25
 C18
A   26
 C19
A   27
 C20
A   28
 H1 
A   29
 H2 
A   30
 H3 
A   31
 H4 
A   32
 H5 
A   33
 H6 
A   34
 H7 
A   35
 H8 
A   36
 H9 
A   37
 H10
A   38
 H11
A   39
 H12
A   40
 H13
A   41
 H14
A   42
 H15
A   43
 H16
A   44
 H17
M  END
>  <ref_pdb>  (444) 
x0051_0B

>  <ref_mols>  (444) 
x0846_1B,x0969_0B

>  <original SMILES>  (444) 
[H]c1nn2c(c1[H])N(C(=O)c1c([H])c([H])c(C([H])([H])Sc3nc4c([H])c([H])c([H])c([H])c4n3[H])c([H])c1[H])C([H])([H])C2([H])[H]

>  <index>  (444) 
785

>  <∆∆G>  (444) 
-6.945694

>  <∆G_bound>  (444) 
-6.539086

>  <∆G_unbound>  (444) 
0.406608

>  <comRMSD>  (444) 
0.987507

>  <N_constrained_atoms>  (444) 
28.0

>  <N_unconstrained_atoms>  (444) 
2.0

>  <runtime>  (444) 
48.153993

>  <LE>  (444) 
0.231523

>  <percent_hybrid>  (444) 
36.0

>  <dist>  (444) 
6.0

>  <ecfp4>  (444) 
0.247312

>  <daylight>  (444) 
0.382911

>  <topodist>  (444) 
4.0

>  <mces>  (444) 
30.0

>  <tdn>  (444) 
2.0

>  <tup>  (444) 
1.0

>  <rdn>  (444) 
0.0

>  <rup>  (444) 
0.0

>  <ldn>  (444) 
1.0

>  <lup>  (444) 
0.0

>  <mut>  (444) 
2.0

>  <maj>  (444) 
2.0

>  <min>  (444) 
0.0

>  <hyb>  (444) 
0.0

>  <sub>  (444) 
2.0

>  <query_index>  (444) 
45.0

>  <max_hit_Tanimoto>  (444) 
0.264574

>  <largest_ring>  (444) 
6

>  <N_interactions_kept>  (444) 
0.5

>  <N_interactions_lost>  (444) 
2.0

>  <interaction_uniqueness_metric>  (444) 
0.18165

>  <ad_hoc_penalty>  (444) 
-18.138942

>  <N_rotatable_bonds>  (444) 
4

>  <N_HA>  (444) 
27

>  <cluster>  (444) 
5498

>  <N_interactions>  (444) 
5

>  <Enamine>  (444) 
1

>  <Mcule>  (444) 
0

>  <N_PAINS>  (444) 
0

>  <UFF_Gibbs>  (444) 
113.28455

>  <strain_per_HA>  (444) 
4.195724

>  <saltbridge:HIS:51>  (444) 
0

>  <pistack:HIS:51>  (444) 
0

>  <hydroph_interaction:HIS:51>  (444) 
0

>  <hbond:ALA:132>  (444) 
0

>  <hbond:SER:135>  (444) 
0

>  <hydroph_interaction:TYR:150>  (444) 
0

>  <pistack:TYR:161>  (444) 
1

>  <hydroph_interaction:TYR:161>  (444) 
0

>  <hydroph_interaction:ASP:83>  (444) 
0

>  <hbond:TYR:130>  (444) 
1

>  <hydroph_interaction:ALA:132>  (444) 
0

>  <hbond:HIS:51>  (444) 
0

>  <hbond:ASP:129>  (444) 
1

>  <hbond:TYR:150>  (444) 
0

>  <hbond:GLY:151>  (444) 
0

>  <hbond:TYR:161>  (444) 
0

>  <hydroph_interaction:TYR:130>  (444) 
1

>  <hydroph_interaction:PRO:131>  (444) 
1

>  <hydroph_interaction:ASP:129>  (444) 
0

>  <saltbridge:ASP:75>  (444) 
0

>  <saltbridge:ASP:83>  (444) 
0

>  <hydroph_interaction:ASN:152>  (444) 
0

>  <halogenbond:TYR:150>  (444) 
0

>  <hbond:ASP:83>  (444) 
0

>  <hydroph_interaction:VAL:155>  (444) 
0

>  <pication:TYR:161>  (444) 
0

>  <hbond:PRO:131>  (444) 
0

>  <hbond:LEU:128>  (444) 
0

>  <saltbridge:ASP:129>  (444) 
0

>  <hbond:THR:134>  (444) 
0

>  <pication:HIS:51>  (444) 
0

>  <hbond:SER:81>  (444) 
0

>  <hbond:GLY:159>  (444) 
0

>  <hydroph_interaction:PRO:101>  (444) 
0

>  <hydroph_interaction:THR:134>  (444) 
0

>  <hbond:GLY:82>  (444) 
0

>  <hydroph_interaction:GLU:104>  (444) 
0

>  <hydroph_interaction:VAL:36>  (444) 
0

>  <hydroph_interaction:MET:49>  (444) 
0

>  <halogenbond:GLU:104>  (444) 
0

>  <hydroph_interaction:LYS:107>  (444) 
0

$$$$
MCULE-3175566379
     RDKit          3D

 20 21  0  0  0  0  0  0  0  0999 V2000
   -6.1310    5.3570  -17.9730 C   0  0  0  0  0  0  0  0  0  0  0  0
   -4.7310    5.5680  -18.3150 O   0  0  0  0  0  0  0  0  0  0  0  0
   -4.7110    5.6020  -19.6730 C   0  0  0  0  0  0  0  0  0  0  0  0
   -5.9490    5.4340  -20.1670 C   0  0  0  0  0  0  0  0  0  0  0  0
   -6.8670    5.2770  -19.1740 C   0  0  0  0  0  0  0  0  0  0  0  0
   -8.2170    5.0780  -19.2180 C   0  0  0  0  0  0  0  0  0  0  0  0
   -8.8710    4.9530  -17.8610 C   0  0  0  0  0  0  0  0  0  0  0  0
  -10.3630    4.7380  -17.9120 C   0  0  0  0  0  0  0  0  0  0  0  0
   -8.1220    5.0390  -16.6710 C   0  0  0  0  0  0  0  0  0  0  0  0
   -6.7300    5.2430  -16.7030 C   0  0  0  0  0  0  0  0  0  0  0  0
   -6.0540    5.3150  -15.4060 N   0  0  0  0  0  0  0  0  0  0  0  0
   -3.8020    5.7460  -20.2520 H   0  0  0  0  0  0  0  0  0  0  0  0
   -6.1950    5.4220  -21.2260 H   0  0  0  0  0  0  0  0  0  0  0  0
   -8.7760    5.0150  -20.1440 H   0  0  0  0  0  0  0  0  0  0  0  0
  -10.5740    3.9460  -18.6210 H   0  0  0  0  0  0  0  0  0  0  0  0
  -10.9050    5.6290  -18.2290 H   0  0  0  0  0  0  0  0  0  0  0  0
  -10.7150    4.4520  -16.9250 H   0  0  0  0  0  0  0  0  0  0  0  0
   -8.6190    4.9470  -15.7050 H   0  0  0  0  0  0  0  0  0  0  0  0
   -5.0700    5.0600  -15.4840 H   0  0  0  0  0  0  0  0  0  0  0  0
   -6.5350    4.7980  -14.6760 H   0  0  0  0  0  0  0  0  0  0  0  0
  1  2  1  0
  2  3  1  0
  3  4  2  0
  4  5  1  0
  5  6  1  0
  6  7  2  0
  7  8  1  0
  7  9  1  0
  9 10  2  0
 10 11  1  0
  5  1  2  0
  1 10  1  0
  3 12  1  0
  4 13  1  0
  6 14  1  0
  8 15  1  0
  8 16  1  0
  8 17  1  0
  9 18  1  0
 11 19  1  0
 11 20  1  0
A    1
 C1 
A    2
 O1 
A    3
 C2 
A    4
 C3 
A    5
 C4 
A    6
 C5 
A    7
 C6 
A    8
 C7 
A    9
 C8 
A   10
 C9 
A   11
 N1 
A   12
 H1 
A   13
 H2 
A   14
 H3 
A   15
 H4 
A   16
 H5 
A   17
 H6 
A   18
 H7 
A   19
 H8 
A   20
 H9 
M  END
>  <ref_pdb>  (445) 
x0051_0B

>  <ref_mols>  (445) 
x0605_0B,x0386_0B

>  <original SMILES>  (445) 
[H]c1oc2c(N([H])[H])c([H])c(C([H])([H])[H])c([H])c2c1[H]

>  <index>  (445) 
713

>  <∆∆G>  (445) 
-6.832085

>  <∆G_bound>  (445) 
-6.826099

>  <∆G_unbound>  (445) 
0.005987

>  <comRMSD>  (445) 
0.743871

>  <N_constrained_atoms>  (445) 
11.0

>  <N_unconstrained_atoms>  (445) 
2.0

>  <runtime>  (445) 
21.272017

>  <LE>  (445) 
0.525545

>  <percent_hybrid>  (445) 
34.0

>  <dist>  (445) 
2.0

>  <ecfp4>  (445) 
0.275

>  <daylight>  (445) 
0.318182

>  <topodist>  (445) 
2.0

>  <mces>  (445) 
10.0

>  <tdn>  (445) 
0.0

>  <tup>  (445) 
1.0

>  <rdn>  (445) 
0.0

>  <rup>  (445) 
1.0

>  <ldn>  (445) 
0.0

>  <lup>  (445) 
0.0

>  <mut>  (445) 
0.0

>  <maj>  (445) 
0.0

>  <min>  (445) 
0.0

>  <hyb>  (445) 
0.0

>  <sub>  (445) 
2.0

>  <query_index>  (445) 
312.0

>  <max_hit_Tanimoto>  (445) 
0.103093

>  <largest_ring>  (445) 
6

>  <N_interactions_kept>  (445) 
1.0

>  <N_interactions_lost>  (445) 
1.5

>  <interaction_uniqueness_metric>  (445) 
0.04341

>  <ad_hoc_penalty>  (445) 
-18.119618

>  <N_rotatable_bonds>  (445) 
2

>  <N_HA>  (445) 
11

>  <cluster>  (445) 
5567

>  <N_interactions>  (445) 
4

>  <Enamine>  (445) 
0

>  <Mcule>  (445) 
1

>  <N_PAINS>  (445) 
0

>  <UFF_Gibbs>  (445) 
39.027319

>  <strain_per_HA>  (445) 
3.547938

>  <saltbridge:HIS:51>  (445) 
0

>  <pistack:HIS:51>  (445) 
0

>  <hydroph_interaction:HIS:51>  (445) 
0

>  <hbond:ALA:132>  (445) 
0

>  <hbond:SER:135>  (445) 
0

>  <hydroph_interaction:TYR:150>  (445) 
1

>  <pistack:TYR:161>  (445) 
2

>  <hydroph_interaction:TYR:161>  (445) 
1

>  <hydroph_interaction:ASP:83>  (445) 
0

>  <hbond:TYR:130>  (445) 
0

>  <hydroph_interaction:ALA:132>  (445) 
0

>  <hbond:HIS:51>  (445) 
0

>  <hbond:ASP:129>  (445) 
0

>  <hbond:TYR:150>  (445) 
0

>  <hbond:GLY:151>  (445) 
0

>  <hbond:TYR:161>  (445) 
0

>  <hydroph_interaction:TYR:130>  (445) 
0

>  <hydroph_interaction:PRO:131>  (445) 
0

>  <hydroph_interaction:ASP:129>  (445) 
0

>  <saltbridge:ASP:75>  (445) 
0

>  <saltbridge:ASP:83>  (445) 
0

>  <hydroph_interaction:ASN:152>  (445) 
0

>  <halogenbond:TYR:150>  (445) 
0

>  <hbond:ASP:83>  (445) 
0

>  <hydroph_interaction:VAL:155>  (445) 
0

>  <pication:TYR:161>  (445) 
0

>  <hbond:PRO:131>  (445) 
0

>  <hbond:LEU:128>  (445) 
0

>  <saltbridge:ASP:129>  (445) 
0

>  <hbond:THR:134>  (445) 
0

>  <pication:HIS:51>  (445) 
0

>  <hbond:SER:81>  (445) 
0

>  <hbond:GLY:159>  (445) 
0

>  <hydroph_interaction:PRO:101>  (445) 
0

>  <hydroph_interaction:THR:134>  (445) 
0

>  <hbond:GLY:82>  (445) 
0

>  <hydroph_interaction:GLU:104>  (445) 
0

>  <hydroph_interaction:VAL:36>  (445) 
0

>  <hydroph_interaction:MET:49>  (445) 
0

>  <halogenbond:GLU:104>  (445) 
0

>  <hydroph_interaction:LYS:107>  (445) 
0

$$$$
FOTHZHJCNJAJNH-UHFFFAOYSA-N
     RDKit          3D

 30 31  0  0  0  0  0  0  0  0999 V2000
   -4.9150    5.7640  -17.5430 C   0  0  0  0  0  0  0  0  0  0  0  0
   -5.9860    6.0580  -16.7000 N   0  0  0  0  0  0  0  0  0  0  0  0
   -7.3260    5.6310  -17.0310 C   0  0  0  0  0  0  0  0  0  0  0  0
   -8.3680    5.6080  -15.8970 C   0  0  0  0  0  0  0  0  0  0  0  0
   -8.1650    5.9700  -14.5450 C   0  0  0  0  0  0  0  0  0  0  0  0
   -9.2210    5.6640  -13.7330 F   0  0  0  0  0  0  0  0  0  0  0  0
   -7.0930    5.3850  -13.9420 F   0  0  0  0  0  0  0  0  0  0  0  0
   -7.9970    7.3130  -14.3660 F   0  0  0  0  0  0  0  0  0  0  0  0
   -9.6750    5.1930  -16.2120 C   0  0  0  0  0  0  0  0  0  0  0  0
  -10.0660    4.7870  -17.5990 C   0  0  0  0  0  0  0  0  0  0  0  0
   -9.1100    4.8120  -18.6040 C   0  0  0  0  0  0  0  0  0  0  0  0
   -7.6940    5.2440  -18.3310 C   0  0  0  0  0  0  0  0  0  0  0  0
   -4.0360    4.9570  -17.2760 O   0  0  0  0  0  0  0  0  0  0  0  0
   -4.8810    6.5780  -18.8490 C   0  0  0  0  0  0  0  0  0  0  0  0
   -6.0020    7.4650  -19.0260 O   0  0  0  0  0  0  0  0  0  0  0  0
   -6.0230    7.7980  -20.4190 C   0  0  0  0  0  0  0  0  0  0  0  0
   -5.1900    6.6730  -21.0370 C   0  0  0  0  0  0  0  0  0  0  0  0
   -4.7860    5.7300  -20.1100 C   0  0  0  0  0  0  0  0  0  0  0  0
   -5.7830    6.2250  -15.7260 H   0  0  0  0  0  0  0  0  0  0  0  0
  -10.4110    5.1710  -15.4170 H   0  0  0  0  0  0  0  0  0  0  0  0
  -11.0820    4.4750  -17.8230 H   0  0  0  0  0  0  0  0  0  0  0  0
   -9.3190    4.5300  -19.6270 H   0  0  0  0  0  0  0  0  0  0  0  0
   -6.9920    5.2430  -19.1670 H   0  0  0  0  0  0  0  0  0  0  0  0
   -4.0010    7.2280  -18.7790 H   0  0  0  0  0  0  0  0  0  0  0  0
   -7.0550    7.7660  -20.7670 H   0  0  0  0  0  0  0  0  0  0  0  0
   -5.6810    8.8230  -20.5060 H   0  0  0  0  0  0  0  0  0  0  0  0
   -5.6900    6.1170  -21.8280 H   0  0  0  0  0  0  0  0  0  0  0  0
   -4.3200    7.1270  -21.5210 H   0  0  0  0  0  0  0  0  0  0  0  0
   -3.8080    5.2700  -20.2160 H   0  0  0  0  0  0  0  0  0  0  0  0
   -5.5180    4.9140  -20.0850 H   0  0  0  0  0  0  0  0  0  0  0  0
  1  2  1  0
  2  3  1  0
  3  4  2  0
  4  5  1  0
  5  6  1  0
  5  7  1  0
  5  8  1  0
  4  9  1  0
  9 10  2  0
 10 11  1  0
 11 12  2  0
  1 13  2  0
  1 14  1  0
 14 15  1  0
 15 16  1  0
 16 17  1  0
 17 18  1  0
 12  3  1  0
 18 14  1  0
  2 19  1  0
  9 20  1  0
 10 21  1  0
 11 22  1  0
 12 23  1  0
 14 24  1  0
 16 25  1  0
 16 26  1  0
 17 27  1  0
 17 28  1  0
 18 29  1  0
 18 30  1  0
A    1
 C1 
A    2
 N1 
A    3
 C2 
A    4
 C3 
A    5
 C4 
A    6
 F1 
A    7
 F2 
A    8
 F3 
A    9
 C5 
A   10
 C6 
A   11
 C7 
A   12
 C8 
A   13
 O1 
A   14
 C9 
A   15
 O2 
A   16
 C10
A   17
 C11
A   18
 C12
A   19
 H1 
A   20
 H2 
A   21
 H3 
A   22
 H4 
A   23
 H5 
A   24
 H6 
A   25
 H7 
A   26
 H8 
A   27
 H9 
A   28
 H10
A   29
 H11
A   30
 H12
M  END
>  <ref_pdb>  (446) 
x0051_0B

>  <ref_mols>  (446) 
x0229_0B,x0917_0B

>  <original SMILES>  (446) 
[H]c1c([H])c([H])c(C(F)(F)F)c(N([H])C(=O)C2([H])OC([H])([H])C([H])([H])C2([H])[H])c1[H]

>  <index>  (446) 
638

>  <∆∆G>  (446) 
-6.043506

>  <∆G_bound>  (446) 
-4.537732

>  <∆G_unbound>  (446) 
1.505774

>  <comRMSD>  (446) 
0.611815

>  <N_constrained_atoms>  (446) 
20.0

>  <N_unconstrained_atoms>  (446) 
0.0

>  <runtime>  (446) 
27.323306

>  <LE>  (446) 
0.302175

>  <percent_hybrid>  (446) 
45.0

>  <dist>  (446) 
3.0

>  <ecfp4>  (446) 
0.311475

>  <daylight>  (446) 
0.443243

>  <topodist>  (446) 
2.0

>  <mces>  (446) 
19.0

>  <tdn>  (446) 
1.0

>  <tup>  (446) 
0.0

>  <rdn>  (446) 
1.0

>  <rup>  (446) 
0.0

>  <ldn>  (446) 
0.0

>  <lup>  (446) 
0.0

>  <mut>  (446) 
1.0

>  <maj>  (446) 
1.0

>  <min>  (446) 
0.0

>  <hyb>  (446) 
0.0

>  <sub>  (446) 
2.0

>  <query_index>  (446) 
181.0

>  <max_hit_Tanimoto>  (446) 
0.353755

>  <largest_ring>  (446) 
6

>  <N_interactions_kept>  (446) 
2.0

>  <N_interactions_lost>  (446) 
2.0

>  <interaction_uniqueness_metric>  (446) 
0.053763

>  <ad_hoc_penalty>  (446) 
-18.085934

>  <N_rotatable_bonds>  (446) 
2

>  <N_HA>  (446) 
18

>  <cluster>  (446) 
5635

>  <N_interactions>  (446) 
5

>  <Enamine>  (446) 
0

>  <Mcule>  (446) 
1

>  <N_PAINS>  (446) 
0

>  <UFF_Gibbs>  (446) 
80.524683

>  <strain_per_HA>  (446) 
4.473594

>  <saltbridge:HIS:51>  (446) 
0

>  <pistack:HIS:51>  (446) 
0

>  <hydroph_interaction:HIS:51>  (446) 
0

>  <hbond:ALA:132>  (446) 
0

>  <hbond:SER:135>  (446) 
0

>  <hydroph_interaction:TYR:150>  (446) 
1

>  <pistack:TYR:161>  (446) 
0

>  <hydroph_interaction:TYR:161>  (446) 
3

>  <hydroph_interaction:ASP:83>  (446) 
0

>  <hbond:TYR:130>  (446) 
0

>  <hydroph_interaction:ALA:132>  (446) 
1

>  <hbond:HIS:51>  (446) 
0

>  <hbond:ASP:129>  (446) 
0

>  <hbond:TYR:150>  (446) 
0

>  <hbond:GLY:151>  (446) 
0

>  <hbond:TYR:161>  (446) 
0

>  <hydroph_interaction:TYR:130>  (446) 
0

>  <hydroph_interaction:PRO:131>  (446) 
0

>  <hydroph_interaction:ASP:129>  (446) 
0

>  <saltbridge:ASP:75>  (446) 
0

>  <saltbridge:ASP:83>  (446) 
0

>  <hydroph_interaction:ASN:152>  (446) 
0

>  <halogenbond:TYR:150>  (446) 
0

>  <hbond:ASP:83>  (446) 
0

>  <hydroph_interaction:VAL:155>  (446) 
0

>  <pication:TYR:161>  (446) 
0

>  <hbond:PRO:131>  (446) 
0

>  <hbond:LEU:128>  (446) 
0

>  <saltbridge:ASP:129>  (446) 
0

>  <hbond:THR:134>  (446) 
0

>  <pication:HIS:51>  (446) 
0

>  <hbond:SER:81>  (446) 
0

>  <hbond:GLY:159>  (446) 
0

>  <hydroph_interaction:PRO:101>  (446) 
0

>  <hydroph_interaction:THR:134>  (446) 
0

>  <hbond:GLY:82>  (446) 
0

>  <hydroph_interaction:GLU:104>  (446) 
0

>  <hydroph_interaction:VAL:36>  (446) 
0

>  <hydroph_interaction:MET:49>  (446) 
0

>  <halogenbond:GLU:104>  (446) 
0

>  <hydroph_interaction:LYS:107>  (446) 
0

$$$$
XLCMBNFBHZIBFQ-UHFFFAOYSA-N
     RDKit          3D

 32 33  0  0  0  0  0  0  0  0999 V2000
   -4.8610    5.7530  -17.6360 C   0  0  0  0  0  0  0  0  0  0  0  0
   -5.9730    6.0290  -16.8430 N   0  0  0  0  0  0  0  0  0  0  0  0
   -7.3100    5.6290  -17.0650 C   0  0  0  0  0  0  0  0  0  0  0  0
   -8.3390    5.6130  -15.9510 C   0  0  0  0  0  0  0  0  0  0  0  0
   -8.1480    6.0010  -14.4860 C   0  0  0  0  0  0  0  0  0  0  0  0
   -7.0920    5.4140  -13.8550 F   0  0  0  0  0  0  0  0  0  0  0  0
   -7.9850    7.3410  -14.2870 F   0  0  0  0  0  0  0  0  0  0  0  0
   -9.2300    5.6740  -13.7230 F   0  0  0  0  0  0  0  0  0  0  0  0
   -9.6260    5.2030  -16.2770 C   0  0  0  0  0  0  0  0  0  0  0  0
  -10.0780    4.7720  -17.6860 C   0  0  0  0  0  0  0  0  0  0  0  0
   -9.1280    4.7850  -18.7100 C   0  0  0  0  0  0  0  0  0  0  0  0
   -7.7140    5.2340  -18.3440 C   0  0  0  0  0  0  0  0  0  0  0  0
   -3.9640    4.9630  -17.3660 O   0  0  0  0  0  0  0  0  0  0  0  0
   -4.7420    6.5540  -18.9400 C   0  0  0  0  0  0  0  0  0  0  0  0
   -5.8430    7.5090  -19.1700 C   0  0  0  0  0  0  0  0  0  0  0  0
   -5.7990    7.7390  -20.6740 C   0  0  0  0  0  0  0  0  0  0  0  0
   -5.0800    6.6780  -21.2210 C   0  0  0  0  0  0  0  0  0  0  0  0
   -4.8310    5.7170  -20.2040 C   0  0  0  0  0  0  0  0  0  0  0  0
   -5.6770    6.0800  -15.8680 H   0  0  0  0  0  0  0  0  0  0  0  0
  -10.3660    5.1880  -15.4820 H   0  0  0  0  0  0  0  0  0  0  0  0
  -11.1000    4.4670  -17.8830 H   0  0  0  0  0  0  0  0  0  0  0  0
   -9.3670    4.4920  -19.7320 H   0  0  0  0  0  0  0  0  0  0  0  0
   -6.9820    5.2410  -19.1440 H   0  0  0  0  0  0  0  0  0  0  0  0
   -3.7330    6.9560  -18.9040 H   0  0  0  0  0  0  0  0  0  0  0  0
   -5.8160    8.4510  -18.6310 H   0  0  0  0  0  0  0  0  0  0  0  0
   -6.7940    7.0260  -18.9180 H   0  0  0  0  0  0  0  0  0  0  0  0
   -5.2890    8.6840  -20.8900 H   0  0  0  0  0  0  0  0  0  0  0  0
   -6.8020    7.8120  -21.0960 H   0  0  0  0  0  0  0  0  0  0  0  0
   -4.1250    7.0510  -21.6070 H   0  0  0  0  0  0  0  0  0  0  0  0
   -5.6170    6.2310  -22.0630 H   0  0  0  0  0  0  0  0  0  0  0  0
   -5.6400    4.9770  -20.1670 H   0  0  0  0  0  0  0  0  0  0  0  0
   -3.9020    5.1680  -20.3920 H   0  0  0  0  0  0  0  0  0  0  0  0
  1  2  1  0
  2  3  1  0
  3  4  2  0
  4  5  1  0
  5  6  1  0
  5  7  1  0
  5  8  1  0
  4  9  1  0
  9 10  2  0
 10 11  1  0
 11 12  2  0
  1 13  2  0
  1 14  1  0
 14 15  1  0
 15 16  1  0
 16 17  1  0
 17 18  1  0
 12  3  1  0
 18 14  1  0
  2 19  1  0
  9 20  1  0
 10 21  1  0
 11 22  1  0
 12 23  1  0
 14 24  1  0
 15 25  1  0
 15 26  1  0
 16 27  1  0
 16 28  1  0
 17 29  1  0
 17 30  1  0
 18 31  1  0
 18 32  1  0
A    1
 C1 
A    2
 N1 
A    3
 C2 
A    4
 C3 
A    5
 C4 
A    6
 F1 
A    7
 F2 
A    8
 F3 
A    9
 C5 
A   10
 C6 
A   11
 C7 
A   12
 C8 
A   13
 O1 
A   14
 C9 
A   15
 C10
A   16
 C11
A   17
 C12
A   18
 C13
A   19
 H1 
A   20
 H2 
A   21
 H3 
A   22
 H4 
A   23
 H5 
A   24
 H6 
A   25
 H7 
A   26
 H8 
A   27
 H9 
A   28
 H10
A   29
 H11
A   30
 H12
A   31
 H13
A   32
 H14
M  END
>  <ref_pdb>  (447) 
x0051_0B

>  <ref_mols>  (447) 
x0229_0B,x0917_0B

>  <original SMILES>  (447) 
[H]c1c([H])c([H])c(C(F)(F)F)c(N([H])C(=O)C2([H])C([H])([H])C([H])([H])C([H])([H])C2([H])[H])c1[H]

>  <index>  (447) 
454

>  <∆∆G>  (447) 
-6.915028

>  <∆G_bound>  (447) 
-5.331606

>  <∆G_unbound>  (447) 
1.583422

>  <comRMSD>  (447) 
0.602674

>  <N_constrained_atoms>  (447) 
21.0

>  <N_unconstrained_atoms>  (447) 
0.0

>  <runtime>  (447) 
38.125463

>  <LE>  (447) 
0.329287

>  <percent_hybrid>  (447) 
46.0

>  <dist>  (447) 
3.0

>  <ecfp4>  (447) 
0.339286

>  <daylight>  (447) 
0.469512

>  <topodist>  (447) 
2.0

>  <mces>  (447) 
19.0

>  <tdn>  (447) 
1.0

>  <tup>  (447) 
0.0

>  <rdn>  (447) 
1.0

>  <rup>  (447) 
0.0

>  <ldn>  (447) 
0.0

>  <lup>  (447) 
0.0

>  <mut>  (447) 
1.0

>  <maj>  (447) 
1.0

>  <min>  (447) 
0.0

>  <hyb>  (447) 
0.0

>  <sub>  (447) 
2.0

>  <query_index>  (447) 
181.0

>  <max_hit_Tanimoto>  (447) 
0.392157

>  <largest_ring>  (447) 
0

>  <N_interactions_kept>  (447) 
2.5

>  <N_interactions_lost>  (447) 
1.5

>  <interaction_uniqueness_metric>  (447) 
0.031789

>  <ad_hoc_penalty>  (447) 
-18.031718

>  <N_rotatable_bonds>  (447) 
2

>  <N_HA>  (447) 
18

>  <cluster>  (447) 
5806

>  <N_interactions>  (447) 
4

>  <Enamine>  (447) 
0

>  <Mcule>  (447) 
1

>  <N_PAINS>  (447) 
0

>  <UFF_Gibbs>  (447) 
124.943359

>  <strain_per_HA>  (447) 
6.941298

>  <saltbridge:HIS:51>  (447) 
0

>  <pistack:HIS:51>  (447) 
0

>  <hydroph_interaction:HIS:51>  (447) 
0

>  <hbond:ALA:132>  (447) 
0

>  <hbond:SER:135>  (447) 
0

>  <hydroph_interaction:TYR:150>  (447) 
1

>  <pistack:TYR:161>  (447) 
0

>  <hydroph_interaction:TYR:161>  (447) 
3

>  <hydroph_interaction:ASP:83>  (447) 
0

>  <hbond:TYR:130>  (447) 
0

>  <hydroph_interaction:ALA:132>  (447) 
0

>  <hbond:HIS:51>  (447) 
0

>  <hbond:ASP:129>  (447) 
0

>  <hbond:TYR:150>  (447) 
0

>  <hbond:GLY:151>  (447) 
0

>  <hbond:TYR:161>  (447) 
0

>  <hydroph_interaction:TYR:130>  (447) 
0

>  <hydroph_interaction:PRO:131>  (447) 
0

>  <hydroph_interaction:ASP:129>  (447) 
0

>  <saltbridge:ASP:75>  (447) 
0

>  <saltbridge:ASP:83>  (447) 
0

>  <hydroph_interaction:ASN:152>  (447) 
0

>  <halogenbond:TYR:150>  (447) 
0

>  <hbond:ASP:83>  (447) 
0

>  <hydroph_interaction:VAL:155>  (447) 
0

>  <pication:TYR:161>  (447) 
0

>  <hbond:PRO:131>  (447) 
0

>  <hbond:LEU:128>  (447) 
0

>  <saltbridge:ASP:129>  (447) 
0

>  <hbond:THR:134>  (447) 
0

>  <pication:HIS:51>  (447) 
0

>  <hbond:SER:81>  (447) 
0

>  <hbond:GLY:159>  (447) 
0

>  <hydroph_interaction:PRO:101>  (447) 
0

>  <hydroph_interaction:THR:134>  (447) 
0

>  <hbond:GLY:82>  (447) 
0

>  <hydroph_interaction:GLU:104>  (447) 
0

>  <hydroph_interaction:VAL:36>  (447) 
0

>  <hydroph_interaction:MET:49>  (447) 
0

>  <halogenbond:GLU:104>  (447) 
0

>  <hydroph_interaction:LYS:107>  (447) 
0

$$$$
JWVJKBCIWLNEJT-UHFFFAOYSA-N
     RDKit          3D

 44 46  0  0  0  0  0  0  0  0999 V2000
   -8.7660    7.3230  -14.0320 C   0  0  0  0  0  0  0  0  0  0  0  0
   -7.5080    7.5960  -14.5450 N   0  0  0  0  0  0  0  0  0  0  0  0
   -6.8200    6.7730  -15.4580 C   0  0  0  0  0  0  0  0  0  0  0  0
   -7.5980    6.0330  -16.4120 C   0  0  0  0  0  0  0  0  0  0  0  0
   -7.1580    5.8740  -17.8450 C   0  0  0  0  0  0  0  0  0  0  0  0
   -7.9290    5.1670  -18.7860 C   0  0  0  0  0  0  0  0  0  0  0  0
   -9.1240    4.6150  -18.3380 C   0  0  0  0  0  0  0  0  0  0  0  0
   -9.5490    4.7780  -16.8960 C   0  0  0  0  0  0  0  0  0  0  0  0
   -8.8020    5.4590  -15.9920 C   0  0  0  0  0  0  0  0  0  0  0  0
   -9.8400    7.6350  -14.4940 O   0  0  0  0  0  0  0  0  0  0  0  0
   -8.7690    6.5420  -12.7740 C   0  0  0  0  0  0  0  0  0  0  0  0
   -8.6250    7.1940  -11.5420 C   0  0  0  0  0  0  0  0  0  0  0  0
   -8.6290    6.4100  -10.3940 C   0  0  0  0  0  0  0  0  0  0  0  0
   -8.7650    5.0190  -10.3650 C   0  0  0  0  0  0  0  0  0  0  0  0
   -8.7610    4.2840   -9.1950 N   0  0  0  0  0  0  0  0  0  0  0  0
   -8.9420    2.8290   -9.2650 C   0  0  0  0  0  0  0  0  0  0  0  0
   -9.6790    2.4650   -7.9770 C   0  0  0  0  0  0  0  0  0  0  0  0
   -9.2010    3.1980   -6.7810 C   0  0  0  0  0  0  0  0  0  0  0  0
   -8.7580    4.5240   -6.7410 C   0  0  0  0  0  0  0  0  0  0  0  0
   -8.0120    4.8240   -8.0550 C   0  0  0  0  0  0  0  0  0  0  0  0
   -8.9090    4.4010  -11.6120 C   0  0  0  0  0  0  0  0  0  0  0  0
   -8.9110    5.1520  -12.7840 C   0  0  0  0  0  0  0  0  0  0  0  0
   -6.9440    8.2920  -14.0770 H   0  0  0  0  0  0  0  0  0  0  0  0
   -6.1780    6.0730  -14.9110 H   0  0  0  0  0  0  0  0  0  0  0  0
   -6.1420    7.4400  -16.0000 H   0  0  0  0  0  0  0  0  0  0  0  0
   -6.2060    6.3510  -18.0880 H   0  0  0  0  0  0  0  0  0  0  0  0
   -7.5830    5.0760  -19.8040 H   0  0  0  0  0  0  0  0  0  0  0  0
   -9.7800    4.0530  -19.0110 H   0  0  0  0  0  0  0  0  0  0  0  0
  -10.4830    4.3480  -16.5340 H   0  0  0  0  0  0  0  0  0  0  0  0
   -9.2230    5.5050  -14.9850 H   0  0  0  0  0  0  0  0  0  0  0  0
   -8.5140    8.2670  -11.4980 H   0  0  0  0  0  0  0  0  0  0  0  0
   -8.5180    6.9190   -9.4340 H   0  0  0  0  0  0  0  0  0  0  0  0
   -9.5680    2.5160  -10.1120 H   0  0  0  0  0  0  0  0  0  0  0  0
   -7.9760    2.3680   -9.4470 H   0  0  0  0  0  0  0  0  0  0  0  0
  -10.7530    2.5170   -8.1090 H   0  0  0  0  0  0  0  0  0  0  0  0
   -9.5570    1.4130   -7.7320 H   0  0  0  0  0  0  0  0  0  0  0  0
   -8.4350    2.5670   -6.3120 H   0  0  0  0  0  0  0  0  0  0  0  0
  -10.0400    3.1590   -6.0830 H   0  0  0  0  0  0  0  0  0  0  0  0
   -9.6600    5.1390   -6.7370 H   0  0  0  0  0  0  0  0  0  0  0  0
   -8.2600    4.8200   -5.8180 H   0  0  0  0  0  0  0  0  0  0  0  0
   -7.8970    5.9080   -8.1520 H   0  0  0  0  0  0  0  0  0  0  0  0
   -7.0110    4.3760   -8.0070 H   0  0  0  0  0  0  0  0  0  0  0  0
   -9.0250    3.3230  -11.7060 H   0  0  0  0  0  0  0  0  0  0  0  0
   -9.0310    4.5470  -13.6890 H   0  0  0  0  0  0  0  0  0  0  0  0
  1  2  1  0
  2  3  1  0
  3  4  1  0
  4  5  2  0
  5  6  1  0
  6  7  2  0
  7  8  1  0
  8  9  2  0
  1 10  2  0
  1 11  1  0
 11 12  2  0
 12 13  1  0
 13 14  2  0
 14 15  1  0
 15 16  1  0
 16 17  1  0
 17 18  1  0
 18 19  1  0
 19 20  1  0
 14 21  1  0
 21 22  2  0
  9  4  1  0
 22 11  1  0
 20 15  1  0
  2 23  1  0
  3 24  1  0
  3 25  1  0
  5 26  1  0
  6 27  1  0
  7 28  1  0
  8 29  1  0
  9 30  1  0
 12 31  1  0
 13 32  1  0
 16 33  1  0
 16 34  1  0
 17 35  1  0
 17 36  1  0
 18 37  1  0
 18 38  1  0
 19 39  1  0
 19 40  1  0
 20 41  1  0
 20 42  1  0
 21 43  1  0
 22 44  1  0
A    1
 C1 
A    2
 N1 
A    3
 C2 
A    4
 C3 
A    5
 C4 
A    6
 C5 
A    7
 C6 
A    8
 C7 
A    9
 C8 
A   10
 O1 
A   11
 C9 
A   12
 C10
A   13
 C11
A   14
 C12
A   15
 N2 
A   16
 C13
A   17
 C14
A   18
 C15
A   19
 C16
A   20
 C17
A   21
 C18
A   22
 C19
A   23
 H1 
A   24
 H2 
A   25
 H3 
A   26
 H4 
A   27
 H5 
A   28
 H6 
A   29
 H7 
A   30
 H8 
A   31
 H9 
A   32
 H10
A   33
 H11
A   34
 H12
A   35
 H13
A   36
 H14
A   37
 H15
A   38
 H16
A   39
 H17
A   40
 H18
A   41
 H19
A   42
 H20
A   43
 H21
A   44
 H22
M  END
>  <ref_pdb>  (448) 
x0051_0B

>  <ref_mols>  (448) 
x0589_0B,x0404_0B

>  <original SMILES>  (448) 
[H]c1c([H])c([H])c(C([H])([H])N([H])C(=O)c2c([H])c([H])c(N3C([H])([H])C([H])([H])C([H])([H])C([H])([H])C3([H])[H])c([H])c2[H])c([H])c1[H]

>  <index>  (448) 
396

>  <∆∆G>  (448) 
-7.502734

>  <∆G_bound>  (448) 
-7.231363

>  <∆G_unbound>  (448) 
0.271371

>  <comRMSD>  (448) 
0.749256

>  <N_constrained_atoms>  (448) 
23.0

>  <N_unconstrained_atoms>  (448) 
1.0

>  <runtime>  (448) 
93.646421

>  <LE>  (448) 
0.312614

>  <percent_hybrid>  (448) 
35.0

>  <dist>  (448) 
7.0

>  <ecfp4>  (448) 
0.197183

>  <daylight>  (448) 
0.202247

>  <topodist>  (448) 
3.0

>  <mces>  (448) 
24.0

>  <tdn>  (448) 
3.0

>  <tup>  (448) 
0.0

>  <rdn>  (448) 
0.0

>  <rup>  (448) 
0.0

>  <ldn>  (448) 
0.0

>  <lup>  (448) 
0.0

>  <mut>  (448) 
3.0

>  <maj>  (448) 
3.0

>  <min>  (448) 
0.0

>  <hyb>  (448) 
1.0

>  <sub>  (448) 
2.0

>  <query_index>  (448) 
29.0

>  <max_hit_Tanimoto>  (448) 
0.265683

>  <largest_ring>  (448) 
0

>  <N_interactions_kept>  (448) 
2.5

>  <N_interactions_lost>  (448) 
1.0

>  <interaction_uniqueness_metric>  (448) 
0.063676

>  <ad_hoc_penalty>  (448) 
-18.020308

>  <N_rotatable_bonds>  (448) 
4

>  <N_HA>  (448) 
22

>  <cluster>  (448) 
527

>  <N_interactions>  (448) 
4

>  <Enamine>  (448) 
0

>  <Mcule>  (448) 
1

>  <N_PAINS>  (448) 
0

>  <UFF_Gibbs>  (448) 
178.796105

>  <strain_per_HA>  (448) 
8.127096

>  <saltbridge:HIS:51>  (448) 
0

>  <pistack:HIS:51>  (448) 
1

>  <hydroph_interaction:HIS:51>  (448) 
0

>  <hbond:ALA:132>  (448) 
0

>  <hbond:SER:135>  (448) 
0

>  <hydroph_interaction:TYR:150>  (448) 
0

>  <pistack:TYR:161>  (448) 
0

>  <hydroph_interaction:TYR:161>  (448) 
2

>  <hydroph_interaction:ASP:83>  (448) 
0

>  <hbond:TYR:130>  (448) 
0

>  <hydroph_interaction:ALA:132>  (448) 
1

>  <hbond:HIS:51>  (448) 
0

>  <hbond:ASP:129>  (448) 
0

>  <hbond:TYR:150>  (448) 
0

>  <hbond:GLY:151>  (448) 
0

>  <hbond:TYR:161>  (448) 
0

>  <hydroph_interaction:TYR:130>  (448) 
0

>  <hydroph_interaction:PRO:131>  (448) 
0

>  <hydroph_interaction:ASP:129>  (448) 
0

>  <saltbridge:ASP:75>  (448) 
0

>  <saltbridge:ASP:83>  (448) 
0

>  <hydroph_interaction:ASN:152>  (448) 
0

>  <halogenbond:TYR:150>  (448) 
0

>  <hbond:ASP:83>  (448) 
0

>  <hydroph_interaction:VAL:155>  (448) 
0

>  <pication:TYR:161>  (448) 
0

>  <hbond:PRO:131>  (448) 
0

>  <hbond:LEU:128>  (448) 
0

>  <saltbridge:ASP:129>  (448) 
0

>  <hbond:THR:134>  (448) 
0

>  <pication:HIS:51>  (448) 
0

>  <hbond:SER:81>  (448) 
0

>  <hbond:GLY:159>  (448) 
0

>  <hydroph_interaction:PRO:101>  (448) 
0

>  <hydroph_interaction:THR:134>  (448) 
0

>  <hbond:GLY:82>  (448) 
0

>  <hydroph_interaction:GLU:104>  (448) 
0

>  <hydroph_interaction:VAL:36>  (448) 
0

>  <hydroph_interaction:MET:49>  (448) 
0

>  <halogenbond:GLU:104>  (448) 
0

>  <hydroph_interaction:LYS:107>  (448) 
0

$$$$
CSSB03437231633
     RDKit          3D

 20 21  0  0  0  0  0  0  0  0999 V2000
  -10.1350    4.7880  -17.3790 C   0  0  0  0  0  0  0  0  0  0  0  0
   -8.6890    5.0120  -17.2150 C   0  0  0  0  0  0  0  0  0  0  0  0
   -8.0210    4.9480  -18.3850 C   0  0  0  0  0  0  0  0  0  0  0  0
   -8.6940    4.6260  -19.9090 S   0  0  0  0  0  0  0  0  0  0  0  0
   -7.1610    4.7510  -20.6620 C   0  0  0  0  0  0  0  0  0  0  0  0
   -6.1560    5.0420  -19.7530 C   0  0  0  0  0  0  0  0  0  0  0  0
   -6.6600    5.1400  -18.4650 C   0  0  0  0  0  0  0  0  0  0  0  0
   -5.8620    5.4160  -17.2340 C   0  0  0  0  0  0  0  0  0  0  0  0
   -6.6040    5.4530  -16.0610 C   0  0  0  0  0  0  0  0  0  0  0  0
   -5.8940    5.6900  -14.9130 N   0  0  0  0  0  0  0  0  0  0  0  0
   -8.0010    5.2590  -16.0410 C   0  0  0  0  0  0  0  0  0  0  0  0
  -10.3000    4.1070  -18.2150 H   0  0  0  0  0  0  0  0  0  0  0  0
  -10.5390    4.3500  -16.4710 H   0  0  0  0  0  0  0  0  0  0  0  0
  -10.6480    5.7280  -17.5500 H   0  0  0  0  0  0  0  0  0  0  0  0
   -7.0620    4.6100  -21.7270 H   0  0  0  0  0  0  0  0  0  0  0  0
   -5.1150    5.1660  -20.0230 H   0  0  0  0  0  0  0  0  0  0  0  0
   -4.7890    5.5700  -17.2480 H   0  0  0  0  0  0  0  0  0  0  0  0
   -5.8100    6.6740  -14.6770 H   0  0  0  0  0  0  0  0  0  0  0  0
   -6.2010    5.1290  -14.1230 H   0  0  0  0  0  0  0  0  0  0  0  0
   -8.5430    5.3010  -15.1000 H   0  0  0  0  0  0  0  0  0  0  0  0
  1  2  1  0
  2  3  2  0
  3  4  1  0
  4  5  1  0
  5  6  2  0
  6  7  1  0
  7  8  2  0
  8  9  1  0
  9 10  1  0
  9 11  2  0
 11  2  1  0
  7  3  1  0
  1 12  1  0
  1 13  1  0
  1 14  1  0
  5 15  1  0
  6 16  1  0
  8 17  1  0
 10 18  1  0
 10 19  1  0
 11 20  1  0
A    1
 C1 
A    2
 C2 
A    3
 C3 
A    4
 S1 
A    5
 C4 
A    6
 C5 
A    7
 C6 
A    8
 C7 
A    9
 C8 
A   10
 N1 
A   11
 C9 
A   12
 H1 
A   13
 H2 
A   14
 H3 
A   15
 H4 
A   16
 H5 
A   17
 H6 
A   18
 H7 
A   19
 H8 
A   20
 H9 
M  END
>  <ref_pdb>  (449) 
x0051_0B

>  <ref_mols>  (449) 
x0605_0B,x0386_0B

>  <original SMILES>  (449) 
[H]c1sc2c(C([H])([H])[H])c([H])c(N([H])[H])c([H])c2c1[H]

>  <index>  (449) 
742

>  <∆∆G>  (449) 
-6.643481

>  <∆G_bound>  (449) 
-6.683791

>  <∆G_unbound>  (449) 
-0.04031

>  <comRMSD>  (449) 
0.819638

>  <N_constrained_atoms>  (449) 
11.0

>  <N_unconstrained_atoms>  (449) 
1.0

>  <runtime>  (449) 
27.400256

>  <LE>  (449) 
0.553623

>  <percent_hybrid>  (449) 
34.0

>  <dist>  (449) 
2.0

>  <ecfp4>  (449) 
0.275

>  <daylight>  (449) 
0.313433

>  <topodist>  (449) 
2.0

>  <mces>  (449) 
10.0

>  <tdn>  (449) 
0.0

>  <tup>  (449) 
1.0

>  <rdn>  (449) 
0.0

>  <rup>  (449) 
1.0

>  <ldn>  (449) 
0.0

>  <lup>  (449) 
0.0

>  <mut>  (449) 
0.0

>  <maj>  (449) 
0.0

>  <min>  (449) 
0.0

>  <hyb>  (449) 
0.0

>  <sub>  (449) 
2.0

>  <query_index>  (449) 
312.0

>  <max_hit_Tanimoto>  (449) 
0.097363

>  <largest_ring>  (449) 
6

>  <N_interactions_kept>  (449) 
1.5

>  <N_interactions_lost>  (449) 
1.0

>  <interaction_uniqueness_metric>  (449) 
0.027887

>  <ad_hoc_penalty>  (449) 
-17.965046

>  <N_rotatable_bonds>  (449) 
2

>  <N_HA>  (449) 
11

>  <cluster>  (449) 
5540

>  <N_interactions>  (449) 
3

>  <Enamine>  (449) 
1

>  <Mcule>  (449) 
0

>  <N_PAINS>  (449) 
0

>  <UFF_Gibbs>  (449) 
36.525581

>  <strain_per_HA>  (449) 
3.320507

>  <saltbridge:HIS:51>  (449) 
0

>  <pistack:HIS:51>  (449) 
0

>  <hydroph_interaction:HIS:51>  (449) 
0

>  <hbond:ALA:132>  (449) 
0

>  <hbond:SER:135>  (449) 
0

>  <hydroph_interaction:TYR:150>  (449) 
0

>  <pistack:TYR:161>  (449) 
2

>  <hydroph_interaction:TYR:161>  (449) 
1

>  <hydroph_interaction:ASP:83>  (449) 
0

>  <hbond:TYR:130>  (449) 
0

>  <hydroph_interaction:ALA:132>  (449) 
0

>  <hbond:HIS:51>  (449) 
0

>  <hbond:ASP:129>  (449) 
0

>  <hbond:TYR:150>  (449) 
0

>  <hbond:GLY:151>  (449) 
0

>  <hbond:TYR:161>  (449) 
0

>  <hydroph_interaction:TYR:130>  (449) 
0

>  <hydroph_interaction:PRO:131>  (449) 
0

>  <hydroph_interaction:ASP:129>  (449) 
0

>  <saltbridge:ASP:75>  (449) 
0

>  <saltbridge:ASP:83>  (449) 
0

>  <hydroph_interaction:ASN:152>  (449) 
0

>  <halogenbond:TYR:150>  (449) 
0

>  <hbond:ASP:83>  (449) 
0

>  <hydroph_interaction:VAL:155>  (449) 
0

>  <pication:TYR:161>  (449) 
0

>  <hbond:PRO:131>  (449) 
0

>  <hbond:LEU:128>  (449) 
0

>  <saltbridge:ASP:129>  (449) 
0

>  <hbond:THR:134>  (449) 
0

>  <pication:HIS:51>  (449) 
0

>  <hbond:SER:81>  (449) 
0

>  <hbond:GLY:159>  (449) 
0

>  <hydroph_interaction:PRO:101>  (449) 
0

>  <hydroph_interaction:THR:134>  (449) 
0

>  <hbond:GLY:82>  (449) 
0

>  <hydroph_interaction:GLU:104>  (449) 
0

>  <hydroph_interaction:VAL:36>  (449) 
0

>  <hydroph_interaction:MET:49>  (449) 
0

>  <halogenbond:GLU:104>  (449) 
0

>  <hydroph_interaction:LYS:107>  (449) 
0

$$$$
DYPOVQRUEYSIOS-UHFFFAOYSA-N
     RDKit          3D

 49 53  0  0  0  0  0  0  0  0999 V2000
   -5.7030    9.9270  -23.7050 C   0  0  0  0  0  0  0  0  0  0  0  0
   -6.6000    9.9000  -24.7140 N   0  0  0  0  0  0  0  0  0  0  0  0
   -6.2440    9.8620  -26.1130 C   0  0  0  0  0  0  0  0  0  0  0  0
   -7.4570    9.3510  -26.8010 C   0  0  0  0  0  0  0  0  0  0  0  0
   -7.5260    8.0640  -27.1830 N   0  0  0  0  0  0  0  0  0  0  0  0
   -8.8380    7.9360  -27.7290 C   0  0  0  0  0  0  0  0  0  0  0  0
   -9.4520    9.2190  -27.6340 C   0  0  0  0  0  0  0  0  0  0  0  0
  -10.7550    9.4010  -28.0800 C   0  0  0  0  0  0  0  0  0  0  0  0
  -11.4390    8.2940  -28.6190 C   0  0  0  0  0  0  0  0  0  0  0  0
  -10.8250    7.0460  -28.7110 C   0  0  0  0  0  0  0  0  0  0  0  0
   -9.5260    6.8490  -28.2730 C   0  0  0  0  0  0  0  0  0  0  0  0
   -8.5190   10.0830  -27.0470 N   0  0  0  0  0  0  0  0  0  0  0  0
   -5.0280   10.9050  -23.4190 O   0  0  0  0  0  0  0  0  0  0  0  0
   -5.5110    8.7520  -22.8570 C   0  0  0  0  0  0  0  0  0  0  0  0
   -5.8530    7.2910  -23.1750 C   0  0  0  0  0  0  0  0  0  0  0  0
   -5.5120    6.2450  -22.0860 C   0  0  0  0  0  0  0  0  0  0  0  0
   -4.8650    6.8420  -20.8060 C   0  0  0  0  0  0  0  0  0  0  0  0
   -4.4970    5.9680  -19.7450 C   0  0  0  0  0  0  0  0  0  0  0  0
   -5.6240    5.5330  -18.9380 N   0  0  0  0  0  0  0  0  0  0  0  0
   -5.7390    5.4820  -17.5320 C   0  0  0  0  0  0  0  0  0  0  0  0
   -4.9180    5.5830  -16.6340 O   0  0  0  0  0  0  0  0  0  0  0  0
   -7.2290    5.2560  -17.3270 C   0  0  0  0  0  0  0  0  0  0  0  0
   -7.8020    4.9690  -18.6560 C   0  0  0  0  0  0  0  0  0  0  0  0
   -9.1580    4.7220  -18.8210 C   0  0  0  0  0  0  0  0  0  0  0  0
   -9.9480    4.7560  -17.6790 C   0  0  0  0  0  0  0  0  0  0  0  0
   -9.4090    5.0220  -16.4140 C   0  0  0  0  0  0  0  0  0  0  0  0
   -8.0410    5.2770  -16.2160 C   0  0  0  0  0  0  0  0  0  0  0  0
   -6.7100    5.0110  -19.5960 C   0  0  0  0  0  0  0  0  0  0  0  0
   -6.7910    4.6390  -20.7310 O   0  0  0  0  0  0  0  0  0  0  0  0
   -4.6310    8.1870  -20.6710 C   0  0  0  0  0  0  0  0  0  0  0  0
   -4.9430    9.0860  -21.6540 C   0  0  0  0  0  0  0  0  0  0  0  0
   -7.5760    9.7650  -24.4920 H   0  0  0  0  0  0  0  0  0  0  0  0
   -5.3830    9.1900  -26.2130 H   0  0  0  0  0  0  0  0  0  0  0  0
   -5.9890   10.8740  -26.4440 H   0  0  0  0  0  0  0  0  0  0  0  0
  -11.2480   10.3770  -28.0150 H   0  0  0  0  0  0  0  0  0  0  0  0
  -12.4620    8.4140  -28.9720 H   0  0  0  0  0  0  0  0  0  0  0  0
  -11.3820    6.2130  -29.1340 H   0  0  0  0  0  0  0  0  0  0  0  0
   -9.0430    5.8650  -28.3440 H   0  0  0  0  0  0  0  0  0  0  0  0
   -8.6440   11.0630  -26.8380 H   0  0  0  0  0  0  0  0  0  0  0  0
   -6.3100    6.9890  -24.1240 H   0  0  0  0  0  0  0  0  0  0  0  0
   -5.7130    5.1800  -22.2220 H   0  0  0  0  0  0  0  0  0  0  0  0
   -4.0140    5.0750  -20.1640 H   0  0  0  0  0  0  0  0  0  0  0  0
   -3.7590    6.4640  -19.1090 H   0  0  0  0  0  0  0  0  0  0  0  0
   -9.5740    4.5130  -19.8010 H   0  0  0  0  0  0  0  0  0  0  0  0
  -11.0170    4.5690  -17.7750 H   0  0  0  0  0  0  0  0  0  0  0  0
  -10.0750    5.0320  -15.5560 H   0  0  0  0  0  0  0  0  0  0  0  0
   -7.6360    5.4830  -15.2300 H   0  0  0  0  0  0  0  0  0  0  0  0
   -4.1760    8.5610  -19.7540 H   0  0  0  0  0  0  0  0  0  0  0  0
   -4.7160   10.1320  -21.4560 H   0  0  0  0  0  0  0  0  0  0  0  0
  1  2  1  0
  2  3  1  0
  3  4  1  0
  4  5  2  0
  5  6  1  0
  6  7  2  0
  7  8  1  0
  8  9  2  0
  9 10  1  0
 10 11  2  0
  7 12  1  0
  1 13  2  0
  1 14  1  0
 14 15  2  0
 15 16  1  0
 16 17  2  0
 17 18  1  0
 18 19  1  0
 19 20  1  0
 20 21  2  0
 20 22  1  0
 22 23  2  0
 23 24  1  0
 24 25  2  0
 25 26  1  0
 26 27  2  0
 23 28  1  0
 28 29  2  0
 17 30  1  0
 30 31  2  0
 12  4  1  0
 11  6  1  0
 31 14  1  0
 28 19  1  0
 27 22  1  0
  2 32  1  0
  3 33  1  0
  3 34  1  0
  8 35  1  0
  9 36  1  0
 10 37  1  0
 11 38  1  0
 12 39  1  0
 15 40  1  0
 16 41  1  0
 18 42  1  0
 18 43  1  0
 24 44  1  0
 25 45  1  0
 26 46  1  0
 27 47  1  0
 30 48  1  0
 31 49  1  0
A    1
 C1 
A    2
 N1 
A    3
 C2 
A    4
 C3 
A    5
 N2 
A    6
 C4 
A    7
 C5 
A    8
 C6 
A    9
 C7 
A   10
 C8 
A   11
 C9 
A   12
 N3 
A   13
 O1 
A   14
 C10
A   15
 C11
A   16
 C12
A   17
 C13
A   18
 C14
A   19
 N4 
A   20
 C15
A   21
 O2 
A   22
 C16
A   23
 C17
A   24
 C18
A   25
 C19
A   26
 C20
A   27
 C21
A   28
 C22
A   29
 O3 
A   30
 C23
A   31
 C24
A   32
 H1 
A   33
 H2 
A   34
 H3 
A   35
 H4 
A   36
 H5 
A   37
 H6 
A   38
 H7 
A   39
 H8 
A   40
 H9 
A   41
 H10
A   42
 H11
A   43
 H12
A   44
 H13
A   45
 H14
A   46
 H15
A   47
 H16
A   48
 H17
A   49
 H18
M  END
>  <ref_pdb>  (450) 
x0051_0B

>  <ref_mols>  (450) 
x0727_0B,x0846_1B

>  <original SMILES>  (450) 
[H]c1c([H])c([H])c2c(c1[H])C(=O)N(C([H])([H])c1c([H])c([H])c(C(=O)N([H])C([H])([H])c3nc4c([H])c([H])c([H])c([H])c4n3[H])c([H])c1[H])C2=O

>  <index>  (450) 
745

>  <∆∆G>  (450) 
-9.771684

>  <∆G_bound>  (450) 
-9.100892

>  <∆G_unbound>  (450) 
0.670792

>  <comRMSD>  (450) 
0.948872

>  <N_constrained_atoms>  (450) 
29.0

>  <N_unconstrained_atoms>  (450) 
2.0

>  <runtime>  (450) 
44.8391

>  <LE>  (450) 
0.315216

>  <percent_hybrid>  (450) 
38.0

>  <dist>  (450) 
10.0

>  <ecfp4>  (450) 
0.232558

>  <daylight>  (450) 
0.275556

>  <topodist>  (450) 
7.0

>  <mces>  (450) 
32.0

>  <tdn>  (450) 
2.0

>  <tup>  (450) 
2.0

>  <rdn>  (450) 
0.0

>  <rup>  (450) 
0.0

>  <ldn>  (450) 
2.0

>  <lup>  (450) 
1.0

>  <mut>  (450) 
2.0

>  <maj>  (450) 
2.0

>  <min>  (450) 
0.0

>  <hyb>  (450) 
1.0

>  <sub>  (450) 
2.0

>  <query_index>  (450) 
15.0

>  <max_hit_Tanimoto>  (450) 
0.316819

>  <largest_ring>  (450) 
6

>  <N_interactions_kept>  (450) 
0.5

>  <N_interactions_lost>  (450) 
2.5

>  <interaction_uniqueness_metric>  (450) 
0.1581

>  <ad_hoc_penalty>  (450) 
-17.929399

>  <N_rotatable_bonds>  (450) 
5

>  <N_HA>  (450) 
31

>  <cluster>  (450) 
5537

>  <N_interactions>  (450) 
5

>  <Enamine>  (450) 
0

>  <Mcule>  (450) 
1

>  <N_PAINS>  (450) 
0

>  <UFF_Gibbs>  (450) 
144.598817

>  <strain_per_HA>  (450) 
4.664478

>  <saltbridge:HIS:51>  (450) 
0

>  <pistack:HIS:51>  (450) 
0

>  <hydroph_interaction:HIS:51>  (450) 
0

>  <hbond:ALA:132>  (450) 
0

>  <hbond:SER:135>  (450) 
0

>  <hydroph_interaction:TYR:150>  (450) 
1

>  <pistack:TYR:161>  (450) 
1

>  <hydroph_interaction:TYR:161>  (450) 
0

>  <hydroph_interaction:ASP:83>  (450) 
0

>  <hbond:TYR:130>  (450) 
1

>  <hydroph_interaction:ALA:132>  (450) 
0

>  <hbond:HIS:51>  (450) 
0

>  <hbond:ASP:129>  (450) 
0

>  <hbond:TYR:150>  (450) 
0

>  <hbond:GLY:151>  (450) 
0

>  <hbond:TYR:161>  (450) 
0

>  <hydroph_interaction:TYR:130>  (450) 
1

>  <hydroph_interaction:PRO:131>  (450) 
1

>  <hydroph_interaction:ASP:129>  (450) 
0

>  <saltbridge:ASP:75>  (450) 
0

>  <saltbridge:ASP:83>  (450) 
0

>  <hydroph_interaction:ASN:152>  (450) 
0

>  <halogenbond:TYR:150>  (450) 
0

>  <hbond:ASP:83>  (450) 
0

>  <hydroph_interaction:VAL:155>  (450) 
0

>  <pication:TYR:161>  (450) 
0

>  <hbond:PRO:131>  (450) 
0

>  <hbond:LEU:128>  (450) 
0

>  <saltbridge:ASP:129>  (450) 
0

>  <hbond:THR:134>  (450) 
0

>  <pication:HIS:51>  (450) 
0

>  <hbond:SER:81>  (450) 
0

>  <hbond:GLY:159>  (450) 
0

>  <hydroph_interaction:PRO:101>  (450) 
0

>  <hydroph_interaction:THR:134>  (450) 
0

>  <hbond:GLY:82>  (450) 
0

>  <hydroph_interaction:GLU:104>  (450) 
0

>  <hydroph_interaction:VAL:36>  (450) 
0

>  <hydroph_interaction:MET:49>  (450) 
0

>  <halogenbond:GLU:104>  (450) 
0

>  <hydroph_interaction:LYS:107>  (450) 
0

$$$$
MCULE-9389694740
     RDKit          3D

 43 45  0  0  0  0  0  0  0  0999 V2000
   -9.2500    6.7750  -14.2660 C   0  0  0  0  0  0  0  0  0  0  0  0
   -9.1190    6.2000  -12.9940 C   0  0  0  0  0  0  0  0  0  0  0  0
   -8.9950    7.0000  -11.8390 C   0  0  0  0  0  0  0  0  0  0  0  0
   -8.8720    6.4060  -10.5850 C   0  0  0  0  0  0  0  0  0  0  0  0
   -8.8730    4.8810  -10.4870 C   0  0  0  0  0  0  0  0  0  0  0  0
   -8.7610    4.2620   -9.2410 N   0  0  0  0  0  0  0  0  0  0  0  0
   -8.9120    2.9040   -9.0110 C   0  0  0  0  0  0  0  0  0  0  0  0
   -9.7090    2.6320   -7.7730 C   0  0  0  0  0  0  0  0  0  0  0  0
   -9.1870    3.4000   -6.6280 N   0  0  0  0  0  0  0  0  0  0  0  0
   -7.8220    3.0420   -6.4430 C   0  0  0  0  0  0  0  0  0  0  0  0
   -9.1160    4.8230   -6.9370 C   0  0  0  0  0  0  0  0  0  0  0  0
   -8.3350    5.0670   -8.0670 C   0  0  0  0  0  0  0  0  0  0  0  0
   -8.9950    4.1680  -11.6800 C   0  0  0  0  0  0  0  0  0  0  0  0
   -9.1150    4.8160  -12.9050 C   0  0  0  0  0  0  0  0  0  0  0  0
   -8.8650    7.9410  -14.3610 O   0  0  0  0  0  0  0  0  0  0  0  0
   -9.8280    5.9130  -15.2800 N   0  0  0  0  0  0  0  0  0  0  0  0
   -9.1460    5.4400  -16.4420 C   0  0  0  0  0  0  0  0  0  0  0  0
   -7.7220    5.1960  -16.6340 C   0  0  0  0  0  0  0  0  0  0  0  0
   -7.4740    4.7690  -17.8980 C   0  0  0  0  0  0  0  0  0  0  0  0
   -8.5980    4.6830  -18.5980 N   0  0  0  0  0  0  0  0  0  0  0  0
   -9.5890    5.0760  -17.7570 N   0  0  0  0  0  0  0  0  0  0  0  0
  -10.8660    5.0480  -18.4190 C   0  0  0  0  0  0  0  0  0  0  0  0
   -8.9990    8.0790  -11.9460 H   0  0  0  0  0  0  0  0  0  0  0  0
   -8.7810    7.0350   -9.7050 H   0  0  0  0  0  0  0  0  0  0  0  0
   -7.9300    2.4280   -8.9300 H   0  0  0  0  0  0  0  0  0  0  0  0
   -9.4390    2.4200   -9.8400 H   0  0  0  0  0  0  0  0  0  0  0  0
   -9.6370    1.5680   -7.5390 H   0  0  0  0  0  0  0  0  0  0  0  0
  -10.7640    2.8510   -7.9280 H   0  0  0  0  0  0  0  0  0  0  0  0
   -7.3150    3.6720   -5.7090 H   0  0  0  0  0  0  0  0  0  0  0  0
   -7.7630    2.0170   -6.1310 H   0  0  0  0  0  0  0  0  0  0  0  0
   -7.2860    3.1270   -7.3910 H   0  0  0  0  0  0  0  0  0  0  0  0
  -10.1100    5.2310   -7.0800 H   0  0  0  0  0  0  0  0  0  0  0  0
   -8.6720    5.3600   -6.0890 H   0  0  0  0  0  0  0  0  0  0  0  0
   -7.2940    4.8360   -7.8110 H   0  0  0  0  0  0  0  0  0  0  0  0
   -8.3970    6.1360   -8.3030 H   0  0  0  0  0  0  0  0  0  0  0  0
   -9.0030    3.0820  -11.6870 H   0  0  0  0  0  0  0  0  0  0  0  0
   -9.2090    4.2220  -13.8100 H   0  0  0  0  0  0  0  0  0  0  0  0
  -10.6600    5.4030  -15.0110 H   0  0  0  0  0  0  0  0  0  0  0  0
   -6.9660    5.3420  -15.8760 H   0  0  0  0  0  0  0  0  0  0  0  0
   -6.5280    4.5090  -18.3560 H   0  0  0  0  0  0  0  0  0  0  0  0
  -11.4580    5.8420  -18.0650 H   0  0  0  0  0  0  0  0  0  0  0  0
  -11.3880    4.1220  -18.2750 H   0  0  0  0  0  0  0  0  0  0  0  0
  -10.6700    5.2060  -19.4790 H   0  0  0  0  0  0  0  0  0  0  0  0
  1  2  1  0
  2  3  2  0
  3  4  1  0
  4  5  2  0
  5  6  1  0
  6  7  1  0
  7  8  1  0
  8  9  1  0
  9 10  1  0
  9 11  1  0
 11 12  1  0
  5 13  1  0
 13 14  2  0
  1 15  2  0
  1 16  1  0
 16 17  1  0
 17 18  2  0
 18 19  1  0
 19 20  2  0
 20 21  1  0
 21 22  1  0
  2 14  1  0
 12  6  1  0
 21 17  1  0
  3 23  1  0
  4 24  1  0
  7 25  1  0
  7 26  1  0
  8 27  1  0
  8 28  1  0
 10 29  1  0
 10 30  1  0
 10 31  1  0
 11 32  1  0
 11 33  1  0
 12 34  1  0
 12 35  1  0
 13 36  1  0
 14 37  1  0
 16 38  1  0
 18 39  1  0
 19 40  1  0
 22 41  1  0
 22 42  1  0
 22 43  1  0
A    1
 C1 
A    2
 C2 
A    3
 C3 
A    4
 C4 
A    5
 C5 
A    6
 N1 
A    7
 C6 
A    8
 C7 
A    9
 N2 
A   10
 C8 
A   11
 C9 
A   12
 C10
A   13
 C11
A   14
 C12
A   15
 O1 
A   16
 N3 
A   17
 C13
A   18
 C14
A   19
 C15
A   20
 N4 
A   21
 N5 
A   22
 C16
A   23
 H1 
A   24
 H2 
A   25
 H3 
A   26
 H4 
A   27
 H5 
A   28
 H6 
A   29
 H7 
A   30
 H8 
A   31
 H9 
A   32
 H10
A   33
 H11
A   34
 H12
A   35
 H13
A   36
 H14
A   37
 H15
A   38
 H16
A   39
 H17
A   40
 H18
A   41
 H19
A   42
 H20
A   43
 H21
M  END
>  <ref_pdb>  (451) 
x0051_0B

>  <ref_mols>  (451) 
x0386_0B,x0404_0B

>  <original SMILES>  (451) 
[H]c1nn(C([H])([H])[H])c(N([H])C(=O)c2c([H])c([H])c(N3C([H])([H])C([H])([H])N(C([H])([H])[H])C([H])([H])C3([H])[H])c([H])c2[H])c1[H]

>  <index>  (451) 
588

>  <∆∆G>  (451) 
-5.593604

>  <∆G_bound>  (451) 
-5.29564

>  <∆G_unbound>  (451) 
0.297964

>  <comRMSD>  (451) 
0.833545

>  <N_constrained_atoms>  (451) 
21.0

>  <N_unconstrained_atoms>  (451) 
2.0

>  <runtime>  (451) 
80.985561

>  <LE>  (451) 
0.2432

>  <percent_hybrid>  (451) 
29.0

>  <dist>  (451) 
8.0

>  <ecfp4>  (451) 
0.233766

>  <daylight>  (451) 
0.205645

>  <topodist>  (451) 
4.0

>  <mces>  (451) 
23.0

>  <tdn>  (451) 
2.0

>  <tup>  (451) 
1.0

>  <rdn>  (451) 
0.0

>  <rup>  (451) 
0.0

>  <ldn>  (451) 
1.0

>  <lup>  (451) 
0.0

>  <mut>  (451) 
3.0

>  <maj>  (451) 
3.0

>  <min>  (451) 
0.0

>  <hyb>  (451) 
1.0

>  <sub>  (451) 
2.0

>  <query_index>  (451) 
109.0

>  <max_hit_Tanimoto>  (451) 
0.296987

>  <largest_ring>  (451) 
6

>  <N_interactions_kept>  (451) 
2.0

>  <N_interactions_lost>  (451) 
1.5

>  <interaction_uniqueness_metric>  (451) 
0.248636

>  <ad_hoc_penalty>  (451) 
-17.918722

>  <N_rotatable_bonds>  (451) 
5

>  <N_HA>  (451) 
22

>  <cluster>  (451) 
5680

>  <N_interactions>  (451) 
6

>  <Enamine>  (451) 
0

>  <Mcule>  (451) 
1

>  <N_PAINS>  (451) 
0

>  <UFF_Gibbs>  (451) 
161.299624

>  <strain_per_HA>  (451) 
7.331801

>  <saltbridge:HIS:51>  (451) 
0

>  <pistack:HIS:51>  (451) 
1

>  <hydroph_interaction:HIS:51>  (451) 
1

>  <hbond:ALA:132>  (451) 
0

>  <hbond:SER:135>  (451) 
2

>  <hydroph_interaction:TYR:150>  (451) 
0

>  <pistack:TYR:161>  (451) 
1

>  <hydroph_interaction:TYR:161>  (451) 
0

>  <hydroph_interaction:ASP:83>  (451) 
0

>  <hbond:TYR:130>  (451) 
0

>  <hydroph_interaction:ALA:132>  (451) 
0

>  <hbond:HIS:51>  (451) 
0

>  <hbond:ASP:129>  (451) 
0

>  <hbond:TYR:150>  (451) 
0

>  <hbond:GLY:151>  (451) 
0

>  <hbond:TYR:161>  (451) 
0

>  <hydroph_interaction:TYR:130>  (451) 
0

>  <hydroph_interaction:PRO:131>  (451) 
0

>  <hydroph_interaction:ASP:129>  (451) 
0

>  <saltbridge:ASP:75>  (451) 
1

>  <saltbridge:ASP:83>  (451) 
0

>  <hydroph_interaction:ASN:152>  (451) 
0

>  <halogenbond:TYR:150>  (451) 
0

>  <hbond:ASP:83>  (451) 
0

>  <hydroph_interaction:VAL:155>  (451) 
0

>  <pication:TYR:161>  (451) 
0

>  <hbond:PRO:131>  (451) 
0

>  <hbond:LEU:128>  (451) 
0

>  <saltbridge:ASP:129>  (451) 
0

>  <hbond:THR:134>  (451) 
0

>  <pication:HIS:51>  (451) 
0

>  <hbond:SER:81>  (451) 
0

>  <hbond:GLY:159>  (451) 
0

>  <hydroph_interaction:PRO:101>  (451) 
0

>  <hydroph_interaction:THR:134>  (451) 
0

>  <hbond:GLY:82>  (451) 
0

>  <hydroph_interaction:GLU:104>  (451) 
0

>  <hydroph_interaction:VAL:36>  (451) 
0

>  <hydroph_interaction:MET:49>  (451) 
0

>  <halogenbond:GLU:104>  (451) 
0

>  <hydroph_interaction:LYS:107>  (451) 
0

$$$$
MCULE-2261082668
     RDKit          3D

 19 19  0  0  0  0  0  0  0  0999 V2000
   -8.5510    4.7140  -19.8330 C   0  0  0  0  0  0  0  0  0  0  0  0
   -8.1890    5.0480  -18.4380 C   0  0  0  0  0  0  0  0  0  0  0  0
   -9.2050    4.9240  -17.4290 C   0  0  0  0  0  0  0  0  0  0  0  0
   -9.0480    5.1860  -16.0920 C   0  0  0  0  0  0  0  0  0  0  0  0
  -10.0330    5.0590  -15.0990 N   0  0  0  0  0  0  0  0  0  0  0  0
  -10.1120    5.9870  -14.0490 N   0  0  0  0  0  0  0  0  0  0  0  0
   -7.7190    5.6070  -15.8310 C   0  0  0  0  0  0  0  0  0  0  0  0
   -6.6750    5.7580  -16.7410 C   0  0  0  0  0  0  0  0  0  0  0  0
   -6.9150    5.4710  -18.0790 C   0  0  0  0  0  0  0  0  0  0  0  0
   -8.8070    3.6630  -19.8950 H   0  0  0  0  0  0  0  0  0  0  0  0
   -9.4080    5.3210  -20.1380 H   0  0  0  0  0  0  0  0  0  0  0  0
   -7.7040    4.9110  -20.4950 H   0  0  0  0  0  0  0  0  0  0  0  0
  -10.1890    4.5920  -17.7530 H   0  0  0  0  0  0  0  0  0  0  0  0
  -10.1580    4.0670  -14.8780 H   0  0  0  0  0  0  0  0  0  0  0  0
   -9.3120    5.8860  -13.4220 H   0  0  0  0  0  0  0  0  0  0  0  0
  -10.9610    5.8080  -13.4930 H   0  0  0  0  0  0  0  0  0  0  0  0
   -7.4730    5.8430  -14.8010 H   0  0  0  0  0  0  0  0  0  0  0  0
   -5.6940    6.0920  -16.4090 H   0  0  0  0  0  0  0  0  0  0  0  0
   -6.1210    5.5780  -18.8150 H   0  0  0  0  0  0  0  0  0  0  0  0
  1  2  1  0
  2  3  2  0
  3  4  1  0
  4  5  1  0
  5  6  1  0
  4  7  2  0
  7  8  1  0
  8  9  2  0
  9  2  1  0
  1 10  1  0
  1 11  1  0
  1 12  1  0
  3 13  1  0
  5 14  1  0
  6 15  1  0
  6 16  1  0
  7 17  1  0
  8 18  1  0
  9 19  1  0
A    1
 C1 
A    2
 C2 
A    3
 C3 
A    4
 C4 
A    5
 N1 
A    6
 N2 
A    7
 C5 
A    8
 C6 
A    9
 C7 
A   10
 H1 
A   11
 H2 
A   12
 H3 
A   13
 H4 
A   14
 H5 
A   15
 H6 
A   16
 H7 
A   17
 H8 
A   18
 H9 
A   19
 H10
M  END
>  <ref_pdb>  (452) 
x0051_0B

>  <ref_mols>  (452) 
x0589_0B,x0559_0B

>  <original SMILES>  (452) 
[H]c1c([H])c(N([H])N([H])[H])c([H])c(C([H])([H])[H])c1[H]

>  <index>  (452) 
1008

>  <∆∆G>  (452) 
-6.672915

>  <∆G_bound>  (452) 
-6.614764

>  <∆G_unbound>  (452) 
0.058151

>  <comRMSD>  (452) 
0.875939

>  <N_constrained_atoms>  (452) 
9.0

>  <N_unconstrained_atoms>  (452) 
2.0

>  <runtime>  (452) 
25.856214

>  <LE>  (452) 
0.606629

>  <percent_hybrid>  (452) 
34.0

>  <dist>  (452) 
2.0

>  <ecfp4>  (452) 
0.354839

>  <daylight>  (452) 
0.538462

>  <topodist>  (452) 
0.0

>  <mces>  (452) 
9.0

>  <tdn>  (452) 
0.0

>  <tup>  (452) 
0.0

>  <rdn>  (452) 
0.0

>  <rup>  (452) 
0.0

>  <ldn>  (452) 
0.0

>  <lup>  (452) 
0.0

>  <mut>  (452) 
1.0

>  <maj>  (452) 
1.0

>  <min>  (452) 
0.0

>  <hyb>  (452) 
1.0

>  <sub>  (452) 
0.0

>  <query_index>  (452) 
367.0

>  <max_hit_Tanimoto>  (452) 
0.061947

>  <largest_ring>  (452) 
6

>  <N_interactions_kept>  (452) 
1.0

>  <N_interactions_lost>  (452) 
2.5

>  <interaction_uniqueness_metric>  (452) 
0.179442

>  <ad_hoc_penalty>  (452) 
-17.898027

>  <N_rotatable_bonds>  (452) 
3

>  <N_HA>  (452) 
9

>  <cluster>  (452) 
5293

>  <N_interactions>  (452) 
6

>  <Enamine>  (452) 
0

>  <Mcule>  (452) 
1

>  <N_PAINS>  (452) 
0

>  <UFF_Gibbs>  (452) 
23.143626

>  <strain_per_HA>  (452) 
2.571514

>  <saltbridge:HIS:51>  (452) 
0

>  <pistack:HIS:51>  (452) 
0

>  <hydroph_interaction:HIS:51>  (452) 
0

>  <hbond:ALA:132>  (452) 
0

>  <hbond:SER:135>  (452) 
2

>  <hydroph_interaction:TYR:150>  (452) 
1

>  <pistack:TYR:161>  (452) 
1

>  <hydroph_interaction:TYR:161>  (452) 
1

>  <hydroph_interaction:ASP:83>  (452) 
0

>  <hbond:TYR:130>  (452) 
0

>  <hydroph_interaction:ALA:132>  (452) 
0

>  <hbond:HIS:51>  (452) 
1

>  <hbond:ASP:129>  (452) 
0

>  <hbond:TYR:150>  (452) 
0

>  <hbond:GLY:151>  (452) 
0

>  <hbond:TYR:161>  (452) 
0

>  <hydroph_interaction:TYR:130>  (452) 
0

>  <hydroph_interaction:PRO:131>  (452) 
0

>  <hydroph_interaction:ASP:129>  (452) 
0

>  <saltbridge:ASP:75>  (452) 
0

>  <saltbridge:ASP:83>  (452) 
0

>  <hydroph_interaction:ASN:152>  (452) 
0

>  <halogenbond:TYR:150>  (452) 
0

>  <hbond:ASP:83>  (452) 
0

>  <hydroph_interaction:VAL:155>  (452) 
0

>  <pication:TYR:161>  (452) 
0

>  <hbond:PRO:131>  (452) 
0

>  <hbond:LEU:128>  (452) 
0

>  <saltbridge:ASP:129>  (452) 
0

>  <hbond:THR:134>  (452) 
0

>  <pication:HIS:51>  (452) 
0

>  <hbond:SER:81>  (452) 
0

>  <hbond:GLY:159>  (452) 
0

>  <hydroph_interaction:PRO:101>  (452) 
0

>  <hydroph_interaction:THR:134>  (452) 
0

>  <hbond:GLY:82>  (452) 
0

>  <hydroph_interaction:GLU:104>  (452) 
0

>  <hydroph_interaction:VAL:36>  (452) 
0

>  <hydroph_interaction:MET:49>  (452) 
0

>  <halogenbond:GLU:104>  (452) 
0

>  <hydroph_interaction:LYS:107>  (452) 
0

$$$$
CSSS00000073669
     RDKit          3D

 20 21  0  0  0  0  0  0  0  0999 V2000
  -10.2770    4.8480  -15.5750 O   0  0  0  0  0  0  0  0  0  0  0  0
   -9.4750    4.9240  -16.6390 C   0  0  0  0  0  0  0  0  0  0  0  0
   -9.8980    4.7680  -18.0410 C   0  0  0  0  0  0  0  0  0  0  0  0
   -9.0150    4.8650  -19.0810 C   0  0  0  0  0  0  0  0  0  0  0  0
   -7.6620    5.1260  -18.7800 C   0  0  0  0  0  0  0  0  0  0  0  0
   -6.5360    5.2660  -20.0670 Cl  0  0  0  0  0  0  0  0  0  0  0  0
   -7.2520    5.2680  -17.4480 C   0  0  0  0  0  0  0  0  0  0  0  0
   -8.1620    5.1640  -16.3940 C   0  0  0  0  0  0  0  0  0  0  0  0
   -7.5860    5.3230  -15.1560 C   0  0  0  0  0  0  0  0  0  0  0  0
   -6.2270    5.4290  -15.3590 C   0  0  0  0  0  0  0  0  0  0  0  0
   -5.8800    5.5410  -16.8480 C   0  0  0  0  0  0  0  0  0  0  0  0
  -10.2050    3.9510  -15.2310 H   0  0  0  0  0  0  0  0  0  0  0  0
  -10.9410    4.5720  -18.2780 H   0  0  0  0  0  0  0  0  0  0  0  0
   -9.3520    4.7490  -20.1080 H   0  0  0  0  0  0  0  0  0  0  0  0
   -7.9180    6.1740  -14.5620 H   0  0  0  0  0  0  0  0  0  0  0  0
   -7.7890    4.4150  -14.5780 H   0  0  0  0  0  0  0  0  0  0  0  0
   -5.8800    6.3330  -14.8490 H   0  0  0  0  0  0  0  0  0  0  0  0
   -5.6930    4.5930  -14.8890 H   0  0  0  0  0  0  0  0  0  0  0  0
   -5.5380    6.5620  -17.0530 H   0  0  0  0  0  0  0  0  0  0  0  0
   -5.1650    4.8280  -17.2540 H   0  0  0  0  0  0  0  0  0  0  0  0
  1  2  1  0
  2  3  2  0
  3  4  1  0
  4  5  2  0
  5  6  1  0
  5  7  1  0
  7  8  2  0
  8  9  1  0
  9 10  1  0
 10 11  1  0
  8  2  1  0
 11  7  1  0
  1 12  1  0
  3 13  1  0
  4 14  1  0
  9 15  1  0
  9 16  1  0
 10 17  1  0
 10 18  1  0
 11 19  1  0
 11 20  1  0
A    1
 O1 
A    2
 C1 
A    3
 C2 
A    4
 C3 
A    5
 C4 
A    6
CL1 
A    7
 C5 
A    8
 C6 
A    9
 C7 
A   10
 C8 
A   11
 C9 
A   12
 H1 
A   13
 H2 
A   14
 H3 
A   15
 H4 
A   16
 H5 
A   17
 H6 
A   18
 H7 
A   19
 H8 
A   20
 H9 
M  END
>  <ref_pdb>  (453) 
x0051_0B

>  <ref_mols>  (453) 
x0455_0B,x0382_0B

>  <original SMILES>  (453) 
[H]Oc1c([H])c([H])c(Cl)c2c1C([H])([H])C([H])([H])C2([H])[H]

>  <index>  (453) 
725

>  <∆∆G>  (453) 
-5.485707

>  <∆G_bound>  (453) 
-5.373197

>  <∆G_unbound>  (453) 
0.112511

>  <comRMSD>  (453) 
0.667057

>  <N_constrained_atoms>  (453) 
11.0

>  <N_unconstrained_atoms>  (453) 
1.0

>  <runtime>  (453) 
18.461996

>  <LE>  (453) 
0.457142

>  <percent_hybrid>  (453) 
20.0

>  <dist>  (453) 
4.0

>  <ecfp4>  (453) 
0.152174

>  <daylight>  (453) 
0.155689

>  <topodist>  (453) 
3.0

>  <mces>  (453) 
11.0

>  <tdn>  (453) 
0.0

>  <tup>  (453) 
1.0

>  <rdn>  (453) 
0.0

>  <rup>  (453) 
0.0

>  <ldn>  (453) 
2.0

>  <lup>  (453) 
0.0

>  <mut>  (453) 
1.0

>  <maj>  (453) 
1.0

>  <min>  (453) 
0.0

>  <hyb>  (453) 
0.0

>  <sub>  (453) 
0.0

>  <query_index>  (453) 
293.0

>  <max_hit_Tanimoto>  (453) 
0.156018

>  <largest_ring>  (453) 
6

>  <N_interactions_kept>  (453) 
0.0

>  <N_interactions_lost>  (453) 
1.5

>  <interaction_uniqueness_metric>  (453) 
0.085884

>  <ad_hoc_penalty>  (453) 
-17.881003

>  <N_rotatable_bonds>  (453) 
1

>  <N_HA>  (453) 
11

>  <cluster>  (453) 
5556

>  <N_interactions>  (453) 
4

>  <Enamine>  (453) 
1

>  <Mcule>  (453) 
0

>  <N_PAINS>  (453) 
0

>  <UFF_Gibbs>  (453) 
45.648034

>  <strain_per_HA>  (453) 
4.149821

>  <saltbridge:HIS:51>  (453) 
0

>  <pistack:HIS:51>  (453) 
0

>  <hydroph_interaction:HIS:51>  (453) 
0

>  <hbond:ALA:132>  (453) 
0

>  <hbond:SER:135>  (453) 
1

>  <hydroph_interaction:TYR:150>  (453) 
1

>  <pistack:TYR:161>  (453) 
1

>  <hydroph_interaction:TYR:161>  (453) 
1

>  <hydroph_interaction:ASP:83>  (453) 
0

>  <hbond:TYR:130>  (453) 
0

>  <hydroph_interaction:ALA:132>  (453) 
0

>  <hbond:HIS:51>  (453) 
0

>  <hbond:ASP:129>  (453) 
0

>  <hbond:TYR:150>  (453) 
0

>  <hbond:GLY:151>  (453) 
0

>  <hbond:TYR:161>  (453) 
0

>  <hydroph_interaction:TYR:130>  (453) 
0

>  <hydroph_interaction:PRO:131>  (453) 
0

>  <hydroph_interaction:ASP:129>  (453) 
0

>  <saltbridge:ASP:75>  (453) 
0

>  <saltbridge:ASP:83>  (453) 
0

>  <hydroph_interaction:ASN:152>  (453) 
0

>  <halogenbond:TYR:150>  (453) 
0

>  <hbond:ASP:83>  (453) 
0

>  <hydroph_interaction:VAL:155>  (453) 
0

>  <pication:TYR:161>  (453) 
0

>  <hbond:PRO:131>  (453) 
0

>  <hbond:LEU:128>  (453) 
0

>  <saltbridge:ASP:129>  (453) 
0

>  <hbond:THR:134>  (453) 
0

>  <pication:HIS:51>  (453) 
0

>  <hbond:SER:81>  (453) 
0

>  <hbond:GLY:159>  (453) 
0

>  <hydroph_interaction:PRO:101>  (453) 
0

>  <hydroph_interaction:THR:134>  (453) 
0

>  <hbond:GLY:82>  (453) 
0

>  <hydroph_interaction:GLU:104>  (453) 
0

>  <hydroph_interaction:VAL:36>  (453) 
0

>  <hydroph_interaction:MET:49>  (453) 
0

>  <halogenbond:GLU:104>  (453) 
0

>  <hydroph_interaction:LYS:107>  (453) 
0

$$$$
CSSB00009845419
     RDKit          3D

 24 26  0  0  0  0  0  0  0  0999 V2000
   -4.6160    5.7810  -19.7050 O   0  0  0  0  0  0  0  0  0  0  0  0
   -5.8780    5.4720  -19.1370 C   0  0  0  0  0  0  0  0  0  0  0  0
   -7.1320    5.2260  -19.8720 N   0  0  0  0  0  0  0  0  0  0  0  0
   -8.0880    5.0790  -18.9820 C   0  0  0  0  0  0  0  0  0  0  0  0
   -9.5320    4.8960  -19.2530 C   0  0  0  0  0  0  0  0  0  0  0  0
  -10.4560    4.7560  -18.0180 C   0  0  0  0  0  0  0  0  0  0  0  0
   -9.8880    4.8200  -16.7120 C   0  0  0  0  0  0  0  0  0  0  0  0
   -8.3810    5.0170  -16.4890 C   0  0  0  0  0  0  0  0  0  0  0  0
   -7.5410    5.1240  -17.6600 C   0  0  0  0  0  0  0  0  0  0  0  0
   -6.2190    5.2820  -17.5980 C   0  0  0  0  0  0  0  0  0  0  0  0
   -5.7110    5.9810  -16.5370 C   0  0  0  0  0  0  0  0  0  0  0  0
   -6.1890    5.2900  -15.3320 C   0  0  0  0  0  0  0  0  0  0  0  0
   -7.5980    5.1270  -15.2100 C   0  0  0  0  0  0  0  0  0  0  0  0
   -7.3290    5.6550  -20.7740 H   0  0  0  0  0  0  0  0  0  0  0  0
   -9.9010    4.8690  -20.2810 H   0  0  0  0  0  0  0  0  0  0  0  0
  -11.5250    4.6200  -18.1530 H   0  0  0  0  0  0  0  0  0  0  0  0
  -10.5190    4.7250  -15.8400 H   0  0  0  0  0  0  0  0  0  0  0  0
   -5.8460    4.2820  -17.4210 H   0  0  0  0  0  0  0  0  0  0  0  0
   -6.0660    7.0130  -16.5560 H   0  0  0  0  0  0  0  0  0  0  0  0
   -4.6150    6.0040  -16.5550 H   0  0  0  0  0  0  0  0  0  0  0  0
   -5.7110    4.3120  -15.2550 H   0  0  0  0  0  0  0  0  0  0  0  0
   -5.8410    5.8580  -14.4620 H   0  0  0  0  0  0  0  0  0  0  0  0
   -7.8030    4.2480  -14.5830 H   0  0  0  0  0  0  0  0  0  0  0  0
   -7.9870    5.9980  -14.6700 H   0  0  0  0  0  0  0  0  0  0  0  0
  1  2  2  0
  2  3  1  0
  3  4  1  0
  4  5  2  0
  5  6  1  0
  6  7  2  0
  7  8  1  0
  8  9  2  0
  9 10  1  0
 10 11  1  0
 11 12  1  0
 12 13  1  0
 10  2  1  0
  9  4  1  0
 13  8  1  0
  3 14  1  0
  5 15  1  0
  6 16  1  0
  7 17  1  0
 10 18  1  0
 11 19  1  0
 11 20  1  0
 12 21  1  0
 12 22  1  0
 13 23  1  0
 13 24  1  0
A    1
 O1 
A    2
 C1 
A    3
 N1 
A    4
 C2 
A    5
 C3 
A    6
 C4 
A    7
 C5 
A    8
 C6 
A    9
 C7 
A   10
 C8 
A   11
 C9 
A   12
 C10
A   13
 C11
A   14
 H1 
A   15
 H2 
A   16
 H3 
A   17
 H4 
A   18
 H5 
A   19
 H6 
A   20
 H7 
A   21
 H8 
A   22
 H9 
A   23
 H10
A   24
 H11
M  END
>  <ref_pdb>  (454) 
x0051_0B

>  <ref_mols>  (454) 
x0443_0B,x0455_0B

>  <original SMILES>  (454) 
[H]c1c([H])c2c3c(c1[H])C([H])([H])C([H])([H])C([H])([H])C3([H])C(=O)N2[H]

>  <index>  (454) 
372

>  <∆∆G>  (454) 
-5.746188

>  <∆G_bound>  (454) 
-5.623537

>  <∆G_unbound>  (454) 
0.122651

>  <comRMSD>  (454) 
0.431983

>  <N_constrained_atoms>  (454) 
14.0

>  <N_unconstrained_atoms>  (454) 
0.0

>  <runtime>  (454) 
19.154027

>  <LE>  (454) 
0.410442

>  <percent_hybrid>  (454) 
43.0

>  <dist>  (454) 
3.0

>  <ecfp4>  (454) 
0.306122

>  <daylight>  (454) 
0.372881

>  <topodist>  (454) 
0.0

>  <mces>  (454) 
15.0

>  <tdn>  (454) 
0.0

>  <tup>  (454) 
0.0

>  <rdn>  (454) 
0.0

>  <rup>  (454) 
0.0

>  <ldn>  (454) 
0.0

>  <lup>  (454) 
0.0

>  <mut>  (454) 
2.0

>  <maj>  (454) 
2.0

>  <min>  (454) 
0.0

>  <hyb>  (454) 
1.0

>  <sub>  (454) 
0.0

>  <query_index>  (454) 
244.0

>  <max_hit_Tanimoto>  (454) 
0.251348

>  <largest_ring>  (454) 
0

>  <N_interactions_kept>  (454) 
1.0

>  <N_interactions_lost>  (454) 
2.0

>  <interaction_uniqueness_metric>  (454) 
0.05615

>  <ad_hoc_penalty>  (454) 
-17.862954

>  <N_rotatable_bonds>  (454) 
0

>  <N_HA>  (454) 
13

>  <cluster>  (454) 
5877

>  <N_interactions>  (454) 
5

>  <Enamine>  (454) 
1

>  <Mcule>  (454) 
0

>  <N_PAINS>  (454) 
0

>  <UFF_Gibbs>  (454) 
111.149461

>  <strain_per_HA>  (454) 
8.549959

>  <saltbridge:HIS:51>  (454) 
0

>  <pistack:HIS:51>  (454) 
0

>  <hydroph_interaction:HIS:51>  (454) 
0

>  <hbond:ALA:132>  (454) 
0

>  <hbond:SER:135>  (454) 
0

>  <hydroph_interaction:TYR:150>  (454) 
1

>  <pistack:TYR:161>  (454) 
0

>  <hydroph_interaction:TYR:161>  (454) 
3

>  <hydroph_interaction:ASP:83>  (454) 
0

>  <hbond:TYR:130>  (454) 
1

>  <hydroph_interaction:ALA:132>  (454) 
0

>  <hbond:HIS:51>  (454) 
0

>  <hbond:ASP:129>  (454) 
0

>  <hbond:TYR:150>  (454) 
0

>  <hbond:GLY:151>  (454) 
0

>  <hbond:TYR:161>  (454) 
0

>  <hydroph_interaction:TYR:130>  (454) 
0

>  <hydroph_interaction:PRO:131>  (454) 
0

>  <hydroph_interaction:ASP:129>  (454) 
0

>  <saltbridge:ASP:75>  (454) 
0

>  <saltbridge:ASP:83>  (454) 
0

>  <hydroph_interaction:ASN:152>  (454) 
0

>  <halogenbond:TYR:150>  (454) 
0

>  <hbond:ASP:83>  (454) 
0

>  <hydroph_interaction:VAL:155>  (454) 
0

>  <pication:TYR:161>  (454) 
0

>  <hbond:PRO:131>  (454) 
0

>  <hbond:LEU:128>  (454) 
0

>  <saltbridge:ASP:129>  (454) 
0

>  <hbond:THR:134>  (454) 
0

>  <pication:HIS:51>  (454) 
0

>  <hbond:SER:81>  (454) 
0

>  <hbond:GLY:159>  (454) 
0

>  <hydroph_interaction:PRO:101>  (454) 
0

>  <hydroph_interaction:THR:134>  (454) 
0

>  <hbond:GLY:82>  (454) 
0

>  <hydroph_interaction:GLU:104>  (454) 
0

>  <hydroph_interaction:VAL:36>  (454) 
0

>  <hydroph_interaction:MET:49>  (454) 
0

>  <halogenbond:GLU:104>  (454) 
0

>  <hydroph_interaction:LYS:107>  (454) 
0

$$$$
CSSB00135354094
     RDKit          3D

 26 27  0  0  0  0  0  0  0  0999 V2000
   -9.1090    6.3860  -13.1000 N   0  0  0  0  0  0  0  0  0  0  0  0
   -8.9100    5.3330  -14.1050 C   0  0  0  0  0  0  0  0  0  0  0  0
   -7.9740    5.7340  -15.2300 C   0  0  1  0  0  0  0  0  0  0  0  0
   -6.5420    5.2880  -14.9480 C   0  0  0  0  0  0  0  0  0  0  0  0
   -5.5780    5.8290  -16.0000 C   0  0  0  0  0  0  0  0  0  0  0  0
   -6.0370    5.7250  -17.4680 C   0  0  0  0  0  0  0  0  0  0  0  0
   -7.4840    5.3800  -17.6720 C   0  0  0  0  0  0  0  0  0  0  0  0
   -7.9380    5.0550  -18.9560 C   0  0  0  0  0  0  0  0  0  0  0  0
   -9.2740    4.7380  -19.1330 C   0  0  0  0  0  0  0  0  0  0  0  0
  -10.1340    4.7400  -18.0680 C   0  0  0  0  0  0  0  0  0  0  0  0
   -9.7320    5.0490  -16.8160 N   0  0  0  0  0  0  0  0  0  0  0  0
   -8.4200    5.3680  -16.6300 C   0  0  0  0  0  0  0  0  0  0  0  0
   -8.6320    7.2300  -13.4100 H   0  0  0  0  0  0  0  0  0  0  0  0
   -8.6700    6.1150  -12.2230 H   0  0  0  0  0  0  0  0  0  0  0  0
   -8.5410    4.4350  -13.6020 H   0  0  0  0  0  0  0  0  0  0  0  0
   -9.8930    5.0620  -14.5110 H   0  0  0  0  0  0  0  0  0  0  0  0
   -7.9320    6.8240  -15.2640 H   0  0  0  0  0  0  0  0  0  0  0  0
   -6.2330    5.6430  -13.9570 H   0  0  0  0  0  0  0  0  0  0  0  0
   -6.4510    4.2050  -14.9320 H   0  0  0  0  0  0  0  0  0  0  0  0
   -4.6210    5.3070  -15.8980 H   0  0  0  0  0  0  0  0  0  0  0  0
   -5.3930    6.8880  -15.7980 H   0  0  0  0  0  0  0  0  0  0  0  0
   -5.8280    6.6640  -17.9950 H   0  0  0  0  0  0  0  0  0  0  0  0
   -5.4260    4.9580  -17.9590 H   0  0  0  0  0  0  0  0  0  0  0  0
   -7.2620    5.0500  -19.8060 H   0  0  0  0  0  0  0  0  0  0  0  0
   -9.5440    4.5000  -20.1670 H   0  0  0  0  0  0  0  0  0  0  0  0
  -11.1830    4.4960  -18.1840 H   0  0  0  0  0  0  0  0  0  0  0  0
  1  2  1  0
  2  3  1  0
  3  4  1  0
  4  5  1  0
  5  6  1  0
  6  7  1  0
  7  8  2  0
  8  9  1  0
  9 10  2  0
 10 11  1  0
 11 12  2  0
 12  3  1  0
 12  7  1  0
  1 13  1  0
  1 14  1  0
  2 15  1  0
  2 16  1  0
  3 17  1  6
  4 18  1  0
  4 19  1  0
  5 20  1  0
  5 21  1  0
  6 22  1  0
  6 23  1  0
  8 24  1  0
  9 25  1  0
 10 26  1  0
A    1
 N1 
A    2
 C1 
A    3
 C2 
A    4
 C3 
A    5
 C4 
A    6
 C5 
A    7
 C6 
A    8
 C7 
A    9
 C8 
A   10
 C9 
A   11
 N2 
A   12
 C10
A   13
 H1 
A   14
 H2 
A   15
 H3 
A   16
 H4 
A   17
 H5 
A   18
 H6 
A   19
 H7 
A   20
 H8 
A   21
 H9 
A   22
 H10
A   23
 H11
A   24
 H12
A   25
 H13
A   26
 H14
M  END
>  <ref_pdb>  (455) 
x0051_0B

>  <ref_mols>  (455) 
x0455_0B,x0951_0B

>  <original SMILES>  (455) 
[H]c1nc2c(c([H])c1[H])C([H])([H])C([H])([H])C([H])([H])[C@]2([H])C([H])([H])N([H])[H]

>  <index>  (455) 
1006

>  <∆∆G>  (455) 
-5.172324

>  <∆G_bound>  (455) 
-5.046019

>  <∆G_unbound>  (455) 
0.126305

>  <comRMSD>  (455) 
0.703971

>  <N_constrained_atoms>  (455) 
14.0

>  <N_unconstrained_atoms>  (455) 
0.0

>  <runtime>  (455) 
19.246094

>  <LE>  (455) 
0.369452

>  <percent_hybrid>  (455) 
34.0

>  <dist>  (455) 
2.0

>  <ecfp4>  (455) 
0.3125

>  <daylight>  (455) 
0.384146

>  <topodist>  (455) 
1.0

>  <mces>  (455) 
13.0

>  <tdn>  (455) 
1.0

>  <tup>  (455) 
0.0

>  <rdn>  (455) 
0.0

>  <rup>  (455) 
0.0

>  <ldn>  (455) 
0.0

>  <lup>  (455) 
0.0

>  <mut>  (455) 
1.0

>  <maj>  (455) 
1.0

>  <min>  (455) 
0.0

>  <hyb>  (455) 
0.0

>  <sub>  (455) 
1.0

>  <query_index>  (455) 
288.0

>  <max_hit_Tanimoto>  (455) 
0.289813

>  <largest_ring>  (455) 
6

>  <N_interactions_kept>  (455) 
1.0

>  <N_interactions_lost>  (455) 
1.5

>  <interaction_uniqueness_metric>  (455) 
0.102525

>  <ad_hoc_penalty>  (455) 
-17.855039

>  <N_rotatable_bonds>  (455) 
2

>  <N_HA>  (455) 
12

>  <cluster>  (455) 
5295

>  <N_interactions>  (455) 
4

>  <Enamine>  (455) 
1

>  <Mcule>  (455) 
0

>  <N_PAINS>  (455) 
0

>  <UFF_Gibbs>  (455) 
21.626932

>  <strain_per_HA>  (455) 
1.802244

>  <saltbridge:HIS:51>  (455) 
0

>  <pistack:HIS:51>  (455) 
0

>  <hydroph_interaction:HIS:51>  (455) 
0

>  <hbond:ALA:132>  (455) 
0

>  <hbond:SER:135>  (455) 
0

>  <hydroph_interaction:TYR:150>  (455) 
1

>  <pistack:TYR:161>  (455) 
0

>  <hydroph_interaction:TYR:161>  (455) 
2

>  <hydroph_interaction:ASP:83>  (455) 
0

>  <hbond:TYR:130>  (455) 
0

>  <hydroph_interaction:ALA:132>  (455) 
0

>  <hbond:HIS:51>  (455) 
1

>  <hbond:ASP:129>  (455) 
0

>  <hbond:TYR:150>  (455) 
0

>  <hbond:GLY:151>  (455) 
0

>  <hbond:TYR:161>  (455) 
0

>  <hydroph_interaction:TYR:130>  (455) 
0

>  <hydroph_interaction:PRO:131>  (455) 
0

>  <hydroph_interaction:ASP:129>  (455) 
0

>  <saltbridge:ASP:75>  (455) 
0

>  <saltbridge:ASP:83>  (455) 
0

>  <hydroph_interaction:ASN:152>  (455) 
0

>  <halogenbond:TYR:150>  (455) 
0

>  <hbond:ASP:83>  (455) 
0

>  <hydroph_interaction:VAL:155>  (455) 
0

>  <pication:TYR:161>  (455) 
0

>  <hbond:PRO:131>  (455) 
0

>  <hbond:LEU:128>  (455) 
0

>  <saltbridge:ASP:129>  (455) 
0

>  <hbond:THR:134>  (455) 
0

>  <pication:HIS:51>  (455) 
0

>  <hbond:SER:81>  (455) 
0

>  <hbond:GLY:159>  (455) 
0

>  <hydroph_interaction:PRO:101>  (455) 
0

>  <hydroph_interaction:THR:134>  (455) 
0

>  <hbond:GLY:82>  (455) 
0

>  <hydroph_interaction:GLU:104>  (455) 
0

>  <hydroph_interaction:VAL:36>  (455) 
0

>  <hydroph_interaction:MET:49>  (455) 
0

>  <halogenbond:GLU:104>  (455) 
0

>  <hydroph_interaction:LYS:107>  (455) 
0

$$$$
Z2368543926
     RDKit          3D

 36 38  0  0  0  0  0  0  0  0999 V2000
   -7.7610    5.2000  -15.1710 C   0  0  0  0  0  0  0  0  0  0  0  0
   -8.1650    5.1120  -16.6050 C   0  0  0  0  0  0  0  0  0  0  0  0
   -7.2880    5.2930  -17.6750 C   0  0  0  0  0  0  0  0  0  0  0  0
   -5.9050    5.5810  -17.6070 C   0  0  0  0  0  0  0  0  0  0  0  0
   -5.2890    5.6900  -16.2720 N   0  0  0  0  0  0  0  0  0  0  0  0
   -5.3030    7.0360  -15.6690 C   0  0  0  0  0  0  0  0  0  0  0  0
   -4.2510    7.2400  -14.7520 C   0  0  0  0  0  0  0  0  0  0  0  0
   -3.9060    6.0570  -13.9160 N   0  0  0  0  0  0  0  0  0  0  0  0
   -3.5040    4.9380  -14.8060 C   0  0  2  0  0  0  0  0  0  0  0  0
   -2.1770    4.8020  -14.7890 C   0  0  0  0  0  0  0  0  0  0  0  0
   -4.0110    5.1600  -16.2450 C   0  0  0  0  0  0  0  0  0  0  0  0
   -5.1250    5.7490  -18.6890 N   0  0  0  0  0  0  0  0  0  0  0  0
   -5.7190    5.6210  -19.8690 C   0  0  0  0  0  0  0  0  0  0  0  0
   -7.0020    5.3470  -20.0670 N   0  0  0  0  0  0  0  0  0  0  0  0
   -7.7750    5.1870  -18.9940 C   0  0  0  0  0  0  0  0  0  0  0  0
   -9.1100    4.9010  -19.2650 C   0  0  0  0  0  0  0  0  0  0  0  0
   -9.9490    4.7290  -18.1610 C   0  0  0  0  0  0  0  0  0  0  0  0
   -9.5070    4.8290  -16.8570 C   0  0  0  0  0  0  0  0  0  0  0  0
   -8.5020    4.6890  -14.5490 H   0  0  0  0  0  0  0  0  0  0  0  0
   -6.7840    4.7300  -15.0130 H   0  0  0  0  0  0  0  0  0  0  0  0
   -7.6850    6.2390  -14.8450 H   0  0  0  0  0  0  0  0  0  0  0  0
   -5.1990    7.7620  -16.4880 H   0  0  0  0  0  0  0  0  0  0  0  0
   -6.2600    7.2600  -15.1840 H   0  0  0  0  0  0  0  0  0  0  0  0
   -4.5320    8.0570  -14.0780 H   0  0  0  0  0  0  0  0  0  0  0  0
   -3.3520    7.5810  -15.2790 H   0  0  0  0  0  0  0  0  0  0  0  0
   -4.7390    5.7730  -13.4120 H   0  0  0  0  0  0  0  0  0  0  0  0
   -3.9270    4.0120  -14.3980 H   0  0  0  0  0  0  0  0  0  0  0  0
   -1.5580    5.3590  -14.0970 H   0  0  0  0  0  0  0  0  0  0  0  0
   -1.6740    4.8940  -15.7510 H   0  0  0  0  0  0  0  0  0  0  0  0
   -2.0610    3.7480  -14.5010 H   0  0  0  0  0  0  0  0  0  0  0  0
   -3.3190    5.7990  -16.8020 H   0  0  0  0  0  0  0  0  0  0  0  0
   -4.0480    4.2050  -16.7680 H   0  0  0  0  0  0  0  0  0  0  0  0
   -5.0940    5.7520  -20.7600 H   0  0  0  0  0  0  0  0  0  0  0  0
   -9.4840    4.8170  -20.2830 H   0  0  0  0  0  0  0  0  0  0  0  0
  -10.9800    4.5090  -18.4420 H   0  0  0  0  0  0  0  0  0  0  0  0
  -10.2160    4.6810  -16.0340 H   0  0  0  0  0  0  0  0  0  0  0  0
  1  2  1  0
  2  3  2  0
  3  4  1  0
  4  5  1  0
  5  6  1  0
  6  7  1  0
  7  8  1  0
  8  9  1  0
  9 10  1  0
  9 11  1  0
  4 12  2  0
 12 13  1  0
 13 14  2  0
 14 15  1  0
 15 16  2  0
 16 17  1  0
 17 18  2  0
 18  2  1  0
 15  3  1  0
 11  5  1  0
  1 19  1  0
  1 20  1  0
  1 21  1  0
  6 22  1  0
  6 23  1  0
  7 24  1  0
  7 25  1  0
  8 26  1  0
  9 27  1  1
 10 28  1  0
 10 29  1  0
 10 30  1  0
 11 31  1  0
 11 32  1  0
 13 33  1  0
 16 34  1  0
 17 35  1  0
 18 36  1  0
A    1
 C1 
A    2
 C2 
A    3
 C3 
A    4
 C4 
A    5
 N1 
A    6
 C5 
A    7
 C6 
A    8
 N2 
A    9
 C7 
A   10
 C8 
A   11
 C9 
A   12
 N3 
A   13
 C10
A   14
 N4 
A   15
 C11
A   16
 C12
A   17
 C13
A   18
 C14
A   19
 H1 
A   20
 H2 
A   21
 H3 
A   22
 H4 
A   23
 H5 
A   24
 H6 
A   25
 H7 
A   26
 H8 
A   27
 H9 
A   28
 H10
A   29
 H11
A   30
 H12
A   31
 H13
A   32
 H14
A   33
 H15
A   34
 H16
A   35
 H17
A   36
 H18
M  END
>  <ref_pdb>  (456) 
x0051_0B

>  <ref_mols>  (456) 
x0429_0B,x0693_0B

>  <original SMILES>  (456) 
[H]c1nc(N2C([H])([H])C([H])([H])N([H])[C@]([H])(C([H])([H])[H])C2([H])[H])c2c(C([H])([H])[H])c([H])c([H])c([H])c2n1

>  <index>  (456) 
630

>  <∆∆G>  (456) 
-7.291916

>  <∆G_bound>  (456) 
-6.312865

>  <∆G_unbound>  (456) 
0.97905

>  <comRMSD>  (456) 
0.542527

>  <N_constrained_atoms>  (456) 
18.0

>  <N_unconstrained_atoms>  (456) 
1.0

>  <runtime>  (456) 
22.957535

>  <LE>  (456) 
0.383785

>  <percent_hybrid>  (456) 
20.0

>  <dist>  (456) 
2.0

>  <ecfp4>  (456) 
0.470588

>  <daylight>  (456) 
0.572581

>  <topodist>  (456) 
1.0

>  <mces>  (456) 
19.0

>  <tdn>  (456) 
0.0

>  <tup>  (456) 
1.0

>  <rdn>  (456) 
0.0

>  <rup>  (456) 
0.0

>  <ldn>  (456) 
0.0

>  <lup>  (456) 
0.0

>  <mut>  (456) 
1.0

>  <maj>  (456) 
1.0

>  <min>  (456) 
0.0

>  <hyb>  (456) 
0.0

>  <sub>  (456) 
1.0

>  <query_index>  (456) 
179.0

>  <max_hit_Tanimoto>  (456) 
0.390661

>  <largest_ring>  (456) 
6

>  <N_interactions_kept>  (456) 
3.0

>  <N_interactions_lost>  (456) 
1.5

>  <interaction_uniqueness_metric>  (456) 
0.067187

>  <ad_hoc_penalty>  (456) 
-17.837767

>  <N_rotatable_bonds>  (456) 
3

>  <N_HA>  (456) 
18

>  <cluster>  (456) 
5643

>  <N_interactions>  (456) 
4

>  <Enamine>  (456) 
1

>  <Mcule>  (456) 
0

>  <N_PAINS>  (456) 
0

>  <UFF_Gibbs>  (456) 
87.702939

>  <strain_per_HA>  (456) 
4.872386

>  <saltbridge:HIS:51>  (456) 
0

>  <pistack:HIS:51>  (456) 
0

>  <hydroph_interaction:HIS:51>  (456) 
0

>  <hbond:ALA:132>  (456) 
0

>  <hbond:SER:135>  (456) 
0

>  <hydroph_interaction:TYR:150>  (456) 
1

>  <pistack:TYR:161>  (456) 
2

>  <hydroph_interaction:TYR:161>  (456) 
0

>  <hydroph_interaction:ASP:83>  (456) 
0

>  <hbond:TYR:130>  (456) 
0

>  <hydroph_interaction:ALA:132>  (456) 
0

>  <hbond:HIS:51>  (456) 
0

>  <hbond:ASP:129>  (456) 
0

>  <hbond:TYR:150>  (456) 
0

>  <hbond:GLY:151>  (456) 
0

>  <hbond:TYR:161>  (456) 
0

>  <hydroph_interaction:TYR:130>  (456) 
0

>  <hydroph_interaction:PRO:131>  (456) 
0

>  <hydroph_interaction:ASP:129>  (456) 
0

>  <saltbridge:ASP:75>  (456) 
0

>  <saltbridge:ASP:83>  (456) 
0

>  <hydroph_interaction:ASN:152>  (456) 
0

>  <halogenbond:TYR:150>  (456) 
0

>  <hbond:ASP:83>  (456) 
0

>  <hydroph_interaction:VAL:155>  (456) 
1

>  <pication:TYR:161>  (456) 
0

>  <hbond:PRO:131>  (456) 
0

>  <hbond:LEU:128>  (456) 
0

>  <saltbridge:ASP:129>  (456) 
0

>  <hbond:THR:134>  (456) 
0

>  <pication:HIS:51>  (456) 
0

>  <hbond:SER:81>  (456) 
0

>  <hbond:GLY:159>  (456) 
0

>  <hydroph_interaction:PRO:101>  (456) 
0

>  <hydroph_interaction:THR:134>  (456) 
0

>  <hbond:GLY:82>  (456) 
0

>  <hydroph_interaction:GLU:104>  (456) 
0

>  <hydroph_interaction:VAL:36>  (456) 
0

>  <hydroph_interaction:MET:49>  (456) 
0

>  <halogenbond:GLU:104>  (456) 
0

>  <hydroph_interaction:LYS:107>  (456) 
0

$$$$
Z3550931212
     RDKit          3D

 39 41  0  0  0  0  0  0  0  0999 V2000
   -8.5290    4.5310   -9.0810 C   0  0  0  0  0  0  0  0  0  0  0  0
   -8.6000    4.9300  -10.4490 N   0  0  0  0  0  0  0  0  0  0  0  0
   -8.3870    4.1330  -11.5560 C   0  0  0  0  0  0  0  0  0  0  0  0
   -8.5550    4.9620  -12.7570 C   0  0  0  0  0  0  0  0  0  0  0  0
   -8.4210    4.5920  -14.0780 N   0  0  0  0  0  0  0  0  0  0  0  0
   -8.1410    5.5660  -15.0100 C   0  0  0  0  0  0  0  0  0  0  0  0
   -7.6550    6.6680  -14.7730 O   0  0  0  0  0  0  0  0  0  0  0  0
   -8.4720    5.2580  -16.4490 C   0  0  0  0  0  0  0  0  0  0  0  0
   -9.7520    4.8820  -16.7970 C   0  0  0  0  0  0  0  0  0  0  0  0
  -10.0750    4.6110  -18.1300 C   0  0  0  0  0  0  0  0  0  0  0  0
   -9.1060    4.7050  -19.1200 C   0  0  0  0  0  0  0  0  0  0  0  0
   -7.8130    5.0780  -18.7430 C   0  0  0  0  0  0  0  0  0  0  0  0
   -6.8740    5.1670  -19.6470 N   0  0  0  0  0  0  0  0  0  0  0  0
   -5.5500    5.8230  -19.2480 S   0  0  0  0  0  6  0  0  0  0  0  0
   -4.7880    5.5750  -18.0410 O   0  0  0  0  0  0  0  0  0  0  0  0
   -4.4540    5.7940  -20.6180 C   0  0  0  0  0  0  0  0  0  0  0  0
   -4.3610    7.0670  -21.1620 C   0  0  0  0  0  0  0  0  0  0  0  0
   -5.4270    7.8890  -20.8420 C   0  0  0  0  0  0  0  0  0  0  0  0
   -5.7980    7.5170  -19.3990 C   0  0  0  0  0  0  0  0  0  0  0  0
   -7.4910    5.3580  -17.4190 C   0  0  0  0  0  0  0  0  0  0  0  0
   -8.8680    6.2080  -12.2450 N   0  0  0  0  0  0  0  0  0  0  0  0
   -8.8910    6.1780  -10.8780 N   0  0  0  0  0  0  0  0  0  0  0  0
   -8.8280    3.4830   -8.9720 H   0  0  0  0  0  0  0  0  0  0  0  0
   -7.5130    4.6830   -8.7070 H   0  0  0  0  0  0  0  0  0  0  0  0
   -9.2100    5.1450   -8.4870 H   0  0  0  0  0  0  0  0  0  0  0  0
   -8.1300    3.0690  -11.5180 H   0  0  0  0  0  0  0  0  0  0  0  0
   -8.0130    3.6670  -14.2270 H   0  0  0  0  0  0  0  0  0  0  0  0
  -10.5120    4.7930  -16.0480 H   0  0  0  0  0  0  0  0  0  0  0  0
  -11.1220    4.3470  -18.1840 H   0  0  0  0  0  0  0  0  0  0  0  0
   -9.2740    4.5090  -20.1730 H   0  0  0  0  0  0  0  0  0  0  0  0
   -4.8210    5.0370  -21.3060 H   0  0  0  0  0  0  0  0  0  0  0  0
   -3.5300    5.3850  -20.2080 H   0  0  0  0  0  0  0  0  0  0  0  0
   -4.4460    6.9180  -22.2490 H   0  0  0  0  0  0  0  0  0  0  0  0
   -3.3920    7.5460  -21.0500 H   0  0  0  0  0  0  0  0  0  0  0  0
   -6.2430    7.9010  -21.5660 H   0  0  0  0  0  0  0  0  0  0  0  0
   -5.0530    8.9180  -20.8470 H   0  0  0  0  0  0  0  0  0  0  0  0
   -5.2040    8.0530  -18.6550 H   0  0  0  0  0  0  0  0  0  0  0  0
   -6.8570    7.7040  -19.2370 H   0  0  0  0  0  0  0  0  0  0  0  0
   -6.4720    5.6520  -17.1470 H   0  0  0  0  0  0  0  0  0  0  0  0
  1  2  1  0
  2  3  1  0
  3  4  2  0
  4  5  1  0
  5  6  1  0
  6  7  2  0
  6  8  1  0
  8  9  2  0
  9 10  1  0
 10 11  2  0
 11 12  1  0
 12 13  1  0
 13 14  2  0
 14 15  2  0
 14 16  1  0
 16 17  1  0
 17 18  1  0
 18 19  1  0
 12 20  2  0
  4 21  1  0
 21 22  2  0
 22  2  1  0
 20  8  1  0
 19 14  1  0
  1 23  1  0
  1 24  1  0
  1 25  1  0
  3 26  1  0
  5 27  1  0
  9 28  1  0
 10 29  1  0
 11 30  1  0
 16 31  1  0
 16 32  1  0
 17 33  1  0
 17 34  1  0
 18 35  1  0
 18 36  1  0
 19 37  1  0
 19 38  1  0
 20 39  1  0
A    1
 C1 
A    2
 N1 
A    3
 C2 
A    4
 C3 
A    5
 N2 
A    6
 C4 
A    7
 O1 
A    8
 C5 
A    9
 C6 
A   10
 C7 
A   11
 C8 
A   12
 C9 
A   13
 N3 
A   14
 S1 
A   15
 O2 
A   16
 C10
A   17
 C11
A   18
 C12
A   19
 C13
A   20
 C14
A   21
 N4 
A   22
 N5 
A   23
 H1 
A   24
 H2 
A   25
 H3 
A   26
 H4 
A   27
 H5 
A   28
 H6 
A   29
 H7 
A   30
 H8 
A   31
 H9 
A   32
 H10
A   33
 H11
A   34
 H12
A   35
 H13
A   36
 H14
A   37
 H15
A   38
 H16
A   39
 H17
M  END
>  <ref_pdb>  (457) 
x0051_0B

>  <ref_mols>  (457) 
x1098_0B,x0229_0B

>  <original SMILES>  (457) 
[H]c1c([H])c(N=S2(=O)C([H])([H])C([H])([H])C([H])([H])C2([H])[H])c([H])c(C(=O)N([H])c2nnn(C([H])([H])[H])c2[H])c1[H]

>  <index>  (457) 
972

>  <∆∆G>  (457) 
-7.147353

>  <∆G_bound>  (457) 
-6.562448

>  <∆G_unbound>  (457) 
0.584905

>  <comRMSD>  (457) 
0.397362

>  <N_constrained_atoms>  (457) 
24.0

>  <N_unconstrained_atoms>  (457) 
0.0

>  <runtime>  (457) 
67.171217

>  <LE>  (457) 
0.297806

>  <percent_hybrid>  (457) 
42.0

>  <dist>  (457) 
8.0

>  <ecfp4>  (457) 
0.255814

>  <daylight>  (457) 
0.299663

>  <topodist>  (457) 
3.0

>  <mces>  (457) 
24.0

>  <tdn>  (457) 
2.0

>  <tup>  (457) 
0.0

>  <rdn>  (457) 
1.0

>  <rup>  (457) 
0.0

>  <ldn>  (457) 
0.0

>  <lup>  (457) 
0.0

>  <mut>  (457) 
5.0

>  <maj>  (457) 
5.0

>  <min>  (457) 
0.0

>  <hyb>  (457) 
0.0

>  <sub>  (457) 
1.0

>  <query_index>  (457) 
28.0

>  <max_hit_Tanimoto>  (457) 
0.346491

>  <largest_ring>  (457) 
6

>  <N_interactions_kept>  (457) 
1.5

>  <N_interactions_lost>  (457) 
4.0

>  <interaction_uniqueness_metric>  (457) 
0.453982

>  <ad_hoc_penalty>  (457) 
-17.831879

>  <N_rotatable_bonds>  (457) 
4

>  <N_HA>  (457) 
22

>  <cluster>  (457) 
5327

>  <N_interactions>  (457) 
8

>  <Enamine>  (457) 
1

>  <Mcule>  (457) 
0

>  <N_PAINS>  (457) 
0

>  <UFF_Gibbs>  (457) 
128.398893

>  <strain_per_HA>  (457) 
5.836313

>  <saltbridge:HIS:51>  (457) 
0

>  <pistack:HIS:51>  (457) 
1

>  <hydroph_interaction:HIS:51>  (457) 
0

>  <hbond:ALA:132>  (457) 
0

>  <hbond:SER:135>  (457) 
0

>  <hydroph_interaction:TYR:150>  (457) 
1

>  <pistack:TYR:161>  (457) 
1

>  <hydroph_interaction:TYR:161>  (457) 
0

>  <hydroph_interaction:ASP:83>  (457) 
0

>  <hbond:TYR:130>  (457) 
1

>  <hydroph_interaction:ALA:132>  (457) 
0

>  <hbond:HIS:51>  (457) 
0

>  <hbond:ASP:129>  (457) 
0

>  <hbond:TYR:150>  (457) 
0

>  <hbond:GLY:151>  (457) 
1

>  <hbond:TYR:161>  (457) 
1

>  <hydroph_interaction:TYR:130>  (457) 
0

>  <hydroph_interaction:PRO:131>  (457) 
0

>  <hydroph_interaction:ASP:129>  (457) 
0

>  <saltbridge:ASP:75>  (457) 
0

>  <saltbridge:ASP:83>  (457) 
1

>  <hydroph_interaction:ASN:152>  (457) 
0

>  <halogenbond:TYR:150>  (457) 
0

>  <hbond:ASP:83>  (457) 
0

>  <hydroph_interaction:VAL:155>  (457) 
0

>  <pication:TYR:161>  (457) 
0

>  <hbond:PRO:131>  (457) 
0

>  <hbond:LEU:128>  (457) 
0

>  <saltbridge:ASP:129>  (457) 
0

>  <hbond:THR:134>  (457) 
0

>  <pication:HIS:51>  (457) 
1

>  <hbond:SER:81>  (457) 
0

>  <hbond:GLY:159>  (457) 
0

>  <hydroph_interaction:PRO:101>  (457) 
0

>  <hydroph_interaction:THR:134>  (457) 
0

>  <hbond:GLY:82>  (457) 
0

>  <hydroph_interaction:GLU:104>  (457) 
0

>  <hydroph_interaction:VAL:36>  (457) 
0

>  <hydroph_interaction:MET:49>  (457) 
0

>  <halogenbond:GLU:104>  (457) 
0

>  <hydroph_interaction:LYS:107>  (457) 
0

$$$$
Z5316880345
     RDKit          3D

 59 62  0  0  0  0  0  0  0  0999 V2000
   -9.7550    8.6540  -13.8530 O   0  0  0  0  0  0  0  0  0  0  0  0
   -8.8330    7.5570  -13.9930 S   0  0  0  0  0  6  0  0  0  0  0  0
   -7.4920    7.7570  -14.4460 O   0  0  0  0  0  0  0  0  0  0  0  0
   -9.4510    6.3760  -14.9840 N   0  0  0  0  0  0  0  0  0  0  0  0
   -8.4280    5.4400  -15.5590 C   0  0  0  0  0  0  0  0  0  0  0  0
   -8.6030    5.5080  -16.8640 C   0  0  2  0  0  0  0  0  0  0  0  0
   -9.8340    4.9790  -17.4210 C   0  0  0  0  0  0  0  0  0  0  0  0
   -9.6620    4.5000  -18.6940 C   0  0  0  0  0  0  0  0  0  0  0  0
   -8.3800    4.6590  -19.1730 C   0  0  0  0  0  0  0  0  0  0  0  0
   -7.5520    4.9560  -17.8910 C   0  0  1  0  0  0  0  0  0  0  0  0
   -6.3960    5.8100  -18.2800 N   0  0  0  0  0  0  0  0  0  0  0  0
   -5.9860    5.4890  -19.6850 C   0  0  0  0  0  0  0  0  0  0  0  0
   -4.6040    5.6460  -19.7190 C   0  0  0  0  0  0  0  0  0  0  0  0
   -3.9550    5.5060  -18.3830 C   0  0  0  0  0  0  0  0  0  0  0  0
   -5.1680    5.5990  -17.4460 C   0  0  0  0  0  0  0  0  0  0  0  0
   -8.8170    6.6210  -12.5170 C   0  0  0  0  0  0  0  0  0  0  0  0
   -8.6690    7.2230  -11.2820 C   0  0  0  0  0  0  0  0  0  0  0  0
   -8.6580    6.4670  -10.1370 C   0  0  0  0  0  0  0  0  0  0  0  0
   -8.7910    5.0870  -10.1530 C   0  0  0  0  0  0  0  0  0  0  0  0
   -8.7820    4.3180   -9.0160 N   0  0  0  0  0  0  0  0  0  0  0  0
   -9.0660    2.8790   -9.1980 C   0  0  0  0  0  0  0  0  0  0  0  0
   -9.6690    2.3400   -7.9000 C   0  0  0  0  0  0  0  0  0  0  0  0
   -8.9170    2.7550   -6.7050 N   0  0  0  0  0  0  0  0  0  0  0  0
   -8.7420    4.2150   -6.6740 C   0  0  0  0  0  0  0  0  0  0  0  0
   -8.0760    4.7160   -7.7880 C   0  0  0  0  0  0  0  0  0  0  0  0
   -8.9430    4.4810  -11.4160 C   0  0  0  0  0  0  0  0  0  0  0  0
   -8.9580    5.2330  -12.5950 C   0  0  0  0  0  0  0  0  0  0  0  0
  -10.3340    5.9940  -14.6460 H   0  0  0  0  0  0  0  0  0  0  0  0
   -7.4600    5.6850  -15.1310 H   0  0  0  0  0  0  0  0  0  0  0  0
   -8.7070    4.4420  -15.2230 H   0  0  0  0  0  0  0  0  0  0  0  0
   -8.5600    6.5660  -16.9810 H   0  0  0  0  0  0  0  0  0  0  0  0
  -10.2010    4.2030  -16.7620 H   0  0  0  0  0  0  0  0  0  0  0  0
  -10.6040    5.7410  -17.4770 H   0  0  0  0  0  0  0  0  0  0  0  0
  -10.3250    5.0040  -19.4100 H   0  0  0  0  0  0  0  0  0  0  0  0
   -9.8790    3.4300  -18.7180 H   0  0  0  0  0  0  0  0  0  0  0  0
   -8.0420    3.7750  -19.7200 H   0  0  0  0  0  0  0  0  0  0  0  0
   -8.3730    5.5060  -19.8620 H   0  0  0  0  0  0  0  0  0  0  0  0
   -7.2060    4.0180  -17.5150 H   0  0  0  0  0  0  0  0  0  0  0  0
   -6.4450    6.1820  -20.4000 H   0  0  0  0  0  0  0  0  0  0  0  0
   -6.2640    4.4720  -19.9830 H   0  0  0  0  0  0  0  0  0  0  0  0
   -4.3980    6.6480  -20.1150 H   0  0  0  0  0  0  0  0  0  0  0  0
   -4.1610    4.9460  -20.4300 H   0  0  0  0  0  0  0  0  0  0  0  0
   -3.2180    6.2890  -18.1900 H   0  0  0  0  0  0  0  0  0  0  0  0
   -3.4580    4.5330  -18.2990 H   0  0  0  0  0  0  0  0  0  0  0  0
   -5.2350    4.7390  -16.7820 H   0  0  0  0  0  0  0  0  0  0  0  0
   -5.0450    6.5080  -16.8420 H   0  0  0  0  0  0  0  0  0  0  0  0
   -8.5590    8.3130  -11.2150 H   0  0  0  0  0  0  0  0  0  0  0  0
   -8.5400    6.9720   -9.1720 H   0  0  0  0  0  0  0  0  0  0  0  0
   -9.7880    2.7140  -10.0110 H   0  0  0  0  0  0  0  0  0  0  0  0
   -8.1440    2.3260   -9.4250 H   0  0  0  0  0  0  0  0  0  0  0  0
  -10.7050    2.6800   -7.8030 H   0  0  0  0  0  0  0  0  0  0  0  0
   -9.7140    1.2540   -7.9390 H   0  0  0  0  0  0  0  0  0  0  0  0
   -7.9950    2.3210   -6.7140 H   0  0  0  0  0  0  0  0  0  0  0  0
   -8.1780    4.4760   -5.7700 H   0  0  0  0  0  0  0  0  0  0  0  0
   -9.7290    4.6790   -6.5870 H   0  0  0  0  0  0  0  0  0  0  0  0
   -7.0620    4.2920   -7.8240 H   0  0  0  0  0  0  0  0  0  0  0  0
   -7.9320    5.7990   -7.7110 H   0  0  0  0  0  0  0  0  0  0  0  0
   -9.0540    3.4000  -11.4910 H   0  0  0  0  0  0  0  0  0  0  0  0
   -9.0790    4.7290  -13.5500 H   0  0  0  0  0  0  0  0  0  0  0  0
  1  2  2  0
  2  3  2  0
  2  4  1  0
  4  5  1  0
  5  6  1  0
  6  7  1  0
  7  8  1  0
  8  9  1  0
  9 10  1  0
 10 11  1  0
 11 12  1  0
 12 13  1  0
 13 14  1  0
 14 15  1  0
  2 16  1  0
 16 17  2  0
 17 18  1  0
 18 19  2  0
 19 20  1  0
 20 21  1  0
 21 22  1  0
 22 23  1  0
 23 24  1  0
 24 25  1  0
 19 26  1  0
 26 27  2  0
 10  6  1  0
 15 11  1  0
 27 16  1  0
 25 20  1  0
  4 28  1  0
  5 29  1  0
  5 30  1  0
  6 31  1  6
  7 32  1  0
  7 33  1  0
  8 34  1  0
  8 35  1  0
  9 36  1  0
  9 37  1  0
 10 38  1  1
 12 39  1  0
 12 40  1  0
 13 41  1  0
 13 42  1  0
 14 43  1  0
 14 44  1  0
 15 45  1  0
 15 46  1  0
 17 47  1  0
 18 48  1  0
 21 49  1  0
 21 50  1  0
 22 51  1  0
 22 52  1  0
 23 53  1  0
 24 54  1  0
 24 55  1  0
 25 56  1  0
 25 57  1  0
 26 58  1  0
 27 59  1  0
A    1
 O1 
A    2
 S1 
A    3
 O2 
A    4
 N1 
A    5
 C1 
A    6
 C2 
A    7
 C3 
A    8
 C4 
A    9
 C5 
A   10
 C6 
A   11
 N2 
A   12
 C7 
A   13
 C8 
A   14
 C9 
A   15
 C10
A   16
 C11
A   17
 C12
A   18
 C13
A   19
 C14
A   20
 N3 
A   21
 C15
A   22
 C16
A   23
 N4 
A   24
 C17
A   25
 C18
A   26
 C19
A   27
 C20
A   28
 H1 
A   29
 H2 
A   30
 H3 
A   31
 H4 
A   32
 H5 
A   33
 H6 
A   34
 H7 
A   35
 H8 
A   36
 H9 
A   37
 H10
A   38
 H11
A   39
 H12
A   40
 H13
A   41
 H14
A   42
 H15
A   43
 H16
A   44
 H17
A   45
 H18
A   46
 H19
A   47
 H20
A   48
 H21
A   49
 H22
A   50
 H23
A   51
 H24
A   52
 H25
A   53
 H26
A   54
 H27
A   55
 H28
A   56
 H29
A   57
 H30
A   58
 H31
A   59
 H32
M  END
>  <ref_pdb>  (458) 
x0051_0B

>  <ref_mols>  (458) 
x0404_0B,x0422_0B

>  <original SMILES>  (458) 
[H]c1c([H])c(S(=O)(=O)N([H])C([H])([H])[C@]2([H])C([H])([H])C([H])([H])C([H])([H])[C@@]2([H])N2C([H])([H])C([H])([H])C([H])([H])C2([H])[H])c([H])c([H])c1N1C([H])([H])C([H])([H])N([H])C([H])([H])C1([H])[H]

>  <index>  (458) 
704

>  <∆∆G>  (458) 
-5.251648

>  <∆G_bound>  (458) 
-4.178003

>  <∆G_unbound>  (458) 
1.073646

>  <comRMSD>  (458) 
0.724959

>  <N_constrained_atoms>  (458) 
27.0

>  <N_unconstrained_atoms>  (458) 
1.0

>  <runtime>  (458) 
110.062266

>  <LE>  (458) 
0.187559

>  <percent_hybrid>  (458) 
41.0

>  <dist>  (458) 
8.0

>  <ecfp4>  (458) 
0.388889

>  <daylight>  (458) 
0.331731

>  <topodist>  (458) 
1.0

>  <mces>  (458) 
30.0

>  <tdn>  (458) 
1.0

>  <tup>  (458) 
0.0

>  <rdn>  (458) 
0.0

>  <rup>  (458) 
0.0

>  <ldn>  (458) 
0.0

>  <lup>  (458) 
0.0

>  <mut>  (458) 
5.0

>  <maj>  (458) 
5.0

>  <min>  (458) 
0.0

>  <hyb>  (458) 
2.0

>  <sub>  (458) 
0.0

>  <query_index>  (458) 
324.0

>  <max_hit_Tanimoto>  (458) 
0.410795

>  <largest_ring>  (458) 
6

>  <N_interactions_kept>  (458) 
2.0

>  <N_interactions_lost>  (458) 
3.5

>  <interaction_uniqueness_metric>  (458) 
0.366772

>  <ad_hoc_penalty>  (458) 
-17.808451

>  <N_rotatable_bonds>  (458) 
6

>  <N_HA>  (458) 
27

>  <cluster>  (458) 
5573

>  <N_interactions>  (458) 
10

>  <Enamine>  (458) 
1

>  <Mcule>  (458) 
0

>  <N_PAINS>  (458) 
0

>  <UFF_Gibbs>  (458) 
205.003908

>  <strain_per_HA>  (458) 
7.592737

>  <saltbridge:HIS:51>  (458) 
0

>  <pistack:HIS:51>  (458) 
1

>  <hydroph_interaction:HIS:51>  (458) 
1

>  <hbond:ALA:132>  (458) 
0

>  <hbond:SER:135>  (458) 
0

>  <hydroph_interaction:TYR:150>  (458) 
1

>  <pistack:TYR:161>  (458) 
0

>  <hydroph_interaction:TYR:161>  (458) 
3

>  <hydroph_interaction:ASP:83>  (458) 
0

>  <hbond:TYR:130>  (458) 
0

>  <hydroph_interaction:ALA:132>  (458) 
1

>  <hbond:HIS:51>  (458) 
0

>  <hbond:ASP:129>  (458) 
0

>  <hbond:TYR:150>  (458) 
0

>  <hbond:GLY:151>  (458) 
1

>  <hbond:TYR:161>  (458) 
0

>  <hydroph_interaction:TYR:130>  (458) 
0

>  <hydroph_interaction:PRO:131>  (458) 
0

>  <hydroph_interaction:ASP:129>  (458) 
0

>  <saltbridge:ASP:75>  (458) 
0

>  <saltbridge:ASP:83>  (458) 
0

>  <hydroph_interaction:ASN:152>  (458) 
0

>  <halogenbond:TYR:150>  (458) 
0

>  <hbond:ASP:83>  (458) 
0

>  <hydroph_interaction:VAL:155>  (458) 
0

>  <pication:TYR:161>  (458) 
1

>  <hbond:PRO:131>  (458) 
0

>  <hbond:LEU:128>  (458) 
0

>  <saltbridge:ASP:129>  (458) 
0

>  <hbond:THR:134>  (458) 
0

>  <pication:HIS:51>  (458) 
0

>  <hbond:SER:81>  (458) 
1

>  <hbond:GLY:159>  (458) 
0

>  <hydroph_interaction:PRO:101>  (458) 
0

>  <hydroph_interaction:THR:134>  (458) 
0

>  <hbond:GLY:82>  (458) 
0

>  <hydroph_interaction:GLU:104>  (458) 
0

>  <hydroph_interaction:VAL:36>  (458) 
0

>  <hydroph_interaction:MET:49>  (458) 
0

>  <halogenbond:GLU:104>  (458) 
0

>  <hydroph_interaction:LYS:107>  (458) 
0

$$$$
MCULE-5197641201
     RDKit          3D

 29 31  0  0  0  0  0  0  0  0999 V2000
   -7.5950    5.5690  -17.1810 C   0  0  0  0  0  0  0  0  0  0  0  0
   -6.3150    6.0780  -17.0800 C   0  0  0  0  0  0  0  0  0  0  0  0
   -5.6980    6.1580  -18.2560 N   0  0  0  0  0  0  0  0  0  0  0  0
   -6.6000    5.6740  -19.1650 N   0  0  0  0  0  0  0  0  0  0  0  0
   -7.7960    5.2830  -18.6240 C   0  0  0  0  0  0  0  0  0  0  0  0
   -8.9820    4.7540  -19.1060 C   0  0  0  0  0  0  0  0  0  0  0  0
   -9.9940    4.4940  -18.1830 C   0  0  0  0  0  0  0  0  0  0  0  0
   -9.8240    4.7530  -16.8020 C   0  0  0  0  0  0  0  0  0  0  0  0
   -8.6300    5.2910  -16.3060 C   0  0  0  0  0  0  0  0  0  0  0  0
   -8.4240    5.5830  -14.9630 C   0  0  0  0  0  0  0  0  0  0  0  0
   -8.9240    4.7230  -14.0180 N   0  0  0  0  0  0  0  0  0  0  0  0
   -8.8660    5.0520  -12.6820 C   0  0  0  0  0  0  0  0  0  0  0  0
   -8.9970    6.3020  -12.0620 C   0  0  0  0  0  0  0  0  0  0  0  0
   -8.8790    6.2730  -10.7390 N   0  0  0  0  0  0  0  0  0  0  0  0
   -8.6670    4.9690  -10.5000 N   0  0  0  0  0  0  0  0  0  0  0  0
   -8.4870    4.5420   -9.1380 C   0  0  0  0  0  0  0  0  0  0  0  0
   -8.6510    4.1860  -11.6300 C   0  0  0  0  0  0  0  0  0  0  0  0
   -7.8030    6.6070  -14.7020 O   0  0  0  0  0  0  0  0  0  0  0  0
   -5.8530    6.3900  -16.1470 H   0  0  0  0  0  0  0  0  0  0  0  0
   -6.3270    5.6440  -20.1420 H   0  0  0  0  0  0  0  0  0  0  0  0
   -9.1190    4.5520  -20.1670 H   0  0  0  0  0  0  0  0  0  0  0  0
  -10.9340    4.0820  -18.5360 H   0  0  0  0  0  0  0  0  0  0  0  0
  -10.6330    4.5290  -16.1210 H   0  0  0  0  0  0  0  0  0  0  0  0
   -9.3360    3.8370  -14.2910 H   0  0  0  0  0  0  0  0  0  0  0  0
   -9.1800    7.2280  -12.6110 H   0  0  0  0  0  0  0  0  0  0  0  0
   -7.4280    4.5970   -8.8970 H   0  0  0  0  0  0  0  0  0  0  0  0
   -8.8420    3.5170   -9.0310 H   0  0  0  0  0  0  0  0  0  0  0  0
   -9.0580    5.1960   -8.4950 H   0  0  0  0  0  0  0  0  0  0  0  0
   -8.4920    3.1190  -11.5820 H   0  0  0  0  0  0  0  0  0  0  0  0
  1  2  1  0
  2  3  2  0
  3  4  1  0
  4  5  1  0
  5  6  1  0
  6  7  2  0
  7  8  1  0
  8  9  2  0
  9 10  1  0
 10 11  1  0
 11 12  1  0
 12 13  1  0
 13 14  2  0
 14 15  1  0
 15 16  1  0
 15 17  1  0
 10 18  2  0
  5  1  2  0
  1  9  1  0
 12 17  2  0
  2 19  1  0
  4 20  1  0
  6 21  1  0
  7 22  1  0
  8 23  1  0
 11 24  1  0
 13 25  1  0
 16 26  1  0
 16 27  1  0
 16 28  1  0
 17 29  1  0
A    1
 C1 
A    2
 C2 
A    3
 N1 
A    4
 N2 
A    5
 C3 
A    6
 C4 
A    7
 C5 
A    8
 C6 
A    9
 C7 
A   10
 C8 
A   11
 N3 
A   12
 C9 
A   13
 C10
A   14
 N4 
A   15
 N5 
A   16
 C11
A   17
 C12
A   18
 O1 
A   19
 H1 
A   20
 H2 
A   21
 H3 
A   22
 H4 
A   23
 H5 
A   24
 H6 
A   25
 H7 
A   26
 H8 
A   27
 H9 
A   28
 H10
A   29
 H11
M  END
>  <ref_pdb>  (459) 
x0051_0B

>  <ref_mols>  (459) 
x1098_0B,x0386_0B

>  <original SMILES>  (459) 
[H]c1nn(C([H])([H])[H])c([H])c1N([H])C(=O)c1c([H])c([H])c([H])c2c1c([H])nn2[H]

>  <index>  (459) 
1018

>  <∆∆G>  (459) 
-7.137755

>  <∆G_bound>  (459) 
-6.658982

>  <∆G_unbound>  (459) 
0.478773

>  <comRMSD>  (459) 
0.618998

>  <N_constrained_atoms>  (459) 
20.0

>  <N_unconstrained_atoms>  (459) 
0.0

>  <runtime>  (459) 
57.682288

>  <LE>  (459) 
0.356888

>  <percent_hybrid>  (459) 
8.0

>  <dist>  (459) 
5.0

>  <ecfp4>  (459) 
0.508197

>  <daylight>  (459) 
0.55102

>  <topodist>  (459) 
3.0

>  <mces>  (459) 
19.0

>  <tdn>  (459) 
2.0

>  <tup>  (459) 
0.0

>  <rdn>  (459) 
0.0

>  <rup>  (459) 
1.0

>  <ldn>  (459) 
0.0

>  <lup>  (459) 
0.0

>  <mut>  (459) 
1.0

>  <maj>  (459) 
1.0

>  <min>  (459) 
0.0

>  <hyb>  (459) 
1.0

>  <sub>  (459) 
2.0

>  <query_index>  (459) 
61.0

>  <max_hit_Tanimoto>  (459) 
0.485564

>  <largest_ring>  (459) 
6

>  <N_interactions_kept>  (459) 
1.5

>  <N_interactions_lost>  (459) 
3.5

>  <interaction_uniqueness_metric>  (459) 
0.164058

>  <ad_hoc_penalty>  (459) 
-17.79829

>  <N_rotatable_bonds>  (459) 
3

>  <N_HA>  (459) 
18

>  <cluster>  (459) 
5283

>  <N_interactions>  (459) 
7

>  <Enamine>  (459) 
0

>  <Mcule>  (459) 
1

>  <N_PAINS>  (459) 
0

>  <UFF_Gibbs>  (459) 
42.870766

>  <strain_per_HA>  (459) 
2.381709

>  <saltbridge:HIS:51>  (459) 
0

>  <pistack:HIS:51>  (459) 
1

>  <hydroph_interaction:HIS:51>  (459) 
0

>  <hbond:ALA:132>  (459) 
0

>  <hbond:SER:135>  (459) 
0

>  <hydroph_interaction:TYR:150>  (459) 
1

>  <pistack:TYR:161>  (459) 
2

>  <hydroph_interaction:TYR:161>  (459) 
0

>  <hydroph_interaction:ASP:83>  (459) 
0

>  <hbond:TYR:130>  (459) 
0

>  <hydroph_interaction:ALA:132>  (459) 
1

>  <hbond:HIS:51>  (459) 
0

>  <hbond:ASP:129>  (459) 
0

>  <hbond:TYR:150>  (459) 
0

>  <hbond:GLY:151>  (459) 
1

>  <hbond:TYR:161>  (459) 
1

>  <hydroph_interaction:TYR:130>  (459) 
0

>  <hydroph_interaction:PRO:131>  (459) 
0

>  <hydroph_interaction:ASP:129>  (459) 
0

>  <saltbridge:ASP:75>  (459) 
0

>  <saltbridge:ASP:83>  (459) 
0

>  <hydroph_interaction:ASN:152>  (459) 
0

>  <halogenbond:TYR:150>  (459) 
0

>  <hbond:ASP:83>  (459) 
0

>  <hydroph_interaction:VAL:155>  (459) 
0

>  <pication:TYR:161>  (459) 
0

>  <hbond:PRO:131>  (459) 
0

>  <hbond:LEU:128>  (459) 
0

>  <saltbridge:ASP:129>  (459) 
0

>  <hbond:THR:134>  (459) 
0

>  <pication:HIS:51>  (459) 
0

>  <hbond:SER:81>  (459) 
0

>  <hbond:GLY:159>  (459) 
0

>  <hydroph_interaction:PRO:101>  (459) 
0

>  <hydroph_interaction:THR:134>  (459) 
0

>  <hbond:GLY:82>  (459) 
0

>  <hydroph_interaction:GLU:104>  (459) 
0

>  <hydroph_interaction:VAL:36>  (459) 
0

>  <hydroph_interaction:MET:49>  (459) 
0

>  <halogenbond:GLU:104>  (459) 
0

>  <hydroph_interaction:LYS:107>  (459) 
0

$$$$
RCLXVAVHZRUDAC-UHFFFAOYSA-N
     RDKit          3D

 34 35  0  0  0  0  0  0  0  0999 V2000
   -5.1830    5.3700  -19.6720 C   0  0  0  0  0  0  0  0  0  0  0  0
   -3.9570    5.5200  -20.2320 N   0  0  0  0  0  0  0  0  0  0  0  0
   -2.7620    5.7500  -19.4910 C   0  0  0  0  0  0  0  0  0  0  0  0
   -2.3680    4.5380  -18.6940 C   0  0  0  0  0  0  0  0  0  0  0  0
   -2.9390    6.9210  -18.5250 C   0  0  0  0  0  0  0  0  0  0  0  0
   -1.5740    5.9900  -20.4350 C   0  0  0  0  0  0  0  0  0  0  0  0
   -6.5460    5.1280  -20.6400 S   0  0  0  0  0  0  0  0  0  0  0  0
   -7.5260    5.0730  -19.2670 C   0  0  0  0  0  0  0  0  0  0  0  0
   -6.7330    5.2330  -18.1300 C   0  0  0  0  0  0  0  0  0  0  0  0
   -7.4300    5.1940  -16.8960 C   0  0  0  0  0  0  0  0  0  0  0  0
   -6.5800    5.3540  -15.6690 C   0  0  0  0  0  0  0  0  0  0  0  0
   -8.8120    5.0210  -16.8450 C   0  0  0  0  0  0  0  0  0  0  0  0
   -9.5230    4.8780  -18.1340 C   0  0  0  0  0  0  0  0  0  0  0  0
  -10.9660    4.7270  -18.0570 C   0  0  0  0  0  0  0  0  0  0  0  0
   -8.8820    4.8980  -19.3130 C   0  0  0  0  0  0  0  0  0  0  0  0
   -5.3880    5.4030  -18.3710 N   0  0  0  0  0  0  0  0  0  0  0  0
   -3.8730    5.3710  -21.2310 H   0  0  0  0  0  0  0  0  0  0  0  0
   -3.1990    4.1430  -18.1010 H   0  0  0  0  0  0  0  0  0  0  0  0
   -1.9930    3.7480  -19.3610 H   0  0  0  0  0  0  0  0  0  0  0  0
   -1.5620    4.8170  -18.0080 H   0  0  0  0  0  0  0  0  0  0  0  0
   -3.5290    7.7210  -18.9600 H   0  0  0  0  0  0  0  0  0  0  0  0
   -1.9700    7.3400  -18.2340 H   0  0  0  0  0  0  0  0  0  0  0  0
   -3.4420    6.6010  -17.6060 H   0  0  0  0  0  0  0  0  0  0  0  0
   -0.7090    6.3570  -19.8740 H   0  0  0  0  0  0  0  0  0  0  0  0
   -1.8240    6.7000  -21.2260 H   0  0  0  0  0  0  0  0  0  0  0  0
   -1.2800    5.0510  -20.9170 H   0  0  0  0  0  0  0  0  0  0  0  0
   -6.5410    6.4080  -15.3710 H   0  0  0  0  0  0  0  0  0  0  0  0
   -5.5640    5.0150  -15.8340 H   0  0  0  0  0  0  0  0  0  0  0  0
   -7.0000    4.7660  -14.8460 H   0  0  0  0  0  0  0  0  0  0  0  0
   -9.3430    4.9970  -15.8930 H   0  0  0  0  0  0  0  0  0  0  0  0
  -11.4590    5.6600  -18.3180 H   0  0  0  0  0  0  0  0  0  0  0  0
  -11.1720    4.4320  -17.0530 H   0  0  0  0  0  0  0  0  0  0  0  0
  -11.3300    3.9570  -18.6670 H   0  0  0  0  0  0  0  0  0  0  0  0
   -9.4100    4.7860  -20.2650 H   0  0  0  0  0  0  0  0  0  0  0  0
  1  2  1  0
  2  3  1  0
  3  4  1  0
  3  5  1  0
  3  6  1  0
  1  7  1  0
  7  8  1  0
  8  9  2  0
  9 10  1  0
 10 11  1  0
 10 12  2  0
 12 13  1  0
 13 14  1  0
 13 15  2  0
  9 16  1  0
  1 16  2  0
 15  8  1  0
  2 17  1  0
  4 18  1  0
  4 19  1  0
  4 20  1  0
  5 21  1  0
  5 22  1  0
  5 23  1  0
  6 24  1  0
  6 25  1  0
  6 26  1  0
 11 27  1  0
 11 28  1  0
 11 29  1  0
 12 30  1  0
 14 31  1  0
 14 32  1  0
 14 33  1  0
 15 34  1  0
A    1
 C1 
A    2
 N1 
A    3
 C2 
A    4
 C3 
A    5
 C4 
A    6
 C5 
A    7
 S1 
A    8
 C6 
A    9
 C7 
A   10
 C8 
A   11
 C9 
A   12
 C10
A   13
 C11
A   14
 C12
A   15
 C13
A   16
 N2 
A   17
 H1 
A   18
 H2 
A   19
 H3 
A   20
 H4 
A   21
 H5 
A   22
 H6 
A   23
 H7 
A   24
 H8 
A   25
 H9 
A   26
 H10
A   27
 H11
A   28
 H12
A   29
 H13
A   30
 H14
A   31
 H15
A   32
 H16
A   33
 H17
A   34
 H18
M  END
>  <ref_pdb>  (460) 
x0051_0B

>  <ref_mols>  (460) 
x0089_0B,x0605_0B

>  <original SMILES>  (460) 
[H]c1c(C([H])([H])[H])c([H])c2sc(N([H])C(C([H])([H])[H])(C([H])([H])[H])C([H])([H])[H])nc2c1C([H])([H])[H]

>  <index>  (460) 
921

>  <∆∆G>  (460) 
-8.464528

>  <∆G_bound>  (460) 
-8.778741

>  <∆G_unbound>  (460) 
-0.314214

>  <comRMSD>  (460) 
0.980409

>  <N_constrained_atoms>  (460) 
15.0

>  <N_unconstrained_atoms>  (460) 
2.0

>  <runtime>  (460) 
35.005419

>  <LE>  (460) 
0.497913

>  <percent_hybrid>  (460) 
25.0

>  <dist>  (460) 
3.0

>  <ecfp4>  (460) 
0.288462

>  <daylight>  (460) 
0.393103

>  <topodist>  (460) 
1.0

>  <mces>  (460) 
16.0

>  <tdn>  (460) 
0.0

>  <tup>  (460) 
1.0

>  <rdn>  (460) 
0.0

>  <rup>  (460) 
0.0

>  <ldn>  (460) 
0.0

>  <lup>  (460) 
0.0

>  <mut>  (460) 
1.0

>  <maj>  (460) 
1.0

>  <min>  (460) 
0.0

>  <hyb>  (460) 
1.0

>  <sub>  (460) 
1.0

>  <query_index>  (460) 
118.0

>  <max_hit_Tanimoto>  (460) 
0.212794

>  <largest_ring>  (460) 
6

>  <N_interactions_kept>  (460) 
1.0

>  <N_interactions_lost>  (460) 
2.5

>  <interaction_uniqueness_metric>  (460) 
0.064945

>  <ad_hoc_penalty>  (460) 
-17.789511

>  <N_rotatable_bonds>  (460) 
3

>  <N_HA>  (460) 
16

>  <cluster>  (460) 
105

>  <N_interactions>  (460) 
5

>  <Enamine>  (460) 
0

>  <Mcule>  (460) 
1

>  <N_PAINS>  (460) 
0

>  <UFF_Gibbs>  (460) 
33.852291

>  <strain_per_HA>  (460) 
2.115768

>  <saltbridge:HIS:51>  (460) 
0

>  <pistack:HIS:51>  (460) 
0

>  <hydroph_interaction:HIS:51>  (460) 
0

>  <hbond:ALA:132>  (460) 
0

>  <hbond:SER:135>  (460) 
0

>  <hydroph_interaction:TYR:150>  (460) 
0

>  <pistack:TYR:161>  (460) 
2

>  <hydroph_interaction:TYR:161>  (460) 
2

>  <hydroph_interaction:ASP:83>  (460) 
0

>  <hbond:TYR:130>  (460) 
0

>  <hydroph_interaction:ALA:132>  (460) 
0

>  <hbond:HIS:51>  (460) 
0

>  <hbond:ASP:129>  (460) 
0

>  <hbond:TYR:150>  (460) 
0

>  <hbond:GLY:151>  (460) 
0

>  <hbond:TYR:161>  (460) 
0

>  <hydroph_interaction:TYR:130>  (460) 
0

>  <hydroph_interaction:PRO:131>  (460) 
0

>  <hydroph_interaction:ASP:129>  (460) 
0

>  <saltbridge:ASP:75>  (460) 
0

>  <saltbridge:ASP:83>  (460) 
0

>  <hydroph_interaction:ASN:152>  (460) 
0

>  <halogenbond:TYR:150>  (460) 
0

>  <hbond:ASP:83>  (460) 
0

>  <hydroph_interaction:VAL:155>  (460) 
1

>  <pication:TYR:161>  (460) 
0

>  <hbond:PRO:131>  (460) 
0

>  <hbond:LEU:128>  (460) 
0

>  <saltbridge:ASP:129>  (460) 
0

>  <hbond:THR:134>  (460) 
0

>  <pication:HIS:51>  (460) 
0

>  <hbond:SER:81>  (460) 
0

>  <hbond:GLY:159>  (460) 
0

>  <hydroph_interaction:PRO:101>  (460) 
0

>  <hydroph_interaction:THR:134>  (460) 
0

>  <hbond:GLY:82>  (460) 
0

>  <hydroph_interaction:GLU:104>  (460) 
0

>  <hydroph_interaction:VAL:36>  (460) 
0

>  <hydroph_interaction:MET:49>  (460) 
0

>  <halogenbond:GLU:104>  (460) 
0

>  <hydroph_interaction:LYS:107>  (460) 
0

$$$$
CSSS00011962882
     RDKit          3D

 22 23  0  0  0  0  0  0  0  0999 V2000
   -7.1390    4.3270  -21.2740 N   0  0  0  0  0  0  0  0  0  0  0  0
   -6.1790    5.2870  -20.7570 C   0  0  0  0  0  0  0  0  0  0  0  0
   -6.1790    5.3710  -19.2800 C   0  0  0  0  0  0  0  0  0  0  0  0
   -4.9470    5.6150  -18.6910 C   0  0  0  0  0  0  0  0  0  0  0  0
   -4.7400    5.7230  -17.3710 N   0  0  0  0  0  0  0  0  0  0  0  0
   -5.8270    5.5740  -16.5990 C   0  0  0  0  0  0  0  0  0  0  0  0
   -7.1160    5.3240  -17.0540 C   0  0  0  0  0  0  0  0  0  0  0  0
   -8.1640    5.1830  -16.1550 C   0  0  0  0  0  0  0  0  0  0  0  0
   -9.5900    4.9050  -16.6320 C   0  0  0  0  0  0  0  0  0  0  0  0
   -9.8370    4.7920  -18.0000 C   0  0  0  0  0  0  0  0  0  0  0  0
   -8.6300    4.9600  -18.8980 C   0  0  0  0  0  0  0  0  0  0  0  0
   -7.3150    5.2170  -18.4490 C   0  0  0  0  0  0  0  0  0  0  0  0
   -6.6950    3.7950  -22.0240 H   0  0  0  0  0  0  0  0  0  0  0  0
   -7.8780    4.8820  -21.7070 H   0  0  0  0  0  0  0  0  0  0  0  0
   -6.4170    6.2600  -21.2000 H   0  0  0  0  0  0  0  0  0  0  0  0
   -5.1750    4.9940  -21.0840 H   0  0  0  0  0  0  0  0  0  0  0  0
   -4.0460    5.7360  -19.2910 H   0  0  0  0  0  0  0  0  0  0  0  0
   -5.6440    5.6640  -15.5290 H   0  0  0  0  0  0  0  0  0  0  0  0
   -7.9680    5.2710  -15.0860 H   0  0  0  0  0  0  0  0  0  0  0  0
  -10.3870    4.7970  -15.9080 H   0  0  0  0  0  0  0  0  0  0  0  0
  -10.8740    4.5950  -18.2890 H   0  0  0  0  0  0  0  0  0  0  0  0
   -8.7800    4.8770  -19.9790 H   0  0  0  0  0  0  0  0  0  0  0  0
  1  2  1  0
  2  3  1  0
  3  4  2  0
  4  5  1  0
  5  6  2  0
  6  7  1  0
  7  8  2  0
  8  9  1  0
  9 10  2  0
 10 11  1  0
 11 12  2  0
 12  3  1  0
 12  7  1  0
  1 13  1  0
  1 14  1  0
  2 15  1  0
  2 16  1  0
  4 17  1  0
  6 18  1  0
  8 19  1  0
  9 20  1  0
 10 21  1  0
 11 22  1  0
A    1
 N1 
A    2
 C1 
A    3
 C2 
A    4
 C3 
A    5
 N2 
A    6
 C4 
A    7
 C5 
A    8
 C6 
A    9
 C7 
A   10
 C8 
A   11
 C9 
A   12
 C10
A   13
 H1 
A   14
 H2 
A   15
 H3 
A   16
 H4 
A   17
 H5 
A   18
 H6 
A   19
 H7 
A   20
 H8 
A   21
 H9 
A   22
 H10
M  END
>  <ref_pdb>  (461) 
x0051_0B

>  <ref_mols>  (461) 
x0727_0B,x0425_0B

>  <original SMILES>  (461) 
[H]c1nc([H])c2c([H])c([H])c([H])c([H])c2c1C([H])([H])N([H])[H]

>  <index>  (461) 
827

>  <∆∆G>  (461) 
-7.562166

>  <∆G_bound>  (461) 
-7.490015

>  <∆G_unbound>  (461) 
0.072152

>  <comRMSD>  (461) 
0.723293

>  <N_constrained_atoms>  (461) 
12.0

>  <N_unconstrained_atoms>  (461) 
1.0

>  <runtime>  (461) 
27.158079

>  <LE>  (461) 
0.581705

>  <percent_hybrid>  (461) 
34.0

>  <dist>  (461) 
3.0

>  <ecfp4>  (461) 
0.325

>  <daylight>  (461) 
0.337209

>  <topodist>  (461) 
1.0

>  <mces>  (461) 
13.0

>  <tdn>  (461) 
0.0

>  <tup>  (461) 
0.0

>  <rdn>  (461) 
0.0

>  <rup>  (461) 
0.0

>  <ldn>  (461) 
1.0

>  <lup>  (461) 
0.0

>  <mut>  (461) 
2.0

>  <maj>  (461) 
2.0

>  <min>  (461) 
0.0

>  <hyb>  (461) 
0.0

>  <sub>  (461) 
0.0

>  <query_index>  (461) 
105.0

>  <max_hit_Tanimoto>  (461) 
0.319149

>  <largest_ring>  (461) 
6

>  <N_interactions_kept>  (461) 
0.0

>  <N_interactions_lost>  (461) 
3.5

>  <interaction_uniqueness_metric>  (461) 
0.12303

>  <ad_hoc_penalty>  (461) 
-17.78107

>  <N_rotatable_bonds>  (461) 
2

>  <N_HA>  (461) 
12

>  <cluster>  (461) 
5461

>  <N_interactions>  (461) 
7

>  <Enamine>  (461) 
1

>  <Mcule>  (461) 
0

>  <N_PAINS>  (461) 
0

>  <UFF_Gibbs>  (461) 
43.022018

>  <strain_per_HA>  (461) 
3.585168

>  <saltbridge:HIS:51>  (461) 
0

>  <pistack:HIS:51>  (461) 
0

>  <hydroph_interaction:HIS:51>  (461) 
0

>  <hbond:ALA:132>  (461) 
0

>  <hbond:SER:135>  (461) 
0

>  <hydroph_interaction:TYR:150>  (461) 
1

>  <pistack:TYR:161>  (461) 
2

>  <hydroph_interaction:TYR:161>  (461) 
1

>  <hydroph_interaction:ASP:83>  (461) 
0

>  <hbond:TYR:130>  (461) 
1

>  <hydroph_interaction:ALA:132>  (461) 
0

>  <hbond:HIS:51>  (461) 
0

>  <hbond:ASP:129>  (461) 
2

>  <hbond:TYR:150>  (461) 
0

>  <hbond:GLY:151>  (461) 
0

>  <hbond:TYR:161>  (461) 
0

>  <hydroph_interaction:TYR:130>  (461) 
0

>  <hydroph_interaction:PRO:131>  (461) 
0

>  <hydroph_interaction:ASP:129>  (461) 
0

>  <saltbridge:ASP:75>  (461) 
0

>  <saltbridge:ASP:83>  (461) 
0

>  <hydroph_interaction:ASN:152>  (461) 
0

>  <halogenbond:TYR:150>  (461) 
0

>  <hbond:ASP:83>  (461) 
0

>  <hydroph_interaction:VAL:155>  (461) 
0

>  <pication:TYR:161>  (461) 
0

>  <hbond:PRO:131>  (461) 
0

>  <hbond:LEU:128>  (461) 
0

>  <saltbridge:ASP:129>  (461) 
0

>  <hbond:THR:134>  (461) 
0

>  <pication:HIS:51>  (461) 
0

>  <hbond:SER:81>  (461) 
0

>  <hbond:GLY:159>  (461) 
0

>  <hydroph_interaction:PRO:101>  (461) 
0

>  <hydroph_interaction:THR:134>  (461) 
0

>  <hbond:GLY:82>  (461) 
0

>  <hydroph_interaction:GLU:104>  (461) 
0

>  <hydroph_interaction:VAL:36>  (461) 
0

>  <hydroph_interaction:MET:49>  (461) 
0

>  <halogenbond:GLU:104>  (461) 
0

>  <hydroph_interaction:LYS:107>  (461) 
0

$$$$
HXUUPZOOGIPDTN-UHFFFAOYSA-N
     RDKit          3D

 47 50  0  0  0  0  0  0  0  0999 V2000
   -5.9460   10.0350  -24.6310 C   0  0  0  0  0  0  0  0  0  0  0  0
   -5.8010    9.4540  -25.8950 N   0  0  0  0  0  0  0  0  0  0  0  0
   -6.7320    9.2840  -26.9720 C   0  0  0  0  0  0  0  0  0  0  0  0
   -7.1970    8.0010  -27.2610 C   0  0  0  0  0  0  0  0  0  0  0  0
   -8.5260    8.0510  -27.5780 C   0  0  0  0  0  0  0  0  0  0  0  0
   -8.9780    9.3370  -27.4680 C   0  0  0  0  0  0  0  0  0  0  0  0
  -10.3900    9.7330  -27.7300 C   0  0  0  0  0  0  0  0  0  0  0  0
  -11.3080    8.5900  -28.1390 C   0  0  0  0  0  0  0  0  0  0  0  0
  -10.7920    7.2960  -28.2440 C   0  0  0  0  0  0  0  0  0  0  0  0
   -9.3720    7.0120  -27.9590 C   0  0  0  0  0  0  0  0  0  0  0  0
   -7.7930   10.2230  -27.0470 C   0  0  0  0  0  0  0  0  0  0  0  0
   -6.1100   11.2400  -24.4650 O   0  0  0  0  0  0  0  0  0  0  0  0
   -5.9030    9.1180  -23.4400 C   0  0  0  0  0  0  0  0  0  0  0  0
   -6.0090    7.7340  -23.5720 C   0  0  0  0  0  0  0  0  0  0  0  0
   -6.0040    6.8920  -22.4320 C   0  0  0  0  0  0  0  0  0  0  0  0
   -5.9060    7.4020  -21.1190 C   0  0  0  0  0  0  0  0  0  0  0  0
   -5.9630    6.5980  -19.9330 C   0  0  0  0  0  0  0  0  0  0  0  0
   -4.7750    6.1110  -19.1020 C   0  0  0  0  0  0  0  0  0  0  0  0
   -4.9660    5.3810  -17.9820 C   0  0  0  0  0  0  0  0  0  0  0  0
   -6.2770    5.0540  -17.5660 C   0  0  0  0  0  0  0  0  0  0  0  0
   -7.3700    5.4380  -18.2530 C   0  0  0  0  0  0  0  0  0  0  0  0
   -8.5740    5.0330  -17.7140 O   0  0  0  0  0  0  0  0  0  0  0  0
   -9.6130    4.6710  -18.6270 C   0  0  0  0  0  0  0  0  0  0  0  0
   -7.2220    6.1970  -19.4180 C   0  0  0  0  0  0  0  0  0  0  0  0
   -5.7690    8.8110  -21.0170 C   0  0  0  0  0  0  0  0  0  0  0  0
   -5.7660    9.6540  -22.1510 C   0  0  0  0  0  0  0  0  0  0  0  0
   -4.8740    9.1160  -26.1160 H   0  0  0  0  0  0  0  0  0  0  0  0
   -6.1080    9.5450  -27.8350 H   0  0  0  0  0  0  0  0  0  0  0  0
   -7.0250    7.3440  -26.4030 H   0  0  0  0  0  0  0  0  0  0  0  0
   -6.6400    7.6030  -28.1210 H   0  0  0  0  0  0  0  0  0  0  0  0
  -10.6660   10.7860  -27.6150 H   0  0  0  0  0  0  0  0  0  0  0  0
  -12.3640    8.7790  -28.3520 H   0  0  0  0  0  0  0  0  0  0  0  0
  -11.4490    6.4830  -28.5400 H   0  0  0  0  0  0  0  0  0  0  0  0
   -8.9960    5.9980  -28.0460 H   0  0  0  0  0  0  0  0  0  0  0  0
   -7.7350   11.0420  -27.7560 H   0  0  0  0  0  0  0  0  0  0  0  0
   -7.9110   10.6700  -26.0740 H   0  0  0  0  0  0  0  0  0  0  0  0
   -6.1080    7.2720  -24.5500 H   0  0  0  0  0  0  0  0  0  0  0  0
   -6.0990    5.8150  -22.5820 H   0  0  0  0  0  0  0  0  0  0  0  0
   -3.7590    6.3540  -19.4030 H   0  0  0  0  0  0  0  0  0  0  0  0
   -4.1160    5.0430  -17.3980 H   0  0  0  0  0  0  0  0  0  0  0  0
   -6.4070    4.4700  -16.6610 H   0  0  0  0  0  0  0  0  0  0  0  0
  -10.5960    4.9620  -18.2400 H   0  0  0  0  0  0  0  0  0  0  0  0
   -9.4510    5.2150  -19.5640 H   0  0  0  0  0  0  0  0  0  0  0  0
   -9.5760    3.6030  -18.8560 H   0  0  0  0  0  0  0  0  0  0  0  0
   -8.1030    6.5040  -19.9490 H   0  0  0  0  0  0  0  0  0  0  0  0
   -5.6760    9.2700  -20.0340 H   0  0  0  0  0  0  0  0  0  0  0  0
   -5.6700   10.7310  -22.0160 H   0  0  0  0  0  0  0  0  0  0  0  0
  1  2  1  0
  2  3  1  0
  3  4  1  0
  4  5  1  0
  5  6  2  0
  6  7  1  0
  7  8  2  0
  8  9  1  0
  9 10  2  0
  6 11  1  0
  1 12  2  0
  1 13  1  0
 13 14  2  0
 14 15  1  0
 15 16  2  0
 16 17  1  0
 17 18  2  0
 18 19  1  0
 19 20  2  0
 20 21  1  0
 21 22  1  0
 22 23  1  0
 21 24  2  0
 16 25  1  0
 25 26  2  0
 11  3  1  0
 10  5  1  0
 26 13  1  0
 17 24  1  0
  2 27  1  0
  3 28  1  0
  4 29  1  0
  4 30  1  0
  7 31  1  0
  8 32  1  0
  9 33  1  0
 10 34  1  0
 11 35  1  0
 11 36  1  0
 14 37  1  0
 15 38  1  0
 18 39  1  0
 19 40  1  0
 20 41  1  0
 23 42  1  0
 23 43  1  0
 23 44  1  0
 24 45  1  0
 25 46  1  0
 26 47  1  0
A    1
 C1 
A    2
 N1 
A    3
 C2 
A    4
 C3 
A    5
 C4 
A    6
 C5 
A    7
 C6 
A    8
 C7 
A    9
 C8 
A   10
 C9 
A   11
 C10
A   12
 O1 
A   13
 C11
A   14
 C12
A   15
 C13
A   16
 C14
A   17
 C15
A   18
 C16
A   19
 C17
A   20
 C18
A   21
 C19
A   22
 O2 
A   23
 C20
A   24
 C21
A   25
 C22
A   26
 C23
A   27
 H1 
A   28
 H2 
A   29
 H3 
A   30
 H4 
A   31
 H5 
A   32
 H6 
A   33
 H7 
A   34
 H8 
A   35
 H9 
A   36
 H10
A   37
 H11
A   38
 H12
A   39
 H13
A   40
 H14
A   41
 H15
A   42
 H16
A   43
 H17
A   44
 H18
A   45
 H19
A   46
 H20
A   47
 H21
M  END
>  <ref_pdb>  (462) 
x0051_0B

>  <ref_mols>  (462) 
x0846_1B,x0425_0B

>  <original SMILES>  (462) 
[H]c1c([H])c(OC([H])([H])[H])c([H])c(-c2c([H])c([H])c(C(=O)N([H])C3([H])C([H])([H])c4c([H])c([H])c([H])c([H])c4C3([H])[H])c([H])c2[H])c1[H]

>  <index>  (462) 
836

>  <∆∆G>  (462) 
-9.559747

>  <∆G_bound>  (462) 
-9.547888

>  <∆G_unbound>  (462) 
0.011859

>  <comRMSD>  (462) 
0.683144

>  <N_constrained_atoms>  (462) 
27.0

>  <N_unconstrained_atoms>  (462) 
1.0

>  <runtime>  (462) 
58.325923

>  <LE>  (462) 
0.34142

>  <percent_hybrid>  (462) 
34.0

>  <dist>  (462) 
12.0

>  <ecfp4>  (462) 
0.130435

>  <daylight>  (462) 
0.221239

>  <topodist>  (462) 
6.0

>  <mces>  (462) 
28.0

>  <tdn>  (462) 
4.0

>  <tup>  (462) 
1.0

>  <rdn>  (462) 
0.0

>  <rup>  (462) 
0.0

>  <ldn>  (462) 
1.0

>  <lup>  (462) 
0.0

>  <mut>  (462) 
4.0

>  <maj>  (462) 
4.0

>  <min>  (462) 
0.0

>  <hyb>  (462) 
2.0

>  <sub>  (462) 
2.0

>  <query_index>  (462) 
25.0

>  <max_hit_Tanimoto>  (462) 
0.222791

>  <largest_ring>  (462) 
6

>  <N_interactions_kept>  (462) 
0.5

>  <N_interactions_lost>  (462) 
2.0

>  <interaction_uniqueness_metric>  (462) 
0.14019

>  <ad_hoc_penalty>  (462) 
-17.686849

>  <N_rotatable_bonds>  (462) 
5

>  <N_HA>  (462) 
26

>  <cluster>  (462) 
5453

>  <N_interactions>  (462) 
4

>  <Enamine>  (462) 
0

>  <Mcule>  (462) 
1

>  <N_PAINS>  (462) 
0

>  <UFF_Gibbs>  (462) 
101.893562

>  <strain_per_HA>  (462) 
3.918983

>  <saltbridge:HIS:51>  (462) 
0

>  <pistack:HIS:51>  (462) 
0

>  <hydroph_interaction:HIS:51>  (462) 
0

>  <hbond:ALA:132>  (462) 
0

>  <hbond:SER:135>  (462) 
0

>  <hydroph_interaction:TYR:150>  (462) 
0

>  <pistack:TYR:161>  (462) 
1

>  <hydroph_interaction:TYR:161>  (462) 
0

>  <hydroph_interaction:ASP:83>  (462) 
0

>  <hbond:TYR:130>  (462) 
0

>  <hydroph_interaction:ALA:132>  (462) 
1

>  <hbond:HIS:51>  (462) 
0

>  <hbond:ASP:129>  (462) 
0

>  <hbond:TYR:150>  (462) 
0

>  <hbond:GLY:151>  (462) 
0

>  <hbond:TYR:161>  (462) 
0

>  <hydroph_interaction:TYR:130>  (462) 
1

>  <hydroph_interaction:PRO:131>  (462) 
1

>  <hydroph_interaction:ASP:129>  (462) 
0

>  <saltbridge:ASP:75>  (462) 
0

>  <saltbridge:ASP:83>  (462) 
0

>  <hydroph_interaction:ASN:152>  (462) 
0

>  <halogenbond:TYR:150>  (462) 
0

>  <hbond:ASP:83>  (462) 
0

>  <hydroph_interaction:VAL:155>  (462) 
0

>  <pication:TYR:161>  (462) 
0

>  <hbond:PRO:131>  (462) 
0

>  <hbond:LEU:128>  (462) 
0

>  <saltbridge:ASP:129>  (462) 
0

>  <hbond:THR:134>  (462) 
0

>  <pication:HIS:51>  (462) 
0

>  <hbond:SER:81>  (462) 
0

>  <hbond:GLY:159>  (462) 
0

>  <hydroph_interaction:PRO:101>  (462) 
0

>  <hydroph_interaction:THR:134>  (462) 
0

>  <hbond:GLY:82>  (462) 
0

>  <hydroph_interaction:GLU:104>  (462) 
0

>  <hydroph_interaction:VAL:36>  (462) 
0

>  <hydroph_interaction:MET:49>  (462) 
0

>  <halogenbond:GLU:104>  (462) 
0

>  <hydroph_interaction:LYS:107>  (462) 
0

$$$$
Z1541770349
     RDKit          3D

 31 32  0  0  0  0  0  0  0  0999 V2000
  -10.9860    4.9630  -18.5550 C   0  0  0  0  0  0  0  0  0  0  0  0
   -9.7240    5.0100  -17.8120 C   0  0  0  0  0  0  0  0  0  0  0  0
   -9.6360    4.9310  -16.4280 C   0  0  0  0  0  0  0  0  0  0  0  0
   -8.3920    5.0330  -15.8200 C   0  0  0  0  0  0  0  0  0  0  0  0
   -7.2500    5.2170  -16.6720 C   0  0  0  0  0  0  0  0  0  0  0  0
   -6.0030    5.3310  -16.1190 C   0  0  0  0  0  0  0  0  0  0  0  0
   -7.3590    5.2840  -18.0580 C   0  0  0  0  0  0  0  0  0  0  0  0
   -6.2600    5.4620  -18.8800 N   0  0  0  0  0  0  0  0  0  0  0  0
   -6.2300    5.0520  -20.1830 C   0  0  0  0  0  0  0  0  0  0  0  0
   -7.1110    4.4990  -20.8310 O   0  0  0  0  0  0  0  0  0  0  0  0
   -5.0110    5.3050  -20.8000 C   0  0  0  0  0  0  0  0  0  0  0  0
   -4.9680    5.4560  -22.1950 C   0  0  0  0  0  0  0  0  0  0  0  0
   -3.7530    5.7000  -22.8280 C   0  0  0  0  0  0  0  0  0  0  0  0
   -2.5890    5.8010  -22.1570 N   0  0  0  0  0  0  0  0  0  0  0  0
   -2.6510    5.6580  -20.8120 C   0  0  0  0  0  0  0  0  0  0  0  0
   -3.8150    5.4160  -20.0850 C   0  0  0  0  0  0  0  0  0  0  0  0
   -3.6040    5.2520  -18.0260 I   0  0  0  0  0  0  0  0  0  0  0  0
   -8.6030    5.1720  -18.6070 C   0  0  0  0  0  0  0  0  0  0  0  0
  -10.7610    5.1620  -19.6000 H   0  0  0  0  0  0  0  0  0  0  0  0
  -11.5270    4.0380  -18.4450 H   0  0  0  0  0  0  0  0  0  0  0  0
  -11.6130    5.7580  -18.2270 H   0  0  0  0  0  0  0  0  0  0  0  0
  -10.5100    4.7950  -15.8150 H   0  0  0  0  0  0  0  0  0  0  0  0
   -8.3050    4.9760  -14.7380 H   0  0  0  0  0  0  0  0  0  0  0  0
   -6.0590    5.2320  -15.0310 H   0  0  0  0  0  0  0  0  0  0  0  0
   -5.5490    6.3030  -16.3380 H   0  0  0  0  0  0  0  0  0  0  0  0
   -5.3400    4.5610  -16.5210 H   0  0  0  0  0  0  0  0  0  0  0  0
   -5.6920    6.2690  -18.6660 H   0  0  0  0  0  0  0  0  0  0  0  0
   -5.8730    5.3820  -22.7930 H   0  0  0  0  0  0  0  0  0  0  0  0
   -3.6980    5.8180  -23.9070 H   0  0  0  0  0  0  0  0  0  0  0  0
   -1.6930    5.7490  -20.3080 H   0  0  0  0  0  0  0  0  0  0  0  0
   -8.7480    5.2200  -19.6830 H   0  0  0  0  0  0  0  0  0  0  0  0
  1  2  1  0
  2  3  2  0
  3  4  1  0
  4  5  2  0
  5  6  1  0
  5  7  1  0
  7  8  1  0
  8  9  1  0
  9 10  2  0
  9 11  1  0
 11 12  2  0
 12 13  1  0
 13 14  2  0
 14 15  1  0
 15 16  2  0
 16 17  1  0
  7 18  2  0
 18  2  1  0
 16 11  1  0
  1 19  1  0
  1 20  1  0
  1 21  1  0
  3 22  1  0
  4 23  1  0
  6 24  1  0
  6 25  1  0
  6 26  1  0
  8 27  1  0
 12 28  1  0
 13 29  1  0
 15 30  1  0
 18 31  1  0
A    1
 C1 
A    2
 C2 
A    3
 C3 
A    4
 C4 
A    5
 C5 
A    6
 C6 
A    7
 C7 
A    8
 N1 
A    9
 C8 
A   10
 O1 
A   11
 C9 
A   12
 C10
A   13
 C11
A   14
 N2 
A   15
 C12
A   16
 C13
A   17
 I1 
A   18
 C14
A   19
 H1 
A   20
 H2 
A   21
 H3 
A   22
 H4 
A   23
 H5 
A   24
 H6 
A   25
 H7 
A   26
 H8 
A   27
 H9 
A   28
 H10
A   29
 H11
A   30
 H12
A   31
 H13
M  END
>  <ref_pdb>  (463) 
x0051_0B

>  <ref_mols>  (463) 
x0852_0B,x0605_0B

>  <original SMILES>  (463) 
[H]c1nc([H])c(I)c(C(=O)N([H])c2c([H])c(C([H])([H])[H])c([H])c([H])c2C([H])([H])[H])c1[H]

>  <index>  (463) 
647

>  <∆∆G>  (463) 
-7.734349

>  <∆G_bound>  (463) 
-7.646534

>  <∆G_unbound>  (463) 
0.087814

>  <comRMSD>  (463) 
0.827451

>  <N_constrained_atoms>  (463) 
21.0

>  <N_unconstrained_atoms>  (463) 
0.0

>  <runtime>  (463) 
30.892162

>  <LE>  (463) 
0.368302

>  <percent_hybrid>  (463) 
20.0

>  <dist>  (463) 
2.0

>  <ecfp4>  (463) 
0.413793

>  <daylight>  (463) 
0.666667

>  <topodist>  (463) 
1.0

>  <mces>  (463) 
19.0

>  <tdn>  (463) 
1.0

>  <tup>  (463) 
0.0

>  <rdn>  (463) 
0.0

>  <rup>  (463) 
0.0

>  <ldn>  (463) 
0.0

>  <lup>  (463) 
0.0

>  <mut>  (463) 
1.0

>  <maj>  (463) 
0.0

>  <min>  (463) 
1.0

>  <hyb>  (463) 
0.0

>  <sub>  (463) 
1.0

>  <query_index>  (463) 
176.0

>  <max_hit_Tanimoto>  (463) 
0.505319

>  <largest_ring>  (463) 
6

>  <N_interactions_kept>  (463) 
3.0

>  <N_interactions_lost>  (463) 
3.0

>  <interaction_uniqueness_metric>  (463) 
0.095402

>  <ad_hoc_penalty>  (463) 
-17.681382

>  <N_rotatable_bonds>  (463) 
4

>  <N_HA>  (463) 
18

>  <cluster>  (463) 
491

>  <N_interactions>  (463) 
7

>  <Enamine>  (463) 
1

>  <Mcule>  (463) 
0

>  <N_PAINS>  (463) 
0

>  <UFF_Gibbs>  (463) 
92.430495

>  <strain_per_HA>  (463) 
5.135027

>  <saltbridge:HIS:51>  (463) 
0

>  <pistack:HIS:51>  (463) 
0

>  <hydroph_interaction:HIS:51>  (463) 
0

>  <hbond:ALA:132>  (463) 
0

>  <hbond:SER:135>  (463) 
0

>  <hydroph_interaction:TYR:150>  (463) 
1

>  <pistack:TYR:161>  (463) 
0

>  <hydroph_interaction:TYR:161>  (463) 
4

>  <hydroph_interaction:ASP:83>  (463) 
0

>  <hbond:TYR:130>  (463) 
1

>  <hydroph_interaction:ALA:132>  (463) 
0

>  <hbond:HIS:51>  (463) 
0

>  <hbond:ASP:129>  (463) 
0

>  <hbond:TYR:150>  (463) 
0

>  <hbond:GLY:151>  (463) 
0

>  <hbond:TYR:161>  (463) 
0

>  <hydroph_interaction:TYR:130>  (463) 
0

>  <hydroph_interaction:PRO:131>  (463) 
0

>  <hydroph_interaction:ASP:129>  (463) 
1

>  <saltbridge:ASP:75>  (463) 
0

>  <saltbridge:ASP:83>  (463) 
0

>  <hydroph_interaction:ASN:152>  (463) 
0

>  <halogenbond:TYR:150>  (463) 
0

>  <hbond:ASP:83>  (463) 
0

>  <hydroph_interaction:VAL:155>  (463) 
0

>  <pication:TYR:161>  (463) 
0

>  <hbond:PRO:131>  (463) 
0

>  <hbond:LEU:128>  (463) 
0

>  <saltbridge:ASP:129>  (463) 
0

>  <hbond:THR:134>  (463) 
0

>  <pication:HIS:51>  (463) 
0

>  <hbond:SER:81>  (463) 
0

>  <hbond:GLY:159>  (463) 
0

>  <hydroph_interaction:PRO:101>  (463) 
0

>  <hydroph_interaction:THR:134>  (463) 
0

>  <hbond:GLY:82>  (463) 
0

>  <hydroph_interaction:GLU:104>  (463) 
0

>  <hydroph_interaction:VAL:36>  (463) 
0

>  <hydroph_interaction:MET:49>  (463) 
0

>  <halogenbond:GLU:104>  (463) 
0

>  <hydroph_interaction:LYS:107>  (463) 
0

$$$$
CSSB00010426598
     RDKit          3D

 28 30  0  0  0  0  0  0  0  0999 V2000
   -3.1450    5.4610  -15.4760 O   0  0  0  0  0  0  0  0  0  0  0  0
   -4.1740    6.1350  -15.4480 C   0  0  0  0  0  0  0  0  0  0  0  0
   -4.1010    7.3260  -15.1840 O   0  0  0  0  0  0  0  0  0  0  0  0
   -5.4230    5.2930  -15.7650 C   0  0  0  0  0  0  0  0  0  0  0  0
   -6.5150    5.5950  -14.8180 C   0  0  0  0  0  0  0  0  0  0  0  0
   -7.8120    5.1080  -15.1370 C   0  0  0  0  0  0  0  0  0  0  0  0
   -8.2110    5.0480  -16.4820 C   0  0  0  0  0  0  0  0  0  0  0  0
   -9.5440    4.8940  -16.7040 C   0  0  0  0  0  0  0  0  0  0  0  0
   -9.9320    4.8430  -17.9820 C   0  0  0  0  0  0  0  0  0  0  0  0
   -9.1050    4.9370  -19.0940 C   0  0  0  0  0  0  0  0  0  0  0  0
   -7.7360    5.0970  -18.8520 C   0  0  0  0  0  0  0  0  0  0  0  0
   -6.7930    5.2070  -19.8570 C   0  0  0  0  0  0  0  0  0  0  0  0
   -5.4410    5.3580  -19.5930 C   0  0  0  0  0  0  0  0  0  0  0  0
   -4.9670    5.3980  -18.2860 C   0  0  0  0  0  0  0  0  0  0  0  0
   -5.8860    5.2860  -17.2280 C   0  0  0  0  0  0  0  0  0  0  0  0
   -7.2720    5.1460  -17.5150 C   0  0  0  0  0  0  0  0  0  0  0  0
   -2.4610    6.0620  -15.1070 H   0  0  0  0  0  0  0  0  0  0  0  0
   -5.1120    4.2600  -15.5830 H   0  0  0  0  0  0  0  0  0  0  0  0
   -6.2500    5.1210  -13.8650 H   0  0  0  0  0  0  0  0  0  0  0  0
   -6.4680    6.6630  -14.5830 H   0  0  0  0  0  0  0  0  0  0  0  0
   -8.5570    5.6680  -14.5770 H   0  0  0  0  0  0  0  0  0  0  0  0
   -7.9570    4.1380  -14.6740 H   0  0  0  0  0  0  0  0  0  0  0  0
  -10.2600    4.8160  -15.8920 H   0  0  0  0  0  0  0  0  0  0  0  0
  -11.0060    4.7180  -18.1690 H   0  0  0  0  0  0  0  0  0  0  0  0
   -9.5140    4.8900  -20.1030 H   0  0  0  0  0  0  0  0  0  0  0  0
   -7.1270    5.1710  -20.8970 H   0  0  0  0  0  0  0  0  0  0  0  0
   -4.8110    5.4340  -20.4840 H   0  0  0  0  0  0  0  0  0  0  0  0
   -3.8980    5.5090  -18.1170 H   0  0  0  0  0  0  0  0  0  0  0  0
  1  2  1  0
  2  3  2  0
  2  4  1  0
  4  5  1  0
  5  6  1  0
  6  7  1  0
  7  8  1  0
  8  9  2  0
  9 10  1  0
 10 11  2  0
 11 12  1  0
 12 13  2  0
 13 14  1  0
 14 15  2  0
 15 16  1  0
 15  4  1  0
 16  7  2  0
 16 11  1  0
  1 17  1  0
  4 18  1  0
  5 19  1  0
  5 20  1  0
  6 21  1  0
  6 22  1  0
  8 23  1  0
  9 24  1  0
 10 25  1  0
 12 26  1  0
 13 27  1  0
 14 28  1  0
A    1
 O1 
A    2
 C1 
A    3
 O2 
A    4
 C2 
A    5
 C3 
A    6
 C4 
A    7
 C5 
A    8
 C6 
A    9
 C7 
A   10
 C8 
A   11
 C9 
A   12
 C10
A   13
 C11
A   14
 C12
A   15
 C13
A   16
 C14
A   17
 H1 
A   18
 H2 
A   19
 H3 
A   20
 H4 
A   21
 H5 
A   22
 H6 
A   23
 H7 
A   24
 H8 
A   25
 H9 
A   26
 H10
A   27
 H11
A   28
 H12
M  END
>  <ref_pdb>  (464) 
x0051_0B

>  <ref_mols>  (464) 
x0727_0B,x0455_0B

>  <original SMILES>  (464) 
[H]OC(=O)C1([H])c2c([H])c([H])c([H])c3c([H])c([H])c([H])c(c23)C([H])([H])C1([H])[H]

>  <index>  (464) 
696

>  <∆∆G>  (464) 
-7.320766

>  <∆G_bound>  (464) 
-6.950455

>  <∆G_unbound>  (464) 
0.370312

>  <comRMSD>  (464) 
0.394493

>  <N_constrained_atoms>  (464) 
14.0

>  <N_unconstrained_atoms>  (464) 
2.0

>  <runtime>  (464) 
33.804008

>  <LE>  (464) 
0.457548

>  <percent_hybrid>  (464) 
34.0

>  <dist>  (464) 
4.0

>  <ecfp4>  (464) 
0.340426

>  <daylight>  (464) 
0.330357

>  <topodist>  (464) 
2.0

>  <mces>  (464) 
16.0

>  <tdn>  (464) 
0.0

>  <tup>  (464) 
2.0

>  <rdn>  (464) 
0.0

>  <rup>  (464) 
0.0

>  <ldn>  (464) 
0.0

>  <lup>  (464) 
0.0

>  <mut>  (464) 
1.0

>  <maj>  (464) 
1.0

>  <min>  (464) 
0.0

>  <hyb>  (464) 
1.0

>  <sub>  (464) 
0.0

>  <query_index>  (464) 
57.0

>  <max_hit_Tanimoto>  (464) 
0.166149

>  <largest_ring>  (464) 
6

>  <N_interactions_kept>  (464) 
0.0

>  <N_interactions_lost>  (464) 
3.0

>  <interaction_uniqueness_metric>  (464) 
0.047384

>  <ad_hoc_penalty>  (464) 
-17.674924

>  <N_rotatable_bonds>  (464) 
1

>  <N_HA>  (464) 
16

>  <cluster>  (464) 
5580

>  <N_interactions>  (464) 
6

>  <Enamine>  (464) 
1

>  <Mcule>  (464) 
0

>  <N_PAINS>  (464) 
0

>  <UFF_Gibbs>  (464) 
67.219246

>  <strain_per_HA>  (464) 
4.201203

>  <saltbridge:HIS:51>  (464) 
0

>  <pistack:HIS:51>  (464) 
0

>  <hydroph_interaction:HIS:51>  (464) 
0

>  <hbond:ALA:132>  (464) 
0

>  <hbond:SER:135>  (464) 
0

>  <hydroph_interaction:TYR:150>  (464) 
1

>  <pistack:TYR:161>  (464) 
1

>  <hydroph_interaction:TYR:161>  (464) 
4

>  <hydroph_interaction:ASP:83>  (464) 
0

>  <hbond:TYR:130>  (464) 
0

>  <hydroph_interaction:ALA:132>  (464) 
0

>  <hbond:HIS:51>  (464) 
0

>  <hbond:ASP:129>  (464) 
0

>  <hbond:TYR:150>  (464) 
0

>  <hbond:GLY:151>  (464) 
0

>  <hbond:TYR:161>  (464) 
0

>  <hydroph_interaction:TYR:130>  (464) 
0

>  <hydroph_interaction:PRO:131>  (464) 
0

>  <hydroph_interaction:ASP:129>  (464) 
0

>  <saltbridge:ASP:75>  (464) 
0

>  <saltbridge:ASP:83>  (464) 
0

>  <hydroph_interaction:ASN:152>  (464) 
0

>  <halogenbond:TYR:150>  (464) 
0

>  <hbond:ASP:83>  (464) 
0

>  <hydroph_interaction:VAL:155>  (464) 
0

>  <pication:TYR:161>  (464) 
0

>  <hbond:PRO:131>  (464) 
0

>  <hbond:LEU:128>  (464) 
0

>  <saltbridge:ASP:129>  (464) 
0

>  <hbond:THR:134>  (464) 
0

>  <pication:HIS:51>  (464) 
0

>  <hbond:SER:81>  (464) 
0

>  <hbond:GLY:159>  (464) 
0

>  <hydroph_interaction:PRO:101>  (464) 
0

>  <hydroph_interaction:THR:134>  (464) 
0

>  <hbond:GLY:82>  (464) 
0

>  <hydroph_interaction:GLU:104>  (464) 
0

>  <hydroph_interaction:VAL:36>  (464) 
0

>  <hydroph_interaction:MET:49>  (464) 
0

>  <halogenbond:GLU:104>  (464) 
0

>  <hydroph_interaction:LYS:107>  (464) 
0

$$$$
CSSB00012352322
     RDKit          3D

 17 18  0  0  0  0  0  0  0  0999 V2000
   -9.8180    5.6930  -14.7360 Br  0  0  0  0  0  0  0  0  0  0  0  0
   -9.2330    5.3190  -16.5190 C   0  0  0  0  0  0  0  0  0  0  0  0
   -7.9210    5.4790  -16.8340 N   0  0  0  0  0  0  0  0  0  0  0  0
   -7.6030    5.2060  -18.0960 C   0  0  0  0  0  0  0  0  0  0  0  0
   -8.8200    4.7670  -18.9050 C   0  0  0  0  0  0  0  0  0  0  0  0
  -10.2000    4.7850  -17.8600 S   0  0  0  0  0  0  0  0  0  0  0  0
   -6.2240    5.2950  -18.7170 C   0  0  0  0  0  0  0  0  0  0  0  0
   -5.1440    5.3020  -17.8240 C   0  0  0  0  0  0  0  0  0  0  0  0
   -3.7190    5.3880  -18.3740 C   0  0  0  0  0  0  0  0  0  0  0  0
   -3.6760    5.4590  -19.8640 C   0  0  0  0  0  0  0  0  0  0  0  0
   -4.7440    5.4550  -20.6810 N   0  0  0  0  0  0  0  0  0  0  0  0
   -5.9730    5.3710  -20.0920 C   0  0  0  0  0  0  0  0  0  0  0  0
   -8.8240    4.4880  -19.9620 H   0  0  0  0  0  0  0  0  0  0  0  0
   -5.3060    5.2470  -16.7500 H   0  0  0  0  0  0  0  0  0  0  0  0
   -2.8310    5.3980  -17.7480 H   0  0  0  0  0  0  0  0  0  0  0  0
   -2.6510    5.5200  -20.2530 H   0  0  0  0  0  0  0  0  0  0  0  0
   -6.7820    5.3690  -20.8170 H   0  0  0  0  0  0  0  0  0  0  0  0
  1  2  1  0
  2  3  2  0
  3  4  1  0
  4  5  2  0
  5  6  1  0
  4  7  1  0
  7  8  2  0
  8  9  1  0
  9 10  2  0
 10 11  1  0
 11 12  2  0
  6  2  1  0
 12  7  1  0
  5 13  1  0
  8 14  1  0
  9 15  1  0
 10 16  1  0
 12 17  1  0
A    1
BR1 
A    2
 C1 
A    3
 N1 
A    4
 C2 
A    5
 C3 
A    6
 S1 
A    7
 C4 
A    8
 C5 
A    9
 C6 
A   10
 C7 
A   11
 N2 
A   12
 C8 
A   13
 H1 
A   14
 H2 
A   15
 H3 
A   16
 H4 
A   17
 H5 
M  END
>  <ref_pdb>  (465) 
x0051_0B

>  <ref_mols>  (465) 
x0680_0B,x0386_0B

>  <original SMILES>  (465) 
[H]c1nc([H])c(-c2nc(Br)sc2[H])c([H])c1[H]

>  <index>  (465) 
778

>  <∆∆G>  (465) 
-5.483399

>  <∆G_bound>  (465) 
-5.409855

>  <∆G_unbound>  (465) 
0.073544

>  <comRMSD>  (465) 
0.74755

>  <N_constrained_atoms>  (465) 
12.0

>  <N_unconstrained_atoms>  (465) 
1.0

>  <runtime>  (465) 
26.708307

>  <LE>  (465) 
0.4218

>  <percent_hybrid>  (465) 
17.0

>  <dist>  (465) 
3.0

>  <ecfp4>  (465) 
0.230769

>  <daylight>  (465) 
0.364238

>  <topodist>  (465) 
2.0

>  <mces>  (465) 
12.0

>  <tdn>  (465) 
1.0

>  <tup>  (465) 
1.0

>  <rdn>  (465) 
0.0

>  <rup>  (465) 
0.0

>  <ldn>  (465) 
0.0

>  <lup>  (465) 
0.0

>  <mut>  (465) 
1.0

>  <maj>  (465) 
0.0

>  <min>  (465) 
1.0

>  <hyb>  (465) 
0.0

>  <sub>  (465) 
2.0

>  <query_index>  (465) 
296.0

>  <max_hit_Tanimoto>  (465) 
0.122581

>  <largest_ring>  (465) 
6

>  <N_interactions_kept>  (465) 
3.5

>  <N_interactions_lost>  (465) 
0.5

>  <interaction_uniqueness_metric>  (465) 
0.013281

>  <ad_hoc_penalty>  (465) 
-17.674452

>  <N_rotatable_bonds>  (465) 
1

>  <N_HA>  (465) 
12

>  <cluster>  (465) 
5505

>  <N_interactions>  (465) 
2

>  <Enamine>  (465) 
1

>  <Mcule>  (465) 
0

>  <N_PAINS>  (465) 
0

>  <UFF_Gibbs>  (465) 
36.767322

>  <strain_per_HA>  (465) 
3.063944

>  <saltbridge:HIS:51>  (465) 
0

>  <pistack:HIS:51>  (465) 
0

>  <hydroph_interaction:HIS:51>  (465) 
0

>  <hbond:ALA:132>  (465) 
0

>  <hbond:SER:135>  (465) 
0

>  <hydroph_interaction:TYR:150>  (465) 
0

>  <pistack:TYR:161>  (465) 
0

>  <hydroph_interaction:TYR:161>  (465) 
2

>  <hydroph_interaction:ASP:83>  (465) 
0

>  <hbond:TYR:130>  (465) 
0

>  <hydroph_interaction:ALA:132>  (465) 
0

>  <hbond:HIS:51>  (465) 
0

>  <hbond:ASP:129>  (465) 
0

>  <hbond:TYR:150>  (465) 
0

>  <hbond:GLY:151>  (465) 
0

>  <hbond:TYR:161>  (465) 
0

>  <hydroph_interaction:TYR:130>  (465) 
0

>  <hydroph_interaction:PRO:131>  (465) 
0

>  <hydroph_interaction:ASP:129>  (465) 
0

>  <saltbridge:ASP:75>  (465) 
0

>  <saltbridge:ASP:83>  (465) 
0

>  <hydroph_interaction:ASN:152>  (465) 
0

>  <halogenbond:TYR:150>  (465) 
0

>  <hbond:ASP:83>  (465) 
0

>  <hydroph_interaction:VAL:155>  (465) 
0

>  <pication:TYR:161>  (465) 
0

>  <hbond:PRO:131>  (465) 
0

>  <hbond:LEU:128>  (465) 
0

>  <saltbridge:ASP:129>  (465) 
0

>  <hbond:THR:134>  (465) 
0

>  <pication:HIS:51>  (465) 
0

>  <hbond:SER:81>  (465) 
0

>  <hbond:GLY:159>  (465) 
0

>  <hydroph_interaction:PRO:101>  (465) 
0

>  <hydroph_interaction:THR:134>  (465) 
0

>  <hbond:GLY:82>  (465) 
0

>  <hydroph_interaction:GLU:104>  (465) 
0

>  <hydroph_interaction:VAL:36>  (465) 
0

>  <hydroph_interaction:MET:49>  (465) 
0

>  <halogenbond:GLU:104>  (465) 
0

>  <hydroph_interaction:LYS:107>  (465) 
0

$$$$
MCULE-3477994500
     RDKit          3D

 17 18  0  0  0  0  0  0  0  0999 V2000
   -7.9720    5.4190  -16.9200 N   0  0  0  0  0  0  0  0  0  0  0  0
   -9.2160    5.2670  -16.6270 C   0  0  0  0  0  0  0  0  0  0  0  0
   -9.7620    5.5360  -15.0240 Cl  0  0  0  0  0  0  0  0  0  0  0  0
  -10.2510    4.8050  -17.8980 S   0  0  0  0  0  0  0  0  0  0  0  0
   -8.9060    4.8020  -18.9600 C   0  0  0  0  0  0  0  0  0  0  0  0
   -7.7660    5.1570  -18.2540 C   0  0  0  0  0  0  0  0  0  0  0  0
   -6.3640    5.2790  -18.7330 C   0  0  0  0  0  0  0  0  0  0  0  0
   -5.2300    5.2810  -17.7130 C   0  0  0  0  0  0  0  0  0  0  0  0
   -3.8470    5.3970  -18.3330 C   0  0  0  0  0  0  0  0  0  0  0  0
   -3.7110    5.4900  -19.7160 C   0  0  0  0  0  0  0  0  0  0  0  0
   -4.7200    5.4930  -20.6280 N   0  0  0  0  0  0  0  0  0  0  0  0
   -5.9960    5.3940  -20.1940 C   0  0  0  0  0  0  0  0  0  0  0  0
   -9.0340    4.5450  -20.0000 H   0  0  0  0  0  0  0  0  0  0  0  0
   -5.3620    5.2050  -16.6400 H   0  0  0  0  0  0  0  0  0  0  0  0
   -2.9620    5.4070  -17.7010 H   0  0  0  0  0  0  0  0  0  0  0  0
   -2.7210    5.5690  -20.1560 H   0  0  0  0  0  0  0  0  0  0  0  0
   -6.7490    5.3980  -20.9810 H   0  0  0  0  0  0  0  0  0  0  0  0
  1  2  2  0
  2  3  1  0
  2  4  1  0
  4  5  1  0
  5  6  2  0
  6  7  1  0
  7  8  2  0
  8  9  1  0
  9 10  2  0
 10 11  1  0
 11 12  2  0
  6  1  1  0
  7 12  1  0
  5 13  1  0
  8 14  1  0
  9 15  1  0
 10 16  1  0
 12 17  1  0
A    1
 N1 
A    2
 C1 
A    3
CL1 
A    4
 S1 
A    5
 C2 
A    6
 C3 
A    7
 C4 
A    8
 C5 
A    9
 C6 
A   10
 C7 
A   11
 N2 
A   12
 C8 
A   13
 H1 
A   14
 H2 
A   15
 H3 
A   16
 H4 
A   17
 H5 
M  END
>  <ref_pdb>  (466) 
x0051_0B

>  <ref_mols>  (466) 
x0680_0B,x0386_0B

>  <original SMILES>  (466) 
[H]c1nc([H])c(-c2nc(Cl)sc2[H])c([H])c1[H]

>  <index>  (466) 
787

>  <∆∆G>  (466) 
-5.448037

>  <∆G_bound>  (466) 
-5.350337

>  <∆G_unbound>  (466) 
0.0977

>  <comRMSD>  (466) 
0.692251

>  <N_constrained_atoms>  (466) 
12.0

>  <N_unconstrained_atoms>  (466) 
1.0

>  <runtime>  (466) 
25.949947

>  <LE>  (466) 
0.41908

>  <percent_hybrid>  (466) 
17.0

>  <dist>  (466) 
3.0

>  <ecfp4>  (466) 
0.230769

>  <daylight>  (466) 
0.346154

>  <topodist>  (466) 
2.0

>  <mces>  (466) 
12.0

>  <tdn>  (466) 
1.0

>  <tup>  (466) 
1.0

>  <rdn>  (466) 
0.0

>  <rup>  (466) 
0.0

>  <ldn>  (466) 
0.0

>  <lup>  (466) 
0.0

>  <mut>  (466) 
1.0

>  <maj>  (466) 
0.0

>  <min>  (466) 
1.0

>  <hyb>  (466) 
0.0

>  <sub>  (466) 
2.0

>  <query_index>  (466) 
296.0

>  <max_hit_Tanimoto>  (466) 
0.12381

>  <largest_ring>  (466) 
6

>  <N_interactions_kept>  (466) 
3.5

>  <N_interactions_lost>  (466) 
0.5

>  <interaction_uniqueness_metric>  (466) 
0.013281

>  <ad_hoc_penalty>  (466) 
-17.649961

>  <N_rotatable_bonds>  (466) 
1

>  <N_HA>  (466) 
12

>  <cluster>  (466) 
5496

>  <N_interactions>  (466) 
2

>  <Enamine>  (466) 
0

>  <Mcule>  (466) 
1

>  <N_PAINS>  (466) 
0

>  <UFF_Gibbs>  (466) 
35.802941

>  <strain_per_HA>  (466) 
2.983578

>  <saltbridge:HIS:51>  (466) 
0

>  <pistack:HIS:51>  (466) 
0

>  <hydroph_interaction:HIS:51>  (466) 
0

>  <hbond:ALA:132>  (466) 
0

>  <hbond:SER:135>  (466) 
0

>  <hydroph_interaction:TYR:150>  (466) 
0

>  <pistack:TYR:161>  (466) 
0

>  <hydroph_interaction:TYR:161>  (466) 
2

>  <hydroph_interaction:ASP:83>  (466) 
0

>  <hbond:TYR:130>  (466) 
0

>  <hydroph_interaction:ALA:132>  (466) 
0

>  <hbond:HIS:51>  (466) 
0

>  <hbond:ASP:129>  (466) 
0

>  <hbond:TYR:150>  (466) 
0

>  <hbond:GLY:151>  (466) 
0

>  <hbond:TYR:161>  (466) 
0

>  <hydroph_interaction:TYR:130>  (466) 
0

>  <hydroph_interaction:PRO:131>  (466) 
0

>  <hydroph_interaction:ASP:129>  (466) 
0

>  <saltbridge:ASP:75>  (466) 
0

>  <saltbridge:ASP:83>  (466) 
0

>  <hydroph_interaction:ASN:152>  (466) 
0

>  <halogenbond:TYR:150>  (466) 
0

>  <hbond:ASP:83>  (466) 
0

>  <hydroph_interaction:VAL:155>  (466) 
0

>  <pication:TYR:161>  (466) 
0

>  <hbond:PRO:131>  (466) 
0

>  <hbond:LEU:128>  (466) 
0

>  <saltbridge:ASP:129>  (466) 
0

>  <hbond:THR:134>  (466) 
0

>  <pication:HIS:51>  (466) 
0

>  <hbond:SER:81>  (466) 
0

>  <hbond:GLY:159>  (466) 
0

>  <hydroph_interaction:PRO:101>  (466) 
0

>  <hydroph_interaction:THR:134>  (466) 
0

>  <hbond:GLY:82>  (466) 
0

>  <hydroph_interaction:GLU:104>  (466) 
0

>  <hydroph_interaction:VAL:36>  (466) 
0

>  <hydroph_interaction:MET:49>  (466) 
0

>  <halogenbond:GLU:104>  (466) 
0

>  <hydroph_interaction:LYS:107>  (466) 
0

$$$$
Z2368492972
     RDKit          3D

 36 38  0  0  0  0  0  0  0  0999 V2000
   -7.8290    5.2160  -15.1760 C   0  0  0  0  0  0  0  0  0  0  0  0
   -8.2230    5.1300  -16.6520 C   0  0  0  0  0  0  0  0  0  0  0  0
   -7.2850    5.3520  -17.6820 C   0  0  0  0  0  0  0  0  0  0  0  0
   -5.7950    5.6920  -17.5000 C   0  0  0  0  0  0  0  0  0  0  0  0
   -5.1150    5.8200  -16.2500 N   0  0  0  0  0  0  0  0  0  0  0  0
   -5.3800    7.1150  -15.5780 C   0  0  0  0  0  0  0  0  0  0  0  0
   -4.6270    7.2570  -14.4190 C   0  0  0  0  0  0  0  0  0  0  0  0
   -3.8870    6.0310  -14.0200 N   0  0  0  0  0  0  0  0  0  0  0  0
   -3.3900    5.1060  -15.0490 C   0  0  0  0  0  0  0  0  0  0  0  0
   -3.7560    5.5420  -16.3040 C   0  0  1  0  0  0  0  0  0  0  0  0
   -3.3700    4.7130  -17.3470 C   0  0  0  0  0  0  0  0  0  0  0  0
   -5.0490    5.8810  -18.7350 N   0  0  0  0  0  0  0  0  0  0  0  0
   -5.6810    5.7430  -19.8960 C   0  0  0  0  0  0  0  0  0  0  0  0
   -6.9580    5.4420  -20.0790 N   0  0  0  0  0  0  0  0  0  0  0  0
   -7.7160    5.2590  -19.0070 C   0  0  0  0  0  0  0  0  0  0  0  0
   -9.1810    4.9170  -19.2430 C   0  0  0  0  0  0  0  0  0  0  0  0
  -10.0590    4.7110  -18.2040 C   0  0  0  0  0  0  0  0  0  0  0  0
   -9.5750    4.8190  -16.9120 C   0  0  0  0  0  0  0  0  0  0  0  0
   -6.7840    4.9300  -15.0140 H   0  0  0  0  0  0  0  0  0  0  0  0
   -8.4560    4.5550  -14.5700 H   0  0  0  0  0  0  0  0  0  0  0  0
   -7.9520    6.2500  -14.8400 H   0  0  0  0  0  0  0  0  0  0  0  0
   -5.2070    7.9710  -16.2450 H   0  0  0  0  0  0  0  0  0  0  0  0
   -6.4440    7.1480  -15.3170 H   0  0  0  0  0  0  0  0  0  0  0  0
   -5.2570    7.5560  -13.5760 H   0  0  0  0  0  0  0  0  0  0  0  0
   -3.8890    8.0530  -14.5590 H   0  0  0  0  0  0  0  0  0  0  0  0
   -4.4730    5.5170  -13.3610 H   0  0  0  0  0  0  0  0  0  0  0  0
   -2.2970    5.0400  -14.9750 H   0  0  0  0  0  0  0  0  0  0  0  0
   -3.7870    4.1010  -14.8580 H   0  0  0  0  0  0  0  0  0  0  0  0
   -3.1940    6.4750  -16.4420 H   0  0  0  0  0  0  0  0  0  0  0  0
   -4.2270    4.3530  -17.9140 H   0  0  0  0  0  0  0  0  0  0  0  0
   -2.7060    5.2310  -18.0440 H   0  0  0  0  0  0  0  0  0  0  0  0
   -2.8330    3.8530  -16.9520 H   0  0  0  0  0  0  0  0  0  0  0  0
   -5.0880    5.8890  -20.7930 H   0  0  0  0  0  0  0  0  0  0  0  0
   -9.4640    4.8530  -20.2980 H   0  0  0  0  0  0  0  0  0  0  0  0
  -11.1020    4.4700  -18.3950 H   0  0  0  0  0  0  0  0  0  0  0  0
  -10.2600    4.6580  -16.0830 H   0  0  0  0  0  0  0  0  0  0  0  0
  1  2  1  0
  2  3  2  0
  3  4  1  0
  4  5  1  0
  5  6  1  0
  6  7  1  0
  7  8  1  0
  8  9  1  0
  9 10  1  0
 10 11  1  0
  4 12  2  0
 12 13  1  0
 13 14  2  0
 14 15  1  0
 15 16  2  0
 16 17  1  0
 17 18  2  0
 18  2  1  0
 15  3  1  0
 10  5  1  0
  1 19  1  0
  1 20  1  0
  1 21  1  0
  6 22  1  0
  6 23  1  0
  7 24  1  0
  7 25  1  0
  8 26  1  0
  9 27  1  0
  9 28  1  0
 10 29  1  6
 11 30  1  0
 11 31  1  0
 11 32  1  0
 13 33  1  0
 16 34  1  0
 17 35  1  0
 18 36  1  0
A    1
 C1 
A    2
 C2 
A    3
 C3 
A    4
 C4 
A    5
 N1 
A    6
 C5 
A    7
 C6 
A    8
 N2 
A    9
 C7 
A   10
 C8 
A   11
 C9 
A   12
 N3 
A   13
 C10
A   14
 N4 
A   15
 C11
A   16
 C12
A   17
 C13
A   18
 C14
A   19
 H1 
A   20
 H2 
A   21
 H3 
A   22
 H4 
A   23
 H5 
A   24
 H6 
A   25
 H7 
A   26
 H8 
A   27
 H9 
A   28
 H10
A   29
 H11
A   30
 H12
A   31
 H13
A   32
 H14
A   33
 H15
A   34
 H16
A   35
 H17
A   36
 H18
M  END
>  <ref_pdb>  (467) 
x0051_0B

>  <ref_mols>  (467) 
x0429_0B,x0693_0B

>  <original SMILES>  (467) 
[H]c1nc(N2C([H])([H])C([H])([H])N([H])C([H])([H])[C@@]2([H])C([H])([H])[H])c2c(C([H])([H])[H])c([H])c([H])c([H])c2n1

>  <index>  (467) 
364

>  <∆∆G>  (467) 
-6.870771

>  <∆G_bound>  (467) 
-6.815344

>  <∆G_unbound>  (467) 
0.055426

>  <comRMSD>  (467) 
0.564223

>  <N_constrained_atoms>  (467) 
18.0

>  <N_unconstrained_atoms>  (467) 
1.0

>  <runtime>  (467) 
23.231829

>  <LE>  (467) 
0.36162

>  <percent_hybrid>  (467) 
20.0

>  <dist>  (467) 
2.0

>  <ecfp4>  (467) 
0.470588

>  <daylight>  (467) 
0.601695

>  <topodist>  (467) 
1.0

>  <mces>  (467) 
19.0

>  <tdn>  (467) 
0.0

>  <tup>  (467) 
1.0

>  <rdn>  (467) 
0.0

>  <rup>  (467) 
0.0

>  <ldn>  (467) 
0.0

>  <lup>  (467) 
0.0

>  <mut>  (467) 
1.0

>  <maj>  (467) 
1.0

>  <min>  (467) 
0.0

>  <hyb>  (467) 
0.0

>  <sub>  (467) 
1.0

>  <query_index>  (467) 
179.0

>  <max_hit_Tanimoto>  (467) 
0.4

>  <largest_ring>  (467) 
0

>  <N_interactions_kept>  (467) 
2.5

>  <N_interactions_lost>  (467) 
2.0

>  <interaction_uniqueness_metric>  (467) 
0.080468

>  <ad_hoc_penalty>  (467) 
-17.627476

>  <N_rotatable_bonds>  (467) 
3

>  <N_HA>  (467) 
18

>  <cluster>  (467) 
5885

>  <N_interactions>  (467) 
6

>  <Enamine>  (467) 
1

>  <Mcule>  (467) 
0

>  <N_PAINS>  (467) 
0

>  <UFF_Gibbs>  (467) 
163.695594

>  <strain_per_HA>  (467) 
9.0942

>  <saltbridge:HIS:51>  (467) 
0

>  <pistack:HIS:51>  (467) 
0

>  <hydroph_interaction:HIS:51>  (467) 
0

>  <hbond:ALA:132>  (467) 
0

>  <hbond:SER:135>  (467) 
0

>  <hydroph_interaction:TYR:150>  (467) 
1

>  <pistack:TYR:161>  (467) 
2

>  <hydroph_interaction:TYR:161>  (467) 
2

>  <hydroph_interaction:ASP:83>  (467) 
0

>  <hbond:TYR:130>  (467) 
0

>  <hydroph_interaction:ALA:132>  (467) 
0

>  <hbond:HIS:51>  (467) 
0

>  <hbond:ASP:129>  (467) 
0

>  <hbond:TYR:150>  (467) 
0

>  <hbond:GLY:151>  (467) 
0

>  <hbond:TYR:161>  (467) 
0

>  <hydroph_interaction:TYR:130>  (467) 
0

>  <hydroph_interaction:PRO:131>  (467) 
0

>  <hydroph_interaction:ASP:129>  (467) 
0

>  <saltbridge:ASP:75>  (467) 
0

>  <saltbridge:ASP:83>  (467) 
0

>  <hydroph_interaction:ASN:152>  (467) 
0

>  <halogenbond:TYR:150>  (467) 
0

>  <hbond:ASP:83>  (467) 
0

>  <hydroph_interaction:VAL:155>  (467) 
1

>  <pication:TYR:161>  (467) 
0

>  <hbond:PRO:131>  (467) 
0

>  <hbond:LEU:128>  (467) 
0

>  <saltbridge:ASP:129>  (467) 
0

>  <hbond:THR:134>  (467) 
0

>  <pication:HIS:51>  (467) 
0

>  <hbond:SER:81>  (467) 
0

>  <hbond:GLY:159>  (467) 
0

>  <hydroph_interaction:PRO:101>  (467) 
0

>  <hydroph_interaction:THR:134>  (467) 
0

>  <hbond:GLY:82>  (467) 
0

>  <hydroph_interaction:GLU:104>  (467) 
0

>  <hydroph_interaction:VAL:36>  (467) 
0

>  <hydroph_interaction:MET:49>  (467) 
0

>  <halogenbond:GLU:104>  (467) 
0

>  <hydroph_interaction:LYS:107>  (467) 
0

$$$$
MCULE-3562839390
     RDKit          3D

 53 57  0  0  0  0  0  0  0  0999 V2000
   -5.5220    5.5540  -18.3660 N   0  0  0  0  0  0  0  0  0  0  0  0
   -4.7810    6.6770  -18.6640 C   0  0  0  0  0  0  0  0  0  0  0  0
   -4.0090    6.5520  -19.7430 C   0  0  0  0  0  0  0  0  0  0  0  0
   -2.7820    6.6590  -19.7120 O   0  0  0  0  0  0  0  0  0  0  0  0
   -4.8350    6.2920  -20.8220 O   0  0  0  0  0  0  0  0  0  0  0  0
   -5.1380    7.3570  -21.6710 C   0  0  0  0  0  0  0  0  0  0  0  0
   -5.8600    7.0570  -22.8540 C   0  0  0  0  0  0  0  0  0  0  0  0
   -6.2240    8.1140  -23.8330 C   0  0  0  0  0  0  0  0  0  0  0  0
   -5.8630    9.3780  -23.5950 C   0  0  0  0  0  0  0  0  0  0  0  0
   -5.1300    9.6390  -22.3620 C   0  0  0  0  0  0  0  0  0  0  0  0
   -4.7860    8.6950  -21.4510 C   0  0  0  0  0  0  0  0  0  0  0  0
   -6.2070   10.4400  -24.5860 C   0  0  0  0  0  0  0  0  0  0  0  0
   -5.6520   10.0620  -25.7440 N   0  0  0  0  0  0  0  0  0  0  0  0
   -6.2150   10.3020  -26.9640 C   0  0  0  0  0  0  0  0  0  0  0  0
   -5.7140   11.0920  -27.7600 O   0  0  0  0  0  0  0  0  0  0  0  0
   -7.3680    9.6070  -27.2490 C   0  0  0  0  0  0  0  0  0  0  0  0
   -8.7070   10.2860  -27.3360 C   0  0  0  0  0  0  0  0  0  0  0  0
   -9.6450    9.2080  -27.6600 C   0  0  0  0  0  0  0  0  0  0  0  0
   -8.8470    7.9620  -27.7560 C   0  0  0  0  0  0  0  0  0  0  0  0
   -9.5330    6.8050  -28.0640 C   0  0  0  0  0  0  0  0  0  0  0  0
  -11.0200    6.9160  -28.2740 C   0  0  0  0  0  0  0  0  0  0  0  0
  -11.7010    8.1470  -28.1570 C   0  0  0  0  0  0  0  0  0  0  0  0
  -11.0070    9.3190  -27.8460 C   0  0  0  0  0  0  0  0  0  0  0  0
   -7.5270    8.2310  -27.5050 N   0  0  0  0  0  0  0  0  0  0  0  0
   -5.8890    5.3170  -17.0600 C   0  0  0  0  0  0  0  0  0  0  0  0
   -5.2190    5.2700  -16.0440 O   0  0  0  0  0  0  0  0  0  0  0  0
   -7.3590    5.1350  -17.1510 C   0  0  0  0  0  0  0  0  0  0  0  0
   -7.7260    4.9700  -18.5630 C   0  0  0  0  0  0  0  0  0  0  0  0
   -9.1660    4.7690  -18.9850 C   0  0  0  0  0  0  0  0  0  0  0  0
  -10.1290    4.7540  -17.8250 C   0  0  0  0  0  0  0  0  0  0  0  0
   -9.6610    4.9180  -16.4930 C   0  0  0  0  0  0  0  0  0  0  0  0
   -8.3090    5.1040  -16.1530 C   0  0  0  0  0  0  0  0  0  0  0  0
   -6.4560    5.0560  -19.2750 C   0  0  0  0  0  0  0  0  0  0  0  0
   -6.2960    4.7310  -20.4340 O   0  0  0  0  0  0  0  0  0  0  0  0
   -4.3200    7.0990  -17.7810 H   0  0  0  0  0  0  0  0  0  0  0  0
   -5.5120    7.4410  -18.9500 H   0  0  0  0  0  0  0  0  0  0  0  0
   -6.1560    6.0210  -23.0540 H   0  0  0  0  0  0  0  0  0  0  0  0
   -6.7790    7.7660  -24.7120 H   0  0  0  0  0  0  0  0  0  0  0  0
   -4.8320   10.6730  -22.1570 H   0  0  0  0  0  0  0  0  0  0  0  0
   -4.2330    9.0740  -20.5850 H   0  0  0  0  0  0  0  0  0  0  0  0
   -5.7690   11.4030  -24.2980 H   0  0  0  0  0  0  0  0  0  0  0  0
   -7.2810   10.5710  -24.6740 H   0  0  0  0  0  0  0  0  0  0  0  0
   -4.9090    9.3820  -25.6840 H   0  0  0  0  0  0  0  0  0  0  0  0
   -8.9390   11.3360  -27.1900 H   0  0  0  0  0  0  0  0  0  0  0  0
   -9.0290    5.8480  -28.1530 H   0  0  0  0  0  0  0  0  0  0  0  0
  -11.5850    6.0210  -28.5220 H   0  0  0  0  0  0  0  0  0  0  0  0
  -12.7780    8.1900  -28.3130 H   0  0  0  0  0  0  0  0  0  0  0  0
  -11.5210   10.2720  -27.7530 H   0  0  0  0  0  0  0  0  0  0  0  0
   -6.7870    7.5430  -27.5100 H   0  0  0  0  0  0  0  0  0  0  0  0
   -9.4670    4.6480  -20.0200 H   0  0  0  0  0  0  0  0  0  0  0  0
  -11.1930    4.6160  -18.0140 H   0  0  0  0  0  0  0  0  0  0  0  0
  -10.3880    4.8960  -15.6830 H   0  0  0  0  0  0  0  0  0  0  0  0
   -8.0140    5.2250  -15.1160 H   0  0  0  0  0  0  0  0  0  0  0  0
  1  2  1  0
  2  3  1  0
  3  4  2  0
  3  5  1  0
  5  6  1  0
  6  7  2  0
  7  8  1  0
  8  9  2  0
  9 10  1  0
 10 11  2  0
  9 12  1  0
 12 13  1  0
 13 14  1  0
 14 15  2  0
 14 16  1  0
 16 17  2  0
 17 18  1  0
 18 19  2  0
 19 20  1  0
 20 21  2  0
 21 22  1  0
 22 23  2  0
 19 24  1  0
  1 25  1  0
 25 26  2  0
 25 27  1  0
 27 28  2  0
 28 29  1  0
 29 30  2  0
 30 31  1  0
 31 32  2  0
 28 33  1  0
 33 34  2  0
 33  1  1  0
 11  6  1  0
 24 16  1  0
 18 23  1  0
 32 27  1  0
  2 35  1  0
  2 36  1  0
  7 37  1  0
  8 38  1  0
 10 39  1  0
 11 40  1  0
 12 41  1  0
 12 42  1  0
 13 43  1  0
 17 44  1  0
 20 45  1  0
 21 46  1  0
 22 47  1  0
 23 48  1  0
 24 49  1  0
 29 50  1  0
 30 51  1  0
 31 52  1  0
 32 53  1  0
A    1
 N1 
A    2
 C1 
A    3
 C2 
A    4
 O1 
A    5
 O2 
A    6
 C3 
A    7
 C4 
A    8
 C5 
A    9
 C6 
A   10
 C7 
A   11
 C8 
A   12
 C9 
A   13
 N2 
A   14
 C10
A   15
 O3 
A   16
 C11
A   17
 C12
A   18
 C13
A   19
 C14
A   20
 C15
A   21
 C16
A   22
 C17
A   23
 C18
A   24
 N3 
A   25
 C19
A   26
 O4 
A   27
 C20
A   28
 C21
A   29
 C22
A   30
 C23
A   31
 C24
A   32
 C25
A   33
 C26
A   34
 O5 
A   35
 H1 
A   36
 H2 
A   37
 H3 
A   38
 H4 
A   39
 H5 
A   40
 H6 
A   41
 H7 
A   42
 H8 
A   43
 H9 
A   44
 H10
A   45
 H11
A   46
 H12
A   47
 H13
A   48
 H14
A   49
 H15
A   50
 H16
A   51
 H17
A   52
 H18
A   53
 H19
M  END
>  <ref_pdb>  (468) 
x0051_0B

>  <ref_mols>  (468) 
x0846_1B,x0727_0B

>  <original SMILES>  (468) 
[H]c1c([H])c([H])c2c(c1[H])C(=O)N(C([H])([H])C(=O)Oc1c([H])c([H])c(C([H])([H])N([H])C(=O)c3c([H])c4c([H])c([H])c([H])c([H])c4n3[H])c([H])c1[H])C2=O

>  <index>  (468) 
682

>  <∆∆G>  (468) 
-10.074043

>  <∆G_bound>  (468) 
-8.219509

>  <∆G_unbound>  (468) 
1.854534

>  <comRMSD>  (468) 
0.84147

>  <N_constrained_atoms>  (468) 
29.0

>  <N_unconstrained_atoms>  (468) 
6.0

>  <runtime>  (468) 
71.771598

>  <LE>  (468) 
0.28783

>  <percent_hybrid>  (468) 
38.0

>  <dist>  (468) 
11.0

>  <ecfp4>  (468) 
0.164948

>  <daylight>  (468) 
0.359504

>  <topodist>  (468) 
8.0

>  <mces>  (468) 
33.0

>  <tdn>  (468) 
2.0

>  <tup>  (468) 
3.0

>  <rdn>  (468) 
0.0

>  <rup>  (468) 
0.0

>  <ldn>  (468) 
1.0

>  <lup>  (468) 
2.0

>  <mut>  (468) 
3.0

>  <maj>  (468) 
3.0

>  <min>  (468) 
0.0

>  <hyb>  (468) 
0.0

>  <sub>  (468) 
2.0

>  <query_index>  (468) 
17.0

>  <max_hit_Tanimoto>  (468) 
0.238514

>  <largest_ring>  (468) 
6

>  <N_interactions_kept>  (468) 
1.0

>  <N_interactions_lost>  (468) 
2.0

>  <interaction_uniqueness_metric>  (468) 
0.133941

>  <ad_hoc_penalty>  (468) 
-17.623861

>  <N_rotatable_bonds>  (468) 
6

>  <N_HA>  (468) 
34

>  <cluster>  (468) 
5593

>  <N_interactions>  (468) 
5

>  <Enamine>  (468) 
0

>  <Mcule>  (468) 
1

>  <N_PAINS>  (468) 
0

>  <UFF_Gibbs>  (468) 
180.730453

>  <strain_per_HA>  (468) 
5.315602

>  <saltbridge:HIS:51>  (468) 
0

>  <pistack:HIS:51>  (468) 
0

>  <hydroph_interaction:HIS:51>  (468) 
0

>  <hbond:ALA:132>  (468) 
0

>  <hbond:SER:135>  (468) 
0

>  <hydroph_interaction:TYR:150>  (468) 
1

>  <pistack:TYR:161>  (468) 
0

>  <hydroph_interaction:TYR:161>  (468) 
2

>  <hydroph_interaction:ASP:83>  (468) 
0

>  <hbond:TYR:130>  (468) 
0

>  <hydroph_interaction:ALA:132>  (468) 
0

>  <hbond:HIS:51>  (468) 
0

>  <hbond:ASP:129>  (468) 
0

>  <hbond:TYR:150>  (468) 
0

>  <hbond:GLY:151>  (468) 
0

>  <hbond:TYR:161>  (468) 
0

>  <hydroph_interaction:TYR:130>  (468) 
1

>  <hydroph_interaction:PRO:131>  (468) 
1

>  <hydroph_interaction:ASP:129>  (468) 
0

>  <saltbridge:ASP:75>  (468) 
0

>  <saltbridge:ASP:83>  (468) 
0

>  <hydroph_interaction:ASN:152>  (468) 
0

>  <halogenbond:TYR:150>  (468) 
0

>  <hbond:ASP:83>  (468) 
0

>  <hydroph_interaction:VAL:155>  (468) 
0

>  <pication:TYR:161>  (468) 
0

>  <hbond:PRO:131>  (468) 
0

>  <hbond:LEU:128>  (468) 
0

>  <saltbridge:ASP:129>  (468) 
0

>  <hbond:THR:134>  (468) 
0

>  <pication:HIS:51>  (468) 
0

>  <hbond:SER:81>  (468) 
0

>  <hbond:GLY:159>  (468) 
0

>  <hydroph_interaction:PRO:101>  (468) 
0

>  <hydroph_interaction:THR:134>  (468) 
0

>  <hbond:GLY:82>  (468) 
0

>  <hydroph_interaction:GLU:104>  (468) 
0

>  <hydroph_interaction:VAL:36>  (468) 
0

>  <hydroph_interaction:MET:49>  (468) 
0

>  <halogenbond:GLU:104>  (468) 
0

>  <hydroph_interaction:LYS:107>  (468) 
0

$$$$
MCULE-2393034325
     RDKit          3D

 48 50  0  0  0  0  0  0  0  0999 V2000
   -6.6010    6.3420  -19.3770 C   0  0  0  0  0  0  0  0  0  0  0  0
   -5.7700    6.1360  -18.2420 C   0  0  0  0  0  0  0  0  0  0  0  0
   -6.2230    5.4320  -17.0740 C   0  0  0  0  0  0  0  0  0  0  0  0
   -5.4440    5.1670  -15.8200 C   0  0  0  0  0  0  0  0  0  0  0  0
   -7.6350    4.8850  -17.0520 C   0  0  0  0  0  0  0  0  0  0  0  0
   -8.4330    5.0680  -18.1530 C   0  0  0  0  0  0  0  0  0  0  0  0
   -9.7450    4.5780  -18.1690 C   0  0  0  0  0  0  0  0  0  0  0  0
   -7.9180    5.7640  -19.2570 C   0  0  0  0  0  0  0  0  0  0  0  0
   -6.2460    7.1180  -20.6120 C   0  0  0  0  0  0  0  0  0  0  0  0
   -6.0470    8.6270  -20.5420 C   0  0  0  0  0  0  0  0  0  0  0  0
   -5.7980    9.4230  -21.7020 C   0  0  0  0  0  0  0  0  0  0  0  0
   -5.7250    8.8680  -22.9870 C   0  0  0  0  0  0  0  0  0  0  0  0
   -5.5300    9.6880  -24.1330 C   0  0  0  0  0  0  0  0  0  0  0  0
   -5.7000    9.1010  -25.5600 C   0  0  0  0  0  0  0  0  0  0  0  0
   -6.9580    9.5000  -26.3390 C   0  0  0  0  0  0  0  0  0  0  0  0
   -7.5140   10.5780  -26.1880 O   0  0  0  0  0  0  0  0  0  0  0  0
   -7.3840    8.5170  -27.2250 N   0  0  0  0  0  0  0  0  0  0  0  0
   -8.7300    8.3890  -27.6000 C   0  0  0  0  0  0  0  0  0  0  0  0
   -9.5780    9.4900  -27.6020 C   0  0  0  0  0  0  0  0  0  0  0  0
  -10.9170    9.3520  -27.9470 C   0  0  0  0  0  0  0  0  0  0  0  0
  -11.4280    8.1100  -28.3040 C   0  0  0  0  0  0  0  0  0  0  0  0
  -10.5880    6.9980  -28.3190 C   0  0  0  0  0  0  0  0  0  0  0  0
   -9.2410    7.1340  -27.9660 C   0  0  0  0  0  0  0  0  0  0  0  0
   -5.8630    7.4770  -23.0740 C   0  0  0  0  0  0  0  0  0  0  0  0
   -5.7840    6.9310  -24.2930 F   0  0  0  0  0  0  0  0  0  0  0  0
   -6.1000    6.6190  -21.9510 C   0  0  0  0  0  0  0  0  0  0  0  0
   -4.7640    6.5300  -18.2400 H   0  0  0  0  0  0  0  0  0  0  0  0
   -4.5180    4.6370  -16.0630 H   0  0  0  0  0  0  0  0  0  0  0  0
   -5.1510    6.0240  -15.2200 H   0  0  0  0  0  0  0  0  0  0  0  0
   -6.0470    4.5180  -15.1750 H   0  0  0  0  0  0  0  0  0  0  0  0
   -8.0070    4.3550  -16.1790 H   0  0  0  0  0  0  0  0  0  0  0  0
  -10.2490    4.4880  -17.2160 H   0  0  0  0  0  0  0  0  0  0  0  0
  -10.3560    5.2250  -18.8030 H   0  0  0  0  0  0  0  0  0  0  0  0
   -9.7490    3.5820  -18.6160 H   0  0  0  0  0  0  0  0  0  0  0  0
   -8.6050    5.8700  -20.0620 H   0  0  0  0  0  0  0  0  0  0  0  0
   -6.1130    9.1300  -19.5780 H   0  0  0  0  0  0  0  0  0  0  0  0
   -5.6790   10.4980  -21.5770 H   0  0  0  0  0  0  0  0  0  0  0  0
   -6.2100   10.5450  -24.0400 H   0  0  0  0  0  0  0  0  0  0  0  0
   -4.5190   10.1130  -24.0870 H   0  0  0  0  0  0  0  0  0  0  0  0
   -4.8590    9.4070  -26.1880 H   0  0  0  0  0  0  0  0  0  0  0  0
   -5.6520    8.0130  -25.4950 H   0  0  0  0  0  0  0  0  0  0  0  0
   -6.7050    8.1780  -27.8950 H   0  0  0  0  0  0  0  0  0  0  0  0
   -9.2300   10.4810  -27.3310 H   0  0  0  0  0  0  0  0  0  0  0  0
  -11.5610   10.2230  -27.9350 H   0  0  0  0  0  0  0  0  0  0  0  0
  -12.4770    8.0120  -28.5730 H   0  0  0  0  0  0  0  0  0  0  0  0
  -10.9790    6.0240  -28.6000 H   0  0  0  0  0  0  0  0  0  0  0  0
   -8.6070    6.2510  -27.9780 H   0  0  0  0  0  0  0  0  0  0  0  0
   -6.2020    5.5530  -22.1460 H   0  0  0  0  0  0  0  0  0  0  0  0
  1  2  2  0
  2  3  1  0
  3  4  1  0
  3  5  2  0
  5  6  1  0
  6  7  1  0
  6  8  2  0
  1  9  1  0
  9 10  2  0
 10 11  1  0
 11 12  2  0
 12 13  1  0
 13 14  1  0
 14 15  1  0
 15 16  2  0
 15 17  1  0
 17 18  1  0
 18 19  2  0
 19 20  1  0
 20 21  2  0
 21 22  1  0
 22 23  2  0
 12 24  1  0
 24 25  1  0
 24 26  2  0
  8  1  1  0
 26  9  1  0
 18 23  1  0
  2 27  1  0
  4 28  1  0
  4 29  1  0
  4 30  1  0
  5 31  1  0
  7 32  1  0
  7 33  1  0
  7 34  1  0
  8 35  1  0
 10 36  1  0
 11 37  1  0
 13 38  1  0
 13 39  1  0
 14 40  1  0
 14 41  1  0
 17 42  1  0
 19 43  1  0
 20 44  1  0
 21 45  1  0
 22 46  1  0
 23 47  1  0
 26 48  1  0
A    1
 C1 
A    2
 C2 
A    3
 C3 
A    4
 C4 
A    5
 C5 
A    6
 C6 
A    7
 C7 
A    8
 C8 
A    9
 C9 
A   10
 C10
A   11
 C11
A   12
 C12
A   13
 C13
A   14
 C14
A   15
 C15
A   16
 O1 
A   17
 N1 
A   18
 C16
A   19
 C17
A   20
 C18
A   21
 C19
A   22
 C20
A   23
 C21
A   24
 C22
A   25
 F1 
A   26
 C23
A   27
 H1 
A   28
 H2 
A   29
 H3 
A   30
 H4 
A   31
 H5 
A   32
 H6 
A   33
 H7 
A   34
 H8 
A   35
 H9 
A   36
 H10
A   37
 H11
A   38
 H12
A   39
 H13
A   40
 H14
A   41
 H15
A   42
 H16
A   43
 H17
A   44
 H18
A   45
 H19
A   46
 H20
A   47
 H21
A   48
 H22
M  END
>  <ref_pdb>  (469) 
x0051_0B

>  <ref_mols>  (469) 
x0846_1B,x0605_0B

>  <original SMILES>  (469) 
[H]c1c([H])c([H])c(N([H])C(=O)C([H])([H])C([H])([H])c2c([H])c([H])c(-c3c([H])c(C([H])([H])[H])c([H])c(C([H])([H])[H])c3[H])c([H])c2F)c([H])c1[H]

>  <index>  (469) 
534

>  <∆∆G>  (469) 
-9.105999

>  <∆G_bound>  (469) 
-8.756827

>  <∆G_unbound>  (469) 
0.349172

>  <comRMSD>  (469) 
0.997348

>  <N_constrained_atoms>  (469) 
27.0

>  <N_unconstrained_atoms>  (469) 
0.0

>  <runtime>  (469) 
61.433818

>  <LE>  (469) 
0.337259

>  <percent_hybrid>  (469) 
34.0

>  <dist>  (469) 
8.0

>  <ecfp4>  (469) 
0.188235

>  <daylight>  (469) 
0.110599

>  <topodist>  (469) 
4.0

>  <mces>  (469) 
28.0

>  <tdn>  (469) 
1.0

>  <tup>  (469) 
0.0

>  <rdn>  (469) 
1.0

>  <rup>  (469) 
0.0

>  <ldn>  (469) 
2.0

>  <lup>  (469) 
0.0

>  <mut>  (469) 
3.0

>  <maj>  (469) 
3.0

>  <min>  (469) 
0.0

>  <hyb>  (469) 
1.0

>  <sub>  (469) 
1.0

>  <query_index>  (469) 
88.0

>  <max_hit_Tanimoto>  (469) 
0.148055

>  <largest_ring>  (469) 
6

>  <N_interactions_kept>  (469) 
0.0

>  <N_interactions_lost>  (469) 
2.5

>  <interaction_uniqueness_metric>  (469) 
0.168994

>  <ad_hoc_penalty>  (469) 
-17.603717

>  <N_rotatable_bonds>  (469) 
7

>  <N_HA>  (469) 
26

>  <cluster>  (469) 
5730

>  <N_interactions>  (469) 
7

>  <Enamine>  (469) 
0

>  <Mcule>  (469) 
1

>  <N_PAINS>  (469) 
0

>  <UFF_Gibbs>  (469) 
198.697541

>  <strain_per_HA>  (469) 
7.642213

>  <saltbridge:HIS:51>  (469) 
0

>  <pistack:HIS:51>  (469) 
0

>  <hydroph_interaction:HIS:51>  (469) 
0

>  <hbond:ALA:132>  (469) 
0

>  <hbond:SER:135>  (469) 
0

>  <hydroph_interaction:TYR:150>  (469) 
1

>  <pistack:TYR:161>  (469) 
1

>  <hydroph_interaction:TYR:161>  (469) 
2

>  <hydroph_interaction:ASP:83>  (469) 
0

>  <hbond:TYR:130>  (469) 
0

>  <hydroph_interaction:ALA:132>  (469) 
1

>  <hbond:HIS:51>  (469) 
0

>  <hbond:ASP:129>  (469) 
0

>  <hbond:TYR:150>  (469) 
0

>  <hbond:GLY:151>  (469) 
0

>  <hbond:TYR:161>  (469) 
0

>  <hydroph_interaction:TYR:130>  (469) 
1

>  <hydroph_interaction:PRO:131>  (469) 
1

>  <hydroph_interaction:ASP:129>  (469) 
0

>  <saltbridge:ASP:75>  (469) 
0

>  <saltbridge:ASP:83>  (469) 
0

>  <hydroph_interaction:ASN:152>  (469) 
0

>  <halogenbond:TYR:150>  (469) 
0

>  <hbond:ASP:83>  (469) 
0

>  <hydroph_interaction:VAL:155>  (469) 
0

>  <pication:TYR:161>  (469) 
0

>  <hbond:PRO:131>  (469) 
0

>  <hbond:LEU:128>  (469) 
0

>  <saltbridge:ASP:129>  (469) 
0

>  <hbond:THR:134>  (469) 
0

>  <pication:HIS:51>  (469) 
0

>  <hbond:SER:81>  (469) 
0

>  <hbond:GLY:159>  (469) 
0

>  <hydroph_interaction:PRO:101>  (469) 
0

>  <hydroph_interaction:THR:134>  (469) 
0

>  <hbond:GLY:82>  (469) 
0

>  <hydroph_interaction:GLU:104>  (469) 
0

>  <hydroph_interaction:VAL:36>  (469) 
0

>  <hydroph_interaction:MET:49>  (469) 
0

>  <halogenbond:GLU:104>  (469) 
0

>  <hydroph_interaction:LYS:107>  (469) 
0

$$$$
CSSB00011516059
     RDKit          3D

 24 25  0  0  0  0  0  0  0  0999 V2000
   -6.7370    5.2240  -19.9620 C   0  0  0  0  0  0  0  0  0  0  0  0
   -7.6480    5.1150  -18.7680 C   0  0  0  0  0  0  0  0  0  0  0  0
   -9.0910    4.7950  -19.0910 C   0  0  0  0  0  0  0  0  0  0  0  0
   -9.4520    4.6400  -20.3500 F   0  0  0  0  0  0  0  0  0  0  0  0
  -10.0230    4.6720  -18.0670 C   0  0  0  0  0  0  0  0  0  0  0  0
   -9.5780    4.8520  -16.7620 C   0  0  0  0  0  0  0  0  0  0  0  0
   -8.2510    5.1460  -16.5070 C   0  0  0  0  0  0  0  0  0  0  0  0
   -7.2500    5.2850  -17.4630 C   0  0  0  0  0  0  0  0  0  0  0  0
   -5.9210    5.5790  -17.1670 N   0  0  0  0  0  0  0  0  0  0  0  0
   -5.6730    6.0930  -15.8430 C   0  0  0  0  0  0  0  0  0  0  0  0
   -6.5040    5.2220  -14.9070 C   0  0  0  0  0  0  0  0  0  0  0  0
   -7.8800    5.3220  -15.1710 C   0  0  0  0  0  0  0  0  0  0  0  0
   -7.1140    4.6110  -20.7840 H   0  0  0  0  0  0  0  0  0  0  0  0
   -6.7140    6.2660  -20.2990 H   0  0  0  0  0  0  0  0  0  0  0  0
   -5.7200    4.9340  -19.6900 H   0  0  0  0  0  0  0  0  0  0  0  0
  -11.0620    4.4440  -18.2920 H   0  0  0  0  0  0  0  0  0  0  0  0
  -10.2660    4.7650  -15.9320 H   0  0  0  0  0  0  0  0  0  0  0  0
   -5.4690    6.1210  -17.8990 H   0  0  0  0  0  0  0  0  0  0  0  0
   -5.9070    7.1510  -15.9000 H   0  0  0  0  0  0  0  0  0  0  0  0
   -4.5950    6.0870  -15.7100 H   0  0  0  0  0  0  0  0  0  0  0  0
   -6.3150    5.5320  -13.8710 H   0  0  0  0  0  0  0  0  0  0  0  0
   -6.1910    4.1830  -14.9820 H   0  0  0  0  0  0  0  0  0  0  0  0
   -8.4080    4.5610  -14.5800 H   0  0  0  0  0  0  0  0  0  0  0  0
   -8.2240    6.3000  -14.8210 H   0  0  0  0  0  0  0  0  0  0  0  0
  1  2  1  0
  2  3  2  0
  3  4  1  0
  3  5  1  0
  5  6  2  0
  6  7  1  0
  7  8  2  0
  8  9  1  0
  9 10  1  0
 10 11  1  0
 11 12  1  0
  8  2  1  0
 12  7  1  0
  1 13  1  0
  1 14  1  0
  1 15  1  0
  5 16  1  0
  6 17  1  0
  9 18  1  0
 10 19  1  0
 10 20  1  0
 11 21  1  0
 11 22  1  0
 12 23  1  0
 12 24  1  0
A    1
 C1 
A    2
 C2 
A    3
 C3 
A    4
 F1 
A    5
 C4 
A    6
 C5 
A    7
 C6 
A    8
 C7 
A    9
 N1 
A   10
 C8 
A   11
 C9 
A   12
 C10
A   13
 H1 
A   14
 H2 
A   15
 H3 
A   16
 H4 
A   17
 H5 
A   18
 H6 
A   19
 H7 
A   20
 H8 
A   21
 H9 
A   22
 H10
A   23
 H11
A   24
 H12
M  END
>  <ref_pdb>  (470) 
x0051_0B

>  <ref_mols>  (470) 
x0455_0B,x0382_0B

>  <original SMILES>  (470) 
[H]c1c([H])c2c(c(C([H])([H])[H])c1F)N([H])C([H])([H])C([H])([H])C2([H])[H]

>  <index>  (470) 
773

>  <∆∆G>  (470) 
-5.411856

>  <∆G_bound>  (470) 
-5.39978

>  <∆G_unbound>  (470) 
0.012075

>  <comRMSD>  (470) 
0.429245

>  <N_constrained_atoms>  (470) 
11.0

>  <N_unconstrained_atoms>  (470) 
1.0

>  <runtime>  (470) 
19.016187

>  <LE>  (470) 
0.450988

>  <percent_hybrid>  (470) 
20.0

>  <dist>  (470) 
3.0

>  <ecfp4>  (470) 
0.311111

>  <daylight>  (470) 
0.38961

>  <topodist>  (470) 
2.0

>  <mces>  (470) 
12.0

>  <tdn>  (470) 
1.0

>  <tup>  (470) 
1.0

>  <rdn>  (470) 
0.0

>  <rup>  (470) 
0.0

>  <ldn>  (470) 
0.0

>  <lup>  (470) 
0.0

>  <mut>  (470) 
1.0

>  <maj>  (470) 
1.0

>  <min>  (470) 
0.0

>  <hyb>  (470) 
0.0

>  <sub>  (470) 
2.0

>  <query_index>  (470) 
293.0

>  <max_hit_Tanimoto>  (470) 
0.31811

>  <largest_ring>  (470) 
6

>  <N_interactions_kept>  (470) 
0.0

>  <N_interactions_lost>  (470) 
1.5

>  <interaction_uniqueness_metric>  (470) 
0.041883

>  <ad_hoc_penalty>  (470) 
-17.555948

>  <N_rotatable_bonds>  (470) 
1

>  <N_HA>  (470) 
12

>  <cluster>  (470) 
5510

>  <N_interactions>  (470) 
4

>  <Enamine>  (470) 
1

>  <Mcule>  (470) 
0

>  <N_PAINS>  (470) 
0

>  <UFF_Gibbs>  (470) 
42.424613

>  <strain_per_HA>  (470) 
3.535384

>  <saltbridge:HIS:51>  (470) 
0

>  <pistack:HIS:51>  (470) 
0

>  <hydroph_interaction:HIS:51>  (470) 
0

>  <hbond:ALA:132>  (470) 
0

>  <hbond:SER:135>  (470) 
0

>  <hydroph_interaction:TYR:150>  (470) 
1

>  <pistack:TYR:161>  (470) 
1

>  <hydroph_interaction:TYR:161>  (470) 
2

>  <hydroph_interaction:ASP:83>  (470) 
0

>  <hbond:TYR:130>  (470) 
0

>  <hydroph_interaction:ALA:132>  (470) 
0

>  <hbond:HIS:51>  (470) 
0

>  <hbond:ASP:129>  (470) 
0

>  <hbond:TYR:150>  (470) 
0

>  <hbond:GLY:151>  (470) 
0

>  <hbond:TYR:161>  (470) 
0

>  <hydroph_interaction:TYR:130>  (470) 
0

>  <hydroph_interaction:PRO:131>  (470) 
0

>  <hydroph_interaction:ASP:129>  (470) 
0

>  <saltbridge:ASP:75>  (470) 
0

>  <saltbridge:ASP:83>  (470) 
0

>  <hydroph_interaction:ASN:152>  (470) 
0

>  <halogenbond:TYR:150>  (470) 
0

>  <hbond:ASP:83>  (470) 
0

>  <hydroph_interaction:VAL:155>  (470) 
0

>  <pication:TYR:161>  (470) 
0

>  <hbond:PRO:131>  (470) 
0

>  <hbond:LEU:128>  (470) 
0

>  <saltbridge:ASP:129>  (470) 
0

>  <hbond:THR:134>  (470) 
0

>  <pication:HIS:51>  (470) 
0

>  <hbond:SER:81>  (470) 
0

>  <hbond:GLY:159>  (470) 
0

>  <hydroph_interaction:PRO:101>  (470) 
0

>  <hydroph_interaction:THR:134>  (470) 
0

>  <hbond:GLY:82>  (470) 
0

>  <hydroph_interaction:GLU:104>  (470) 
0

>  <hydroph_interaction:VAL:36>  (470) 
0

>  <hydroph_interaction:MET:49>  (470) 
0

>  <halogenbond:GLU:104>  (470) 
0

>  <hydroph_interaction:LYS:107>  (470) 
0

$$$$
OIHXZMSINZKCOY-UHFFFAOYSA-N
     RDKit          3D

 42 45  0  0  0  0  0  0  0  0999 V2000
   -5.6890   10.0790  -24.6500 C   0  0  0  0  0  0  0  0  0  0  0  0
   -5.7310    9.5020  -25.9230 N   0  0  0  0  0  0  0  0  0  0  0  0
   -7.0010    9.2550  -26.5950 C   0  0  0  0  0  0  0  0  0  0  0  0
   -8.1150   10.4820  -26.9850 S   0  0  0  0  0  0  0  0  0  0  0  0
   -9.2440    9.3470  -27.6190 C   0  0  0  0  0  0  0  0  0  0  0  0
   -8.6690    8.0950  -27.5230 C   0  0  0  0  0  0  0  0  0  0  0  0
   -9.4320    6.8600  -28.0210 C   0  0  0  0  0  0  0  0  0  0  0  0
  -10.8080    7.1320  -28.5790 C   0  0  0  0  0  0  0  0  0  0  0  0
  -11.2870    8.4400  -28.6140 C   0  0  0  0  0  0  0  0  0  0  0  0
  -10.5370    9.5420  -28.1530 C   0  0  0  0  0  0  0  0  0  0  0  0
   -7.3390    8.0340  -26.9250 N   0  0  0  0  0  0  0  0  0  0  0  0
   -5.6080   11.2780  -24.4080 O   0  0  0  0  0  0  0  0  0  0  0  0
   -5.7410    9.1560  -23.4460 C   0  0  0  0  0  0  0  0  0  0  0  0
   -5.9190    7.7690  -23.5920 C   0  0  0  0  0  0  0  0  0  0  0  0
   -5.9840    6.9240  -22.4790 C   0  0  0  0  0  0  0  0  0  0  0  0
   -5.8850    7.4080  -21.1470 C   0  0  0  0  0  0  0  0  0  0  0  0
   -5.9890    6.5570  -19.8890 C   0  0  0  0  0  0  0  0  0  0  0  0
   -4.8450    6.1350  -19.1600 C   0  0  0  0  0  0  0  0  0  0  0  0
   -4.9670    5.3840  -17.9870 C   0  0  0  0  0  0  0  0  0  0  0  0
   -6.3420    5.0070  -17.4780 C   0  0  0  0  0  0  0  0  0  0  0  0
   -7.4530    5.4050  -18.1940 C   0  0  0  0  0  0  0  0  0  0  0  0
   -8.7590    5.1290  -17.8500 O   0  0  0  0  0  0  0  0  0  0  0  0
   -9.6550    4.7030  -18.8710 C   0  0  0  0  0  0  0  0  0  0  0  0
   -7.2640    6.1610  -19.3710 C   0  0  0  0  0  0  0  0  0  0  0  0
   -5.6880    8.8080  -21.0280 C   0  0  0  0  0  0  0  0  0  0  0  0
   -5.6160    9.6630  -22.1480 C   0  0  0  0  0  0  0  0  0  0  0  0
   -4.9010    9.5600  -26.4940 H   0  0  0  0  0  0  0  0  0  0  0  0
   -9.0080    5.8630  -27.9660 H   0  0  0  0  0  0  0  0  0  0  0  0
  -11.4170    6.3110  -28.9480 H   0  0  0  0  0  0  0  0  0  0  0  0
  -12.2820    8.6250  -29.0160 H   0  0  0  0  0  0  0  0  0  0  0  0
  -10.9580   10.5420  -28.2070 H   0  0  0  0  0  0  0  0  0  0  0  0
   -6.0130    7.3370  -24.5870 H   0  0  0  0  0  0  0  0  0  0  0  0
   -6.1290    5.8570  -22.6540 H   0  0  0  0  0  0  0  0  0  0  0  0
   -3.8490    6.4020  -19.5070 H   0  0  0  0  0  0  0  0  0  0  0  0
   -4.0790    5.0750  -17.4410 H   0  0  0  0  0  0  0  0  0  0  0  0
   -6.4160    4.4320  -16.5660 H   0  0  0  0  0  0  0  0  0  0  0  0
   -9.5520    5.3130  -19.7760 H   0  0  0  0  0  0  0  0  0  0  0  0
  -10.6760    4.8380  -18.4980 H   0  0  0  0  0  0  0  0  0  0  0  0
   -9.5160    3.6430  -19.0930 H   0  0  0  0  0  0  0  0  0  0  0  0
   -8.1560    6.4610  -19.8970 H   0  0  0  0  0  0  0  0  0  0  0  0
   -5.5940    9.2490  -20.0370 H   0  0  0  0  0  0  0  0  0  0  0  0
   -5.4690   10.7260  -21.9730 H   0  0  0  0  0  0  0  0  0  0  0  0
  1  2  1  0
  2  3  1  0
  3  4  1  0
  4  5  1  0
  5  6  2  0
  6  7  1  0
  7  8  2  0
  8  9  1  0
  9 10  2  0
  6 11  1  0
  1 12  2  0
  1 13  1  0
 13 14  2  0
 14 15  1  0
 15 16  2  0
 16 17  1  0
 17 18  2  0
 18 19  1  0
 19 20  2  0
 20 21  1  0
 21 22  1  0
 22 23  1  0
 21 24  2  0
 16 25  1  0
 25 26  2  0
  3 11  2  0
 10  5  1  0
 26 13  1  0
 17 24  1  0
  2 27  1  0
  7 28  1  0
  8 29  1  0
  9 30  1  0
 10 31  1  0
 14 32  1  0
 15 33  1  0
 18 34  1  0
 19 35  1  0
 20 36  1  0
 23 37  1  0
 23 38  1  0
 23 39  1  0
 24 40  1  0
 25 41  1  0
 26 42  1  0
A    1
 C1 
A    2
 N1 
A    3
 C2 
A    4
 S1 
A    5
 C3 
A    6
 C4 
A    7
 C5 
A    8
 C6 
A    9
 C7 
A   10
 C8 
A   11
 N2 
A   12
 O1 
A   13
 C9 
A   14
 C10
A   15
 C11
A   16
 C12
A   17
 C13
A   18
 C14
A   19
 C15
A   20
 C16
A   21
 C17
A   22
 O2 
A   23
 C18
A   24
 C19
A   25
 C20
A   26
 C21
A   27
 H1 
A   28
 H2 
A   29
 H3 
A   30
 H4 
A   31
 H5 
A   32
 H6 
A   33
 H7 
A   34
 H8 
A   35
 H9 
A   36
 H10
A   37
 H11
A   38
 H12
A   39
 H13
A   40
 H14
A   41
 H15
A   42
 H16
M  END
>  <ref_pdb>  (471) 
x0051_0B

>  <ref_mols>  (471) 
x0846_1B,x0425_0B

>  <original SMILES>  (471) 
[H]c1c([H])c(OC([H])([H])[H])c([H])c(-c2c([H])c([H])c(C(=O)N([H])c3nc4c([H])c([H])c([H])c([H])c4s3)c([H])c2[H])c1[H]

>  <index>  (471) 
937

>  <∆∆G>  (471) 
-9.220306

>  <∆G_bound>  (471) 
-9.078654

>  <∆G_unbound>  (471) 
0.141652

>  <comRMSD>  (471) 
0.660882

>  <N_constrained_atoms>  (471) 
27.0

>  <N_unconstrained_atoms>  (471) 
1.0

>  <runtime>  (471) 
71.094326

>  <LE>  (471) 
0.329297

>  <percent_hybrid>  (471) 
34.0

>  <dist>  (471) 
10.0

>  <ecfp4>  (471) 
0.147368

>  <daylight>  (471) 
0.312

>  <topodist>  (471) 
6.0

>  <mces>  (471) 
28.0

>  <tdn>  (471) 
4.0

>  <tup>  (471) 
1.0

>  <rdn>  (471) 
0.0

>  <rup>  (471) 
0.0

>  <ldn>  (471) 
1.0

>  <lup>  (471) 
0.0

>  <mut>  (471) 
3.0

>  <maj>  (471) 
3.0

>  <min>  (471) 
0.0

>  <hyb>  (471) 
1.0

>  <sub>  (471) 
2.0

>  <query_index>  (471) 
25.0

>  <max_hit_Tanimoto>  (471) 
0.302511

>  <largest_ring>  (471) 
6

>  <N_interactions_kept>  (471) 
0.5

>  <N_interactions_lost>  (471) 
2.0

>  <interaction_uniqueness_metric>  (471) 
0.14019

>  <ad_hoc_penalty>  (471) 
-17.528651

>  <N_rotatable_bonds>  (471) 
5

>  <N_HA>  (471) 
26

>  <cluster>  (471) 
5361

>  <N_interactions>  (471) 
4

>  <Enamine>  (471) 
0

>  <Mcule>  (471) 
1

>  <N_PAINS>  (471) 
0

>  <UFF_Gibbs>  (471) 
81.603052

>  <strain_per_HA>  (471) 
3.138579

>  <saltbridge:HIS:51>  (471) 
0

>  <pistack:HIS:51>  (471) 
0

>  <hydroph_interaction:HIS:51>  (471) 
0

>  <hbond:ALA:132>  (471) 
0

>  <hbond:SER:135>  (471) 
0

>  <hydroph_interaction:TYR:150>  (471) 
0

>  <pistack:TYR:161>  (471) 
1

>  <hydroph_interaction:TYR:161>  (471) 
0

>  <hydroph_interaction:ASP:83>  (471) 
0

>  <hbond:TYR:130>  (471) 
0

>  <hydroph_interaction:ALA:132>  (471) 
1

>  <hbond:HIS:51>  (471) 
0

>  <hbond:ASP:129>  (471) 
0

>  <hbond:TYR:150>  (471) 
0

>  <hbond:GLY:151>  (471) 
0

>  <hbond:TYR:161>  (471) 
0

>  <hydroph_interaction:TYR:130>  (471) 
1

>  <hydroph_interaction:PRO:131>  (471) 
1

>  <hydroph_interaction:ASP:129>  (471) 
0

>  <saltbridge:ASP:75>  (471) 
0

>  <saltbridge:ASP:83>  (471) 
0

>  <hydroph_interaction:ASN:152>  (471) 
0

>  <halogenbond:TYR:150>  (471) 
0

>  <hbond:ASP:83>  (471) 
0

>  <hydroph_interaction:VAL:155>  (471) 
0

>  <pication:TYR:161>  (471) 
0

>  <hbond:PRO:131>  (471) 
0

>  <hbond:LEU:128>  (471) 
0

>  <saltbridge:ASP:129>  (471) 
0

>  <hbond:THR:134>  (471) 
0

>  <pication:HIS:51>  (471) 
0

>  <hbond:SER:81>  (471) 
0

>  <hbond:GLY:159>  (471) 
0

>  <hydroph_interaction:PRO:101>  (471) 
0

>  <hydroph_interaction:THR:134>  (471) 
0

>  <hbond:GLY:82>  (471) 
0

>  <hydroph_interaction:GLU:104>  (471) 
0

>  <hydroph_interaction:VAL:36>  (471) 
0

>  <hydroph_interaction:MET:49>  (471) 
0

>  <halogenbond:GLU:104>  (471) 
0

>  <hydroph_interaction:LYS:107>  (471) 
0

$$$$
MCULE-4079779459
     RDKit          3D

 50 54  0  0  0  0  0  0  0  0999 V2000
   -5.8840    6.6060  -19.7940 C   0  0  0  0  0  0  0  0  0  0  0  0
   -4.8900    6.4760  -18.6050 C   0  0  0  0  0  0  0  0  0  0  0  0
   -5.2880    5.8990  -17.2450 C   0  0  0  0  0  0  0  0  0  0  0  0
   -6.7510    5.4690  -17.1620 C   0  0  0  0  0  0  0  0  0  0  0  0
   -7.2240    5.0240  -15.9540 C   0  0  0  0  0  0  0  0  0  0  0  0
   -8.6720    4.6180  -15.8120 C   0  0  0  0  0  0  0  0  0  0  0  0
   -9.4440    4.6740  -16.9590 C   0  0  0  0  0  0  0  0  0  0  0  0
   -8.9550    5.1030  -18.1570 C   0  0  0  0  0  0  0  0  0  0  0  0
   -7.6280    5.5290  -18.2560 C   0  0  0  0  0  0  0  0  0  0  0  0
   -7.2540    6.0290  -19.4550 C   0  0  0  0  0  0  0  0  0  0  0  0
   -5.7010    7.2520  -21.1290 C   0  0  0  0  0  0  0  0  0  0  0  0
   -5.8300    6.6090  -22.5100 C   0  0  0  0  0  0  0  0  0  0  0  0
   -5.6690    7.5390  -23.7350 C   0  0  0  0  0  0  0  0  0  0  0  0
   -5.3860    9.0210  -23.4550 C   0  0  0  0  0  0  0  0  0  0  0  0
   -5.2350    9.9780  -24.6450 C   0  0  0  0  0  0  0  0  0  0  0  0
   -5.6290    9.3780  -25.8990 N   0  0  0  0  0  0  0  0  0  0  0  0
   -6.7340    9.8620  -26.5460 C   0  0  0  0  0  0  0  0  0  0  0  0
   -7.7770    8.8720  -26.9270 C   0  0  0  0  0  0  0  0  0  0  0  0
   -8.8830    9.6220  -27.5500 C   0  0  0  0  0  0  0  0  0  0  0  0
   -9.7450    8.6980  -27.9340 C   0  0  0  0  0  0  0  0  0  0  0  0
  -11.0970    8.8550  -28.0770 C   0  0  0  0  0  0  0  0  0  0  0  0
  -11.7790    7.7450  -28.4820 C   0  0  0  0  0  0  0  0  0  0  0  0
  -10.9970    6.4480  -28.7370 C   0  0  0  0  0  0  0  0  0  0  0  0
   -9.5960    6.4130  -28.5500 C   0  0  0  0  0  0  0  0  0  0  0  0
   -8.9680    7.5770  -28.1370 C   0  0  0  0  0  0  0  0  0  0  0  0
   -7.6070    7.8060  -27.8720 O   0  0  0  0  0  0  0  0  0  0  0  0
   -6.9710   11.2430  -26.8070 O   0  0  0  0  0  0  0  0  0  0  0  0
   -5.2690    9.4900  -22.1550 C   0  0  0  0  0  0  0  0  0  0  0  0
   -5.4210    8.6410  -21.0540 C   0  0  0  0  0  0  0  0  0  0  0  0
   -3.8590    6.8400  -18.7320 H   0  0  0  0  0  0  0  0  0  0  0  0
   -4.5780    5.8420  -16.4300 H   0  0  0  0  0  0  0  0  0  0  0  0
   -6.5640    4.9780  -15.0920 H   0  0  0  0  0  0  0  0  0  0  0  0
   -9.0390    4.3000  -14.8490 H   0  0  0  0  0  0  0  0  0  0  0  0
  -10.5010    4.3970  -17.0150 H   0  0  0  0  0  0  0  0  0  0  0  0
   -9.6200    5.1320  -19.0140 H   0  0  0  0  0  0  0  0  0  0  0  0
   -8.0100    6.0360  -20.1840 H   0  0  0  0  0  0  0  0  0  0  0  0
   -6.0430    5.5470  -22.6360 H   0  0  0  0  0  0  0  0  0  0  0  0
   -5.7590    7.1450  -24.7440 H   0  0  0  0  0  0  0  0  0  0  0  0
   -5.7940   10.9010  -24.4600 H   0  0  0  0  0  0  0  0  0  0  0  0
   -4.1760   10.2520  -24.7420 H   0  0  0  0  0  0  0  0  0  0  0  0
   -5.3440    8.4180  -26.0580 H   0  0  0  0  0  0  0  0  0  0  0  0
   -8.1040    8.4030  -26.0020 H   0  0  0  0  0  0  0  0  0  0  0  0
   -8.5350   10.1690  -28.4340 H   0  0  0  0  0  0  0  0  0  0  0  0
   -9.3060   10.3430  -26.8590 H   0  0  0  0  0  0  0  0  0  0  0  0
  -11.4970    9.8520  -27.8510 H   0  0  0  0  0  0  0  0  0  0  0  0
  -12.8650    7.6870  -28.6490 H   0  0  0  0  0  0  0  0  0  0  0  0
  -11.5200    5.5540  -29.0600 H   0  0  0  0  0  0  0  0  0  0  0  0
   -9.0290    5.5060  -28.7210 H   0  0  0  0  0  0  0  0  0  0  0  0
   -5.0610   10.5460  -21.9800 H   0  0  0  0  0  0  0  0  0  0  0  0
   -5.3280    9.0960  -20.0670 H   0  0  0  0  0  0  0  0  0  0  0  0
  1  2  2  0
  2  3  1  0
  3  4  2  0
  4  5  1  0
  5  6  2  0
  6  7  1  0
  7  8  2  0
  8  9  1  0
  9 10  2  0
  1 11  1  0
 11 12  2  0
 12 13  1  0
 13 14  2  0
 14 15  1  0
 15 16  1  0
 16 17  1  0
 17 18  1  0
 18 19  1  0
 19 20  1  0
 20 21  2  0
 21 22  1  0
 22 23  2  0
 23 24  1  0
 24 25  2  0
 25 26  1  0
 17 27  2  0
 14 28  1  0
 28 29  2  0
  1 10  1  0
  4  9  1  0
 29 11  1  0
 26 18  1  0
 20 25  1  0
  2 30  1  0
  3 31  1  0
  5 32  1  0
  6 33  1  0
  7 34  1  0
  8 35  1  0
 10 36  1  0
 12 37  1  0
 13 38  1  0
 15 39  1  0
 15 40  1  0
 16 41  1  0
 18 42  1  0
 19 43  1  0
 19 44  1  0
 21 45  1  0
 22 46  1  0
 23 47  1  0
 24 48  1  0
 28 49  1  0
 29 50  1  0
A    1
 C1 
A    2
 C2 
A    3
 C3 
A    4
 C4 
A    5
 C5 
A    6
 C6 
A    7
 C7 
A    8
 C8 
A    9
 C9 
A   10
 C10
A   11
 C11
A   12
 C12
A   13
 C13
A   14
 C14
A   15
 C15
A   16
 N1 
A   17
 C16
A   18
 C17
A   19
 C18
A   20
 C19
A   21
 C20
A   22
 C21
A   23
 C22
A   24
 C23
A   25
 C24
A   26
 O1 
A   27
 O2 
A   28
 C25
A   29
 C26
A   30
 H1 
A   31
 H2 
A   32
 H3 
A   33
 H4 
A   34
 H5 
A   35
 H6 
A   36
 H7 
A   37
 H8 
A   38
 H9 
A   39
 H10
A   40
 H11
A   41
 H12
A   42
 H13
A   43
 H14
A   44
 H15
A   45
 H16
A   46
 H17
A   47
 H18
A   48
 H19
A   49
 H20
A   50
 H21
M  END
>  <ref_pdb>  (472) 
x0051_0B

>  <ref_mols>  (472) 
x0727_0B,x0846_1B

>  <original SMILES>  (472) 
[H]c1c([H])c([H])c2c(c1[H])OC([H])(C(=O)N([H])C([H])([H])c1c([H])c([H])c(-c3c([H])c([H])c4c([H])c([H])c([H])c([H])c4c3[H])c([H])c1[H])C2([H])[H]

>  <index>  (472) 
571

>  <∆∆G>  (472) 
-7.854841

>  <∆G_bound>  (472) 
-7.662667

>  <∆G_unbound>  (472) 
0.192174

>  <comRMSD>  (472) 
0.969332

>  <N_constrained_atoms>  (472) 
29.0

>  <N_unconstrained_atoms>  (472) 
2.0

>  <runtime>  (472) 
85.63877

>  <LE>  (472) 
0.253382

>  <percent_hybrid>  (472) 
38.0

>  <dist>  (472) 
11.0

>  <ecfp4>  (472) 
0.209302

>  <daylight>  (472) 
0.24031

>  <topodist>  (472) 
7.0

>  <mces>  (472) 
31.0

>  <tdn>  (472) 
3.0

>  <tup>  (472) 
1.0

>  <rdn>  (472) 
0.0

>  <rup>  (472) 
0.0

>  <ldn>  (472) 
2.0

>  <lup>  (472) 
1.0

>  <mut>  (472) 
3.0

>  <maj>  (472) 
3.0

>  <min>  (472) 
0.0

>  <hyb>  (472) 
1.0

>  <sub>  (472) 
2.0

>  <query_index>  (472) 
15.0

>  <max_hit_Tanimoto>  (472) 
0.235556

>  <largest_ring>  (472) 
6

>  <N_interactions_kept>  (472) 
1.0

>  <N_interactions_lost>  (472) 
2.0

>  <interaction_uniqueness_metric>  (472) 
0.145607

>  <ad_hoc_penalty>  (472) 
-17.528055

>  <N_rotatable_bonds>  (472) 
4

>  <N_HA>  (472) 
29

>  <cluster>  (472) 
5695

>  <N_interactions>  (472) 
5

>  <Enamine>  (472) 
0

>  <Mcule>  (472) 
1

>  <N_PAINS>  (472) 
0

>  <UFF_Gibbs>  (472) 
202.541044

>  <strain_per_HA>  (472) 
6.984174

>  <saltbridge:HIS:51>  (472) 
0

>  <pistack:HIS:51>  (472) 
0

>  <hydroph_interaction:HIS:51>  (472) 
0

>  <hbond:ALA:132>  (472) 
0

>  <hbond:SER:135>  (472) 
0

>  <hydroph_interaction:TYR:150>  (472) 
0

>  <pistack:TYR:161>  (472) 
2

>  <hydroph_interaction:TYR:161>  (472) 
0

>  <hydroph_interaction:ASP:83>  (472) 
0

>  <hbond:TYR:130>  (472) 
0

>  <hydroph_interaction:ALA:132>  (472) 
1

>  <hbond:HIS:51>  (472) 
0

>  <hbond:ASP:129>  (472) 
0

>  <hbond:TYR:150>  (472) 
0

>  <hbond:GLY:151>  (472) 
0

>  <hbond:TYR:161>  (472) 
0

>  <hydroph_interaction:TYR:130>  (472) 
1

>  <hydroph_interaction:PRO:131>  (472) 
1

>  <hydroph_interaction:ASP:129>  (472) 
0

>  <saltbridge:ASP:75>  (472) 
0

>  <saltbridge:ASP:83>  (472) 
0

>  <hydroph_interaction:ASN:152>  (472) 
0

>  <halogenbond:TYR:150>  (472) 
0

>  <hbond:ASP:83>  (472) 
0

>  <hydroph_interaction:VAL:155>  (472) 
0

>  <pication:TYR:161>  (472) 
0

>  <hbond:PRO:131>  (472) 
0

>  <hbond:LEU:128>  (472) 
0

>  <saltbridge:ASP:129>  (472) 
0

>  <hbond:THR:134>  (472) 
0

>  <pication:HIS:51>  (472) 
0

>  <hbond:SER:81>  (472) 
0

>  <hbond:GLY:159>  (472) 
0

>  <hydroph_interaction:PRO:101>  (472) 
0

>  <hydroph_interaction:THR:134>  (472) 
0

>  <hbond:GLY:82>  (472) 
0

>  <hydroph_interaction:GLU:104>  (472) 
0

>  <hydroph_interaction:VAL:36>  (472) 
0

>  <hydroph_interaction:MET:49>  (472) 
0

>  <halogenbond:GLU:104>  (472) 
0

>  <hydroph_interaction:LYS:107>  (472) 
0

$$$$
Z2079167915
     RDKit          3D

 44 48  0  0  0  0  0  0  0  0999 V2000
   -5.8740    4.9140  -21.3890 O   0  0  0  0  0  0  0  0  0  0  0  0
   -5.9730    5.9540  -20.7550 C   0  0  0  0  0  0  0  0  0  0  0  0
   -5.9090    7.2210  -21.6310 C   0  0  0  0  0  0  0  0  0  0  0  0
   -6.1780    7.0780  -23.0290 C   0  0  0  0  0  0  0  0  0  0  0  0
   -6.2040    8.1510  -23.9360 C   0  0  0  0  0  0  0  0  0  0  0  0
   -5.9490    9.4520  -23.4910 C   0  0  0  0  0  0  0  0  0  0  0  0
   -6.0600   10.6890  -24.6900 S   0  0  0  0  0  0  0  0  0  0  0  0
   -5.8260    9.7280  -26.0970 C   0  0  0  0  0  0  0  0  0  0  0  0
   -7.0150    9.2270  -26.6770 C   0  0  0  0  0  0  0  0  0  0  0  0
   -7.2970    8.0140  -27.0810 N   0  0  0  0  0  0  0  0  0  0  0  0
   -8.5910    8.0610  -27.5520 C   0  0  0  0  0  0  0  0  0  0  0  0
   -9.3650    7.0240  -28.0780 C   0  0  0  0  0  0  0  0  0  0  0  0
  -10.6730    7.2790  -28.4920 C   0  0  0  0  0  0  0  0  0  0  0  0
  -11.2060    8.5630  -28.3840 C   0  0  0  0  0  0  0  0  0  0  0  0
  -10.4620    9.6250  -27.8690 C   0  0  0  0  0  0  0  0  0  0  0  0
   -9.1480    9.3460  -27.4560 C   0  0  0  0  0  0  0  0  0  0  0  0
   -8.1450   10.1220  -26.9010 N   0  0  0  0  0  0  0  0  0  0  0  0
   -5.6430    9.6910  -22.1380 C   0  0  0  0  0  0  0  0  0  0  0  0
   -5.6200    8.5040  -21.1360 C   0  0  0  0  0  0  0  0  0  0  0  0
   -6.1240    6.0050  -19.3320 N   0  0  0  0  0  0  0  0  0  0  0  0
   -5.0170    6.0810  -18.3560 C   0  0  0  0  0  0  0  0  0  0  0  0
   -5.6410    6.3290  -16.9650 C   0  0  0  0  0  0  0  0  0  0  0  0
   -6.9480    5.7790  -17.2270 N   0  0  0  0  0  0  0  0  0  0  0  0
   -7.9620    5.4120  -16.3670 N   0  0  0  0  0  0  0  0  0  0  0  0
   -8.9100    4.9640  -17.2330 C   0  0  0  0  0  0  0  0  0  0  0  0
   -8.4760    5.0620  -18.5540 C   0  0  0  0  0  0  0  0  0  0  0  0
   -7.1780    5.6070  -18.5600 C   0  0  0  0  0  0  0  0  0  0  0  0
   -6.3890    6.0860  -23.4120 H   0  0  0  0  0  0  0  0  0  0  0  0
   -6.4320    7.9510  -24.9760 H   0  0  0  0  0  0  0  0  0  0  0  0
   -5.3700   10.3770  -26.8500 H   0  0  0  0  0  0  0  0  0  0  0  0
   -5.0630    8.9940  -25.8410 H   0  0  0  0  0  0  0  0  0  0  0  0
   -8.9430    6.0270  -28.1570 H   0  0  0  0  0  0  0  0  0  0  0  0
  -11.2780    6.4700  -28.8980 H   0  0  0  0  0  0  0  0  0  0  0  0
  -12.2290    8.7420  -28.7110 H   0  0  0  0  0  0  0  0  0  0  0  0
  -10.8910   10.6210  -27.7910 H   0  0  0  0  0  0  0  0  0  0  0  0
   -8.1830   11.1090  -26.6840 H   0  0  0  0  0  0  0  0  0  0  0  0
   -5.4330   10.6940  -21.7750 H   0  0  0  0  0  0  0  0  0  0  0  0
   -5.3990    8.6580  -20.0850 H   0  0  0  0  0  0  0  0  0  0  0  0
   -4.3110    6.8180  -18.7260 H   0  0  0  0  0  0  0  0  0  0  0  0
   -4.5050    5.1130  -18.3670 H   0  0  0  0  0  0  0  0  0  0  0  0
   -5.1700    5.7120  -16.1970 H   0  0  0  0  0  0  0  0  0  0  0  0
   -5.7790    7.3440  -16.6060 H   0  0  0  0  0  0  0  0  0  0  0  0
   -9.8820    4.5780  -16.9270 H   0  0  0  0  0  0  0  0  0  0  0  0
   -9.1050    4.7480  -19.3860 H   0  0  0  0  0  0  0  0  0  0  0  0
  1  2  2  0
  2  3  1  0
  3  4  2  0
  4  5  1  0
  5  6  2  0
  6  7  1  0
  7  8  1  0
  8  9  1  0
  9 10  2  0
 10 11  1  0
 11 12  2  0
 12 13  1  0
 13 14  2  0
 14 15  1  0
 15 16  2  0
 16 17  1  0
  6 18  1  0
 18 19  2  0
  2 20  1  0
 20 21  1  0
 21 22  1  0
 22 23  1  0
 23 24  1  0
 24 25  2  0
 25 26  1  0
 26 27  2  0
 19  3  1  0
 17  9  1  0
 16 11  1  0
 27 20  1  0
 27 23  1  0
  4 28  1  0
  5 29  1  0
  8 30  1  0
  8 31  1  0
 12 32  1  0
 13 33  1  0
 14 34  1  0
 15 35  1  0
 17 36  1  0
 18 37  1  0
 19 38  1  0
 21 39  1  0
 21 40  1  0
 22 41  1  0
 22 42  1  0
 25 43  1  0
 26 44  1  0
A    1
 O1 
A    2
 C1 
A    3
 C2 
A    4
 C3 
A    5
 C4 
A    6
 C5 
A    7
 S1 
A    8
 C6 
A    9
 C7 
A   10
 N1 
A   11
 C8 
A   12
 C9 
A   13
 C10
A   14
 C11
A   15
 C12
A   16
 C13
A   17
 N2 
A   18
 C14
A   19
 C15
A   20
 N3 
A   21
 C16
A   22
 C17
A   23
 N4 
A   24
 N5 
A   25
 C18
A   26
 C19
A   27
 C20
A   28
 H1 
A   29
 H2 
A   30
 H3 
A   31
 H4 
A   32
 H5 
A   33
 H6 
A   34
 H7 
A   35
 H8 
A   36
 H9 
A   37
 H10
A   38
 H11
A   39
 H12
A   40
 H13
A   41
 H14
A   42
 H15
A   43
 H16
A   44
 H17
M  END
>  <ref_pdb>  (473) 
x0051_0B

>  <ref_mols>  (473) 
x0846_1B,x0969_0B

>  <original SMILES>  (473) 
[H]c1nn2c(c1[H])N(C(=O)c1c([H])c([H])c(SC([H])([H])c3nc4c([H])c([H])c([H])c([H])c4n3[H])c([H])c1[H])C([H])([H])C2([H])[H]

>  <index>  (473) 
796

>  <∆∆G>  (473) 
-6.912292

>  <∆G_bound>  (473) 
-6.542471

>  <∆G_unbound>  (473) 
0.36982

>  <comRMSD>  (473) 
0.992302

>  <N_constrained_atoms>  (473) 
28.0

>  <N_unconstrained_atoms>  (473) 
2.0

>  <runtime>  (473) 
44.290019

>  <LE>  (473) 
0.23041

>  <percent_hybrid>  (473) 
36.0

>  <dist>  (473) 
7.0

>  <ecfp4>  (473) 
0.247312

>  <daylight>  (473) 
0.389937

>  <topodist>  (473) 
4.0

>  <mces>  (473) 
30.0

>  <tdn>  (473) 
2.0

>  <tup>  (473) 
1.0

>  <rdn>  (473) 
0.0

>  <rup>  (473) 
0.0

>  <ldn>  (473) 
1.0

>  <lup>  (473) 
0.0

>  <mut>  (473) 
3.0

>  <maj>  (473) 
3.0

>  <min>  (473) 
0.0

>  <hyb>  (473) 
0.0

>  <sub>  (473) 
2.0

>  <query_index>  (473) 
45.0

>  <max_hit_Tanimoto>  (473) 
0.273219

>  <largest_ring>  (473) 
6

>  <N_interactions_kept>  (473) 
0.5

>  <N_interactions_lost>  (473) 
2.0

>  <interaction_uniqueness_metric>  (473) 
0.18165

>  <ad_hoc_penalty>  (473) 
-17.475426

>  <N_rotatable_bonds>  (473) 
4

>  <N_HA>  (473) 
27

>  <cluster>  (473) 
5488

>  <N_interactions>  (473) 
5

>  <Enamine>  (473) 
1

>  <Mcule>  (473) 
0

>  <N_PAINS>  (473) 
0

>  <UFF_Gibbs>  (473) 
128.727318

>  <strain_per_HA>  (473) 
4.767678

>  <saltbridge:HIS:51>  (473) 
0

>  <pistack:HIS:51>  (473) 
0

>  <hydroph_interaction:HIS:51>  (473) 
0

>  <hbond:ALA:132>  (473) 
0

>  <hbond:SER:135>  (473) 
0

>  <hydroph_interaction:TYR:150>  (473) 
0

>  <pistack:TYR:161>  (473) 
1

>  <hydroph_interaction:TYR:161>  (473) 
0

>  <hydroph_interaction:ASP:83>  (473) 
0

>  <hbond:TYR:130>  (473) 
1

>  <hydroph_interaction:ALA:132>  (473) 
0

>  <hbond:HIS:51>  (473) 
0

>  <hbond:ASP:129>  (473) 
1

>  <hbond:TYR:150>  (473) 
0

>  <hbond:GLY:151>  (473) 
0

>  <hbond:TYR:161>  (473) 
0

>  <hydroph_interaction:TYR:130>  (473) 
1

>  <hydroph_interaction:PRO:131>  (473) 
1

>  <hydroph_interaction:ASP:129>  (473) 
0

>  <saltbridge:ASP:75>  (473) 
0

>  <saltbridge:ASP:83>  (473) 
0

>  <hydroph_interaction:ASN:152>  (473) 
0

>  <halogenbond:TYR:150>  (473) 
0

>  <hbond:ASP:83>  (473) 
0

>  <hydroph_interaction:VAL:155>  (473) 
0

>  <pication:TYR:161>  (473) 
0

>  <hbond:PRO:131>  (473) 
0

>  <hbond:LEU:128>  (473) 
0

>  <saltbridge:ASP:129>  (473) 
0

>  <hbond:THR:134>  (473) 
0

>  <pication:HIS:51>  (473) 
0

>  <hbond:SER:81>  (473) 
0

>  <hbond:GLY:159>  (473) 
0

>  <hydroph_interaction:PRO:101>  (473) 
0

>  <hydroph_interaction:THR:134>  (473) 
0

>  <hbond:GLY:82>  (473) 
0

>  <hydroph_interaction:GLU:104>  (473) 
0

>  <hydroph_interaction:VAL:36>  (473) 
0

>  <hydroph_interaction:MET:49>  (473) 
0

>  <halogenbond:GLU:104>  (473) 
0

>  <hydroph_interaction:LYS:107>  (473) 
0

$$$$
AWQRASSYQUFVNT-UHFFFAOYSA-N
     RDKit          3D

 49 51  0  0  0  0  0  0  0  0999 V2000
   -8.6050    7.1110  -14.0480 C   0  0  0  0  0  0  0  0  0  0  0  0
   -9.0340    6.1250  -14.8990 N   0  0  0  0  0  0  0  0  0  0  0  0
   -8.6080    5.7390  -16.2240 C   0  0  0  0  0  0  0  0  0  0  0  0
   -9.7600    4.9710  -16.8120 C   0  0  0  0  0  0  0  0  0  0  0  0
   -9.6600    4.4650  -18.1890 C   0  0  0  0  0  0  0  0  0  0  0  0
   -8.5340    4.6610  -18.9360 C   0  0  0  0  0  0  0  0  0  0  0  0
   -7.3580    5.4090  -18.3350 C   0  0  0  0  0  0  0  0  0  0  0  0
   -6.2330    5.5580  -19.1300 C   0  0  0  0  0  0  0  0  0  0  0  0
   -5.1150    5.7390  -18.3880 O   0  0  0  0  0  0  0  0  0  0  0  0
   -5.1310    5.1410  -17.0900 C   0  0  0  0  0  0  0  0  0  0  0  0
   -6.2780    5.5140  -20.3510 O   0  0  0  0  0  0  0  0  0  0  0  0
   -7.4410    5.9250  -17.0030 C   0  0  0  0  0  0  0  0  0  0  0  0
   -8.2370    8.2740  -14.2120 O   0  0  0  0  0  0  0  0  0  0  0  0
   -8.6660    6.5310  -12.7020 C   0  0  0  0  0  0  0  0  0  0  0  0
   -8.5420    7.2540  -11.3910 C   0  0  0  0  0  0  0  0  0  0  0  0
   -8.6180    6.5890  -10.1650 C   0  0  0  0  0  0  0  0  0  0  0  0
   -8.8300    5.1080  -10.1730 C   0  0  0  0  0  0  0  0  0  0  0  0
   -8.9000    4.4770   -9.0540 N   0  0  0  0  0  0  0  0  0  0  0  0
   -9.0420    2.9930   -9.0190 C   0  0  0  0  0  0  0  0  0  0  0  0
   -9.6900    2.6460   -7.8480 C   0  0  0  0  0  0  0  0  0  0  0  0
   -9.1620    3.1580   -6.6800 N   0  0  0  0  0  0  0  0  0  0  0  0
   -7.8720    2.9970   -6.4760 C   0  0  0  0  0  0  0  0  0  0  0  0
   -9.3360    4.5850   -6.6290 C   0  0  0  0  0  0  0  0  0  0  0  0
   -8.6520    5.2270   -7.8080 C   0  0  0  0  0  0  0  0  0  0  0  0
   -8.9490    4.4180  -11.3680 C   0  0  0  0  0  0  0  0  0  0  0  0
   -8.8670    5.1460  -12.6960 C   0  0  0  0  0  0  0  0  0  0  0  0
   -9.7330    5.4800  -14.5330 H   0  0  0  0  0  0  0  0  0  0  0  0
  -10.6540    4.7910  -16.2370 H   0  0  0  0  0  0  0  0  0  0  0  0
  -10.4950    3.9210  -18.6260 H   0  0  0  0  0  0  0  0  0  0  0  0
   -8.5760    4.2370  -19.9460 H   0  0  0  0  0  0  0  0  0  0  0  0
   -5.1400    5.9430  -16.3420 H   0  0  0  0  0  0  0  0  0  0  0  0
   -6.0180    4.5370  -16.9480 H   0  0  0  0  0  0  0  0  0  0  0  0
   -4.2320    4.5490  -16.9380 H   0  0  0  0  0  0  0  0  0  0  0  0
   -6.5940    6.4700  -16.5940 H   0  0  0  0  0  0  0  0  0  0  0  0
   -8.3880    8.3350  -11.5060 H   0  0  0  0  0  0  0  0  0  0  0  0
   -8.5250    7.1370   -9.2300 H   0  0  0  0  0  0  0  0  0  0  0  0
   -8.0460    2.5720   -9.1300 H   0  0  0  0  0  0  0  0  0  0  0  0
   -9.5540    2.7090   -9.9370 H   0  0  0  0  0  0  0  0  0  0  0  0
  -10.7600    2.8280   -7.8270 H   0  0  0  0  0  0  0  0  0  0  0  0
   -9.5800    1.5620   -7.7550 H   0  0  0  0  0  0  0  0  0  0  0  0
   -7.6520    1.9980   -6.1330 H   0  0  0  0  0  0  0  0  0  0  0  0
   -7.5240    3.6910   -5.7050 H   0  0  0  0  0  0  0  0  0  0  0  0
   -7.3100    3.2050   -7.3930 H   0  0  0  0  0  0  0  0  0  0  0  0
  -10.4060    4.7920   -6.6140 H   0  0  0  0  0  0  0  0  0  0  0  0
   -8.9250    5.0060   -5.7020 H   0  0  0  0  0  0  0  0  0  0  0  0
   -9.0310    6.2500   -7.9160 H   0  0  0  0  0  0  0  0  0  0  0  0
   -7.5760    5.3170   -7.6140 H   0  0  0  0  0  0  0  0  0  0  0  0
   -9.1070    3.3360  -11.4700 H   0  0  0  0  0  0  0  0  0  0  0  0
   -8.9640    4.5860  -13.6250 H   0  0  0  0  0  0  0  0  0  0  0  0
  1  2  1  0
  2  3  1  0
  3  4  2  0
  4  5  1  0
  5  6  2  0
  6  7  1  0
  7  8  1  0
  8  9  1  0
  9 10  1  0
  8 11  2  0
  7 12  2  0
  1 13  2  0
  1 14  1  0
 14 15  2  0
 15 16  1  0
 16 17  2  0
 17 18  1  0
 18 19  1  0
 19 20  1  0
 20 21  1  0
 21 22  1  0
 21 23  1  0
 23 24  1  0
 17 25  1  0
 25 26  2  0
  3 12  1  0
 26 14  1  0
 24 18  1  0
  2 27  1  0
  4 28  1  0
  5 29  1  0
  6 30  1  0
 10 31  1  0
 10 32  1  0
 10 33  1  0
 12 34  1  0
 15 35  1  0
 16 36  1  0
 19 37  1  0
 19 38  1  0
 20 39  1  0
 20 40  1  0
 22 41  1  0
 22 42  1  0
 22 43  1  0
 23 44  1  0
 23 45  1  0
 24 46  1  0
 24 47  1  0
 25 48  1  0
 26 49  1  0
A    1
 C1 
A    2
 N1 
A    3
 C2 
A    4
 C3 
A    5
 C4 
A    6
 C5 
A    7
 C6 
A    8
 C7 
A    9
 O1 
A   10
 C8 
A   11
 O2 
A   12
 C9 
A   13
 O3 
A   14
 C10
A   15
 C11
A   16
 C12
A   17
 C13
A   18
 N2 
A   19
 C14
A   20
 C15
A   21
 N3 
A   22
 C16
A   23
 C17
A   24
 C18
A   25
 C19
A   26
 C20
A   27
 H1 
A   28
 H2 
A   29
 H3 
A   30
 H4 
A   31
 H5 
A   32
 H6 
A   33
 H7 
A   34
 H8 
A   35
 H9 
A   36
 H10
A   37
 H11
A   38
 H12
A   39
 H13
A   40
 H14
A   41
 H15
A   42
 H16
A   43
 H17
A   44
 H18
A   45
 H19
A   46
 H20
A   47
 H21
A   48
 H22
A   49
 H23
M  END
>  <ref_pdb>  (474) 
x0051_0B

>  <ref_mols>  (474) 
x0435_0B,x0404_0B

>  <original SMILES>  (474) 
[H]c1c([H])c(C(=O)OC([H])([H])[H])c([H])c(N([H])C(=O)c2c([H])c([H])c(N3C([H])([H])C([H])([H])N(C([H])([H])[H])C([H])([H])C3([H])[H])c([H])c2[H])c1[H]

>  <index>  (474) 
44

>  <∆∆G>  (474) 
-7.807986

>  <∆G_bound>  (474) 
-7.216893

>  <∆G_unbound>  (474) 
0.591093

>  <comRMSD>  (474) 
0.629913

>  <N_constrained_atoms>  (474) 
25.0

>  <N_unconstrained_atoms>  (474) 
1.0

>  <runtime>  (474) 
112.390897

>  <LE>  (474) 
0.300307

>  <percent_hybrid>  (474) 
40.0

>  <dist>  (474) 
10.0

>  <ecfp4>  (474) 
0.183908

>  <daylight>  (474) 
0.208163

>  <topodist>  (474) 
4.0

>  <mces>  (474) 
27.0

>  <tdn>  (474) 
1.0

>  <tup>  (474) 
1.0

>  <rdn>  (474) 
1.0

>  <rup>  (474) 
0.0

>  <ldn>  (474) 
1.0

>  <lup>  (474) 
0.0

>  <mut>  (474) 
5.0

>  <maj>  (474) 
5.0

>  <min>  (474) 
0.0

>  <hyb>  (474) 
1.0

>  <sub>  (474) 
2.0

>  <query_index>  (474) 
26.0

>  <max_hit_Tanimoto>  (474) 
0.309668

>  <largest_ring>  (474) 
0

>  <N_interactions_kept>  (474) 
3.5

>  <N_interactions_lost>  (474) 
1.0

>  <interaction_uniqueness_metric>  (474) 
0.218685

>  <ad_hoc_penalty>  (474) 
-17.457042

>  <N_rotatable_bonds>  (474) 
6

>  <N_HA>  (474) 
26

>  <cluster>  (474) 
6175

>  <N_interactions>  (474) 
7

>  <Enamine>  (474) 
0

>  <Mcule>  (474) 
1

>  <N_PAINS>  (474) 
0

>  <UFF_Gibbs>  (474) 
575.907443

>  <strain_per_HA>  (474) 
22.150286

>  <saltbridge:HIS:51>  (474) 
0

>  <pistack:HIS:51>  (474) 
1

>  <hydroph_interaction:HIS:51>  (474) 
0

>  <hbond:ALA:132>  (474) 
0

>  <hbond:SER:135>  (474) 
0

>  <hydroph_interaction:TYR:150>  (474) 
1

>  <pistack:TYR:161>  (474) 
0

>  <hydroph_interaction:TYR:161>  (474) 
2

>  <hydroph_interaction:ASP:83>  (474) 
0

>  <hbond:TYR:130>  (474) 
0

>  <hydroph_interaction:ALA:132>  (474) 
1

>  <hbond:HIS:51>  (474) 
0

>  <hbond:ASP:129>  (474) 
0

>  <hbond:TYR:150>  (474) 
0

>  <hbond:GLY:151>  (474) 
1

>  <hbond:TYR:161>  (474) 
0

>  <hydroph_interaction:TYR:130>  (474) 
0

>  <hydroph_interaction:PRO:131>  (474) 
0

>  <hydroph_interaction:ASP:129>  (474) 
0

>  <saltbridge:ASP:75>  (474) 
1

>  <saltbridge:ASP:83>  (474) 
0

>  <hydroph_interaction:ASN:152>  (474) 
0

>  <halogenbond:TYR:150>  (474) 
0

>  <hbond:ASP:83>  (474) 
0

>  <hydroph_interaction:VAL:155>  (474) 
0

>  <pication:TYR:161>  (474) 
0

>  <hbond:PRO:131>  (474) 
0

>  <hbond:LEU:128>  (474) 
0

>  <saltbridge:ASP:129>  (474) 
0

>  <hbond:THR:134>  (474) 
0

>  <pication:HIS:51>  (474) 
0

>  <hbond:SER:81>  (474) 
0

>  <hbond:GLY:159>  (474) 
0

>  <hydroph_interaction:PRO:101>  (474) 
0

>  <hydroph_interaction:THR:134>  (474) 
0

>  <hbond:GLY:82>  (474) 
0

>  <hydroph_interaction:GLU:104>  (474) 
0

>  <hydroph_interaction:VAL:36>  (474) 
0

>  <hydroph_interaction:MET:49>  (474) 
0

>  <halogenbond:GLU:104>  (474) 
0

>  <hydroph_interaction:LYS:107>  (474) 
0

$$$$
IZBBTVCLPWYLCU-UHFFFAOYSA-N
     RDKit          3D

 50 54  0  0  0  0  0  0  0  0999 V2000
   -5.6480    9.8350  -25.3110 O   0  0  0  0  0  0  0  0  0  0  0  0
   -5.9760    9.9860  -24.0100 C   0  0  0  0  0  0  0  0  0  0  0  0
   -6.4160   10.9490  -23.4240 O   0  0  0  0  0  0  0  0  0  0  0  0
   -5.6550    8.7470  -23.3350 C   0  0  0  0  0  0  0  0  0  0  0  0
   -6.1770    7.4840  -23.6370 C   0  0  0  0  0  0  0  0  0  0  0  0
   -5.7120    6.3470  -22.8410 C   0  0  0  0  0  0  0  0  0  0  0  0
   -4.7710    6.5380  -21.8300 C   0  0  0  0  0  0  0  0  0  0  0  0
   -4.2710    5.3680  -21.0390 C   0  0  0  0  0  0  0  0  0  0  0  0
   -4.0480    5.7090  -19.2790 S   0  0  0  0  0  0  0  0  0  0  0  0
   -5.7180    5.4620  -18.9010 C   0  0  0  0  0  0  0  0  0  0  0  0
   -6.8770    5.2110  -20.1180 S   0  0  0  0  0  0  0  0  0  0  0  0
   -8.0690    5.0790  -18.9070 C   0  0  0  0  0  0  0  0  0  0  0  0
   -7.4870    5.2360  -17.6590 C   0  0  0  0  0  0  0  0  0  0  0  0
   -8.2960    5.1590  -16.4610 C   0  0  0  0  0  0  0  0  0  0  0  0
   -9.7370    4.9130  -16.6290 C   0  0  0  0  0  0  0  0  0  0  0  0
  -10.2520    4.7680  -17.9310 C   0  0  0  0  0  0  0  0  0  0  0  0
   -9.4350    4.8490  -19.0650 C   0  0  0  0  0  0  0  0  0  0  0  0
   -6.1300    5.4580  -17.6700 N   0  0  0  0  0  0  0  0  0  0  0  0
   -4.2980    7.8060  -21.5680 C   0  0  0  0  0  0  0  0  0  0  0  0
   -4.7390    8.8790  -22.3090 C   0  0  0  0  0  0  0  0  0  0  0  0
   -6.3100   10.6110  -26.3140 C   0  0  0  0  0  0  0  0  0  0  0  0
   -5.3070   10.9670  -27.4010 C   0  0  0  0  0  0  0  0  0  0  0  0
   -7.4210    9.7790  -26.8780 C   0  0  0  0  0  0  0  0  0  0  0  0
   -7.4150    8.4920  -27.2020 N   0  0  0  0  0  0  0  0  0  0  0  0
   -8.6880    8.2240  -27.6520 C   0  0  0  0  0  0  0  0  0  0  0  0
   -9.4740    9.3690  -27.6080 C   0  0  0  0  0  0  0  0  0  0  0  0
  -10.8080    9.4110  -27.9890 C   0  0  0  0  0  0  0  0  0  0  0  0
  -11.3680    8.2140  -28.4400 C   0  0  0  0  0  0  0  0  0  0  0  0
  -10.6110    7.0420  -28.5040 C   0  0  0  0  0  0  0  0  0  0  0  0
   -9.2650    7.0310  -28.1140 C   0  0  0  0  0  0  0  0  0  0  0  0
   -8.6460   10.3300  -27.1240 N   0  0  0  0  0  0  0  0  0  0  0  0
   -6.9020    7.3290  -24.4310 H   0  0  0  0  0  0  0  0  0  0  0  0
   -6.1450    5.3870  -23.1020 H   0  0  0  0  0  0  0  0  0  0  0  0
   -3.3110    5.0390  -21.4550 H   0  0  0  0  0  0  0  0  0  0  0  0
   -4.9550    4.5240  -21.1650 H   0  0  0  0  0  0  0  0  0  0  0  0
   -7.8450    5.2790  -15.4810 H   0  0  0  0  0  0  0  0  0  0  0  0
  -10.3800    4.8470  -15.7540 H   0  0  0  0  0  0  0  0  0  0  0  0
  -11.3140    4.5890  -18.0700 H   0  0  0  0  0  0  0  0  0  0  0  0
   -9.8470    4.7370  -20.0590 H   0  0  0  0  0  0  0  0  0  0  0  0
   -3.5690    7.9750  -20.7790 H   0  0  0  0  0  0  0  0  0  0  0  0
   -4.3400    9.8660  -22.0770 H   0  0  0  0  0  0  0  0  0  0  0  0
   -6.7540   11.5150  -25.8830 H   0  0  0  0  0  0  0  0  0  0  0  0
   -5.8100   11.3800  -28.2790 H   0  0  0  0  0  0  0  0  0  0  0  0
   -4.6070   11.7340  -27.0490 H   0  0  0  0  0  0  0  0  0  0  0  0
   -4.7280   10.0920  -27.7140 H   0  0  0  0  0  0  0  0  0  0  0  0
  -11.3930   10.3220  -27.9390 H   0  0  0  0  0  0  0  0  0  0  0  0
  -12.4130    8.2000  -28.7450 H   0  0  0  0  0  0  0  0  0  0  0  0
  -11.0710    6.1230  -28.8600 H   0  0  0  0  0  0  0  0  0  0  0  0
   -8.6700    6.1240  -28.1590 H   0  0  0  0  0  0  0  0  0  0  0  0
   -8.8870   11.2950  -26.9600 H   0  0  0  0  0  0  0  0  0  0  0  0
  1  2  1  0
  2  3  2  0
  2  4  1  0
  4  5  2  0
  5  6  1  0
  6  7  2  0
  7  8  1  0
  8  9  1  0
  9 10  1  0
 10 11  1  0
 11 12  1  0
 12 13  2  0
 13 14  1  0
 14 15  2  0
 15 16  1  0
 16 17  2  0
 13 18  1  0
  7 19  1  0
 19 20  2  0
  1 21  1  0
 21 22  1  0
 21 23  1  0
 23 24  2  0
 24 25  1  0
 25 26  2  0
 26 27  1  0
 27 28  2  0
 28 29  1  0
 29 30  2  0
 26 31  1  0
 20  4  1  0
 10 18  2  0
 17 12  1  0
 31 23  1  0
 30 25  1  0
  5 32  1  0
  6 33  1  0
  8 34  1  0
  8 35  1  0
 14 36  1  0
 15 37  1  0
 16 38  1  0
 17 39  1  0
 19 40  1  0
 20 41  1  0
 21 42  1  0
 22 43  1  0
 22 44  1  0
 22 45  1  0
 27 46  1  0
 28 47  1  0
 29 48  1  0
 30 49  1  0
 31 50  1  0
A    1
 O1 
A    2
 C1 
A    3
 O2 
A    4
 C2 
A    5
 C3 
A    6
 C4 
A    7
 C5 
A    8
 C6 
A    9
 S1 
A   10
 C7 
A   11
 S2 
A   12
 C8 
A   13
 C9 
A   14
 C10
A   15
 C11
A   16
 C12
A   17
 C13
A   18
 N1 
A   19
 C14
A   20
 C15
A   21
 C16
A   22
 C17
A   23
 C18
A   24
 N2 
A   25
 C19
A   26
 C20
A   27
 C21
A   28
 C22
A   29
 C23
A   30
 C24
A   31
 N3 
A   32
 H1 
A   33
 H2 
A   34
 H3 
A   35
 H4 
A   36
 H5 
A   37
 H6 
A   38
 H7 
A   39
 H8 
A   40
 H9 
A   41
 H10
A   42
 H11
A   43
 H12
A   44
 H13
A   45
 H14
A   46
 H15
A   47
 H16
A   48
 H17
A   49
 H18
A   50
 H19
M  END
>  <ref_pdb>  (475) 
x0051_0B

>  <ref_mols>  (475) 
x0846_1B,x0490_0B

>  <original SMILES>  (475) 
[H]c1c([H])c(C([H])([H])Sc2nc3c([H])c([H])c([H])c([H])c3s2)c([H])c([H])c1C(=O)OC([H])(c1nc2c([H])c([H])c([H])c([H])c2n1[H])C([H])([H])[H]

>  <index>  (475) 
1056

>  <∆∆G>  (475) 
-9.589511

>  <∆G_bound>  (475) 
-8.961371

>  <∆G_unbound>  (475) 
0.62814

>  <comRMSD>  (475) 
0.901601

>  <N_constrained_atoms>  (475) 
27.0

>  <N_unconstrained_atoms>  (475) 
4.0

>  <runtime>  (475) 
42.351388

>  <LE>  (475) 
0.309339

>  <percent_hybrid>  (475) 
34.0

>  <dist>  (475) 
8.0

>  <ecfp4>  (475) 
0.230769

>  <daylight>  (475) 
0.250909

>  <topodist>  (475) 
6.0

>  <mces>  (475) 
32.0

>  <tdn>  (475) 
3.0

>  <tup>  (475) 
2.0

>  <rdn>  (475) 
0.0

>  <rup>  (475) 
0.0

>  <ldn>  (475) 
0.0

>  <lup>  (475) 
1.0

>  <mut>  (475) 
2.0

>  <maj>  (475) 
2.0

>  <min>  (475) 
0.0

>  <hyb>  (475) 
0.0

>  <sub>  (475) 
3.0

>  <query_index>  (475) 
51.0

>  <max_hit_Tanimoto>  (475) 
0.244313

>  <largest_ring>  (475) 
6

>  <N_interactions_kept>  (475) 
0.0

>  <N_interactions_lost>  (475) 
3.0

>  <interaction_uniqueness_metric>  (475) 
0.183756

>  <ad_hoc_penalty>  (475) 
-17.455358

>  <N_rotatable_bonds>  (475) 
7

>  <N_HA>  (475) 
31

>  <cluster>  (475) 
5247

>  <N_interactions>  (475) 
7

>  <Enamine>  (475) 
0

>  <Mcule>  (475) 
1

>  <N_PAINS>  (475) 
0

>  <UFF_Gibbs>  (475) 
81.610767

>  <strain_per_HA>  (475) 
2.632605

>  <saltbridge:HIS:51>  (475) 
0

>  <pistack:HIS:51>  (475) 
0

>  <hydroph_interaction:HIS:51>  (475) 
0

>  <hbond:ALA:132>  (475) 
0

>  <hbond:SER:135>  (475) 
0

>  <hydroph_interaction:TYR:150>  (475) 
1

>  <pistack:TYR:161>  (475) 
1

>  <hydroph_interaction:TYR:161>  (475) 
2

>  <hydroph_interaction:ASP:83>  (475) 
0

>  <hbond:TYR:130>  (475) 
0

>  <hydroph_interaction:ALA:132>  (475) 
0

>  <hbond:HIS:51>  (475) 
0

>  <hbond:ASP:129>  (475) 
0

>  <hbond:TYR:150>  (475) 
0

>  <hbond:GLY:151>  (475) 
0

>  <hbond:TYR:161>  (475) 
0

>  <hydroph_interaction:TYR:130>  (475) 
1

>  <hydroph_interaction:PRO:131>  (475) 
1

>  <hydroph_interaction:ASP:129>  (475) 
1

>  <saltbridge:ASP:75>  (475) 
0

>  <saltbridge:ASP:83>  (475) 
0

>  <hydroph_interaction:ASN:152>  (475) 
0

>  <halogenbond:TYR:150>  (475) 
0

>  <hbond:ASP:83>  (475) 
0

>  <hydroph_interaction:VAL:155>  (475) 
0

>  <pication:TYR:161>  (475) 
0

>  <hbond:PRO:131>  (475) 
0

>  <hbond:LEU:128>  (475) 
0

>  <saltbridge:ASP:129>  (475) 
0

>  <hbond:THR:134>  (475) 
0

>  <pication:HIS:51>  (475) 
0

>  <hbond:SER:81>  (475) 
0

>  <hbond:GLY:159>  (475) 
0

>  <hydroph_interaction:PRO:101>  (475) 
0

>  <hydroph_interaction:THR:134>  (475) 
0

>  <hbond:GLY:82>  (475) 
0

>  <hydroph_interaction:GLU:104>  (475) 
0

>  <hydroph_interaction:VAL:36>  (475) 
0

>  <hydroph_interaction:MET:49>  (475) 
0

>  <halogenbond:GLU:104>  (475) 
0

>  <hydroph_interaction:LYS:107>  (475) 
0

$$$$
KLEXNECCOFAKGK-UHFFFAOYSA-N
     RDKit          3D

 34 36  0  0  0  0  0  0  0  0999 V2000
   -6.4570    5.0660  -20.6260 C   0  0  0  0  0  0  0  0  0  0  0  0
   -6.8360    5.7770  -19.5530 N   0  0  0  0  0  0  0  0  0  0  0  0
   -7.8520    5.4430  -18.7070 C   0  0  0  0  0  0  0  0  0  0  0  0
   -9.1510    4.8400  -19.1760 C   0  0  0  0  0  0  0  0  0  0  0  0
  -10.0620    4.5730  -18.2070 C   0  0  0  0  0  0  0  0  0  0  0  0
   -9.7960    4.8530  -16.7870 C   0  0  0  0  0  0  0  0  0  0  0  0
   -8.5900    5.4120  -16.4350 C   0  0  0  0  0  0  0  0  0  0  0  0
   -8.2770    5.7350  -15.1550 C   0  0  0  0  0  0  0  0  0  0  0  0
   -6.9920    5.7920  -14.7050 N   0  0  0  0  0  0  0  0  0  0  0  0
   -7.0990    6.1930  -13.4410 N   0  0  0  0  0  0  0  0  0  0  0  0
   -8.4360    6.3360  -13.2370 N   0  0  0  0  0  0  0  0  0  0  0  0
   -9.0490    6.7700  -12.0230 C   0  0  0  0  0  0  0  0  0  0  0  0
   -9.2060    6.0500  -14.2630 N   0  0  0  0  0  0  0  0  0  0  0  0
   -7.6300    5.6980  -17.3780 C   0  0  0  0  0  0  0  0  0  0  0  0
   -7.2790    4.1570  -21.3860 O   0  0  0  0  0  0  0  0  0  0  0  0
   -5.0500    5.2860  -21.0020 C   0  0  0  0  0  0  0  0  0  0  0  0
   -3.9100    5.3170  -20.0100 C   0  0  0  0  0  0  0  0  0  0  0  0
   -4.0450    5.1220  -18.2960 Cl  0  0  0  0  0  0  0  0  0  0  0  0
   -2.6450    5.5180  -20.5370 C   0  0  0  0  0  0  0  0  0  0  0  0
   -2.3430    5.7170  -22.0300 C   0  0  0  0  0  0  0  0  0  0  0  0
   -3.4240    5.6970  -22.9290 C   0  0  0  0  0  0  0  0  0  0  0  0
   -4.8060    5.4700  -22.3400 C   0  0  0  0  0  0  0  0  0  0  0  0
   -6.0890    6.2320  -19.0330 H   0  0  0  0  0  0  0  0  0  0  0  0
   -9.3790    4.6220  -20.2170 H   0  0  0  0  0  0  0  0  0  0  0  0
  -11.0150    4.1440  -18.4760 H   0  0  0  0  0  0  0  0  0  0  0  0
  -10.5270    4.6330  -16.0250 H   0  0  0  0  0  0  0  0  0  0  0  0
   -8.3070    7.3230  -11.4440 H   0  0  0  0  0  0  0  0  0  0  0  0
   -9.3870    5.8950  -11.4700 H   0  0  0  0  0  0  0  0  0  0  0  0
   -9.9070    7.4110  -12.2570 H   0  0  0  0  0  0  0  0  0  0  0  0
   -6.6790    6.1420  -17.0600 H   0  0  0  0  0  0  0  0  0  0  0  0
   -1.8110    5.5360  -19.8390 H   0  0  0  0  0  0  0  0  0  0  0  0
   -1.3260    5.8700  -22.3800 H   0  0  0  0  0  0  0  0  0  0  0  0
   -3.2800    5.8330  -24.0010 H   0  0  0  0  0  0  0  0  0  0  0  0
   -5.6560    5.4490  -23.0100 H   0  0  0  0  0  0  0  0  0  0  0  0
  1  2  1  0
  2  3  1  0
  3  4  2  0
  4  5  1  0
  5  6  2  0
  6  7  1  0
  7  8  1  0
  8  9  1  0
  9 10  2  0
 10 11  1  0
 11 12  1  0
 11 13  1  0
  7 14  2  0
  1 15  2  0
  1 16  1  0
 16 17  2  0
 17 18  1  0
 17 19  1  0
 19 20  2  0
 20 21  1  0
 21 22  2  0
  3 14  1  0
  8 13  2  0
 22 16  1  0
  2 23  1  0
  4 24  1  0
  5 25  1  0
  6 26  1  0
 12 27  1  0
 12 28  1  0
 12 29  1  0
 14 30  1  0
 19 31  1  0
 20 32  1  0
 21 33  1  0
 22 34  1  0
A    1
 C1 
A    2
 N1 
A    3
 C2 
A    4
 C3 
A    5
 C4 
A    6
 C5 
A    7
 C6 
A    8
 C7 
A    9
 N2 
A   10
 N3 
A   11
 N4 
A   12
 C8 
A   13
 N5 
A   14
 C9 
A   15
 O1 
A   16
 C10
A   17
 C11
A   18
CL1 
A   19
 C12
A   20
 C13
A   21
 C14
A   22
 C15
A   23
 H1 
A   24
 H2 
A   25
 H3 
A   26
 H4 
A   27
 H5 
A   28
 H6 
A   29
 H7 
A   30
 H8 
A   31
 H9 
A   32
 H10
A   33
 H11
A   34
 H12
M  END
>  <ref_pdb>  (476) 
x0051_0B

>  <ref_mols>  (476) 
x0852_0B,x0951_0B

>  <original SMILES>  (476) 
[H]c1c([H])c([H])c(C(=O)N([H])c2c([H])c([H])c([H])c(-c3nnn(C([H])([H])[H])n3)c2[H])c(Cl)c1[H]

>  <index>  (476) 
849

>  <∆∆G>  (476) 
-6.596106

>  <∆G_bound>  (476) 
-5.951274

>  <∆G_unbound>  (476) 
0.644833

>  <comRMSD>  (476) 
0.895941

>  <N_constrained_atoms>  (476) 
23.0

>  <N_unconstrained_atoms>  (476) 
0.0

>  <runtime>  (476) 
63.045488

>  <LE>  (476) 
0.286787

>  <percent_hybrid>  (476) 
32.0

>  <dist>  (476) 
7.0

>  <ecfp4>  (476) 
0.207317

>  <daylight>  (476) 
0.281385

>  <topodist>  (476) 
3.0

>  <mces>  (476) 
23.0

>  <tdn>  (476) 
1.0

>  <tup>  (476) 
0.0

>  <rdn>  (476) 
1.0

>  <rup>  (476) 
1.0

>  <ldn>  (476) 
0.0

>  <lup>  (476) 
0.0

>  <mut>  (476) 
3.0

>  <maj>  (476) 
2.0

>  <min>  (476) 
1.0

>  <hyb>  (476) 
1.0

>  <sub>  (476) 
3.0

>  <query_index>  (476) 
95.0

>  <max_hit_Tanimoto>  (476) 
0.340934

>  <largest_ring>  (476) 
6

>  <N_interactions_kept>  (476) 
2.0

>  <N_interactions_lost>  (476) 
4.0

>  <interaction_uniqueness_metric>  (476) 
0.227654

>  <ad_hoc_penalty>  (476) 
-17.438399

>  <N_rotatable_bonds>  (476) 
4

>  <N_HA>  (476) 
22

>  <cluster>  (476) 
5441

>  <N_interactions>  (476) 
9

>  <Enamine>  (476) 
0

>  <Mcule>  (476) 
1

>  <N_PAINS>  (476) 
0

>  <UFF_Gibbs>  (476) 
106.566605

>  <strain_per_HA>  (476) 
4.843937

>  <saltbridge:HIS:51>  (476) 
0

>  <pistack:HIS:51>  (476) 
0

>  <hydroph_interaction:HIS:51>  (476) 
0

>  <hbond:ALA:132>  (476) 
0

>  <hbond:SER:135>  (476) 
0

>  <hydroph_interaction:TYR:150>  (476) 
1

>  <pistack:TYR:161>  (476) 
0

>  <hydroph_interaction:TYR:161>  (476) 
3

>  <hydroph_interaction:ASP:83>  (476) 
0

>  <hbond:TYR:130>  (476) 
1

>  <hydroph_interaction:ALA:132>  (476) 
1

>  <hbond:HIS:51>  (476) 
1

>  <hbond:ASP:129>  (476) 
1

>  <hbond:TYR:150>  (476) 
0

>  <hbond:GLY:151>  (476) 
0

>  <hbond:TYR:161>  (476) 
0

>  <hydroph_interaction:TYR:130>  (476) 
0

>  <hydroph_interaction:PRO:131>  (476) 
0

>  <hydroph_interaction:ASP:129>  (476) 
1

>  <saltbridge:ASP:75>  (476) 
0

>  <saltbridge:ASP:83>  (476) 
0

>  <hydroph_interaction:ASN:152>  (476) 
0

>  <halogenbond:TYR:150>  (476) 
0

>  <hbond:ASP:83>  (476) 
0

>  <hydroph_interaction:VAL:155>  (476) 
0

>  <pication:TYR:161>  (476) 
0

>  <hbond:PRO:131>  (476) 
0

>  <hbond:LEU:128>  (476) 
0

>  <saltbridge:ASP:129>  (476) 
0

>  <hbond:THR:134>  (476) 
0

>  <pication:HIS:51>  (476) 
0

>  <hbond:SER:81>  (476) 
0

>  <hbond:GLY:159>  (476) 
0

>  <hydroph_interaction:PRO:101>  (476) 
0

>  <hydroph_interaction:THR:134>  (476) 
0

>  <hbond:GLY:82>  (476) 
0

>  <hydroph_interaction:GLU:104>  (476) 
0

>  <hydroph_interaction:VAL:36>  (476) 
0

>  <hydroph_interaction:MET:49>  (476) 
0

>  <halogenbond:GLU:104>  (476) 
0

>  <hydroph_interaction:LYS:107>  (476) 
0

$$$$
GLBCGFZCBLADJL-UHFFFAOYSA-N
     RDKit          3D

 36 38  0  0  0  0  0  0  0  0999 V2000
   -9.0740    6.1260  -13.4080 N   0  0  0  0  0  0  0  0  0  0  0  0
   -9.7790    5.5530  -14.6140 C   0  0  0  0  0  0  0  0  0  0  0  0
   -8.9680    5.3890  -15.9250 C   0  0  0  0  0  0  0  0  0  0  0  0
   -9.5330    5.0350  -17.1050 C   0  0  0  0  0  0  0  0  0  0  0  0
   -8.8510    4.8720  -18.4150 C   0  0  0  0  0  0  0  0  0  0  0  0
   -7.3630    5.1370  -18.3950 C   0  0  0  0  0  0  0  0  0  0  0  0
   -6.7050    5.4860  -17.2570 N   0  0  0  0  0  0  0  0  0  0  0  0
   -7.4550    5.6110  -16.0640 C   0  0  0  0  0  0  0  0  0  0  0  0
   -8.7070    5.0710  -12.4510 C   0  0  0  0  0  0  0  0  0  0  0  0
   -8.7800    5.4210  -10.9370 C   0  0  0  0  0  0  0  0  0  0  0  0
   -8.9320    4.2730   -9.9750 C   0  0  0  0  0  0  0  0  0  0  0  0
   -8.9570    4.9800   -8.6760 N   0  0  0  0  0  0  0  0  0  0  0  0
   -9.1040    4.1760   -7.4340 C   0  0  0  0  0  0  0  0  0  0  0  0
   -9.4930    2.7220   -7.6960 C   0  0  0  0  0  0  0  0  0  0  0  0
   -8.7390    2.2100   -8.9030 C   0  0  0  0  0  0  0  0  0  0  0  0
   -9.0410    2.7630  -10.1180 C   0  0  0  0  0  0  0  0  0  0  0  0
   -8.8420    6.3220   -8.7660 N   0  0  0  0  0  0  0  0  0  0  0  0
   -8.7400    6.5870  -10.1060 C   0  0  0  0  0  0  0  0  0  0  0  0
   -9.5870    6.8490  -12.9180 H   0  0  0  0  0  0  0  0  0  0  0  0
  -10.6020    6.2300  -14.8650 H   0  0  0  0  0  0  0  0  0  0  0  0
  -10.2700    4.6120  -14.3520 H   0  0  0  0  0  0  0  0  0  0  0  0
  -10.6050    4.8470  -17.1190 H   0  0  0  0  0  0  0  0  0  0  0  0
   -9.3760    4.5850  -19.3330 H   0  0  0  0  0  0  0  0  0  0  0  0
   -6.8460    5.0290  -19.3390 H   0  0  0  0  0  0  0  0  0  0  0  0
   -6.8550    5.8980  -15.1910 H   0  0  0  0  0  0  0  0  0  0  0  0
   -9.3550    4.1960  -12.5990 H   0  0  0  0  0  0  0  0  0  0  0  0
   -7.6820    4.7190  -12.6300 H   0  0  0  0  0  0  0  0  0  0  0  0
   -9.8640    4.6090   -6.7690 H   0  0  0  0  0  0  0  0  0  0  0  0
   -8.1420    4.2070   -6.9300 H   0  0  0  0  0  0  0  0  0  0  0  0
   -9.2410    2.1090   -6.8290 H   0  0  0  0  0  0  0  0  0  0  0  0
  -10.5700    2.6570   -7.8920 H   0  0  0  0  0  0  0  0  0  0  0  0
   -8.8760    1.1390   -8.9710 H   0  0  0  0  0  0  0  0  0  0  0  0
   -7.6760    2.3810   -8.7170 H   0  0  0  0  0  0  0  0  0  0  0  0
   -8.3360    2.4130  -10.8810 H   0  0  0  0  0  0  0  0  0  0  0  0
  -10.0480    2.4630  -10.4270 H   0  0  0  0  0  0  0  0  0  0  0  0
   -8.6370    7.6320  -10.4260 H   0  0  0  0  0  0  0  0  0  0  0  0
  1  2  1  0
  2  3  1  0
  3  4  2  0
  4  5  1  0
  5  6  2  0
  6  7  1  0
  7  8  2  0
  1  9  1  0
  9 10  1  0
 10 11  2  0
 11 12  1  0
 12 13  1  0
 13 14  1  0
 14 15  1  0
 15 16  1  0
 12 17  1  0
 17 18  2  0
  8  3  1  0
 18 10  1  0
 16 11  1  0
  1 19  1  0
  2 20  1  0
  2 21  1  0
  4 22  1  0
  5 23  1  0
  6 24  1  0
  8 25  1  0
  9 26  1  0
  9 27  1  0
 13 28  1  0
 13 29  1  0
 14 30  1  0
 14 31  1  0
 15 32  1  0
 15 33  1  0
 16 34  1  0
 16 35  1  0
 18 36  1  0
A    1
 N1 
A    2
 C1 
A    3
 C2 
A    4
 C3 
A    5
 C4 
A    6
 C5 
A    7
 N2 
A    8
 C6 
A    9
 C7 
A   10
 C8 
A   11
 C9 
A   12
 N3 
A   13
 C10
A   14
 C11
A   15
 C12
A   16
 C13
A   17
 N4 
A   18
 C14
A   19
 H1 
A   20
 H2 
A   21
 H3 
A   22
 H4 
A   23
 H5 
A   24
 H6 
A   25
 H7 
A   26
 H8 
A   27
 H9 
A   28
 H10
A   29
 H11
A   30
 H12
A   31
 H13
A   32
 H14
A   33
 H15
A   34
 H16
A   35
 H17
A   36
 H18
M  END
>  <ref_pdb>  (477) 
x0051_0B

>  <ref_mols>  (477) 
x0553_0B,x0969_1B

>  <original SMILES>  (477) 
[H]c1nc([H])c(C([H])([H])N([H])C([H])([H])c2c([H])nn3c2C([H])([H])C([H])([H])C([H])([H])C3([H])[H])c([H])c1[H]

>  <index>  (477) 
720

>  <∆∆G>  (477) 
-6.124207

>  <∆G_bound>  (477) 
-5.732168

>  <∆G_unbound>  (477) 
0.392038

>  <comRMSD>  (477) 
0.644168

>  <N_constrained_atoms>  (477) 
17.0

>  <N_unconstrained_atoms>  (477) 
2.0

>  <runtime>  (477) 
52.878784

>  <LE>  (477) 
0.322327

>  <percent_hybrid>  (477) 
42.0

>  <dist>  (477) 
7.0

>  <ecfp4>  (477) 
0.293333

>  <daylight>  (477) 
0.307692

>  <topodist>  (477) 
3.0

>  <mces>  (477) 
20.0

>  <tdn>  (477) 
3.0

>  <tup>  (477) 
0.0

>  <rdn>  (477) 
0.0

>  <rup>  (477) 
0.0

>  <ldn>  (477) 
0.0

>  <lup>  (477) 
0.0

>  <mut>  (477) 
4.0

>  <maj>  (477) 
4.0

>  <min>  (477) 
0.0

>  <hyb>  (477) 
0.0

>  <sub>  (477) 
2.0

>  <query_index>  (477) 
375.0

>  <max_hit_Tanimoto>  (477) 
0.377267

>  <largest_ring>  (477) 
6

>  <N_interactions_kept>  (477) 
1.5

>  <N_interactions_lost>  (477) 
1.0

>  <interaction_uniqueness_metric>  (477) 
0.199436

>  <ad_hoc_penalty>  (477) 
-17.419091

>  <N_rotatable_bonds>  (477) 
4

>  <N_HA>  (477) 
18

>  <cluster>  (477) 
5561

>  <N_interactions>  (477) 
4

>  <Enamine>  (477) 
0

>  <Mcule>  (477) 
1

>  <N_PAINS>  (477) 
0

>  <UFF_Gibbs>  (477) 
102.95132

>  <strain_per_HA>  (477) 
5.719518

>  <saltbridge:HIS:51>  (477) 
0

>  <pistack:HIS:51>  (477) 
1

>  <hydroph_interaction:HIS:51>  (477) 
0

>  <hbond:ALA:132>  (477) 
0

>  <hbond:SER:135>  (477) 
0

>  <hydroph_interaction:TYR:150>  (477) 
0

>  <pistack:TYR:161>  (477) 
1

>  <hydroph_interaction:TYR:161>  (477) 
0

>  <hydroph_interaction:ASP:83>  (477) 
1

>  <hbond:TYR:130>  (477) 
0

>  <hydroph_interaction:ALA:132>  (477) 
0

>  <hbond:HIS:51>  (477) 
1

>  <hbond:ASP:129>  (477) 
0

>  <hbond:TYR:150>  (477) 
0

>  <hbond:GLY:151>  (477) 
0

>  <hbond:TYR:161>  (477) 
0

>  <hydroph_interaction:TYR:130>  (477) 
0

>  <hydroph_interaction:PRO:131>  (477) 
0

>  <hydroph_interaction:ASP:129>  (477) 
0

>  <saltbridge:ASP:75>  (477) 
0

>  <saltbridge:ASP:83>  (477) 
0

>  <hydroph_interaction:ASN:152>  (477) 
0

>  <halogenbond:TYR:150>  (477) 
0

>  <hbond:ASP:83>  (477) 
0

>  <hydroph_interaction:VAL:155>  (477) 
0

>  <pication:TYR:161>  (477) 
0

>  <hbond:PRO:131>  (477) 
0

>  <hbond:LEU:128>  (477) 
0

>  <saltbridge:ASP:129>  (477) 
0

>  <hbond:THR:134>  (477) 
0

>  <pication:HIS:51>  (477) 
0

>  <hbond:SER:81>  (477) 
0

>  <hbond:GLY:159>  (477) 
0

>  <hydroph_interaction:PRO:101>  (477) 
0

>  <hydroph_interaction:THR:134>  (477) 
0

>  <hbond:GLY:82>  (477) 
0

>  <hydroph_interaction:GLU:104>  (477) 
0

>  <hydroph_interaction:VAL:36>  (477) 
0

>  <hydroph_interaction:MET:49>  (477) 
0

>  <halogenbond:GLU:104>  (477) 
0

>  <hydroph_interaction:LYS:107>  (477) 
0

$$$$
Z4468685870
     RDKit          3D

 46 48  0  0  0  0  0  0  0  0999 V2000
   -4.7320    5.1860  -22.2500 C   0  0  0  0  0  0  0  0  0  0  0  0
   -3.7820    5.4370  -21.1810 N   0  0  0  0  0  0  0  0  0  0  0  0
   -2.4360    4.9560  -21.4620 C   0  0  0  0  0  0  0  0  0  0  0  0
   -4.2810    5.6720  -19.8790 C   0  0  0  0  0  0  0  0  0  0  0  0
   -5.6090    6.1340  -19.7360 C   0  0  0  0  0  0  0  0  0  0  0  0
   -6.5850    5.0870  -19.5150 N   0  0  0  0  0  0  0  0  0  0  0  0
   -7.3370    4.5960  -20.5950 C   0  0  0  0  0  0  0  0  0  0  0  0
   -6.9750    4.4040  -21.7260 O   0  0  0  0  0  0  0  0  0  0  0  0
   -8.6720    4.3440  -20.2230 N   0  0  0  0  0  0  0  0  0  0  0  0
   -8.7980    4.6260  -18.8990 C   0  0  0  0  0  0  0  0  0  0  0  0
   -9.9320    4.5500  -17.9120 C   0  0  0  0  0  0  0  0  0  0  0  0
   -9.6720    4.9100  -16.5770 C   0  0  0  0  0  0  0  0  0  0  0  0
   -8.4000    5.3490  -16.1550 C   0  0  0  0  0  0  0  0  0  0  0  0
   -8.1710    5.7080  -14.8340 C   0  0  0  0  0  0  0  0  0  0  0  0
   -7.6600    6.7840  -14.5500 O   0  0  0  0  0  0  0  0  0  0  0  0
   -8.5570    4.7840  -13.8880 N   0  0  0  0  0  0  0  0  0  0  0  0
   -8.7170    5.0980  -12.5880 C   0  0  0  0  0  0  0  0  0  0  0  0
   -8.6400    4.2130  -11.6550 N   0  0  0  0  0  0  0  0  0  0  0  0
   -8.8540    4.9420  -10.5280 N   0  0  0  0  0  0  0  0  0  0  0  0
   -8.2850    4.5010   -9.2690 C   0  0  0  0  0  0  0  0  0  0  0  0
   -8.7290    6.3780  -10.7550 C   0  0  0  0  0  0  0  0  0  0  0  0
   -8.9830    6.4960  -12.1310 C   0  0  0  0  0  0  0  0  0  0  0  0
   -7.3180    5.4400  -17.0400 C   0  0  0  0  0  0  0  0  0  0  0  0
   -7.5900    5.0490  -18.4590 C   0  0  0  0  0  0  0  0  0  0  0  0
   -5.1700    4.1940  -22.1180 H   0  0  0  0  0  0  0  0  0  0  0  0
   -5.5320    5.9300  -22.2970 H   0  0  0  0  0  0  0  0  0  0  0  0
   -4.1870    5.1780  -23.1990 H   0  0  0  0  0  0  0  0  0  0  0  0
   -2.5010    4.1400  -22.1970 H   0  0  0  0  0  0  0  0  0  0  0  0
   -1.9410    4.5360  -20.5760 H   0  0  0  0  0  0  0  0  0  0  0  0
   -1.8240    5.7700  -21.8580 H   0  0  0  0  0  0  0  0  0  0  0  0
   -4.2120    4.7510  -19.3020 H   0  0  0  0  0  0  0  0  0  0  0  0
   -3.6160    6.3740  -19.3610 H   0  0  0  0  0  0  0  0  0  0  0  0
   -5.9140    6.7150  -20.6140 H   0  0  0  0  0  0  0  0  0  0  0  0
   -5.6670    6.8050  -18.8720 H   0  0  0  0  0  0  0  0  0  0  0  0
   -9.2020    3.6650  -20.7380 H   0  0  0  0  0  0  0  0  0  0  0  0
  -10.9210    4.2260  -18.2180 H   0  0  0  0  0  0  0  0  0  0  0  0
  -10.4500    4.8680  -15.8250 H   0  0  0  0  0  0  0  0  0  0  0  0
   -9.0630    3.9460  -14.1790 H   0  0  0  0  0  0  0  0  0  0  0  0
   -8.5420    3.4520   -9.0850 H   0  0  0  0  0  0  0  0  0  0  0  0
   -8.6860    5.0800   -8.4330 H   0  0  0  0  0  0  0  0  0  0  0  0
   -7.1930    4.5940   -9.2680 H   0  0  0  0  0  0  0  0  0  0  0  0
   -7.7390    6.7560  -10.4900 H   0  0  0  0  0  0  0  0  0  0  0  0
   -9.4880    6.9360  -10.1940 H   0  0  0  0  0  0  0  0  0  0  0  0
  -10.0020    6.8110  -12.3430 H   0  0  0  0  0  0  0  0  0  0  0  0
   -8.2710    7.1720  -12.6180 H   0  0  0  0  0  0  0  0  0  0  0  0
   -6.3000    5.7650  -16.8160 H   0  0  0  0  0  0  0  0  0  0  0  0
  1  2  1  0
  2  3  1  0
  2  4  1  0
  4  5  1  0
  5  6  1  0
  6  7  1  0
  7  8  2  0
  7  9  1  0
  9 10  1  0
 10 11  2  0
 11 12  1  0
 12 13  2  0
 13 14  1  0
 14 15  2  0
 14 16  1  0
 16 17  1  0
 17 18  2  0
 18 19  1  0
 19 20  1  0
 19 21  1  0
 21 22  1  0
 13 23  1  0
 23 24  2  0
 24  6  1  0
 24 10  1  0
 22 17  1  0
  1 25  1  0
  1 26  1  0
  1 27  1  0
  3 28  1  0
  3 29  1  0
  3 30  1  0
  4 31  1  0
  4 32  1  0
  5 33  1  0
  5 34  1  0
  9 35  1  0
 11 36  1  0
 12 37  1  0
 16 38  1  0
 20 39  1  0
 20 40  1  0
 20 41  1  0
 21 42  1  0
 21 43  1  0
 22 44  1  0
 22 45  1  0
 23 46  1  0
A    1
 C1 
A    2
 N1 
A    3
 C2 
A    4
 C3 
A    5
 C4 
A    6
 N2 
A    7
 C5 
A    8
 O1 
A    9
 N3 
A   10
 C6 
A   11
 C7 
A   12
 C8 
A   13
 C9 
A   14
 C10
A   15
 O2 
A   16
 N4 
A   17
 C11
A   18
 N5 
A   19
 N6 
A   20
 C12
A   21
 C13
A   22
 C14
A   23
 C15
A   24
 C16
A   25
 H1 
A   26
 H2 
A   27
 H3 
A   28
 H4 
A   29
 H5 
A   30
 H6 
A   31
 H7 
A   32
 H8 
A   33
 H9 
A   34
 H10
A   35
 H11
A   36
 H12
A   37
 H13
A   38
 H14
A   39
 H15
A   40
 H16
A   41
 H17
A   42
 H18
A   43
 H19
A   44
 H20
A   45
 H21
A   46
 H22
M  END
>  <ref_pdb>  (478) 
x0051_0B

>  <ref_mols>  (478) 
x0904_0B,x1098_0B

>  <original SMILES>  (478) 
[H]c1c(C(=O)N([H])C2=NN(C([H])([H])[H])C([H])([H])C2([H])[H])c([H])c2c(c1[H])n([H])c(=O)n2C([H])([H])C([H])([H])N(C([H])([H])[H])C([H])([H])[H]

>  <index>  (478) 
685

>  <∆∆G>  (478) 
-6.72962

>  <∆G_bound>  (478) 
-5.920342

>  <∆G_unbound>  (478) 
0.809278

>  <comRMSD>  (478) 
0.840915

>  <N_constrained_atoms>  (478) 
24.0

>  <N_unconstrained_atoms>  (478) 
2.0

>  <runtime>  (478) 
54.245556

>  <LE>  (478) 
0.258832

>  <percent_hybrid>  (478) 
42.0

>  <dist>  (478) 
9.0

>  <ecfp4>  (478) 
0.223529

>  <daylight>  (478) 
0.34375

>  <topodist>  (478) 
2.0

>  <mces>  (478) 
25.0

>  <tdn>  (478) 
1.0

>  <tup>  (478) 
0.0

>  <rdn>  (478) 
0.0

>  <rup>  (478) 
1.0

>  <ldn>  (478) 
0.0

>  <lup>  (478) 
0.0

>  <mut>  (478) 
4.0

>  <maj>  (478) 
4.0

>  <min>  (478) 
0.0

>  <hyb>  (478) 
3.0

>  <sub>  (478) 
1.0

>  <query_index>  (478) 
34.0

>  <max_hit_Tanimoto>  (478) 
0.259707

>  <largest_ring>  (478) 
6

>  <N_interactions_kept>  (478) 
4.0

>  <N_interactions_lost>  (478) 
2.0

>  <interaction_uniqueness_metric>  (478) 
0.330126

>  <ad_hoc_penalty>  (478) 
-17.401271

>  <N_rotatable_bonds>  (478) 
7

>  <N_HA>  (478) 
24

>  <cluster>  (478) 
5590

>  <N_interactions>  (478) 
7

>  <Enamine>  (478) 
1

>  <Mcule>  (478) 
0

>  <N_PAINS>  (478) 
0

>  <UFF_Gibbs>  (478) 
178.795598

>  <strain_per_HA>  (478) 
7.449817

>  <saltbridge:HIS:51>  (478) 
0

>  <pistack:HIS:51>  (478) 
0

>  <hydroph_interaction:HIS:51>  (478) 
0

>  <hbond:ALA:132>  (478) 
0

>  <hbond:SER:135>  (478) 
0

>  <hydroph_interaction:TYR:150>  (478) 
0

>  <pistack:TYR:161>  (478) 
2

>  <hydroph_interaction:TYR:161>  (478) 
0

>  <hydroph_interaction:ASP:83>  (478) 
0

>  <hbond:TYR:130>  (478) 
1

>  <hydroph_interaction:ALA:132>  (478) 
0

>  <hbond:HIS:51>  (478) 
0

>  <hbond:ASP:129>  (478) 
1

>  <hbond:TYR:150>  (478) 
1

>  <hbond:GLY:151>  (478) 
1

>  <hbond:TYR:161>  (478) 
0

>  <hydroph_interaction:TYR:130>  (478) 
0

>  <hydroph_interaction:PRO:131>  (478) 
0

>  <hydroph_interaction:ASP:129>  (478) 
0

>  <saltbridge:ASP:75>  (478) 
0

>  <saltbridge:ASP:83>  (478) 
0

>  <hydroph_interaction:ASN:152>  (478) 
0

>  <halogenbond:TYR:150>  (478) 
0

>  <hbond:ASP:83>  (478) 
0

>  <hydroph_interaction:VAL:155>  (478) 
0

>  <pication:TYR:161>  (478) 
0

>  <hbond:PRO:131>  (478) 
0

>  <hbond:LEU:128>  (478) 
0

>  <saltbridge:ASP:129>  (478) 
1

>  <hbond:THR:134>  (478) 
0

>  <pication:HIS:51>  (478) 
0

>  <hbond:SER:81>  (478) 
0

>  <hbond:GLY:159>  (478) 
0

>  <hydroph_interaction:PRO:101>  (478) 
0

>  <hydroph_interaction:THR:134>  (478) 
0

>  <hbond:GLY:82>  (478) 
0

>  <hydroph_interaction:GLU:104>  (478) 
0

>  <hydroph_interaction:VAL:36>  (478) 
0

>  <hydroph_interaction:MET:49>  (478) 
0

>  <halogenbond:GLU:104>  (478) 
0

>  <hydroph_interaction:LYS:107>  (478) 
0

$$$$
MCULE-9022794057
     RDKit          3D

 49 53  0  0  0  0  0  0  0  0999 V2000
   -7.1460    5.2990  -18.6160 N   0  0  0  0  0  0  0  0  0  0  0  0
   -8.4340    5.1080  -19.2010 C   0  0  0  0  0  0  0  0  0  0  0  0
   -9.4520    4.7830  -18.3100 C   0  0  0  0  0  0  0  0  0  0  0  0
   -9.1990    4.6510  -16.9330 C   0  0  0  0  0  0  0  0  0  0  0  0
   -7.9310    4.7950  -16.3400 C   0  0  0  0  0  0  0  0  0  0  0  0
   -6.9270    5.1330  -17.2890 C   0  0  0  0  0  0  0  0  0  0  0  0
   -5.5900    5.3750  -17.0810 N   0  0  0  0  0  0  0  0  0  0  0  0
   -5.0040    5.7120  -18.2870 N   0  0  0  0  0  0  0  0  0  0  0  0
   -5.8780    5.7160  -19.3020 C   0  0  0  0  0  0  0  0  0  0  0  0
   -5.5310    6.0960  -20.6740 C   0  0  0  0  0  0  0  0  0  0  0  0
   -6.0410    5.6400  -21.9260 C   0  0  0  0  0  0  0  0  0  0  0  0
   -5.9430    6.5740  -23.0870 C   0  0  0  0  0  0  0  0  0  0  0  0
   -5.8170    8.0290  -22.7590 N   0  0  0  0  0  0  0  0  0  0  0  0
   -5.1280    8.2250  -21.5320 C   0  0  0  0  0  0  0  0  0  0  0  0
   -5.8540    7.5810  -20.5820 C   0  0  0  0  0  0  0  0  0  0  0  0
   -5.4970    9.1280  -23.5880 C   0  0  0  0  0  0  0  0  0  0  0  0
   -6.4410    9.6440  -24.6160 C   0  0  0  0  0  0  0  0  0  0  0  0
   -6.0570    9.6190  -25.9670 C   0  0  0  0  0  0  0  0  0  0  0  0
   -7.2050    9.2710  -26.6620 C   0  0  0  0  0  0  0  0  0  0  0  0
   -8.3370   10.4820  -27.0880 S   0  0  0  0  0  0  0  0  0  0  0  0
   -9.3990    9.2930  -27.7290 C   0  0  0  0  0  0  0  0  0  0  0  0
   -8.8100    8.0430  -27.6250 C   0  0  0  0  0  0  0  0  0  0  0  0
   -9.5480    6.8000  -28.1370 C   0  0  0  0  0  0  0  0  0  0  0  0
  -10.7960    6.9570  -28.6810 C   0  0  0  0  0  0  0  0  0  0  0  0
  -11.3640    8.3550  -28.7420 C   0  0  0  0  0  0  0  0  0  0  0  0
  -10.6810    9.4820  -28.2810 C   0  0  0  0  0  0  0  0  0  0  0  0
   -7.5070    8.0500  -27.0000 N   0  0  0  0  0  0  0  0  0  0  0  0
   -4.4360    9.7060  -23.4010 O   0  0  0  0  0  0  0  0  0  0  0  0
   -8.5260    5.2190  -20.2610 H   0  0  0  0  0  0  0  0  0  0  0  0
  -10.4750    4.6160  -18.6470 H   0  0  0  0  0  0  0  0  0  0  0  0
  -10.0790    4.4150  -16.3330 H   0  0  0  0  0  0  0  0  0  0  0  0
   -7.7440    4.6750  -15.2680 H   0  0  0  0  0  0  0  0  0  0  0  0
   -4.4450    6.1010  -20.7400 H   0  0  0  0  0  0  0  0  0  0  0  0
   -5.4220    4.8280  -22.3230 H   0  0  0  0  0  0  0  0  0  0  0  0
   -6.9630    5.0920  -21.7770 H   0  0  0  0  0  0  0  0  0  0  0  0
   -5.0170    6.3410  -23.6010 H   0  0  0  0  0  0  0  0  0  0  0  0
   -6.6970    6.4880  -23.8630 H   0  0  0  0  0  0  0  0  0  0  0  0
   -4.9970    9.2990  -21.4440 H   0  0  0  0  0  0  0  0  0  0  0  0
   -4.1110    7.8530  -21.6640 H   0  0  0  0  0  0  0  0  0  0  0  0
   -6.9340    7.7080  -20.5830 H   0  0  0  0  0  0  0  0  0  0  0  0
   -5.5280    7.9440  -19.6020 H   0  0  0  0  0  0  0  0  0  0  0  0
   -6.9230   10.5730  -24.3190 H   0  0  0  0  0  0  0  0  0  0  0  0
   -7.2820    8.9440  -24.5610 H   0  0  0  0  0  0  0  0  0  0  0  0
   -5.2380    8.9500  -26.1990 H   0  0  0  0  0  0  0  0  0  0  0  0
   -5.6320   10.5510  -26.3190 H   0  0  0  0  0  0  0  0  0  0  0  0
   -9.1760    5.7690  -28.1060 H   0  0  0  0  0  0  0  0  0  0  0  0
  -11.4250    6.1520  -29.0770 H   0  0  0  0  0  0  0  0  0  0  0  0
  -12.3640    8.5020  -29.1720 H   0  0  0  0  0  0  0  0  0  0  0  0
  -11.1220   10.4720  -28.3450 H   0  0  0  0  0  0  0  0  0  0  0  0
  1  2  1  0
  2  3  2  0
  3  4  1  0
  4  5  2  0
  5  6  1  0
  6  7  2  0
  7  8  1  0
  8  9  2  0
  9 10  1  0
 10 11  1  0
 11 12  1  0
 12 13  1  0
 13 14  1  0
 14 15  1  0
 13 16  1  0
 16 17  1  0
 17 18  1  0
 18 19  1  0
 19 20  1  0
 20 21  1  0
 21 22  2  0
 22 23  1  0
 23 24  2  0
 24 25  1  0
 25 26  2  0
 22 27  1  0
 16 28  2  0
  6  1  1  0
  9  1  1  0
 15 10  1  0
 19 27  2  0
 21 26  1  0
  2 29  1  0
  3 30  1  0
  4 31  1  0
  5 32  1  0
 10 33  1  0
 11 34  1  0
 11 35  1  0
 12 36  1  0
 12 37  1  0
 14 38  1  0
 14 39  1  0
 15 40  1  0
 15 41  1  0
 17 42  1  0
 17 43  1  0
 18 44  1  0
 18 45  1  0
 23 46  1  0
 24 47  1  0
 25 48  1  0
 26 49  1  0
A    1
 N1 
A    2
 C1 
A    3
 C2 
A    4
 C3 
A    5
 C4 
A    6
 C5 
A    7
 N2 
A    8
 N3 
A    9
 C6 
A   10
 C7 
A   11
 C8 
A   12
 C9 
A   13
 N4 
A   14
 C10
A   15
 C11
A   16
 C12
A   17
 C13
A   18
 C14
A   19
 C15
A   20
 S1 
A   21
 C16
A   22
 C17
A   23
 C18
A   24
 C19
A   25
 C20
A   26
 C21
A   27
 N5 
A   28
 O1 
A   29
 H1 
A   30
 H2 
A   31
 H3 
A   32
 H4 
A   33
 H5 
A   34
 H6 
A   35
 H7 
A   36
 H8 
A   37
 H9 
A   38
 H10
A   39
 H11
A   40
 H12
A   41
 H13
A   42
 H14
A   43
 H15
A   44
 H16
A   45
 H17
A   46
 H18
A   47
 H19
A   48
 H20
A   49
 H21
M  END
>  <ref_pdb>  (479) 
x0051_0B

>  <ref_mols>  (479) 
x0435_0B,x0846_1B

>  <original SMILES>  (479) 
[H]c1c([H])c([H])c2sc(C([H])([H])C([H])([H])C(=O)N3C([H])([H])C([H])([H])C([H])(c4nnc5c([H])c([H])c([H])c([H])n45)C([H])([H])C3([H])[H])nc2c1[H]

>  <index>  (479) 
568

>  <∆∆G>  (479) 
-5.962945

>  <∆G_bound>  (479) 
-4.866622

>  <∆G_unbound>  (479) 
1.096323

>  <comRMSD>  (479) 
0.984081

>  <N_constrained_atoms>  (479) 
28.0

>  <N_unconstrained_atoms>  (479) 
1.0

>  <runtime>  (479) 
49.894855

>  <LE>  (479) 
0.205619

>  <percent_hybrid>  (479) 
36.0

>  <dist>  (479) 
11.0

>  <ecfp4>  (479) 
0.280899

>  <daylight>  (479) 
0.254355

>  <topodist>  (479) 
4.0

>  <mces>  (479) 
31.0

>  <tdn>  (479) 
1.0

>  <tup>  (479) 
0.0

>  <rdn>  (479) 
1.0

>  <rup>  (479) 
1.0

>  <ldn>  (479) 
1.0

>  <lup>  (479) 
0.0

>  <mut>  (479) 
3.0

>  <maj>  (479) 
3.0

>  <min>  (479) 
0.0

>  <hyb>  (479) 
4.0

>  <sub>  (479) 
0.0

>  <query_index>  (479) 
36.0

>  <max_hit_Tanimoto>  (479) 
0.27193

>  <largest_ring>  (479) 
6

>  <N_interactions_kept>  (479) 
1.0

>  <N_interactions_lost>  (479) 
2.0

>  <interaction_uniqueness_metric>  (479) 
0.175892

>  <ad_hoc_penalty>  (479) 
-17.375224

>  <N_rotatable_bonds>  (479) 
4

>  <N_HA>  (479) 
28

>  <cluster>  (479) 
5698

>  <N_interactions>  (479) 
6

>  <Enamine>  (479) 
0

>  <Mcule>  (479) 
1

>  <N_PAINS>  (479) 
0

>  <UFF_Gibbs>  (479) 
207.294872

>  <strain_per_HA>  (479) 
7.403388

>  <saltbridge:HIS:51>  (479) 
0

>  <pistack:HIS:51>  (479) 
0

>  <hydroph_interaction:HIS:51>  (479) 
0

>  <hbond:ALA:132>  (479) 
0

>  <hbond:SER:135>  (479) 
0

>  <hydroph_interaction:TYR:150>  (479) 
1

>  <pistack:TYR:161>  (479) 
2

>  <hydroph_interaction:TYR:161>  (479) 
0

>  <hydroph_interaction:ASP:83>  (479) 
0

>  <hbond:TYR:130>  (479) 
0

>  <hydroph_interaction:ALA:132>  (479) 
0

>  <hbond:HIS:51>  (479) 
0

>  <hbond:ASP:129>  (479) 
0

>  <hbond:TYR:150>  (479) 
0

>  <hbond:GLY:151>  (479) 
0

>  <hbond:TYR:161>  (479) 
0

>  <hydroph_interaction:TYR:130>  (479) 
1

>  <hydroph_interaction:PRO:131>  (479) 
1

>  <hydroph_interaction:ASP:129>  (479) 
1

>  <saltbridge:ASP:75>  (479) 
0

>  <saltbridge:ASP:83>  (479) 
0

>  <hydroph_interaction:ASN:152>  (479) 
0

>  <halogenbond:TYR:150>  (479) 
0

>  <hbond:ASP:83>  (479) 
0

>  <hydroph_interaction:VAL:155>  (479) 
0

>  <pication:TYR:161>  (479) 
0

>  <hbond:PRO:131>  (479) 
0

>  <hbond:LEU:128>  (479) 
0

>  <saltbridge:ASP:129>  (479) 
0

>  <hbond:THR:134>  (479) 
0

>  <pication:HIS:51>  (479) 
0

>  <hbond:SER:81>  (479) 
0

>  <hbond:GLY:159>  (479) 
0

>  <hydroph_interaction:PRO:101>  (479) 
0

>  <hydroph_interaction:THR:134>  (479) 
0

>  <hbond:GLY:82>  (479) 
0

>  <hydroph_interaction:GLU:104>  (479) 
0

>  <hydroph_interaction:VAL:36>  (479) 
0

>  <hydroph_interaction:MET:49>  (479) 
0

>  <halogenbond:GLU:104>  (479) 
0

>  <hydroph_interaction:LYS:107>  (479) 
0

$$$$
Z2732687556
     RDKit          3D

 42 44  0  0  0  0  0  0  0  0999 V2000
   -8.5840    4.4500   -8.8860 C   0  0  0  0  0  0  0  0  0  0  0  0
   -8.6940    4.8920  -10.2070 C   0  0  0  0  0  0  0  0  0  0  0  0
   -8.8380    6.1510  -10.5490 N   0  0  0  0  0  0  0  0  0  0  0  0
   -8.9170    6.2910  -11.9460 N   0  0  0  0  0  0  0  0  0  0  0  0
   -8.8260    5.1330  -12.5440 C   0  0  0  0  0  0  0  0  0  0  0  0
   -8.8480    4.8670  -13.8690 N   0  0  0  0  0  0  0  0  0  0  0  0
   -8.2670    5.7560  -14.7200 C   0  0  0  0  0  0  0  0  0  0  0  0
   -7.6740    6.7900  -14.4350 O   0  0  0  0  0  0  0  0  0  0  0  0
   -8.3840    5.4040  -16.1390 C   0  0  0  0  0  0  0  0  0  0  0  0
   -9.6750    4.8630  -16.6070 C   0  0  0  0  0  0  0  0  0  0  0  0
   -9.7660    4.5180  -18.0610 C   0  0  0  0  0  0  0  0  0  0  0  0
   -8.6990    4.6890  -18.9050 C   0  0  0  0  0  0  0  0  0  0  0  0
   -8.5960    4.4200  -20.2320 N   0  0  0  0  0  0  0  0  0  0  0  0
   -7.2880    4.6740  -20.6040 C   0  0  0  0  0  0  0  0  0  0  0  0
   -6.8980    4.4180  -21.7190 O   0  0  0  0  0  0  0  0  0  0  0  0
   -6.6060    5.2620  -19.5420 N   0  0  0  0  0  0  0  0  0  0  0  0
   -5.4760    6.1370  -19.7450 C   0  0  0  0  0  0  0  0  0  0  0  0
   -4.4720    5.3610  -20.3350 C   0  0  0  0  0  0  0  0  0  0  0  0
   -3.7000    5.9410  -21.4430 N   0  0  0  0  0  0  0  0  0  0  0  0
   -4.4360    5.6750  -22.6740 C   0  0  0  0  0  0  0  0  0  0  0  0
   -2.4130    5.2370  -21.5480 C   0  0  0  0  0  0  0  0  0  0  0  0
   -7.4780    5.2030  -18.4650 C   0  0  0  0  0  0  0  0  0  0  0  0
   -7.3110    5.5830  -16.9950 C   0  0  0  0  0  0  0  0  0  0  0  0
   -8.6470    3.7830  -11.5220 S   0  0  0  0  0  0  0  0  0  0  0  0
   -7.5720    4.6370   -8.5080 H   0  0  0  0  0  0  0  0  0  0  0  0
   -8.8380    3.3880   -8.8150 H   0  0  0  0  0  0  0  0  0  0  0  0
   -9.2780    4.9940   -8.2400 H   0  0  0  0  0  0  0  0  0  0  0  0
   -9.2780    4.0010  -14.1900 H   0  0  0  0  0  0  0  0  0  0  0  0
  -10.5140    4.7160  -15.9510 H   0  0  0  0  0  0  0  0  0  0  0  0
  -10.7420    4.1270  -18.3610 H   0  0  0  0  0  0  0  0  0  0  0  0
   -9.1380    3.7510  -20.7440 H   0  0  0  0  0  0  0  0  0  0  0  0
   -5.8120    6.8890  -20.4660 H   0  0  0  0  0  0  0  0  0  0  0  0
   -5.2760    6.6530  -18.8100 H   0  0  0  0  0  0  0  0  0  0  0  0
   -3.7850    5.0470  -19.5410 H   0  0  0  0  0  0  0  0  0  0  0  0
   -4.9750    4.4850  -20.7270 H   0  0  0  0  0  0  0  0  0  0  0  0
   -3.7810    5.4380  -23.5150 H   0  0  0  0  0  0  0  0  0  0  0  0
   -5.0990    4.8060  -22.5540 H   0  0  0  0  0  0  0  0  0  0  0  0
   -5.0710    6.5110  -22.9440 H   0  0  0  0  0  0  0  0  0  0  0  0
   -1.6930    5.8250  -22.1310 H   0  0  0  0  0  0  0  0  0  0  0  0
   -2.5360    4.2840  -22.0780 H   0  0  0  0  0  0  0  0  0  0  0  0
   -1.9720    5.0260  -20.5660 H   0  0  0  0  0  0  0  0  0  0  0  0
   -6.3150    5.9760  -16.7510 H   0  0  0  0  0  0  0  0  0  0  0  0
  1  2  1  0
  2  3  2  0
  3  4  1  0
  4  5  2  0
  5  6  1  0
  6  7  1  0
  7  8  2  0
  7  9  1  0
  9 10  2  0
 10 11  1  0
 11 12  2  0
 12 13  1  0
 13 14  1  0
 14 15  2  0
 14 16  1  0
 16 17  1  0
 17 18  1  0
 18 19  1  0
 19 20  1  0
 19 21  1  0
 16 22  1  0
 22 23  2  0
  5 24  1  0
 24  2  1  0
 23  9  1  0
 22 12  1  0
  1 25  1  0
  1 26  1  0
  1 27  1  0
  6 28  1  0
 10 29  1  0
 11 30  1  0
 13 31  1  0
 17 32  1  0
 17 33  1  0
 18 34  1  0
 18 35  1  0
 20 36  1  0
 20 37  1  0
 20 38  1  0
 21 39  1  0
 21 40  1  0
 21 41  1  0
 23 42  1  0
A    1
 C1 
A    2
 C2 
A    3
 N1 
A    4
 N2 
A    5
 C3 
A    6
 N3 
A    7
 C4 
A    8
 O1 
A    9
 C5 
A   10
 C6 
A   11
 C7 
A   12
 C8 
A   13
 N4 
A   14
 C9 
A   15
 O2 
A   16
 N5 
A   17
 C10
A   18
 C11
A   19
 N6 
A   20
 C12
A   21
 C13
A   22
 C14
A   23
 C15
A   24
 S1 
A   25
 H1 
A   26
 H2 
A   27
 H3 
A   28
 H4 
A   29
 H5 
A   30
 H6 
A   31
 H7 
A   32
 H8 
A   33
 H9 
A   34
 H10
A   35
 H11
A   36
 H12
A   37
 H13
A   38
 H14
A   39
 H15
A   40
 H16
A   41
 H17
A   42
 H18
M  END
>  <ref_pdb>  (480) 
x0051_0B

>  <ref_mols>  (480) 
x0904_0B,x1098_0B

>  <original SMILES>  (480) 
[H]c1c(C(=O)N([H])c2nnc(C([H])([H])[H])s2)c([H])c2c(c1[H])n([H])c(=O)n2C([H])([H])C([H])([H])N(C([H])([H])[H])C([H])([H])[H]

>  <index>  (480) 
1005

>  <∆∆G>  (480) 
-8.087104

>  <∆G_bound>  (480) 
-7.395678

>  <∆G_unbound>  (480) 
0.691426

>  <comRMSD>  (480) 
0.776288

>  <N_constrained_atoms>  (480) 
24.0

>  <N_unconstrained_atoms>  (480) 
2.0

>  <runtime>  (480) 
79.738571

>  <LE>  (480) 
0.311042

>  <percent_hybrid>  (480) 
42.0

>  <dist>  (480) 
9.0

>  <ecfp4>  (480) 
0.218391

>  <daylight>  (480) 
0.354978

>  <topodist>  (480) 
2.0

>  <mces>  (480) 
25.0

>  <tdn>  (480) 
1.0

>  <tup>  (480) 
0.0

>  <rdn>  (480) 
0.0

>  <rup>  (480) 
1.0

>  <ldn>  (480) 
0.0

>  <lup>  (480) 
0.0

>  <mut>  (480) 
5.0

>  <maj>  (480) 
5.0

>  <min>  (480) 
0.0

>  <hyb>  (480) 
2.0

>  <sub>  (480) 
1.0

>  <query_index>  (480) 
34.0

>  <max_hit_Tanimoto>  (480) 
0.275475

>  <largest_ring>  (480) 
6

>  <N_interactions_kept>  (480) 
1.5

>  <N_interactions_lost>  (480) 
4.5

>  <interaction_uniqueness_metric>  (480) 
0.43339

>  <ad_hoc_penalty>  (480) 
-17.359095

>  <N_rotatable_bonds>  (480) 
8

>  <N_HA>  (480) 
24

>  <cluster>  (480) 
5296

>  <N_interactions>  (480) 
11

>  <Enamine>  (480) 
1

>  <Mcule>  (480) 
0

>  <N_PAINS>  (480) 
0

>  <UFF_Gibbs>  (480) 
135.491772

>  <strain_per_HA>  (480) 
5.64549

>  <saltbridge:HIS:51>  (480) 
0

>  <pistack:HIS:51>  (480) 
1

>  <hydroph_interaction:HIS:51>  (480) 
1

>  <hbond:ALA:132>  (480) 
0

>  <hbond:SER:135>  (480) 
0

>  <hydroph_interaction:TYR:150>  (480) 
1

>  <pistack:TYR:161>  (480) 
2

>  <hydroph_interaction:TYR:161>  (480) 
0

>  <hydroph_interaction:ASP:83>  (480) 
0

>  <hbond:TYR:130>  (480) 
1

>  <hydroph_interaction:ALA:132>  (480) 
1

>  <hbond:HIS:51>  (480) 
0

>  <hbond:ASP:129>  (480) 
1

>  <hbond:TYR:150>  (480) 
1

>  <hbond:GLY:151>  (480) 
1

>  <hbond:TYR:161>  (480) 
0

>  <hydroph_interaction:TYR:130>  (480) 
0

>  <hydroph_interaction:PRO:131>  (480) 
0

>  <hydroph_interaction:ASP:129>  (480) 
0

>  <saltbridge:ASP:75>  (480) 
0

>  <saltbridge:ASP:83>  (480) 
0

>  <hydroph_interaction:ASN:152>  (480) 
0

>  <halogenbond:TYR:150>  (480) 
0

>  <hbond:ASP:83>  (480) 
0

>  <hydroph_interaction:VAL:155>  (480) 
0

>  <pication:TYR:161>  (480) 
0

>  <hbond:PRO:131>  (480) 
0

>  <hbond:LEU:128>  (480) 
0

>  <saltbridge:ASP:129>  (480) 
1

>  <hbond:THR:134>  (480) 
0

>  <pication:HIS:51>  (480) 
0

>  <hbond:SER:81>  (480) 
0

>  <hbond:GLY:159>  (480) 
0

>  <hydroph_interaction:PRO:101>  (480) 
0

>  <hydroph_interaction:THR:134>  (480) 
0

>  <hbond:GLY:82>  (480) 
0

>  <hydroph_interaction:GLU:104>  (480) 
0

>  <hydroph_interaction:VAL:36>  (480) 
0

>  <hydroph_interaction:MET:49>  (480) 
0

>  <halogenbond:GLU:104>  (480) 
0

>  <hydroph_interaction:LYS:107>  (480) 
0

$$$$
MCULE-1762295927
     RDKit          3D

 48 50  0  0  0  0  0  0  0  0999 V2000
   -8.7770    6.4270  -10.3950 C   0  0  0  0  0  0  0  0  0  0  0  0
   -8.6840    4.9140  -10.2950 C   0  0  0  0  0  0  0  0  0  0  0  0
   -8.4530    4.3090   -8.9770 N   0  0  0  0  0  0  0  0  0  0  0  0
   -9.0530    2.9500   -8.9650 C   0  0  0  0  0  0  0  0  0  0  0  0
   -9.7210    2.6030   -7.7980 C   0  0  0  0  0  0  0  0  0  0  0  0
   -9.2130    3.3140   -6.6110 N   0  0  0  0  0  0  0  0  0  0  0  0
   -7.8210    3.0290   -6.4620 C   0  0  0  0  0  0  0  0  0  0  0  0
   -9.3080    4.7460   -6.7590 C   0  0  0  0  0  0  0  0  0  0  0  0
   -8.6540    5.2590   -7.8680 C   0  0  0  0  0  0  0  0  0  0  0  0
   -8.8100    4.1420  -11.3880 N   0  0  0  0  0  0  0  0  0  0  0  0
   -9.0390    4.7340  -12.6420 C   0  0  0  0  0  0  0  0  0  0  0  0
   -9.1470    6.1030  -12.8660 C   0  0  0  0  0  0  0  0  0  0  0  0
   -9.0090    7.0530  -11.6870 C   0  0  0  0  0  0  0  0  0  0  0  0
   -9.3860    6.5210  -14.2530 C   0  0  0  0  0  0  0  0  0  0  0  0
   -9.8530    5.5370  -15.1390 N   0  0  0  0  0  0  0  0  0  0  0  0
   -9.2690    5.2810  -16.4050 C   0  0  0  0  0  0  0  0  0  0  0  0
  -10.1410    4.8890  -17.6280 C   0  0  0  0  0  0  0  0  0  0  0  0
   -9.4520    4.6540  -18.9650 C   0  0  0  0  0  0  0  0  0  0  0  0
   -7.9540    4.8120  -19.0160 C   0  0  0  0  0  0  0  0  0  0  0  0
   -7.2360    5.1530  -17.8890 C   0  0  0  0  0  0  0  0  0  0  0  0
   -7.8960    5.3960  -16.5470 C   0  0  0  0  0  0  0  0  0  0  0  0
   -5.7820    5.2950  -17.9850 C   0  0  0  0  0  0  0  0  0  0  0  0
   -5.4570    5.3290  -19.3720 O   0  0  0  0  0  0  0  0  0  0  0  0
   -4.0770    5.4800  -19.6520 C   0  0  0  0  0  0  0  0  0  0  0  0
   -5.0110    5.3670  -17.0400 O   0  0  0  0  0  0  0  0  0  0  0  0
   -9.1310    7.6760  -14.4910 O   0  0  0  0  0  0  0  0  0  0  0  0
   -8.6580    6.9690   -9.4500 H   0  0  0  0  0  0  0  0  0  0  0  0
   -9.6100    2.8530   -9.8920 H   0  0  0  0  0  0  0  0  0  0  0  0
   -8.2350    2.2260   -9.0580 H   0  0  0  0  0  0  0  0  0  0  0  0
  -10.7510    2.9350   -7.9310 H   0  0  0  0  0  0  0  0  0  0  0  0
   -9.8530    1.5740   -7.5010 H   0  0  0  0  0  0  0  0  0  0  0  0
   -7.3100    3.1650   -7.4060 H   0  0  0  0  0  0  0  0  0  0  0  0
   -7.3630    3.7130   -5.7640 H   0  0  0  0  0  0  0  0  0  0  0  0
   -7.6650    2.0220   -6.1150 H   0  0  0  0  0  0  0  0  0  0  0  0
  -10.3470    5.0610   -6.7500 H   0  0  0  0  0  0  0  0  0  0  0  0
   -8.8290    5.1690   -5.8680 H   0  0  0  0  0  0  0  0  0  0  0  0
   -7.6770    5.6460   -7.5550 H   0  0  0  0  0  0  0  0  0  0  0  0
   -9.1890    6.1450   -8.2200 H   0  0  0  0  0  0  0  0  0  0  0  0
   -9.1450    4.1090  -13.5350 H   0  0  0  0  0  0  0  0  0  0  0  0
   -9.0790    8.1340  -11.7770 H   0  0  0  0  0  0  0  0  0  0  0  0
  -10.2480    4.7090  -14.7040 H   0  0  0  0  0  0  0  0  0  0  0  0
  -11.2060    4.7740  -17.5980 H   0  0  0  0  0  0  0  0  0  0  0  0
  -10.0030    4.3870  -19.8500 H   0  0  0  0  0  0  0  0  0  0  0  0
   -7.4500    4.6490  -19.9650 H   0  0  0  0  0  0  0  0  0  0  0  0
   -7.2640    5.6660  -15.7040 H   0  0  0  0  0  0  0  0  0  0  0  0
   -3.7760    6.5190  -19.5450 H   0  0  0  0  0  0  0  0  0  0  0  0
   -3.5130    4.8830  -18.9210 H   0  0  0  0  0  0  0  0  0  0  0  0
   -3.8450    5.1080  -20.6560 H   0  0  0  0  0  0  0  0  0  0  0  0
  1  2  2  0
  2  3  1  0
  3  4  1  0
  4  5  1  0
  5  6  1  0
  6  7  1  0
  6  8  1  0
  8  9  1  0
  2 10  1  0
 10 11  2  0
 11 12  1  0
 12 13  2  0
 12 14  1  0
 14 15  1  0
 15 16  1  0
 16 17  2  0
 17 18  1  0
 18 19  2  0
 19 20  1  0
 20 21  2  0
 20 22  1  0
 22 23  1  0
 23 24  1  0
 22 25  2  0
 14 26  2  0
 13  1  1  0
  9  3  1  0
 16 21  1  0
  1 27  1  0
  4 28  1  0
  4 29  1  0
  5 30  1  0
  5 31  1  0
  7 32  1  0
  7 33  1  0
  7 34  1  0
  8 35  1  0
  8 36  1  0
  9 37  1  0
  9 38  1  0
 11 39  1  0
 13 40  1  0
 15 41  1  0
 17 42  1  0
 18 43  1  0
 19 44  1  0
 21 45  1  0
 24 46  1  0
 24 47  1  0
 24 48  1  0
A    1
 C1 
A    2
 C2 
A    3
 N1 
A    4
 C3 
A    5
 C4 
A    6
 N2 
A    7
 C5 
A    8
 C6 
A    9
 C7 
A   10
 N3 
A   11
 C8 
A   12
 C9 
A   13
 C10
A   14
 C11
A   15
 N4 
A   16
 C12
A   17
 C13
A   18
 C14
A   19
 C15
A   20
 C16
A   21
 C17
A   22
 C18
A   23
 O1 
A   24
 C19
A   25
 O2 
A   26
 O3 
A   27
 H1 
A   28
 H2 
A   29
 H3 
A   30
 H4 
A   31
 H5 
A   32
 H6 
A   33
 H7 
A   34
 H8 
A   35
 H9 
A   36
 H10
A   37
 H11
A   38
 H12
A   39
 H13
A   40
 H14
A   41
 H15
A   42
 H16
A   43
 H17
A   44
 H18
A   45
 H19
A   46
 H20
A   47
 H21
A   48
 H22
M  END
>  <ref_pdb>  (481) 
x0051_0B

>  <ref_mols>  (481) 
x0443_0B,x0404_0B

>  <original SMILES>  (481) 
[H]c1nc(N2C([H])([H])C([H])([H])N(C([H])([H])[H])C([H])([H])C2([H])[H])c([H])c([H])c1C(=O)N([H])c1c([H])c([H])c([H])c(C(=O)OC([H])([H])[H])c1[H]

>  <index>  (481) 
461

>  <∆∆G>  (481) 
-6.864201

>  <∆G_bound>  (481) 
-6.15955

>  <∆G_unbound>  (481) 
0.704651

>  <comRMSD>  (481) 
0.61545

>  <N_constrained_atoms>  (481) 
25.0

>  <N_unconstrained_atoms>  (481) 
2.0

>  <runtime>  (481) 
130.430171

>  <LE>  (481) 
0.25423

>  <percent_hybrid>  (481) 
44.0

>  <dist>  (481) 
10.0

>  <ecfp4>  (481) 
0.163043

>  <daylight>  (481) 
0.221014

>  <topodist>  (481) 
5.0

>  <mces>  (481) 
27.0

>  <tdn>  (481) 
1.0

>  <tup>  (481) 
1.0

>  <rdn>  (481) 
1.0

>  <rup>  (481) 
0.0

>  <ldn>  (481) 
2.0

>  <lup>  (481) 
0.0

>  <mut>  (481) 
4.0

>  <maj>  (481) 
4.0

>  <min>  (481) 
0.0

>  <hyb>  (481) 
1.0

>  <sub>  (481) 
2.0

>  <query_index>  (481) 
13.0

>  <max_hit_Tanimoto>  (481) 
0.226067

>  <largest_ring>  (481) 
0

>  <N_interactions_kept>  (481) 
2.0

>  <N_interactions_lost>  (481) 
2.5

>  <interaction_uniqueness_metric>  (481) 
0.282445

>  <ad_hoc_penalty>  (481) 
-17.348256

>  <N_rotatable_bonds>  (481) 
6

>  <N_HA>  (481) 
26

>  <cluster>  (481) 
5799

>  <N_interactions>  (481) 
8

>  <Enamine>  (481) 
0

>  <Mcule>  (481) 
1

>  <N_PAINS>  (481) 
0

>  <UFF_Gibbs>  (481) 
263.102381

>  <strain_per_HA>  (481) 
10.119322

>  <saltbridge:HIS:51>  (481) 
0

>  <pistack:HIS:51>  (481) 
1

>  <hydroph_interaction:HIS:51>  (481) 
1

>  <hbond:ALA:132>  (481) 
0

>  <hbond:SER:135>  (481) 
2

>  <hydroph_interaction:TYR:150>  (481) 
1

>  <pistack:TYR:161>  (481) 
0

>  <hydroph_interaction:TYR:161>  (481) 
1

>  <hydroph_interaction:ASP:83>  (481) 
0

>  <hbond:TYR:130>  (481) 
0

>  <hydroph_interaction:ALA:132>  (481) 
1

>  <hbond:HIS:51>  (481) 
0

>  <hbond:ASP:129>  (481) 
0

>  <hbond:TYR:150>  (481) 
0

>  <hbond:GLY:151>  (481) 
0

>  <hbond:TYR:161>  (481) 
0

>  <hydroph_interaction:TYR:130>  (481) 
0

>  <hydroph_interaction:PRO:131>  (481) 
0

>  <hydroph_interaction:ASP:129>  (481) 
0

>  <saltbridge:ASP:75>  (481) 
1

>  <saltbridge:ASP:83>  (481) 
0

>  <hydroph_interaction:ASN:152>  (481) 
0

>  <halogenbond:TYR:150>  (481) 
0

>  <hbond:ASP:83>  (481) 
0

>  <hydroph_interaction:VAL:155>  (481) 
0

>  <pication:TYR:161>  (481) 
0

>  <hbond:PRO:131>  (481) 
0

>  <hbond:LEU:128>  (481) 
0

>  <saltbridge:ASP:129>  (481) 
0

>  <hbond:THR:134>  (481) 
0

>  <pication:HIS:51>  (481) 
0

>  <hbond:SER:81>  (481) 
0

>  <hbond:GLY:159>  (481) 
0

>  <hydroph_interaction:PRO:101>  (481) 
0

>  <hydroph_interaction:THR:134>  (481) 
0

>  <hbond:GLY:82>  (481) 
0

>  <hydroph_interaction:GLU:104>  (481) 
0

>  <hydroph_interaction:VAL:36>  (481) 
0

>  <hydroph_interaction:MET:49>  (481) 
0

>  <halogenbond:GLU:104>  (481) 
0

>  <hydroph_interaction:LYS:107>  (481) 
0

$$$$
MCULE-3228124050
     RDKit          3D

 48 51  0  0  0  0  0  0  0  0999 V2000
   -5.8470    5.2280  -18.0070 C   0  0  0  0  0  0  0  0  0  0  0  0
   -5.3290    5.4140  -19.2640 N   0  0  0  0  0  0  0  0  0  0  0  0
   -3.9440    5.3970  -19.5060 C   0  0  0  0  0  0  0  0  0  0  0  0
   -3.0320    5.1890  -18.4730 C   0  0  0  0  0  0  0  0  0  0  0  0
   -3.6080    4.9860  -17.0670 C   0  0  0  0  0  0  0  0  0  0  0  0
   -5.0030    5.0170  -16.9040 C   0  0  0  0  0  0  0  0  0  0  0  0
   -7.2480    5.2360  -17.8440 C   0  0  0  0  0  0  0  0  0  0  0  0
   -7.7460    5.6250  -16.6030 C   0  0  0  0  0  0  0  0  0  0  0  0
   -9.2100    5.6400  -16.3510 C   0  0  0  0  0  0  0  0  0  0  0  0
   -9.6790    6.0840  -15.0740 N   0  0  0  0  0  0  0  0  0  0  0  0
   -9.0960    6.9260  -14.1160 C   0  0  0  0  0  0  0  0  0  0  0  0
   -9.0410    6.3400  -12.8590 C   0  0  0  0  0  0  0  0  0  0  0  0
   -8.9180    7.1120  -11.7040 C   0  0  0  0  0  0  0  0  0  0  0  0
   -8.8770    6.4900  -10.4580 C   0  0  0  0  0  0  0  0  0  0  0  0
   -8.9660    4.9700  -10.3520 C   0  0  0  0  0  0  0  0  0  0  0  0
   -8.9460    4.2980   -9.1580 N   0  0  0  0  0  0  0  0  0  0  0  0
   -9.3510    2.8740   -9.1340 C   0  0  0  0  0  0  0  0  0  0  0  0
   -9.6590    2.3950   -7.7450 C   0  0  0  0  0  0  0  0  0  0  0  0
   -9.9780    3.4330   -6.8260 O   0  0  0  0  0  0  0  0  0  0  0  0
   -8.9140    4.3570   -6.6550 C   0  0  0  0  0  0  0  0  0  0  0  0
   -8.2980    4.8720   -7.9590 C   0  0  0  0  0  0  0  0  0  0  0  0
   -9.0800    4.2850  -11.5670 C   0  0  0  0  0  0  0  0  0  0  0  0
   -9.1170    4.9480  -12.7870 C   0  0  0  0  0  0  0  0  0  0  0  0
   -8.6520    8.0740  -14.2200 O   0  0  0  0  0  0  0  0  0  0  0  0
  -10.0230    5.2130  -17.4220 C   0  0  0  0  0  0  0  0  0  0  0  0
   -9.5180    4.8510  -18.6210 C   0  0  0  0  0  0  0  0  0  0  0  0
   -8.1660    4.8710  -18.8370 C   0  0  0  0  0  0  0  0  0  0  0  0
   -7.7970    4.5130  -20.0520 F   0  0  0  0  0  0  0  0  0  0  0  0
   -3.6290    5.5530  -20.5350 H   0  0  0  0  0  0  0  0  0  0  0  0
   -1.9610    5.1730  -18.6550 H   0  0  0  0  0  0  0  0  0  0  0  0
   -2.9410    4.8220  -16.2260 H   0  0  0  0  0  0  0  0  0  0  0  0
   -5.4150    4.8690  -15.9080 H   0  0  0  0  0  0  0  0  0  0  0  0
   -7.0610    5.9260  -15.8100 H   0  0  0  0  0  0  0  0  0  0  0  0
  -10.6410    5.8100  -14.8950 H   0  0  0  0  0  0  0  0  0  0  0  0
   -8.8560    8.1980  -11.7710 H   0  0  0  0  0  0  0  0  0  0  0  0
   -8.7840    7.1140   -9.5740 H   0  0  0  0  0  0  0  0  0  0  0  0
   -8.5820    2.2200   -9.5510 H   0  0  0  0  0  0  0  0  0  0  0  0
  -10.2400    2.7570   -9.7530 H   0  0  0  0  0  0  0  0  0  0  0  0
  -10.5020    1.6980   -7.7580 H   0  0  0  0  0  0  0  0  0  0  0  0
   -8.8060    1.8570   -7.3330 H   0  0  0  0  0  0  0  0  0  0  0  0
   -8.1500    3.8570   -6.0480 H   0  0  0  0  0  0  0  0  0  0  0  0
   -9.2990    5.1950   -6.0650 H   0  0  0  0  0  0  0  0  0  0  0  0
   -7.2400    4.5990   -7.9380 H   0  0  0  0  0  0  0  0  0  0  0  0
   -8.3570    5.9600   -8.0350 H   0  0  0  0  0  0  0  0  0  0  0  0
   -9.1490    3.1980  -11.5860 H   0  0  0  0  0  0  0  0  0  0  0  0
   -9.2120    4.3560  -13.6920 H   0  0  0  0  0  0  0  0  0  0  0  0
  -11.0650    5.1520  -17.3950 H   0  0  0  0  0  0  0  0  0  0  0  0
  -10.1680    4.5510  -19.4180 H   0  0  0  0  0  0  0  0  0  0  0  0
  1  2  2  0
  2  3  1  0
  3  4  2  0
  4  5  1  0
  5  6  2  0
  1  7  1  0
  7  8  2  0
  8  9  1  0
  9 10  1  0
 10 11  1  0
 11 12  1  0
 12 13  2  0
 13 14  1  0
 14 15  2  0
 15 16  1  0
 16 17  1  0
 17 18  1  0
 18 19  1  0
 19 20  1  0
 20 21  1  0
 15 22  1  0
 22 23  2  0
 11 24  2  0
  9 25  2  0
 25 26  1  0
 26 27  2  0
 27 28  1  0
  6  1  1  0
  7 27  1  0
 12 23  1  0
 21 16  1  0
  3 29  1  0
  4 30  1  0
  5 31  1  0
  6 32  1  0
  8 33  1  0
 10 34  1  0
 13 35  1  0
 14 36  1  0
 17 37  1  0
 17 38  1  0
 18 39  1  0
 18 40  1  0
 20 41  1  0
 20 42  1  0
 21 43  1  0
 21 44  1  0
 22 45  1  0
 23 46  1  0
 25 47  1  0
 26 48  1  0
A    1
 C1 
A    2
 N1 
A    3
 C2 
A    4
 C3 
A    5
 C4 
A    6
 C5 
A    7
 C6 
A    8
 C7 
A    9
 C8 
A   10
 N2 
A   11
 C9 
A   12
 C10
A   13
 C11
A   14
 C12
A   15
 C13
A   16
 N3 
A   17
 C14
A   18
 C15
A   19
 O1 
A   20
 C16
A   21
 C17
A   22
 C18
A   23
 C19
A   24
 O2 
A   25
 C20
A   26
 C21
A   27
 C22
A   28
 F1 
A   29
 H1 
A   30
 H2 
A   31
 H3 
A   32
 H4 
A   33
 H5 
A   34
 H6 
A   35
 H7 
A   36
 H8 
A   37
 H9 
A   38
 H10
A   39
 H11
A   40
 H12
A   41
 H13
A   42
 H14
A   43
 H15
A   44
 H16
A   45
 H17
A   46
 H18
A   47
 H19
A   48
 H20
M  END
>  <ref_pdb>  (482) 
x0051_0B

>  <ref_mols>  (482) 
x0465_0B,x0404_0B

>  <original SMILES>  (482) 
[H]c1nc(-c2c([H])c(N([H])C(=O)c3c([H])c([H])c(N4C([H])([H])C([H])([H])OC([H])([H])C4([H])[H])c([H])c3[H])c([H])c([H])c2F)c([H])c([H])c1[H]

>  <index>  (482) 
1066

>  <∆∆G>  (482) 
-5.821504

>  <∆G_bound>  (482) 
-5.249528

>  <∆G_unbound>  (482) 
0.571975

>  <comRMSD>  (482) 
0.792837

>  <N_constrained_atoms>  (482) 
28.0

>  <N_unconstrained_atoms>  (482) 
0.0

>  <runtime>  (482) 
107.848738

>  <LE>  (482) 
0.207911

>  <percent_hybrid>  (482) 
47.0

>  <dist>  (482) 
12.0

>  <ecfp4>  (482) 
0.261364

>  <daylight>  (482) 
0.232394

>  <topodist>  (482) 
4.0

>  <mces>  (482) 
30.0

>  <tdn>  (482) 
2.0

>  <tup>  (482) 
1.0

>  <rdn>  (482) 
0.0

>  <rup>  (482) 
0.0

>  <ldn>  (482) 
1.0

>  <lup>  (482) 
0.0

>  <mut>  (482) 
3.0

>  <maj>  (482) 
3.0

>  <min>  (482) 
0.0

>  <hyb>  (482) 
5.0

>  <sub>  (482) 
1.0

>  <query_index>  (482) 
89.0

>  <max_hit_Tanimoto>  (482) 
0.214839

>  <largest_ring>  (482) 
6

>  <N_interactions_kept>  (482) 
1.5

>  <N_interactions_lost>  (482) 
4.0

>  <interaction_uniqueness_metric>  (482) 
0.197352

>  <ad_hoc_penalty>  (482) 
-17.341935

>  <N_rotatable_bonds>  (482) 
4

>  <N_HA>  (482) 
28

>  <cluster>  (482) 
5237

>  <N_interactions>  (482) 
9

>  <Enamine>  (482) 
0

>  <Mcule>  (482) 
1

>  <N_PAINS>  (482) 
0

>  <UFF_Gibbs>  (482) 
80.764795

>  <strain_per_HA>  (482) 
2.884457

>  <saltbridge:HIS:51>  (482) 
0

>  <pistack:HIS:51>  (482) 
1

>  <hydroph_interaction:HIS:51>  (482) 
1

>  <hbond:ALA:132>  (482) 
0

>  <hbond:SER:135>  (482) 
2

>  <hydroph_interaction:TYR:150>  (482) 
1

>  <pistack:TYR:161>  (482) 
1

>  <hydroph_interaction:TYR:161>  (482) 
2

>  <hydroph_interaction:ASP:83>  (482) 
0

>  <hbond:TYR:130>  (482) 
0

>  <hydroph_interaction:ALA:132>  (482) 
1

>  <hbond:HIS:51>  (482) 
0

>  <hbond:ASP:129>  (482) 
0

>  <hbond:TYR:150>  (482) 
0

>  <hbond:GLY:151>  (482) 
0

>  <hbond:TYR:161>  (482) 
0

>  <hydroph_interaction:TYR:130>  (482) 
0

>  <hydroph_interaction:PRO:131>  (482) 
0

>  <hydroph_interaction:ASP:129>  (482) 
0

>  <saltbridge:ASP:75>  (482) 
0

>  <saltbridge:ASP:83>  (482) 
0

>  <hydroph_interaction:ASN:152>  (482) 
0

>  <halogenbond:TYR:150>  (482) 
0

>  <hbond:ASP:83>  (482) 
0

>  <hydroph_interaction:VAL:155>  (482) 
0

>  <pication:TYR:161>  (482) 
0

>  <hbond:PRO:131>  (482) 
0

>  <hbond:LEU:128>  (482) 
0

>  <saltbridge:ASP:129>  (482) 
0

>  <hbond:THR:134>  (482) 
0

>  <pication:HIS:51>  (482) 
0

>  <hbond:SER:81>  (482) 
0

>  <hbond:GLY:159>  (482) 
0

>  <hydroph_interaction:PRO:101>  (482) 
0

>  <hydroph_interaction:THR:134>  (482) 
0

>  <hbond:GLY:82>  (482) 
0

>  <hydroph_interaction:GLU:104>  (482) 
0

>  <hydroph_interaction:VAL:36>  (482) 
0

>  <hydroph_interaction:MET:49>  (482) 
0

>  <halogenbond:GLU:104>  (482) 
0

>  <hydroph_interaction:LYS:107>  (482) 
0

$$$$
BMRKSSQXVDVKJQ-UHFFFAOYSA-N
     RDKit          3D

 37 38  0  0  0  0  0  0  0  0999 V2000
   -3.7120    5.3320  -17.6660 C   0  0  0  0  0  0  0  0  0  0  0  0
   -5.0790    5.5960  -17.5000 N   0  0  0  0  0  0  0  0  0  0  0  0
   -5.8770    5.6880  -18.7140 C   0  0  0  0  0  0  0  0  0  0  0  0
   -7.1800    5.7060  -18.3510 C   0  0  0  0  0  0  0  0  0  0  0  0
   -7.6400    5.4770  -16.9680 C   0  0  0  0  0  0  0  0  0  0  0  0
   -9.0790    5.6280  -16.7730 N   0  0  0  0  0  0  0  0  0  0  0  0
   -9.8690    4.9350  -17.8010 C   0  0  0  0  0  0  0  0  0  0  0  0
   -9.4840    5.2920  -15.4130 C   0  0  0  0  0  0  0  0  0  0  0  0
   -6.8080    6.2840  -15.9640 C   0  0  0  0  0  0  0  0  0  0  0  0
   -5.4090    6.6260  -16.4970 C   0  0  0  0  0  0  0  0  0  0  0  0
   -3.2320    5.1030  -18.7830 O   0  0  0  0  0  0  0  0  0  0  0  0
   -2.7850    5.3710  -16.4600 C   0  0  0  0  0  0  0  0  0  0  0  0
   -3.2890    4.5030  -15.3010 C   0  0  0  0  0  0  0  0  0  0  0  0
   -2.1560    3.7960  -14.2150 S   0  0  0  0  0  0  0  0  0  0  0  0
   -3.3860    3.0680  -13.3180 C   0  0  0  0  0  0  0  0  0  0  0  0
   -3.0010    2.1040  -11.9540 Cl  0  0  0  0  0  0  0  0  0  0  0  0
   -4.6450    3.3560  -13.8220 C   0  0  0  0  0  0  0  0  0  0  0  0
   -4.5830    4.1700  -14.9470 C   0  0  0  0  0  0  0  0  0  0  0  0
   -5.6350    4.8210  -19.3380 H   0  0  0  0  0  0  0  0  0  0  0  0
   -5.6520    6.5960  -19.2780 H   0  0  0  0  0  0  0  0  0  0  0  0
   -7.7090    4.9580  -18.9510 H   0  0  0  0  0  0  0  0  0  0  0  0
   -7.5630    6.6680  -18.6660 H   0  0  0  0  0  0  0  0  0  0  0  0
   -7.4190    4.4690  -16.6740 H   0  0  0  0  0  0  0  0  0  0  0  0
  -10.9160    5.2370  -17.8000 H   0  0  0  0  0  0  0  0  0  0  0  0
   -9.4810    5.1710  -18.7830 H   0  0  0  0  0  0  0  0  0  0  0  0
   -9.8160    3.8800  -17.7040 H   0  0  0  0  0  0  0  0  0  0  0  0
   -9.6100    6.1770  -14.7760 H   0  0  0  0  0  0  0  0  0  0  0  0
   -8.7270    4.6690  -14.9200 H   0  0  0  0  0  0  0  0  0  0  0  0
  -10.4140    4.7220  -15.4020 H   0  0  0  0  0  0  0  0  0  0  0  0
   -7.3330    7.2090  -15.7030 H   0  0  0  0  0  0  0  0  0  0  0  0
   -6.7080    5.7140  -15.0300 H   0  0  0  0  0  0  0  0  0  0  0  0
   -4.6910    6.6420  -15.6690 H   0  0  0  0  0  0  0  0  0  0  0  0
   -5.4300    7.6280  -16.9380 H   0  0  0  0  0  0  0  0  0  0  0  0
   -2.7330    6.4150  -16.1240 H   0  0  0  0  0  0  0  0  0  0  0  0
   -1.7680    5.1220  -16.7670 H   0  0  0  0  0  0  0  0  0  0  0  0
   -5.5740    2.9850  -13.3880 H   0  0  0  0  0  0  0  0  0  0  0  0
   -5.4830    4.4870  -15.4650 H   0  0  0  0  0  0  0  0  0  0  0  0
  1  2  1  0
  2  3  1  0
  3  4  1  0
  4  5  1  0
  5  6  1  0
  6  7  1  0
  6  8  1  0
  5  9  1  0
  9 10  1  0
  1 11  2  0
  1 12  1  0
 12 13  1  0
 13 14  1  0
 14 15  1  0
 15 16  1  0
 15 17  2  0
 17 18  1  0
 10  2  1  0
 13 18  2  0
  3 19  1  0
  3 20  1  0
  4 21  1  0
  4 22  1  0
  5 23  1  0
  7 24  1  0
  7 25  1  0
  7 26  1  0
  8 27  1  0
  8 28  1  0
  8 29  1  0
  9 30  1  0
  9 31  1  0
 10 32  1  0
 10 33  1  0
 12 34  1  0
 12 35  1  0
 17 36  1  0
 18 37  1  0
A    1
 C1 
A    2
 N1 
A    3
 C2 
A    4
 C3 
A    5
 C4 
A    6
 N2 
A    7
 C5 
A    8
 C6 
A    9
 C7 
A   10
 C8 
A   11
 O1 
A   12
 C9 
A   13
 C10
A   14
 S1 
A   15
 C11
A   16
CL1 
A   17
 C12
A   18
 C13
A   19
 H1 
A   20
 H2 
A   21
 H3 
A   22
 H4 
A   23
 H5 
A   24
 H6 
A   25
 H7 
A   26
 H8 
A   27
 H9 
A   28
 H10
A   29
 H11
A   30
 H12
A   31
 H13
A   32
 H14
A   33
 H15
A   34
 H16
A   35
 H17
A   36
 H18
A   37
 H19
M  END
>  <ref_pdb>  (483) 
x0051_0B

>  <ref_mols>  (483) 
x0472_0B,x0904_0B

>  <original SMILES>  (483) 
[H]c1c(Cl)sc(C([H])([H])C(=O)N2C([H])([H])C([H])([H])C([H])(N(C([H])([H])[H])C([H])([H])[H])C([H])([H])C2([H])[H])c1[H]

>  <index>  (483) 
623

>  <∆∆G>  (483) 
-6.882221

>  <∆G_bound>  (483) 
-6.575502

>  <∆G_unbound>  (483) 
0.306719

>  <comRMSD>  (483) 
0.666891

>  <N_constrained_atoms>  (483) 
16.0

>  <N_unconstrained_atoms>  (483) 
5.0

>  <runtime>  (483) 
37.980138

>  <LE>  (483) 
0.327725

>  <percent_hybrid>  (483) 
34.0

>  <dist>  (483) 
8.0

>  <ecfp4>  (483) 
0.152778

>  <daylight>  (483) 
0.280769

>  <topodist>  (483) 
4.0

>  <mces>  (483) 
18.0

>  <tdn>  (483) 
2.0

>  <tup>  (483) 
1.0

>  <rdn>  (483) 
1.0

>  <rup>  (483) 
0.0

>  <ldn>  (483) 
0.0

>  <lup>  (483) 
0.0

>  <mut>  (483) 
1.0

>  <maj>  (483) 
0.0

>  <min>  (483) 
1.0

>  <hyb>  (483) 
3.0

>  <sub>  (483) 
3.0

>  <query_index>  (483) 
174.0

>  <max_hit_Tanimoto>  (483) 
0.325452

>  <largest_ring>  (483) 
6

>  <N_interactions_kept>  (483) 
4.0

>  <N_interactions_lost>  (483) 
0.0

>  <interaction_uniqueness_metric>  (483) 
0.046449

>  <ad_hoc_penalty>  (483) 
-17.303716

>  <N_rotatable_bonds>  (483) 
5

>  <N_HA>  (483) 
18

>  <cluster>  (483) 
5650

>  <N_interactions>  (483) 
3

>  <Enamine>  (483) 
0

>  <Mcule>  (483) 
1

>  <N_PAINS>  (483) 
0

>  <UFF_Gibbs>  (483) 
95.352767

>  <strain_per_HA>  (483) 
5.297376

>  <saltbridge:HIS:51>  (483) 
0

>  <pistack:HIS:51>  (483) 
0

>  <hydroph_interaction:HIS:51>  (483) 
0

>  <hbond:ALA:132>  (483) 
0

>  <hbond:SER:135>  (483) 
0

>  <hydroph_interaction:TYR:150>  (483) 
0

>  <pistack:TYR:161>  (483) 
0

>  <hydroph_interaction:TYR:161>  (483) 
2

>  <hydroph_interaction:ASP:83>  (483) 
0

>  <hbond:TYR:130>  (483) 
0

>  <hydroph_interaction:ALA:132>  (483) 
0

>  <hbond:HIS:51>  (483) 
0

>  <hbond:ASP:129>  (483) 
0

>  <hbond:TYR:150>  (483) 
0

>  <hbond:GLY:151>  (483) 
0

>  <hbond:TYR:161>  (483) 
0

>  <hydroph_interaction:TYR:130>  (483) 
0

>  <hydroph_interaction:PRO:131>  (483) 
0

>  <hydroph_interaction:ASP:129>  (483) 
0

>  <saltbridge:ASP:75>  (483) 
0

>  <saltbridge:ASP:83>  (483) 
0

>  <hydroph_interaction:ASN:152>  (483) 
0

>  <halogenbond:TYR:150>  (483) 
0

>  <hbond:ASP:83>  (483) 
0

>  <hydroph_interaction:VAL:155>  (483) 
1

>  <pication:TYR:161>  (483) 
0

>  <hbond:PRO:131>  (483) 
0

>  <hbond:LEU:128>  (483) 
0

>  <saltbridge:ASP:129>  (483) 
0

>  <hbond:THR:134>  (483) 
0

>  <pication:HIS:51>  (483) 
0

>  <hbond:SER:81>  (483) 
0

>  <hbond:GLY:159>  (483) 
0

>  <hydroph_interaction:PRO:101>  (483) 
0

>  <hydroph_interaction:THR:134>  (483) 
0

>  <hbond:GLY:82>  (483) 
0

>  <hydroph_interaction:GLU:104>  (483) 
0

>  <hydroph_interaction:VAL:36>  (483) 
0

>  <hydroph_interaction:MET:49>  (483) 
0

>  <halogenbond:GLU:104>  (483) 
0

>  <hydroph_interaction:LYS:107>  (483) 
0

$$$$
CWNXTOWKYSPQBS-UHFFFAOYSA-N
     RDKit          3D

 42 45  0  0  0  0  0  0  0  0999 V2000
   -8.5630    7.2630  -14.0470 C   0  0  0  0  0  0  0  0  0  0  0  0
   -7.7380    6.5820  -14.9330 N   0  0  0  0  0  0  0  0  0  0  0  0
   -8.1790    5.8950  -16.1290 C   0  0  0  0  0  0  0  0  0  0  0  0
   -7.1630    5.6770  -17.1970 C   0  0  0  0  0  0  0  0  0  0  0  0
   -7.6200    5.0270  -18.4200 C   0  0  0  0  0  0  0  0  0  0  0  0
   -6.5120    4.9200  -19.3470 N   0  0  0  0  0  0  0  0  0  0  0  0
   -5.4750    5.4990  -18.5860 O   0  0  0  0  0  0  0  0  0  0  0  0
   -5.8560    5.9610  -17.2980 N   0  0  0  0  0  0  0  0  0  0  0  0
   -8.9570    4.5980  -18.6050 C   0  0  0  0  0  0  0  0  0  0  0  0
   -9.8710    4.8020  -17.5750 C   0  0  0  0  0  0  0  0  0  0  0  0
   -9.4960    5.4370  -16.3590 C   0  0  0  0  0  0  0  0  0  0  0  0
   -9.1220    8.3490  -14.1470 O   0  0  0  0  0  0  0  0  0  0  0  0
   -8.6720    6.5300  -12.7990 C   0  0  0  0  0  0  0  0  0  0  0  0
   -8.5570    7.2590  -11.4690 C   0  0  0  0  0  0  0  0  0  0  0  0
   -8.6400    6.4460  -10.2040 C   0  0  0  0  0  0  0  0  0  0  0  0
   -8.8190    5.0630  -10.2310 C   0  0  0  0  0  0  0  0  0  0  0  0
   -8.8770    4.3360   -9.0890 N   0  0  0  0  0  0  0  0  0  0  0  0
   -8.9860    2.8830   -9.2260 C   0  0  0  0  0  0  0  0  0  0  0  0
   -9.6200    2.4300   -8.0930 C   0  0  0  0  0  0  0  0  0  0  0  0
   -9.2010    2.9270   -6.8740 C   0  0  0  0  0  0  0  0  0  0  0  0
   -8.8470    4.2610   -6.8320 C   0  0  0  0  0  0  0  0  0  0  0  0
   -8.1540    4.7680   -7.9090 C   0  0  0  0  0  0  0  0  0  0  0  0
   -8.9340    4.4200  -11.4670 C   0  0  0  0  0  0  0  0  0  0  0  0
   -8.8620    5.1620  -12.7930 C   0  0  0  0  0  0  0  0  0  0  0  0
   -6.7580    6.4760  -14.7090 H   0  0  0  0  0  0  0  0  0  0  0  0
   -9.2560    4.1180  -19.5330 H   0  0  0  0  0  0  0  0  0  0  0  0
  -10.8970    4.4770  -17.7030 H   0  0  0  0  0  0  0  0  0  0  0  0
  -10.2710    5.5650  -15.6100 H   0  0  0  0  0  0  0  0  0  0  0  0
   -8.4110    8.3450  -11.5130 H   0  0  0  0  0  0  0  0  0  0  0  0
   -8.5520    6.9840   -9.2670 H   0  0  0  0  0  0  0  0  0  0  0  0
   -7.9830    2.4430   -9.3000 H   0  0  0  0  0  0  0  0  0  0  0  0
   -9.5400    2.5530  -10.1110 H   0  0  0  0  0  0  0  0  0  0  0  0
   -9.5320    1.3460   -8.0630 H   0  0  0  0  0  0  0  0  0  0  0  0
  -10.6900    2.6370   -8.1900 H   0  0  0  0  0  0  0  0  0  0  0  0
   -8.4960    2.2860   -6.3600 H   0  0  0  0  0  0  0  0  0  0  0  0
  -10.1070    2.8900   -6.2650 H   0  0  0  0  0  0  0  0  0  0  0  0
   -9.7750    4.8370   -6.7010 H   0  0  0  0  0  0  0  0  0  0  0  0
   -8.2450    4.4270   -5.9280 H   0  0  0  0  0  0  0  0  0  0  0  0
   -7.9840    5.8520   -7.9450 H   0  0  0  0  0  0  0  0  0  0  0  0
   -7.1640    4.2990   -7.9100 H   0  0  0  0  0  0  0  0  0  0  0  0
   -9.0820    3.3390  -11.5860 H   0  0  0  0  0  0  0  0  0  0  0  0
   -8.9650    4.5100  -13.6700 H   0  0  0  0  0  0  0  0  0  0  0  0
  1  2  1  0
  2  3  1  0
  3  4  1  0
  4  5  1  0
  5  6  2  0
  6  7  1  0
  7  8  1  0
  5  9  1  0
  9 10  2  0
 10 11  1  0
  1 12  2  0
  1 13  1  0
 13 14  2  0
 14 15  1  0
 15 16  2  0
 16 17  1  0
 17 18  1  0
 18 19  1  0
 19 20  1  0
 20 21  1  0
 21 22  1  0
 16 23  1  0
 23 24  2  0
  3 11  2  0
  4  8  2  0
 24 13  1  0
 22 17  1  0
  2 25  1  0
  9 26  1  0
 10 27  1  0
 11 28  1  0
 14 29  1  0
 15 30  1  0
 18 31  1  0
 18 32  1  0
 19 33  1  0
 19 34  1  0
 20 35  1  0
 20 36  1  0
 21 37  1  0
 21 38  1  0
 22 39  1  0
 22 40  1  0
 23 41  1  0
 24 42  1  0
A    1
 C1 
A    2
 N1 
A    3
 C2 
A    4
 C3 
A    5
 C4 
A    6
 N2 
A    7
 O1 
A    8
 N3 
A    9
 C5 
A   10
 C6 
A   11
 C7 
A   12
 O2 
A   13
 C8 
A   14
 C9 
A   15
 C10
A   16
 C11
A   17
 N4 
A   18
 C12
A   19
 C13
A   20
 C14
A   21
 C15
A   22
 C16
A   23
 C17
A   24
 C18
A   25
 H1 
A   26
 H2 
A   27
 H3 
A   28
 H4 
A   29
 H5 
A   30
 H6 
A   31
 H7 
A   32
 H8 
A   33
 H9 
A   34
 H10
A   35
 H11
A   36
 H12
A   37
 H13
A   38
 H14
A   39
 H15
A   40
 H16
A   41
 H17
A   42
 H18
M  END
>  <ref_pdb>  (484) 
x0051_0B

>  <ref_mols>  (484) 
x0435_0B,x0404_0B

>  <original SMILES>  (484) 
[H]c1c([H])c(N2C([H])([H])C([H])([H])C([H])([H])C([H])([H])C2([H])[H])c([H])c([H])c1C(=O)N([H])c1c([H])c([H])c([H])c2nonc12

>  <index>  (484) 
499

>  <∆∆G>  (484) 
-7.374283

>  <∆G_bound>  (484) 
-6.879936

>  <∆G_unbound>  (484) 
0.494347

>  <comRMSD>  (484) 
0.519926

>  <N_constrained_atoms>  (484) 
24.0

>  <N_unconstrained_atoms>  (484) 
0.0

>  <runtime>  (484) 
81.418247

>  <LE>  (484) 
0.307262

>  <percent_hybrid>  (484) 
38.0

>  <dist>  (484) 
9.0

>  <ecfp4>  (484) 
0.188235

>  <daylight>  (484) 
0.191176

>  <topodist>  (484) 
3.0

>  <mces>  (484) 
27.0

>  <tdn>  (484) 
2.0

>  <tup>  (484) 
0.0

>  <rdn>  (484) 
0.0

>  <rup>  (484) 
0.0

>  <ldn>  (484) 
1.0

>  <lup>  (484) 
0.0

>  <mut>  (484) 
5.0

>  <maj>  (484) 
5.0

>  <min>  (484) 
0.0

>  <hyb>  (484) 
1.0

>  <sub>  (484) 
0.0

>  <query_index>  (484) 
26.0

>  <max_hit_Tanimoto>  (484) 
0.235294

>  <largest_ring>  (484) 
0

>  <N_interactions_kept>  (484) 
2.5

>  <N_interactions_lost>  (484) 
2.0

>  <interaction_uniqueness_metric>  (484) 
0.088388

>  <ad_hoc_penalty>  (484) 
-17.278549

>  <N_rotatable_bonds>  (484) 
3

>  <N_HA>  (484) 
24

>  <cluster>  (484) 
5762

>  <N_interactions>  (484) 
5

>  <Enamine>  (484) 
0

>  <Mcule>  (484) 
1

>  <N_PAINS>  (484) 
0

>  <UFF_Gibbs>  (484) 
183.536519

>  <strain_per_HA>  (484) 
7.647355

>  <saltbridge:HIS:51>  (484) 
0

>  <pistack:HIS:51>  (484) 
1

>  <hydroph_interaction:HIS:51>  (484) 
0

>  <hbond:ALA:132>  (484) 
0

>  <hbond:SER:135>  (484) 
0

>  <hydroph_interaction:TYR:150>  (484) 
1

>  <pistack:TYR:161>  (484) 
1

>  <hydroph_interaction:TYR:161>  (484) 
1

>  <hydroph_interaction:ASP:83>  (484) 
0

>  <hbond:TYR:130>  (484) 
0

>  <hydroph_interaction:ALA:132>  (484) 
1

>  <hbond:HIS:51>  (484) 
0

>  <hbond:ASP:129>  (484) 
0

>  <hbond:TYR:150>  (484) 
0

>  <hbond:GLY:151>  (484) 
0

>  <hbond:TYR:161>  (484) 
0

>  <hydroph_interaction:TYR:130>  (484) 
0

>  <hydroph_interaction:PRO:131>  (484) 
0

>  <hydroph_interaction:ASP:129>  (484) 
0

>  <saltbridge:ASP:75>  (484) 
0

>  <saltbridge:ASP:83>  (484) 
0

>  <hydroph_interaction:ASN:152>  (484) 
0

>  <halogenbond:TYR:150>  (484) 
0

>  <hbond:ASP:83>  (484) 
0

>  <hydroph_interaction:VAL:155>  (484) 
0

>  <pication:TYR:161>  (484) 
0

>  <hbond:PRO:131>  (484) 
0

>  <hbond:LEU:128>  (484) 
0

>  <saltbridge:ASP:129>  (484) 
0

>  <hbond:THR:134>  (484) 
0

>  <pication:HIS:51>  (484) 
0

>  <hbond:SER:81>  (484) 
0

>  <hbond:GLY:159>  (484) 
0

>  <hydroph_interaction:PRO:101>  (484) 
0

>  <hydroph_interaction:THR:134>  (484) 
0

>  <hbond:GLY:82>  (484) 
0

>  <hydroph_interaction:GLU:104>  (484) 
0

>  <hydroph_interaction:VAL:36>  (484) 
0

>  <hydroph_interaction:MET:49>  (484) 
0

>  <halogenbond:GLU:104>  (484) 
0

>  <hydroph_interaction:LYS:107>  (484) 
0

$$$$
Z2974226583
     RDKit          3D

 39 42  0  0  0  0  0  0  0  0999 V2000
   -9.7160    4.8560  -17.3720 C   0  0  0  0  0  0  0  0  0  0  0  0
   -8.8400    4.8910  -18.5730 C   0  0  0  0  0  0  0  0  0  0  0  0
   -7.5280    5.1530  -18.2880 N   0  0  0  0  0  0  0  0  0  0  0  0
   -6.3970    5.2790  -19.0460 C   0  0  0  0  0  0  0  0  0  0  0  0
   -5.3310    5.5350  -18.2990 N   0  0  0  0  0  0  0  0  0  0  0  0
   -5.7880    5.5800  -16.9950 C   0  0  0  0  0  0  0  0  0  0  0  0
   -7.1470    5.3480  -16.9850 C   0  0  0  0  0  0  0  0  0  0  0  0
   -8.0030    5.3140  -15.8530 C   0  0  0  0  0  0  0  0  0  0  0  0
   -7.5360    5.5380  -14.5460 N   0  0  0  0  0  0  0  0  0  0  0  0
   -8.3290    6.1020  -13.4240 C   0  0  0  0  0  0  0  0  0  0  0  0
   -8.6930    5.0690  -12.3900 C   0  0  0  0  0  0  0  0  0  0  0  0
   -8.7570    5.3710  -10.8930 C   0  0  0  0  0  0  0  0  0  0  0  0
   -8.9030    4.3760   -9.9420 C   0  0  0  0  0  0  0  0  0  0  0  0
   -9.0050    3.0100  -10.1480 C   0  0  0  0  0  0  0  0  0  0  0  0
   -8.6900    2.2180   -8.9220 C   0  0  0  0  0  0  0  0  0  0  0  0
   -9.4700    2.7560   -7.7300 C   0  0  0  0  0  0  0  0  0  0  0  0
   -9.0770    4.2130   -7.4650 C   0  0  0  0  0  0  0  0  0  0  0  0
   -8.9290    4.9520   -8.7130 N   0  0  0  0  0  0  0  0  0  0  0  0
   -8.8050    6.2910   -8.7710 N   0  0  0  0  0  0  0  0  0  0  0  0
   -8.7010    6.5530  -10.0990 C   0  0  0  0  0  0  0  0  0  0  0  0
   -9.2810    5.0640  -16.0720 N   0  0  0  0  0  0  0  0  0  0  0  0
  -10.7690    4.6500  -17.5750 H   0  0  0  0  0  0  0  0  0  0  0  0
   -9.1580    4.7320  -19.5970 H   0  0  0  0  0  0  0  0  0  0  0  0
   -6.4040    5.1750  -20.1250 H   0  0  0  0  0  0  0  0  0  0  0  0
   -5.1220    5.7730  -16.1640 H   0  0  0  0  0  0  0  0  0  0  0  0
   -6.7980    4.9130  -14.2420 H   0  0  0  0  0  0  0  0  0  0  0  0
   -7.7840    6.9260  -12.9520 H   0  0  0  0  0  0  0  0  0  0  0  0
   -9.2440    6.5380  -13.8440 H   0  0  0  0  0  0  0  0  0  0  0  0
   -9.6760    4.6770  -12.6770 H   0  0  0  0  0  0  0  0  0  0  0  0
   -8.0160    4.2150  -12.5170 H   0  0  0  0  0  0  0  0  0  0  0  0
  -10.0090    2.7480  -10.4970 H   0  0  0  0  0  0  0  0  0  0  0  0
   -8.3080    2.7240  -10.9460 H   0  0  0  0  0  0  0  0  0  0  0  0
   -7.6240    2.2750   -8.7110 H   0  0  0  0  0  0  0  0  0  0  0  0
   -8.9200    1.1730   -9.0640 H   0  0  0  0  0  0  0  0  0  0  0  0
   -9.2570    2.1500   -6.8490 H   0  0  0  0  0  0  0  0  0  0  0  0
  -10.5480    2.6760   -7.9260 H   0  0  0  0  0  0  0  0  0  0  0  0
   -8.1090    4.2630   -6.9550 H   0  0  0  0  0  0  0  0  0  0  0  0
   -9.8330    4.7130   -6.8500 H   0  0  0  0  0  0  0  0  0  0  0  0
   -8.5900    7.5800  -10.4270 H   0  0  0  0  0  0  0  0  0  0  0  0
  1  2  2  0
  2  3  1  0
  3  4  1  0
  4  5  2  0
  5  6  1  0
  6  7  2  0
  7  8  1  0
  8  9  1  0
  9 10  1  0
 10 11  1  0
 11 12  1  0
 12 13  2  0
 13 14  1  0
 14 15  1  0
 15 16  1  0
 16 17  1  0
 17 18  1  0
 18 19  1  0
 19 20  2  0
  8 21  2  0
 21  1  1  0
  7  3  1  0
 20 12  1  0
 18 13  1  0
  1 22  1  0
  2 23  1  0
  4 24  1  0
  6 25  1  0
  9 26  1  0
 10 27  1  0
 10 28  1  0
 11 29  1  0
 11 30  1  0
 14 31  1  0
 14 32  1  0
 15 33  1  0
 15 34  1  0
 16 35  1  0
 16 36  1  0
 17 37  1  0
 17 38  1  0
 20 39  1  0
A    1
 C1 
A    2
 C2 
A    3
 N1 
A    4
 C3 
A    5
 N2 
A    6
 C4 
A    7
 C5 
A    8
 C6 
A    9
 N3 
A   10
 C7 
A   11
 C8 
A   12
 C9 
A   13
 C10
A   14
 C11
A   15
 C12
A   16
 C13
A   17
 C14
A   18
 N4 
A   19
 N5 
A   20
 C15
A   21
 N6 
A   22
 H1 
A   23
 H2 
A   24
 H3 
A   25
 H4 
A   26
 H5 
A   27
 H6 
A   28
 H7 
A   29
 H8 
A   30
 H9 
A   31
 H10
A   32
 H11
A   33
 H12
A   34
 H13
A   35
 H14
A   36
 H15
A   37
 H16
A   38
 H17
A   39
 H18
M  END
>  <ref_pdb>  (485) 
x0051_0B

>  <ref_mols>  (485) 
x0435_0B,x0969_1B

>  <original SMILES>  (485) 
[H]c1nn2c(c1C([H])([H])C([H])([H])N([H])c1nc([H])c([H])n3c([H])nc([H])c13)C([H])([H])C([H])([H])C([H])([H])C2([H])[H]

>  <index>  (485) 
693

>  <∆∆G>  (485) 
-5.237142

>  <∆G_bound>  (485) 
-4.218083

>  <∆G_unbound>  (485) 
1.019059

>  <comRMSD>  (485) 
0.406083

>  <N_constrained_atoms>  (485) 
20.0

>  <N_unconstrained_atoms>  (485) 
2.0

>  <runtime>  (485) 
47.987917

>  <LE>  (485) 
0.238052

>  <percent_hybrid>  (485) 
50.0

>  <dist>  (485) 
5.0

>  <ecfp4>  (485) 
0.24359

>  <daylight>  (485) 
0.268786

>  <topodist>  (485) 
1.0

>  <mces>  (485) 
24.0

>  <tdn>  (485) 
1.0

>  <tup>  (485) 
0.0

>  <rdn>  (485) 
0.0

>  <rup>  (485) 
0.0

>  <ldn>  (485) 
0.0

>  <lup>  (485) 
0.0

>  <mut>  (485) 
4.0

>  <maj>  (485) 
4.0

>  <min>  (485) 
0.0

>  <hyb>  (485) 
0.0

>  <sub>  (485) 
1.0

>  <query_index>  (485) 
311.0

>  <max_hit_Tanimoto>  (485) 
0.302718

>  <largest_ring>  (485) 
6

>  <N_interactions_kept>  (485) 
2.5

>  <N_interactions_lost>  (485) 
1.0

>  <interaction_uniqueness_metric>  (485) 
0.131133

>  <ad_hoc_penalty>  (485) 
-17.268306

>  <N_rotatable_bonds>  (485) 
4

>  <N_HA>  (485) 
21

>  <cluster>  (485) 
5583

>  <N_interactions>  (485) 
4

>  <Enamine>  (485) 
1

>  <Mcule>  (485) 
0

>  <N_PAINS>  (485) 
0

>  <UFF_Gibbs>  (485) 
49.73829

>  <strain_per_HA>  (485) 
2.36849

>  <saltbridge:HIS:51>  (485) 
0

>  <pistack:HIS:51>  (485) 
1

>  <hydroph_interaction:HIS:51>  (485) 
0

>  <hbond:ALA:132>  (485) 
0

>  <hbond:SER:135>  (485) 
0

>  <hydroph_interaction:TYR:150>  (485) 
0

>  <pistack:TYR:161>  (485) 
2

>  <hydroph_interaction:TYR:161>  (485) 
0

>  <hydroph_interaction:ASP:83>  (485) 
1

>  <hbond:TYR:130>  (485) 
0

>  <hydroph_interaction:ALA:132>  (485) 
0

>  <hbond:HIS:51>  (485) 
0

>  <hbond:ASP:129>  (485) 
0

>  <hbond:TYR:150>  (485) 
0

>  <hbond:GLY:151>  (485) 
0

>  <hbond:TYR:161>  (485) 
0

>  <hydroph_interaction:TYR:130>  (485) 
0

>  <hydroph_interaction:PRO:131>  (485) 
0

>  <hydroph_interaction:ASP:129>  (485) 
0

>  <saltbridge:ASP:75>  (485) 
0

>  <saltbridge:ASP:83>  (485) 
0

>  <hydroph_interaction:ASN:152>  (485) 
0

>  <halogenbond:TYR:150>  (485) 
0

>  <hbond:ASP:83>  (485) 
0

>  <hydroph_interaction:VAL:155>  (485) 
0

>  <pication:TYR:161>  (485) 
0

>  <hbond:PRO:131>  (485) 
0

>  <hbond:LEU:128>  (485) 
0

>  <saltbridge:ASP:129>  (485) 
0

>  <hbond:THR:134>  (485) 
0

>  <pication:HIS:51>  (485) 
0

>  <hbond:SER:81>  (485) 
0

>  <hbond:GLY:159>  (485) 
0

>  <hydroph_interaction:PRO:101>  (485) 
0

>  <hydroph_interaction:THR:134>  (485) 
0

>  <hbond:GLY:82>  (485) 
0

>  <hydroph_interaction:GLU:104>  (485) 
0

>  <hydroph_interaction:VAL:36>  (485) 
0

>  <hydroph_interaction:MET:49>  (485) 
0

>  <halogenbond:GLU:104>  (485) 
0

>  <hydroph_interaction:LYS:107>  (485) 
0

$$$$
MCULE-7171204140
     RDKit          3D

 31 33  0  0  0  0  0  0  0  0999 V2000
   -7.3180    5.6070  -17.6390 C   0  0  0  0  0  0  0  0  0  0  0  0
   -8.1340    5.5500  -16.4380 C   0  0  0  0  0  0  0  0  0  0  0  0
   -9.4240    5.1800  -16.4090 C   0  0  0  0  0  0  0  0  0  0  0  0
   -9.9760    5.2270  -15.1230 C   0  0  0  0  0  0  0  0  0  0  0  0
  -10.0330    4.8110  -17.6360 C   0  0  0  0  0  0  0  0  0  0  0  0
   -9.2800    4.8440  -18.8420 C   0  0  0  0  0  0  0  0  0  0  0  0
   -7.9300    5.2490  -18.8130 C   0  0  0  0  0  0  0  0  0  0  0  0
   -7.0320    5.3590  -19.8830 N   0  0  0  0  0  0  0  0  0  0  0  0
   -6.0040    6.2530  -19.2740 C   0  0  0  0  0  0  0  0  0  0  0  0
   -5.9080    5.9930  -17.8840 C   0  0  0  0  0  0  0  0  0  0  0  0
   -4.8540    5.0380  -17.3870 C   0  0  0  0  0  0  0  0  0  0  0  0
   -3.9920    5.6730  -16.3690 C   0  0  0  0  0  0  0  0  0  0  0  0
   -4.5830    6.8940  -16.0760 C   0  0  0  0  0  0  0  0  0  0  0  0
   -5.5760    7.2510  -17.0250 C   0  0  0  0  0  0  0  0  0  0  0  0
   -7.5550    5.8540  -15.5590 H   0  0  0  0  0  0  0  0  0  0  0  0
  -10.2770    6.2600  -14.9120 H   0  0  0  0  0  0  0  0  0  0  0  0
   -9.2020    4.9610  -14.4160 H   0  0  0  0  0  0  0  0  0  0  0  0
  -10.8100    4.5890  -14.8630 H   0  0  0  0  0  0  0  0  0  0  0  0
  -11.0720    4.5060  -17.6670 H   0  0  0  0  0  0  0  0  0  0  0  0
   -9.7350    4.5660  -19.7830 H   0  0  0  0  0  0  0  0  0  0  0  0
   -7.5160    5.7470  -20.7010 H   0  0  0  0  0  0  0  0  0  0  0  0
   -6.2640    7.2960  -19.4820 H   0  0  0  0  0  0  0  0  0  0  0  0
   -5.0460    6.0510  -19.7700 H   0  0  0  0  0  0  0  0  0  0  0  0
   -5.3350    4.1980  -16.8990 H   0  0  0  0  0  0  0  0  0  0  0  0
   -4.2610    4.6480  -18.2190 H   0  0  0  0  0  0  0  0  0  0  0  0
   -3.0320    5.8950  -16.8490 H   0  0  0  0  0  0  0  0  0  0  0  0
   -3.7250    5.0600  -15.5190 H   0  0  0  0  0  0  0  0  0  0  0  0
   -3.8560    7.6690  -15.8430 H   0  0  0  0  0  0  0  0  0  0  0  0
   -5.1120    6.7690  -15.1260 H   0  0  0  0  0  0  0  0  0  0  0  0
   -6.4520    7.6350  -16.5020 H   0  0  0  0  0  0  0  0  0  0  0  0
   -5.2030    8.0560  -17.6670 H   0  0  0  0  0  0  0  0  0  0  0  0
  1  2  2  0
  2  3  1  0
  3  4  1  0
  3  5  2  0
  5  6  1  0
  6  7  2  0
  7  8  1  0
  8  9  1  0
  9 10  1  0
 10 11  1  0
 11 12  1  0
 12 13  1  0
 13 14  1  0
  1  7  1  0
 10  1  1  0
 14 10  1  0
  2 15  1  0
  4 16  1  0
  4 17  1  0
  4 18  1  0
  5 19  1  0
  6 20  1  0
  8 21  1  0
  9 22  1  0
  9 23  1  0
 11 24  1  0
 11 25  1  0
 12 26  1  0
 12 27  1  0
 13 28  1  0
 13 29  1  0
 14 30  1  0
 14 31  1  0
A    1
 C1 
A    2
 C2 
A    3
 C3 
A    4
 C4 
A    5
 C5 
A    6
 C6 
A    7
 C7 
A    8
 N1 
A    9
 C8 
A   10
 C9 
A   11
 C10
A   12
 C11
A   13
 C12
A   14
 C13
A   15
 H1 
A   16
 H2 
A   17
 H3 
A   18
 H4 
A   19
 H5 
A   20
 H6 
A   21
 H7 
A   22
 H8 
A   23
 H9 
A   24
 H10
A   25
 H11
A   26
 H12
A   27
 H13
A   28
 H14
A   29
 H15
A   30
 H16
A   31
 H17
M  END
>  <ref_pdb>  (486) 
x0051_0B

>  <ref_mols>  (486) 
x0490_0B,x0227_0B

>  <original SMILES>  (486) 
[H]c1c([H])c(C([H])([H])[H])c([H])c2c1N([H])C([H])([H])C21C([H])([H])C([H])([H])C([H])([H])C1([H])[H]

>  <index>  (486) 
686

>  <∆∆G>  (486) 
-6.97754

>  <∆G_bound>  (486) 
-6.935575

>  <∆G_unbound>  (486) 
0.041965

>  <comRMSD>  (486) 
0.642877

>  <N_constrained_atoms>  (486) 
15.0

>  <N_unconstrained_atoms>  (486) 
1.0

>  <runtime>  (486) 
24.251265

>  <LE>  (486) 
0.436096

>  <percent_hybrid>  (486) 
34.0

>  <dist>  (486) 
2.0

>  <ecfp4>  (486) 
0.355556

>  <daylight>  (486) 
0.852632

>  <topodist>  (486) 
2.0

>  <mces>  (486) 
15.0

>  <tdn>  (486) 
1.0

>  <tup>  (486) 
1.0

>  <rdn>  (486) 
0.0

>  <rup>  (486) 
0.0

>  <ldn>  (486) 
0.0

>  <lup>  (486) 
0.0

>  <mut>  (486) 
0.0

>  <maj>  (486) 
0.0

>  <min>  (486) 
0.0

>  <hyb>  (486) 
0.0

>  <sub>  (486) 
2.0

>  <query_index>  (486) 
171.0

>  <max_hit_Tanimoto>  (486) 
0.33109

>  <largest_ring>  (486) 
6

>  <N_interactions_kept>  (486) 
2.0

>  <N_interactions_lost>  (486) 
3.0

>  <interaction_uniqueness_metric>  (486) 
0.078124

>  <ad_hoc_penalty>  (486) 
-17.252108

>  <N_rotatable_bonds>  (486) 
1

>  <N_HA>  (486) 
14

>  <cluster>  (486) 
5589

>  <N_interactions>  (486) 
6

>  <Enamine>  (486) 
0

>  <Mcule>  (486) 
1

>  <N_PAINS>  (486) 
0

>  <UFF_Gibbs>  (486) 
71.037178

>  <strain_per_HA>  (486) 
5.074084

>  <saltbridge:HIS:51>  (486) 
0

>  <pistack:HIS:51>  (486) 
0

>  <hydroph_interaction:HIS:51>  (486) 
0

>  <hbond:ALA:132>  (486) 
0

>  <hbond:SER:135>  (486) 
0

>  <hydroph_interaction:TYR:150>  (486) 
1

>  <pistack:TYR:161>  (486) 
0

>  <hydroph_interaction:TYR:161>  (486) 
3

>  <hydroph_interaction:ASP:83>  (486) 
0

>  <hbond:TYR:130>  (486) 
1

>  <hydroph_interaction:ALA:132>  (486) 
1

>  <hbond:HIS:51>  (486) 
0

>  <hbond:ASP:129>  (486) 
0

>  <hbond:TYR:150>  (486) 
0

>  <hbond:GLY:151>  (486) 
0

>  <hbond:TYR:161>  (486) 
0

>  <hydroph_interaction:TYR:130>  (486) 
0

>  <hydroph_interaction:PRO:131>  (486) 
0

>  <hydroph_interaction:ASP:129>  (486) 
0

>  <saltbridge:ASP:75>  (486) 
0

>  <saltbridge:ASP:83>  (486) 
0

>  <hydroph_interaction:ASN:152>  (486) 
0

>  <halogenbond:TYR:150>  (486) 
0

>  <hbond:ASP:83>  (486) 
0

>  <hydroph_interaction:VAL:155>  (486) 
0

>  <pication:TYR:161>  (486) 
0

>  <hbond:PRO:131>  (486) 
0

>  <hbond:LEU:128>  (486) 
0

>  <saltbridge:ASP:129>  (486) 
0

>  <hbond:THR:134>  (486) 
0

>  <pication:HIS:51>  (486) 
0

>  <hbond:SER:81>  (486) 
0

>  <hbond:GLY:159>  (486) 
0

>  <hydroph_interaction:PRO:101>  (486) 
0

>  <hydroph_interaction:THR:134>  (486) 
0

>  <hbond:GLY:82>  (486) 
0

>  <hydroph_interaction:GLU:104>  (486) 
0

>  <hydroph_interaction:VAL:36>  (486) 
0

>  <hydroph_interaction:MET:49>  (486) 
0

>  <halogenbond:GLU:104>  (486) 
0

>  <hydroph_interaction:LYS:107>  (486) 
0

$$$$
BAAWFQCDPPHECU-UHFFFAOYSA-N
     RDKit          3D

 40 43  0  0  0  0  0  0  0  0999 V2000
   -7.3380    9.6410  -26.6160 C   0  0  0  0  0  0  0  0  0  0  0  0
   -6.2670   10.2600  -25.9780 N   0  0  0  0  0  0  0  0  0  0  0  0
   -6.2870   10.6410  -24.5500 C   0  0  0  0  0  0  0  0  0  0  0  0
   -5.8030    9.4880  -23.6430 C   0  0  0  0  0  0  0  0  0  0  0  0
   -6.3150    8.1270  -24.0170 C   0  0  0  0  0  0  0  0  0  0  0  0
   -5.8600    6.9520  -23.1830 C   0  0  0  0  0  0  0  0  0  0  0  0
   -5.0030    7.1610  -22.1270 C   0  0  0  0  0  0  0  0  0  0  0  0
   -4.5280    6.0510  -21.3370 O   0  0  0  0  0  0  0  0  0  0  0  0
   -5.0310    5.8290  -20.0350 C   0  0  0  0  0  0  0  0  0  0  0  0
   -3.9880    5.5280  -19.1910 C   0  0  0  0  0  0  0  0  0  0  0  0
   -4.0550    5.2550  -17.8060 C   0  0  0  0  0  0  0  0  0  0  0  0
   -5.4470    5.3660  -17.4850 C   0  0  0  0  0  0  0  0  0  0  0  0
   -5.7310    5.1560  -16.1960 F   0  0  0  0  0  0  0  0  0  0  0  0
   -6.6610    5.6830  -18.3570 C   0  0  0  0  0  0  0  0  0  0  0  0
   -6.3460    5.9060  -19.6620 C   0  0  0  0  0  0  0  0  0  0  0  0
   -4.5540    8.4670  -21.7970 C   0  0  0  0  0  0  0  0  0  0  0  0
   -4.9450    9.6100  -22.5380 C   0  0  0  0  0  0  0  0  0  0  0  0
   -7.2430    8.3160  -26.9980 N   0  0  0  0  0  0  0  0  0  0  0  0
   -8.4620    8.0580  -27.5470 C   0  0  0  0  0  0  0  0  0  0  0  0
   -9.2130    9.2390  -27.4780 C   0  0  0  0  0  0  0  0  0  0  0  0
  -10.5270    9.3600  -27.9380 C   0  0  0  0  0  0  0  0  0  0  0  0
  -11.0880    8.2050  -28.4910 C   0  0  0  0  0  0  0  0  0  0  0  0
  -12.3320    8.1960  -28.9590 F   0  0  0  0  0  0  0  0  0  0  0  0
  -10.3010    6.9140  -28.5820 C   0  0  0  0  0  0  0  0  0  0  0  0
   -8.9940    6.8810  -28.1030 C   0  0  0  0  0  0  0  0  0  0  0  0
   -8.4210   10.1880  -26.8810 O   0  0  0  0  0  0  0  0  0  0  0  0
   -5.4290   10.4610  -26.5070 H   0  0  0  0  0  0  0  0  0  0  0  0
   -7.2960   10.9470  -24.2720 H   0  0  0  0  0  0  0  0  0  0  0  0
   -5.6100   11.4940  -24.4400 H   0  0  0  0  0  0  0  0  0  0  0  0
   -6.9910    7.9860  -24.8630 H   0  0  0  0  0  0  0  0  0  0  0  0
   -6.2490    5.9960  -23.4890 H   0  0  0  0  0  0  0  0  0  0  0  0
   -3.0320    5.5200  -19.7260 H   0  0  0  0  0  0  0  0  0  0  0  0
   -3.5940    5.0070  -16.8590 H   0  0  0  0  0  0  0  0  0  0  0  0
   -7.6710    5.7260  -17.9640 H   0  0  0  0  0  0  0  0  0  0  0  0
   -7.1220    6.1430  -20.3770 H   0  0  0  0  0  0  0  0  0  0  0  0
   -3.8810    8.5930  -20.9520 H   0  0  0  0  0  0  0  0  0  0  0  0
   -4.5650   10.5890  -22.2440 H   0  0  0  0  0  0  0  0  0  0  0  0
  -11.0810   10.2850  -27.8700 H   0  0  0  0  0  0  0  0  0  0  0  0
  -10.7550    6.0270  -29.0160 H   0  0  0  0  0  0  0  0  0  0  0  0
   -8.4010    5.9780  -28.1510 H   0  0  0  0  0  0  0  0  0  0  0  0
  1  2  1  0
  2  3  1  0
  3  4  1  0
  4  5  2  0
  5  6  1  0
  6  7  2  0
  7  8  1  0
  8  9  1  0
  9 10  2  0
 10 11  1  0
 11 12  2  0
 12 13  1  0
 12 14  1  0
 14 15  2  0
  7 16  1  0
 16 17  2  0
  1 18  2  0
 18 19  1  0
 19 20  2  0
 20 21  1  0
 21 22  2  0
 22 23  1  0
 22 24  1  0
 24 25  2  0
 20 26  1  0
 26  1  1  0
 17  4  1  0
 15  9  1  0
 19 25  1  0
  2 27  1  0
  3 28  1  0
  3 29  1  0
  5 30  1  0
  6 31  1  0
 10 32  1  0
 11 33  1  0
 14 34  1  0
 15 35  1  0
 16 36  1  0
 17 37  1  0
 21 38  1  0
 24 39  1  0
 25 40  1  0
A    1
 C1 
A    2
 N1 
A    3
 C2 
A    4
 C3 
A    5
 C4 
A    6
 C5 
A    7
 C6 
A    8
 O1 
A    9
 C7 
A   10
 C8 
A   11
 C9 
A   12
 C10
A   13
 F1 
A   14
 C11
A   15
 C12
A   16
 C13
A   17
 C14
A   18
 N2 
A   19
 C15
A   20
 C16
A   21
 C17
A   22
 C18
A   23
 F2 
A   24
 C19
A   25
 C20
A   26
 O2 
A   27
 H1 
A   28
 H2 
A   29
 H3 
A   30
 H4 
A   31
 H5 
A   32
 H6 
A   33
 H7 
A   34
 H8 
A   35
 H9 
A   36
 H10
A   37
 H11
A   38
 H12
A   39
 H13
A   40
 H14
M  END
>  <ref_pdb>  (487) 
x0051_0B

>  <ref_mols>  (487) 
x0846_1B,x0680_0B

>  <original SMILES>  (487) 
[H]c1c([H])c(Oc2c([H])c([H])c(C([H])([H])N([H])c3nc4c([H])c([H])c(F)c([H])c4o3)c([H])c2[H])c([H])c([H])c1F

>  <index>  (487) 
2134

>  <∆∆G>  (487) 
-5.197153

>  <∆G_bound>  (487) 
-5.210279

>  <∆G_unbound>  (487) 
-0.013126

>  <comRMSD>  (487) 
0.505286

>  <N_constrained_atoms>  (487) 
26.0

>  <N_unconstrained_atoms>  (487) 
2.0

>  <runtime>  (487) 
46.619671

>  <LE>  (487) 
0.185613

>  <percent_hybrid>  (487) 
31.0

>  <dist>  (487) 
8.0

>  <ecfp4>  (487) 
0.21519

>  <daylight>  (487) 
0.392344

>  <topodist>  (487) 
6.0

>  <mces>  (487) 
28.0

>  <tdn>  (487) 
5.0

>  <tup>  (487) 
1.0

>  <rdn>  (487) 
0.0

>  <rup>  (487) 
0.0

>  <ldn>  (487) 
0.0

>  <lup>  (487) 
0.0

>  <mut>  (487) 
2.0

>  <maj>  (487) 
2.0

>  <min>  (487) 
0.0

>  <hyb>  (487) 
0.0

>  <sub>  (487) 
3.0

>  <query_index>  (487) 
100.0

>  <max_hit_Tanimoto>  (487) 
0.310976

>  <largest_ring>  (487) 
6

>  <N_interactions_kept>  (487) 
1.5

>  <N_interactions_lost>  (487) 
2.5

>  <interaction_uniqueness_metric>  (487) 
0.834714

>  <ad_hoc_penalty>  (487) 
-17.193707

>  <N_rotatable_bonds>  (487) 
5

>  <N_HA>  (487) 
26

>  <cluster>  (487) 
4260

>  <N_interactions>  (487) 
5

>  <Enamine>  (487) 
0

>  <Mcule>  (487) 
1

>  <N_PAINS>  (487) 
0

>  <UFF_Gibbs>  (487) 
119.678098

>  <strain_per_HA>  (487) 
4.603004

>  <saltbridge:HIS:51>  (487) 
0

>  <pistack:HIS:51>  (487) 
0

>  <hydroph_interaction:HIS:51>  (487) 
0

>  <hbond:ALA:132>  (487) 
0

>  <hbond:SER:135>  (487) 
0

>  <hydroph_interaction:TYR:150>  (487) 
0

>  <pistack:TYR:161>  (487) 
1

>  <hydroph_interaction:TYR:161>  (487) 
1

>  <hydroph_interaction:ASP:83>  (487) 
0

>  <hbond:TYR:130>  (487) 
0

>  <hydroph_interaction:ALA:132>  (487) 
0

>  <hbond:HIS:51>  (487) 
0

>  <hbond:ASP:129>  (487) 
0

>  <hbond:TYR:150>  (487) 
0

>  <hbond:GLY:151>  (487) 
0

>  <hbond:TYR:161>  (487) 
0

>  <hydroph_interaction:TYR:130>  (487) 
1

>  <hydroph_interaction:PRO:131>  (487) 
1

>  <hydroph_interaction:ASP:129>  (487) 
0

>  <saltbridge:ASP:75>  (487) 
0

>  <saltbridge:ASP:83>  (487) 
0

>  <hydroph_interaction:ASN:152>  (487) 
0

>  <halogenbond:TYR:150>  (487) 
0

>  <hbond:ASP:83>  (487) 
0

>  <hydroph_interaction:VAL:155>  (487) 
0

>  <pication:TYR:161>  (487) 
0

>  <hbond:PRO:131>  (487) 
0

>  <hbond:LEU:128>  (487) 
0

>  <saltbridge:ASP:129>  (487) 
0

>  <hbond:THR:134>  (487) 
0

>  <pication:HIS:51>  (487) 
0

>  <hbond:SER:81>  (487) 
0

>  <hbond:GLY:159>  (487) 
0

>  <hydroph_interaction:PRO:101>  (487) 
0

>  <hydroph_interaction:THR:134>  (487) 
0

>  <hbond:GLY:82>  (487) 
0

>  <hydroph_interaction:GLU:104>  (487) 
0

>  <hydroph_interaction:VAL:36>  (487) 
0

>  <hydroph_interaction:MET:49>  (487) 
0

>  <halogenbond:GLU:104>  (487) 
1

>  <hydroph_interaction:LYS:107>  (487) 
0

$$$$
MCULE-9395182731
     RDKit          3D

 32 34  0  0  0  0  0  0  0  0999 V2000
   -6.9900    5.3870  -17.6050 C   0  0  0  0  0  0  0  0  0  0  0  0
   -7.6450    5.4130  -16.3990 C   0  0  0  0  0  0  0  0  0  0  0  0
   -8.9930    5.1810  -16.3380 C   0  0  0  0  0  0  0  0  0  0  0  0
   -9.6940    5.2700  -14.7860 Cl  0  0  0  0  0  0  0  0  0  0  0  0
   -9.7150    4.8970  -17.5090 C   0  0  0  0  0  0  0  0  0  0  0  0
   -9.0570    4.8680  -18.7380 C   0  0  0  0  0  0  0  0  0  0  0  0
   -7.6900    5.1180  -18.8040 C   0  0  0  0  0  0  0  0  0  0  0  0
   -7.0910    5.0930  -20.0010 N   0  0  0  0  0  0  0  0  0  0  0  0
   -5.7690    5.3340  -20.0440 C   0  0  0  0  0  0  0  0  0  0  0  0
   -5.0040    5.6020  -18.9100 C   0  0  0  0  0  0  0  0  0  0  0  0
   -5.6070    5.6300  -17.6700 C   0  0  0  0  0  0  0  0  0  0  0  0
   -4.8930    5.8850  -16.4810 N   0  0  0  0  0  0  0  0  0  0  0  0
   -5.0250    7.1890  -15.8220 C   0  0  0  0  0  0  0  0  0  0  0  0
   -4.1560    7.2260  -14.5680 C   0  0  0  0  0  0  0  0  0  0  0  0
   -3.9210    5.8310  -14.0020 C   0  0  0  0  0  0  0  0  0  0  0  0
   -3.2390    4.8900  -15.0030 C   0  0  0  0  0  0  0  0  0  0  0  0
   -3.5920    5.2380  -16.4440 C   0  0  0  0  0  0  0  0  0  0  0  0
   -7.1000    5.6240  -15.4850 H   0  0  0  0  0  0  0  0  0  0  0  0
  -10.7810    4.7050  -17.4740 H   0  0  0  0  0  0  0  0  0  0  0  0
   -9.6000    4.6550  -19.6560 H   0  0  0  0  0  0  0  0  0  0  0  0
   -5.3200    5.3050  -21.0330 H   0  0  0  0  0  0  0  0  0  0  0  0
   -3.9420    5.7850  -19.0210 H   0  0  0  0  0  0  0  0  0  0  0  0
   -4.7740    8.0240  -16.4860 H   0  0  0  0  0  0  0  0  0  0  0  0
   -6.0800    7.3250  -15.5490 H   0  0  0  0  0  0  0  0  0  0  0  0
   -3.1890    7.6940  -14.7980 H   0  0  0  0  0  0  0  0  0  0  0  0
   -4.6330    7.8460  -13.7980 H   0  0  0  0  0  0  0  0  0  0  0  0
   -4.8840    5.4100  -13.6900 H   0  0  0  0  0  0  0  0  0  0  0  0
   -3.3060    5.8940  -13.0970 H   0  0  0  0  0  0  0  0  0  0  0  0
   -3.5250    3.8590  -14.7860 H   0  0  0  0  0  0  0  0  0  0  0  0
   -2.1550    4.9690  -14.8750 H   0  0  0  0  0  0  0  0  0  0  0  0
   -3.6280    4.3180  -17.0310 H   0  0  0  0  0  0  0  0  0  0  0  0
   -2.8100    5.8790  -16.8610 H   0  0  0  0  0  0  0  0  0  0  0  0
  1  2  2  0
  2  3  1  0
  3  4  1  0
  3  5  2  0
  5  6  1  0
  6  7  2  0
  7  8  1  0
  8  9  2  0
  9 10  1  0
 10 11  2  0
 11 12  1  0
 12 13  1  0
 13 14  1  0
 14 15  1  0
 15 16  1  0
 16 17  1  0
  7  1  1  0
 11  1  1  0
 17 12  1  0
  2 18  1  0
  5 19  1  0
  6 20  1  0
  9 21  1  0
 10 22  1  0
 13 23  1  0
 13 24  1  0
 14 25  1  0
 14 26  1  0
 15 27  1  0
 15 28  1  0
 16 29  1  0
 16 30  1  0
 17 31  1  0
 17 32  1  0
A    1
 C1 
A    2
 C2 
A    3
 C3 
A    4
CL1 
A    5
 C4 
A    6
 C5 
A    7
 C6 
A    8
 N1 
A    9
 C7 
A   10
 C8 
A   11
 C9 
A   12
 N2 
A   13
 C10
A   14
 C11
A   15
 C12
A   16
 C13
A   17
 C14
A   18
 H1 
A   19
 H2 
A   20
 H3 
A   21
 H4 
A   22
 H5 
A   23
 H6 
A   24
 H7 
A   25
 H8 
A   26
 H9 
A   27
 H10
A   28
 H11
A   29
 H12
A   30
 H13
A   31
 H14
A   32
 H15
M  END
>  <ref_pdb>  (488) 
x0051_0B

>  <ref_mols>  (488) 
x0429_0B,x0693_0B

>  <original SMILES>  (488) 
[H]c1nc2c([H])c([H])c(Cl)c([H])c2c(N2C([H])([H])C([H])([H])C([H])([H])C([H])([H])C2([H])[H])c1[H]

>  <index>  (488) 
1095

>  <∆∆G>  (488) 
-5.333308

>  <∆G_bound>  (488) 
-5.020482

>  <∆G_unbound>  (488) 
0.312826

>  <comRMSD>  (488) 
0.606969

>  <N_constrained_atoms>  (488) 
19.0

>  <N_unconstrained_atoms>  (488) 
0.0

>  <runtime>  (488) 
20.363861

>  <LE>  (488) 
0.2807

>  <percent_hybrid>  (488) 
25.0

>  <dist>  (488) 
3.0

>  <ecfp4>  (488) 
0.333333

>  <daylight>  (488) 
0.526786

>  <topodist>  (488) 
2.0

>  <mces>  (488) 
18.0

>  <tdn>  (488) 
1.0

>  <tup>  (488) 
1.0

>  <rdn>  (488) 
0.0

>  <rup>  (488) 
0.0

>  <ldn>  (488) 
0.0

>  <lup>  (488) 
0.0

>  <mut>  (488) 
1.0

>  <maj>  (488) 
1.0

>  <min>  (488) 
0.0

>  <hyb>  (488) 
0.0

>  <sub>  (488) 
2.0

>  <query_index>  (488) 
179.0

>  <max_hit_Tanimoto>  (488) 
0.686542

>  <largest_ring>  (488) 
6

>  <N_interactions_kept>  (488) 
2.5

>  <N_interactions_lost>  (488) 
2.0

>  <interaction_uniqueness_metric>  (488) 
0.04341

>  <ad_hoc_penalty>  (488) 
-17.192869

>  <N_rotatable_bonds>  (488) 
1

>  <N_HA>  (488) 
17

>  <cluster>  (488) 
5213

>  <N_interactions>  (488) 
4

>  <Enamine>  (488) 
0

>  <Mcule>  (488) 
1

>  <N_PAINS>  (488) 
0

>  <UFF_Gibbs>  (488) 
19.75069

>  <strain_per_HA>  (488) 
1.161805

>  <saltbridge:HIS:51>  (488) 
0

>  <pistack:HIS:51>  (488) 
0

>  <hydroph_interaction:HIS:51>  (488) 
0

>  <hbond:ALA:132>  (488) 
0

>  <hbond:SER:135>  (488) 
0

>  <hydroph_interaction:TYR:150>  (488) 
1

>  <pistack:TYR:161>  (488) 
2

>  <hydroph_interaction:TYR:161>  (488) 
1

>  <hydroph_interaction:ASP:83>  (488) 
0

>  <hbond:TYR:130>  (488) 
0

>  <hydroph_interaction:ALA:132>  (488) 
0

>  <hbond:HIS:51>  (488) 
0

>  <hbond:ASP:129>  (488) 
0

>  <hbond:TYR:150>  (488) 
0

>  <hbond:GLY:151>  (488) 
0

>  <hbond:TYR:161>  (488) 
0

>  <hydroph_interaction:TYR:130>  (488) 
0

>  <hydroph_interaction:PRO:131>  (488) 
0

>  <hydroph_interaction:ASP:129>  (488) 
0

>  <saltbridge:ASP:75>  (488) 
0

>  <saltbridge:ASP:83>  (488) 
0

>  <hydroph_interaction:ASN:152>  (488) 
0

>  <halogenbond:TYR:150>  (488) 
0

>  <hbond:ASP:83>  (488) 
0

>  <hydroph_interaction:VAL:155>  (488) 
0

>  <pication:TYR:161>  (488) 
0

>  <hbond:PRO:131>  (488) 
0

>  <hbond:LEU:128>  (488) 
0

>  <saltbridge:ASP:129>  (488) 
0

>  <hbond:THR:134>  (488) 
0

>  <pication:HIS:51>  (488) 
0

>  <hbond:SER:81>  (488) 
0

>  <hbond:GLY:159>  (488) 
0

>  <hydroph_interaction:PRO:101>  (488) 
0

>  <hydroph_interaction:THR:134>  (488) 
0

>  <hbond:GLY:82>  (488) 
0

>  <hydroph_interaction:GLU:104>  (488) 
0

>  <hydroph_interaction:VAL:36>  (488) 
0

>  <hydroph_interaction:MET:49>  (488) 
0

>  <halogenbond:GLU:104>  (488) 
0

>  <hydroph_interaction:LYS:107>  (488) 
0

$$$$
Z2184110416
     RDKit          3D

 46 50  0  0  0  0  0  0  0  0999 V2000
   -4.7440    5.1720  -21.2950 O   0  0  0  0  0  0  0  0  0  0  0  0
   -5.3820    6.1070  -20.8410 C   0  0  0  0  0  0  0  0  0  0  0  0
   -5.5260    7.3140  -21.7670 C   0  0  0  0  0  0  0  0  0  0  0  0
   -6.0270    7.1010  -23.0830 C   0  0  0  0  0  0  0  0  0  0  0  0
   -6.1890    8.1450  -23.9930 C   0  0  0  0  0  0  0  0  0  0  0  0
   -5.8340    9.5510  -23.6150 C   0  0  0  0  0  0  0  0  0  0  0  0
   -6.0080   10.5670  -24.5610 C   0  0  0  0  0  0  0  0  0  0  0  0
   -5.5330   10.0560  -26.2410 S   0  0  0  0  0  0  0  0  0  0  0  0
   -7.0900    9.5880  -26.8640 C   0  0  0  0  0  0  0  0  0  0  0  0
   -7.4700    8.2560  -27.2120 N   0  0  0  0  0  0  0  0  0  0  0  0
   -8.7530    8.1710  -27.6410 C   0  0  0  0  0  0  0  0  0  0  0  0
   -9.3360    6.9730  -28.0150 C   0  0  0  0  0  0  0  0  0  0  0  0
  -10.6780    7.0100  -28.4200 C   0  0  0  0  0  0  0  0  0  0  0  0
  -11.3910    8.2260  -28.4410 C   0  0  0  0  0  0  0  0  0  0  0  0
  -10.7710    9.4200  -28.0640 C   0  0  0  0  0  0  0  0  0  0  0  0
   -9.4360    9.3790  -27.6640 C   0  0  0  0  0  0  0  0  0  0  0  0
   -8.3820   10.6710  -27.1390 S   0  0  0  0  0  0  0  0  0  0  0  0
   -5.3360    9.7910  -22.3250 C   0  0  0  0  0  0  0  0  0  0  0  0
   -5.1740    8.6150  -21.3520 C   0  0  0  0  0  0  0  0  0  0  0  0
   -5.9250    6.0620  -19.5240 N   0  0  0  0  0  0  0  0  0  0  0  0
   -5.0310    5.8470  -18.3570 C   0  0  0  0  0  0  0  0  0  0  0  0
   -5.6780    6.2200  -17.0160 C   0  0  0  0  0  0  0  0  0  0  0  0
   -7.0350    5.7470  -16.9830 N   0  0  0  0  0  0  0  0  0  0  0  0
   -7.8710    5.5850  -15.9210 C   0  0  0  0  0  0  0  0  0  0  0  0
   -9.0500    5.1260  -16.3100 N   0  0  0  0  0  0  0  0  0  0  0  0
   -8.9650    4.9750  -17.6740 C   0  0  0  0  0  0  0  0  0  0  0  0
   -7.7010    5.3720  -18.0950 C   0  0  0  0  0  0  0  0  0  0  0  0
   -7.2300    5.3830  -19.4100 C   0  0  0  0  0  0  0  0  0  0  0  0
   -6.2930    6.0950  -23.3860 H   0  0  0  0  0  0  0  0  0  0  0  0
   -6.5790    7.9190  -24.9840 H   0  0  0  0  0  0  0  0  0  0  0  0
   -5.4560   11.4700  -24.2740 H   0  0  0  0  0  0  0  0  0  0  0  0
   -7.0630   10.8540  -24.5760 H   0  0  0  0  0  0  0  0  0  0  0  0
   -8.7690    6.0450  -27.9880 H   0  0  0  0  0  0  0  0  0  0  0  0
  -11.1680    6.0880  -28.7180 H   0  0  0  0  0  0  0  0  0  0  0  0
  -12.4360    8.2400  -28.7550 H   0  0  0  0  0  0  0  0  0  0  0  0
  -11.3200   10.3570  -28.0810 H   0  0  0  0  0  0  0  0  0  0  0  0
   -5.0650   10.7970  -22.0100 H   0  0  0  0  0  0  0  0  0  0  0  0
   -4.7890    8.7910  -20.3490 H   0  0  0  0  0  0  0  0  0  0  0  0
   -4.1420    6.4690  -18.5330 H   0  0  0  0  0  0  0  0  0  0  0  0
   -4.6670    4.8180  -18.3050 H   0  0  0  0  0  0  0  0  0  0  0  0
   -5.1590    5.7360  -16.1810 H   0  0  0  0  0  0  0  0  0  0  0  0
   -5.6820    7.3040  -16.8660 H   0  0  0  0  0  0  0  0  0  0  0  0
   -7.5910    5.8110  -14.9020 H   0  0  0  0  0  0  0  0  0  0  0  0
   -9.7950    4.6050  -18.2630 H   0  0  0  0  0  0  0  0  0  0  0  0
   -7.9530    5.9100  -20.0210 H   0  0  0  0  0  0  0  0  0  0  0  0
   -7.1270    4.3710  -19.8020 H   0  0  0  0  0  0  0  0  0  0  0  0
  1  2  2  0
  2  3  1  0
  3  4  2  0
  4  5  1  0
  5  6  2  0
  6  7  1  0
  7  8  1  0
  8  9  1  0
  9 10  2  0
 10 11  1  0
 11 12  2  0
 12 13  1  0
 13 14  2  0
 14 15  1  0
 15 16  2  0
 16 17  1  0
  6 18  1  0
 18 19  2  0
  2 20  1  0
 20 21  1  0
 21 22  1  0
 22 23  1  0
 23 24  1  0
 24 25  2  0
 25 26  1  0
 26 27  2  0
 27 28  1  0
 19  3  1  0
 17  9  1  0
 16 11  1  0
 28 20  1  0
 27 23  1  0
  4 29  1  0
  5 30  1  0
  7 31  1  0
  7 32  1  0
 12 33  1  0
 13 34  1  0
 14 35  1  0
 15 36  1  0
 18 37  1  0
 19 38  1  0
 21 39  1  0
 21 40  1  0
 22 41  1  0
 22 42  1  0
 24 43  1  0
 26 44  1  0
 28 45  1  0
 28 46  1  0
A    1
 O1 
A    2
 C1 
A    3
 C2 
A    4
 C3 
A    5
 C4 
A    6
 C5 
A    7
 C6 
A    8
 S1 
A    9
 C7 
A   10
 N1 
A   11
 C8 
A   12
 C9 
A   13
 C10
A   14
 C11
A   15
 C12
A   16
 C13
A   17
 S2 
A   18
 C14
A   19
 C15
A   20
 N2 
A   21
 C16
A   22
 C17
A   23
 N3 
A   24
 C18
A   25
 N4 
A   26
 C19
A   27
 C20
A   28
 C21
A   29
 H1 
A   30
 H2 
A   31
 H3 
A   32
 H4 
A   33
 H5 
A   34
 H6 
A   35
 H7 
A   36
 H8 
A   37
 H9 
A   38
 H10
A   39
 H11
A   40
 H12
A   41
 H13
A   42
 H14
A   43
 H15
A   44
 H16
A   45
 H17
A   46
 H18
M  END
>  <ref_pdb>  (489) 
x0051_0B

>  <ref_mols>  (489) 
x0846_1B,x0969_0B

>  <original SMILES>  (489) 
[H]c1nc([H])n2c1C([H])([H])N(C(=O)c1c([H])c([H])c(C([H])([H])Sc3nc4c([H])c([H])c([H])c([H])c4s3)c([H])c1[H])C([H])([H])C2([H])[H]

>  <index>  (489) 
1131

>  <∆∆G>  (489) 
-7.757514

>  <∆G_bound>  (489) 
-7.101815

>  <∆G_unbound>  (489) 
0.655699

>  <comRMSD>  (489) 
0.738345

>  <N_constrained_atoms>  (489) 
28.0

>  <N_unconstrained_atoms>  (489) 
2.0

>  <runtime>  (489) 
48.295414

>  <LE>  (489) 
0.258584

>  <percent_hybrid>  (489) 
36.0

>  <dist>  (489) 
8.0

>  <ecfp4>  (489) 
0.17

>  <daylight>  (489) 
0.265193

>  <topodist>  (489) 
3.0

>  <mces>  (489) 
31.0

>  <tdn>  (489) 
2.0

>  <tup>  (489) 
1.0

>  <rdn>  (489) 
0.0

>  <rup>  (489) 
0.0

>  <ldn>  (489) 
0.0

>  <lup>  (489) 
0.0

>  <mut>  (489) 
5.0

>  <maj>  (489) 
5.0

>  <min>  (489) 
0.0

>  <hyb>  (489) 
0.0

>  <sub>  (489) 
2.0

>  <query_index>  (489) 
45.0

>  <max_hit_Tanimoto>  (489) 
0.21875

>  <largest_ring>  (489) 
6

>  <N_interactions_kept>  (489) 
0.5

>  <N_interactions_lost>  (489) 
2.0

>  <interaction_uniqueness_metric>  (489) 
0.157289

>  <ad_hoc_penalty>  (489) 
-17.158062

>  <N_rotatable_bonds>  (489) 
4

>  <N_HA>  (489) 
28

>  <cluster>  (489) 
5180

>  <N_interactions>  (489) 
4

>  <Enamine>  (489) 
1

>  <Mcule>  (489) 
0

>  <N_PAINS>  (489) 
0

>  <UFF_Gibbs>  (489) 
58.212389

>  <strain_per_HA>  (489) 
2.079014

>  <saltbridge:HIS:51>  (489) 
0

>  <pistack:HIS:51>  (489) 
0

>  <hydroph_interaction:HIS:51>  (489) 
0

>  <hbond:ALA:132>  (489) 
0

>  <hbond:SER:135>  (489) 
0

>  <hydroph_interaction:TYR:150>  (489) 
0

>  <pistack:TYR:161>  (489) 
1

>  <hydroph_interaction:TYR:161>  (489) 
0

>  <hydroph_interaction:ASP:83>  (489) 
0

>  <hbond:TYR:130>  (489) 
0

>  <hydroph_interaction:ALA:132>  (489) 
0

>  <hbond:HIS:51>  (489) 
0

>  <hbond:ASP:129>  (489) 
1

>  <hbond:TYR:150>  (489) 
0

>  <hbond:GLY:151>  (489) 
0

>  <hbond:TYR:161>  (489) 
0

>  <hydroph_interaction:TYR:130>  (489) 
1

>  <hydroph_interaction:PRO:131>  (489) 
1

>  <hydroph_interaction:ASP:129>  (489) 
0

>  <saltbridge:ASP:75>  (489) 
0

>  <saltbridge:ASP:83>  (489) 
0

>  <hydroph_interaction:ASN:152>  (489) 
0

>  <halogenbond:TYR:150>  (489) 
0

>  <hbond:ASP:83>  (489) 
0

>  <hydroph_interaction:VAL:155>  (489) 
0

>  <pication:TYR:161>  (489) 
0

>  <hbond:PRO:131>  (489) 
0

>  <hbond:LEU:128>  (489) 
0

>  <saltbridge:ASP:129>  (489) 
0

>  <hbond:THR:134>  (489) 
0

>  <pication:HIS:51>  (489) 
0

>  <hbond:SER:81>  (489) 
0

>  <hbond:GLY:159>  (489) 
0

>  <hydroph_interaction:PRO:101>  (489) 
0

>  <hydroph_interaction:THR:134>  (489) 
0

>  <hbond:GLY:82>  (489) 
0

>  <hydroph_interaction:GLU:104>  (489) 
0

>  <hydroph_interaction:VAL:36>  (489) 
0

>  <hydroph_interaction:MET:49>  (489) 
0

>  <halogenbond:GLU:104>  (489) 
0

>  <hydroph_interaction:LYS:107>  (489) 
0

$$$$
MCULE-2247019462
     RDKit          3D

 46 49  0  0  0  0  0  0  0  0999 V2000
   -6.0370    6.5830  -19.8300 C   0  0  0  0  0  0  0  0  0  0  0  0
   -4.9380    6.1890  -19.0220 C   0  0  0  0  0  0  0  0  0  0  0  0
   -5.0920    5.4430  -17.8570 C   0  0  0  0  0  0  0  0  0  0  0  0
   -3.9800    5.0830  -17.0920 C   0  0  0  0  0  0  0  0  0  0  0  0
   -6.3620    5.0490  -17.4420 C   0  0  0  0  0  0  0  0  0  0  0  0
   -7.4750    5.3800  -18.1760 C   0  0  0  0  0  0  0  0  0  0  0  0
   -8.7550    4.9630  -17.7390 C   0  0  0  0  0  0  0  0  0  0  0  0
   -7.3040    6.1410  -19.3610 C   0  0  0  0  0  0  0  0  0  0  0  0
   -5.8770    7.4290  -21.0870 C   0  0  0  0  0  0  0  0  0  0  0  0
   -5.5720    8.8120  -20.9940 C   0  0  0  0  0  0  0  0  0  0  0  0
   -5.4160    9.7060  -22.0730 C   0  0  0  0  0  0  0  0  0  0  0  0
   -5.5860    9.1780  -23.4500 C   0  0  0  0  0  0  0  0  0  0  0  0
   -5.4250   10.0800  -24.5320 N   0  0  0  0  0  0  0  0  0  0  0  0
   -6.3170   10.4110  -25.5700 C   0  0  0  0  0  0  0  0  0  0  0  0
   -7.1000    9.5350  -26.3540 C   0  0  0  0  0  0  0  0  0  0  0  0
   -6.6270    8.1600  -26.7270 C   0  0  0  0  0  0  0  0  0  0  0  0
   -7.3750    7.3150  -27.4330 N   0  0  0  0  0  0  0  0  0  0  0  0
   -8.5990    7.7500  -27.7790 C   0  0  0  0  0  0  0  0  0  0  0  0
   -9.4310    6.8840  -28.4700 C   0  0  0  0  0  0  0  0  0  0  0  0
  -10.7960    7.3080  -28.8620 C   0  0  0  0  0  0  0  0  0  0  0  0
  -11.2300    8.5990  -28.5300 C   0  0  0  0  0  0  0  0  0  0  0  0
  -10.3800    9.4530  -27.8460 C   0  0  0  0  0  0  0  0  0  0  0  0
   -9.0800    9.0600  -27.4600 C   0  0  0  0  0  0  0  0  0  0  0  0
   -8.3260    9.9510  -26.7730 N   0  0  0  0  0  0  0  0  0  0  0  0
   -6.4850   11.5870  -25.8710 O   0  0  0  0  0  0  0  0  0  0  0  0
   -5.8860    7.7990  -23.5600 C   0  0  0  0  0  0  0  0  0  0  0  0
   -6.0570    7.2480  -24.7710 F   0  0  0  0  0  0  0  0  0  0  0  0
   -6.0190    6.9480  -22.4200 C   0  0  0  0  0  0  0  0  0  0  0  0
   -3.9280    6.4870  -19.3190 H   0  0  0  0  0  0  0  0  0  0  0  0
   -3.2100    4.5130  -17.6110 H   0  0  0  0  0  0  0  0  0  0  0  0
   -4.1720    4.5210  -16.1780 H   0  0  0  0  0  0  0  0  0  0  0  0
   -3.5190    6.0090  -16.7730 H   0  0  0  0  0  0  0  0  0  0  0  0
   -6.4670    4.4710  -16.5280 H   0  0  0  0  0  0  0  0  0  0  0  0
   -9.4550    5.6720  -17.3170 H   0  0  0  0  0  0  0  0  0  0  0  0
   -8.6310    4.2340  -16.9530 H   0  0  0  0  0  0  0  0  0  0  0  0
   -9.2700    4.4740  -18.5770 H   0  0  0  0  0  0  0  0  0  0  0  0
   -8.1960    6.3960  -19.9180 H   0  0  0  0  0  0  0  0  0  0  0  0
   -5.4490    9.2250  -19.9840 H   0  0  0  0  0  0  0  0  0  0  0  0
   -5.1790   10.7510  -21.8250 H   0  0  0  0  0  0  0  0  0  0  0  0
   -4.5510   10.5860  -24.5790 H   0  0  0  0  0  0  0  0  0  0  0  0
   -5.6220    7.8980  -26.3730 H   0  0  0  0  0  0  0  0  0  0  0  0
   -9.0750    5.8840  -28.7180 H   0  0  0  0  0  0  0  0  0  0  0  0
  -11.4550    6.6340  -29.4000 H   0  0  0  0  0  0  0  0  0  0  0  0
  -12.2270    8.9290  -28.8100 H   0  0  0  0  0  0  0  0  0  0  0  0
  -10.7350   10.4620  -27.5940 H   0  0  0  0  0  0  0  0  0  0  0  0
   -6.2480    5.8940  -22.5990 H   0  0  0  0  0  0  0  0  0  0  0  0
  1  2  2  0
  2  3  1  0
  3  4  1  0
  3  5  2  0
  5  6  1  0
  6  7  1  0
  6  8  2  0
  1  9  1  0
  9 10  2  0
 10 11  1  0
 11 12  2  0
 12 13  1  0
 13 14  1  0
 14 15  1  0
 15 16  2  0
 16 17  1  0
 17 18  2  0
 18 19  1  0
 19 20  2  0
 20 21  1  0
 21 22  2  0
 22 23  1  0
 23 24  2  0
 14 25  2  0
 12 26  1  0
 26 27  1  0
 26 28  2  0
  8  1  1  0
 28  9  1  0
 15 24  1  0
 18 23  1  0
  2 29  1  0
  4 30  1  0
  4 31  1  0
  4 32  1  0
  5 33  1  0
  7 34  1  0
  7 35  1  0
  7 36  1  0
  8 37  1  0
 10 38  1  0
 11 39  1  0
 13 40  1  0
 16 41  1  0
 19 42  1  0
 20 43  1  0
 21 44  1  0
 22 45  1  0
 28 46  1  0
A    1
 C1 
A    2
 C2 
A    3
 C3 
A    4
 C4 
A    5
 C5 
A    6
 C6 
A    7
 C7 
A    8
 C8 
A    9
 C9 
A   10
 C10
A   11
 C11
A   12
 C12
A   13
 N1 
A   14
 C13
A   15
 C14
A   16
 C15
A   17
 N2 
A   18
 C16
A   19
 C17
A   20
 C18
A   21
 C19
A   22
 C20
A   23
 C21
A   24
 N3 
A   25
 O1 
A   26
 C22
A   27
 F1 
A   28
 C23
A   29
 H1 
A   30
 H2 
A   31
 H3 
A   32
 H4 
A   33
 H5 
A   34
 H6 
A   35
 H7 
A   36
 H8 
A   37
 H9 
A   38
 H10
A   39
 H11
A   40
 H12
A   41
 H13
A   42
 H14
A   43
 H15
A   44
 H16
A   45
 H17
A   46
 H18
M  END
>  <ref_pdb>  (490) 
x0051_0B

>  <ref_mols>  (490) 
x0846_1B,x0425_0B

>  <original SMILES>  (490) 
[H]c1nc2c([H])c([H])c([H])c([H])c2nc1C(=O)N([H])c1c([H])c([H])c(-c2c([H])c(C([H])([H])[H])c([H])c(C([H])([H])[H])c2[H])c([H])c1F

>  <index>  (490) 
874

>  <∆∆G>  (490) 
-7.755229

>  <∆G_bound>  (490) 
-7.31409

>  <∆G_unbound>  (490) 
0.441139

>  <comRMSD>  (490) 
0.686314

>  <N_constrained_atoms>  (490) 
29.0

>  <N_unconstrained_atoms>  (490) 
2.0

>  <runtime>  (490) 
50.071052

>  <LE>  (490) 
0.250169

>  <percent_hybrid>  (490) 
38.0

>  <dist>  (490) 
11.0

>  <ecfp4>  (490) 
0.123711

>  <daylight>  (490) 
0.208494

>  <topodist>  (490) 
6.0

>  <mces>  (490) 
29.0

>  <tdn>  (490) 
2.0

>  <tup>  (490) 
1.0

>  <rdn>  (490) 
0.0

>  <rup>  (490) 
0.0

>  <ldn>  (490) 
2.0

>  <lup>  (490) 
1.0

>  <mut>  (490) 
4.0

>  <maj>  (490) 
4.0

>  <min>  (490) 
0.0

>  <hyb>  (490) 
1.0

>  <sub>  (490) 
1.0

>  <query_index>  (490) 
25.0

>  <max_hit_Tanimoto>  (490) 
0.27033

>  <largest_ring>  (490) 
6

>  <N_interactions_kept>  (490) 
0.0

>  <N_interactions_lost>  (490) 
2.5

>  <interaction_uniqueness_metric>  (490) 
0.153471

>  <ad_hoc_penalty>  (490) 
-17.139593

>  <N_rotatable_bonds>  (490) 
5

>  <N_HA>  (490) 
28

>  <cluster>  (490) 
517

>  <N_interactions>  (490) 
6

>  <Enamine>  (490) 
0

>  <Mcule>  (490) 
1

>  <N_PAINS>  (490) 
0

>  <UFF_Gibbs>  (490) 
119.443605

>  <strain_per_HA>  (490) 
4.265843

>  <saltbridge:HIS:51>  (490) 
0

>  <pistack:HIS:51>  (490) 
0

>  <hydroph_interaction:HIS:51>  (490) 
0

>  <hbond:ALA:132>  (490) 
0

>  <hbond:SER:135>  (490) 
0

>  <hydroph_interaction:TYR:150>  (490) 
0

>  <pistack:TYR:161>  (490) 
1

>  <hydroph_interaction:TYR:161>  (490) 
2

>  <hydroph_interaction:ASP:83>  (490) 
0

>  <hbond:TYR:130>  (490) 
0

>  <hydroph_interaction:ALA:132>  (490) 
1

>  <hbond:HIS:51>  (490) 
0

>  <hbond:ASP:129>  (490) 
0

>  <hbond:TYR:150>  (490) 
0

>  <hbond:GLY:151>  (490) 
0

>  <hbond:TYR:161>  (490) 
0

>  <hydroph_interaction:TYR:130>  (490) 
1

>  <hydroph_interaction:PRO:131>  (490) 
1

>  <hydroph_interaction:ASP:129>  (490) 
0

>  <saltbridge:ASP:75>  (490) 
0

>  <saltbridge:ASP:83>  (490) 
0

>  <hydroph_interaction:ASN:152>  (490) 
0

>  <halogenbond:TYR:150>  (490) 
0

>  <hbond:ASP:83>  (490) 
0

>  <hydroph_interaction:VAL:155>  (490) 
0

>  <pication:TYR:161>  (490) 
0

>  <hbond:PRO:131>  (490) 
0

>  <hbond:LEU:128>  (490) 
0

>  <saltbridge:ASP:129>  (490) 
0

>  <hbond:THR:134>  (490) 
0

>  <pication:HIS:51>  (490) 
0

>  <hbond:SER:81>  (490) 
0

>  <hbond:GLY:159>  (490) 
0

>  <hydroph_interaction:PRO:101>  (490) 
0

>  <hydroph_interaction:THR:134>  (490) 
0

>  <hbond:GLY:82>  (490) 
0

>  <hydroph_interaction:GLU:104>  (490) 
0

>  <hydroph_interaction:VAL:36>  (490) 
0

>  <hydroph_interaction:MET:49>  (490) 
0

>  <halogenbond:GLU:104>  (490) 
0

>  <hydroph_interaction:LYS:107>  (490) 
0

$$$$
UHWCUWHJCAXFJR-UHFFFAOYSA-N
     RDKit          3D

 25 26  0  0  0  0  0  0  0  0999 V2000
   -5.9680    5.4960  -17.7400 N   0  0  0  0  0  0  0  0  0  0  0  0
   -5.1010    5.2910  -16.5840 C   0  0  0  0  0  0  0  0  0  0  0  0
   -3.6920    4.8820  -16.9960 C   0  0  0  0  0  0  0  0  0  0  0  0
   -5.2890    5.7590  -19.0300 C   0  0  0  0  0  0  0  0  0  0  0  0
   -5.8940    5.3080  -20.1880 C   0  0  0  0  0  0  0  0  0  0  0  0
   -5.2570    5.0420  -21.2050 O   0  0  0  0  0  0  0  0  0  0  0  0
   -7.2510    5.1770  -20.1820 N   0  0  0  0  0  0  0  0  0  0  0  0
   -7.9870    5.1010  -18.9810 C   0  0  0  0  0  0  0  0  0  0  0  0
   -7.3370    5.2630  -17.7550 C   0  0  0  0  0  0  0  0  0  0  0  0
   -8.1890    5.1650  -16.5640 C   0  0  0  0  0  0  0  0  0  0  0  0
   -9.5630    4.9270  -16.6820 C   0  0  0  0  0  0  0  0  0  0  0  0
  -10.1480    4.7760  -17.9370 C   0  0  0  0  0  0  0  0  0  0  0  0
   -9.3560    4.8640  -19.0860 C   0  0  0  0  0  0  0  0  0  0  0  0
   -5.5310    4.5600  -15.8910 H   0  0  0  0  0  0  0  0  0  0  0  0
   -5.0410    6.2210  -16.0070 H   0  0  0  0  0  0  0  0  0  0  0  0
   -3.0390    5.7570  -17.0910 H   0  0  0  0  0  0  0  0  0  0  0  0
   -3.2350    4.2080  -16.2630 H   0  0  0  0  0  0  0  0  0  0  0  0
   -3.7030    4.3740  -17.9590 H   0  0  0  0  0  0  0  0  0  0  0  0
   -5.1630    6.8420  -19.1510 H   0  0  0  0  0  0  0  0  0  0  0  0
   -4.2940    5.3030  -19.0070 H   0  0  0  0  0  0  0  0  0  0  0  0
   -7.7170    5.5530  -20.9950 H   0  0  0  0  0  0  0  0  0  0  0  0
   -7.7870    5.2730  -15.5630 H   0  0  0  0  0  0  0  0  0  0  0  0
  -10.1760    4.8570  -15.7820 H   0  0  0  0  0  0  0  0  0  0  0  0
  -11.2120    4.5930  -18.0320 H   0  0  0  0  0  0  0  0  0  0  0  0
   -9.8110    4.7490  -20.0620 H   0  0  0  0  0  0  0  0  0  0  0  0
  1  2  1  0
  2  3  1  0
  1  4  1  0
  4  5  1  0
  5  6  2  0
  5  7  1  0
  7  8  1  0
  8  9  2  0
  9 10  1  0
 10 11  2  0
 11 12  1  0
 12 13  2  0
  9  1  1  0
 13  8  1  0
  2 14  1  0
  2 15  1  0
  3 16  1  0
  3 17  1  0
  3 18  1  0
  4 19  1  0
  4 20  1  0
  7 21  1  0
 10 22  1  0
 11 23  1  0
 12 24  1  0
 13 25  1  0
A    1
 N1 
A    2
 C1 
A    3
 C2 
A    4
 C3 
A    5
 C4 
A    6
 O1 
A    7
 N2 
A    8
 C5 
A    9
 C6 
A   10
 C7 
A   11
 C8 
A   12
 C9 
A   13
 C10
A   14
 H1 
A   15
 H2 
A   16
 H3 
A   17
 H4 
A   18
 H5 
A   19
 H6 
A   20
 H7 
A   21
 H8 
A   22
 H9 
A   23
 H10
A   24
 H11
A   25
 H12
M  END
>  <ref_pdb>  (491) 
x0051_0B

>  <ref_mols>  (491) 
x0443_0B,x0490_0B

>  <original SMILES>  (491) 
[H]c1c([H])c([H])c2c(c1[H])N([H])C(=O)C([H])([H])N2C([H])([H])C([H])([H])[H]

>  <index>  (491) 
318

>  <∆∆G>  (491) 
-6.642784

>  <∆G_bound>  (491) 
-6.717394

>  <∆G_unbound>  (491) 
-0.07461

>  <comRMSD>  (491) 
0.51207

>  <N_constrained_atoms>  (491) 
12.0

>  <N_unconstrained_atoms>  (491) 
1.0

>  <runtime>  (491) 
17.624412

>  <LE>  (491) 
0.510983

>  <percent_hybrid>  (491) 
50.0

>  <dist>  (491) 
3.0

>  <ecfp4>  (491) 
0.304348

>  <daylight>  (491) 
0.112069

>  <topodist>  (491) 
1.0

>  <mces>  (491) 
13.0

>  <tdn>  (491) 
0.0

>  <tup>  (491) 
0.0

>  <rdn>  (491) 
0.0

>  <rup>  (491) 
0.0

>  <ldn>  (491) 
0.0

>  <lup>  (491) 
1.0

>  <mut>  (491) 
1.0

>  <maj>  (491) 
1.0

>  <min>  (491) 
0.0

>  <hyb>  (491) 
1.0

>  <sub>  (491) 
0.0

>  <query_index>  (491) 
234.0

>  <max_hit_Tanimoto>  (491) 
0.12037

>  <largest_ring>  (491) 
0

>  <N_interactions_kept>  (491) 
2.0

>  <N_interactions_lost>  (491) 
2.0

>  <interaction_uniqueness_metric>  (491) 
0.095223

>  <ad_hoc_penalty>  (491) 
-17.114517

>  <N_rotatable_bonds>  (491) 
2

>  <N_HA>  (491) 
13

>  <cluster>  (491) 
518

>  <N_interactions>  (491) 
6

>  <Enamine>  (491) 
0

>  <Mcule>  (491) 
1

>  <N_PAINS>  (491) 
0

>  <UFF_Gibbs>  (491) 
139.602724

>  <strain_per_HA>  (491) 
10.738671

>  <saltbridge:HIS:51>  (491) 
0

>  <pistack:HIS:51>  (491) 
0

>  <hydroph_interaction:HIS:51>  (491) 
0

>  <hbond:ALA:132>  (491) 
0

>  <hbond:SER:135>  (491) 
0

>  <hydroph_interaction:TYR:150>  (491) 
1

>  <pistack:TYR:161>  (491) 
0

>  <hydroph_interaction:TYR:161>  (491) 
3

>  <hydroph_interaction:ASP:83>  (491) 
0

>  <hbond:TYR:130>  (491) 
1

>  <hydroph_interaction:ALA:132>  (491) 
0

>  <hbond:HIS:51>  (491) 
0

>  <hbond:ASP:129>  (491) 
1

>  <hbond:TYR:150>  (491) 
0

>  <hbond:GLY:151>  (491) 
0

>  <hbond:TYR:161>  (491) 
0

>  <hydroph_interaction:TYR:130>  (491) 
0

>  <hydroph_interaction:PRO:131>  (491) 
0

>  <hydroph_interaction:ASP:129>  (491) 
0

>  <saltbridge:ASP:75>  (491) 
0

>  <saltbridge:ASP:83>  (491) 
0

>  <hydroph_interaction:ASN:152>  (491) 
0

>  <halogenbond:TYR:150>  (491) 
0

>  <hbond:ASP:83>  (491) 
0

>  <hydroph_interaction:VAL:155>  (491) 
0

>  <pication:TYR:161>  (491) 
0

>  <hbond:PRO:131>  (491) 
0

>  <hbond:LEU:128>  (491) 
0

>  <saltbridge:ASP:129>  (491) 
0

>  <hbond:THR:134>  (491) 
0

>  <pication:HIS:51>  (491) 
0

>  <hbond:SER:81>  (491) 
0

>  <hbond:GLY:159>  (491) 
0

>  <hydroph_interaction:PRO:101>  (491) 
0

>  <hydroph_interaction:THR:134>  (491) 
0

>  <hbond:GLY:82>  (491) 
0

>  <hydroph_interaction:GLU:104>  (491) 
0

>  <hydroph_interaction:VAL:36>  (491) 
0

>  <hydroph_interaction:MET:49>  (491) 
0

>  <halogenbond:GLU:104>  (491) 
0

>  <hydroph_interaction:LYS:107>  (491) 
0

$$$$
Z46075302
     RDKit          3D

 47 50  0  0  0  0  0  0  0  0999 V2000
   -9.1580    8.9000  -13.2570 O   0  0  0  0  0  0  0  0  0  0  0  0
   -9.2020    7.6780  -13.3810 C   0  0  0  0  0  0  0  0  0  0  0  0
   -9.3950    7.0070  -14.6950 C   0  0  0  0  0  0  0  0  0  0  0  0
   -8.1520    6.2040  -15.1440 C   0  0  0  0  0  0  0  0  0  0  0  0
   -8.3090    5.5990  -16.5150 C   0  0  0  0  0  0  0  0  0  0  0  0
   -9.7190    5.1180  -16.7390 C   0  0  0  0  0  0  0  0  0  0  0  0
  -10.0390    4.5540  -18.1120 C   0  0  0  0  0  0  0  0  0  0  0  0
   -8.8970    4.5180  -19.1180 C   0  0  0  0  0  0  0  0  0  0  0  0
   -7.6290    4.9870  -18.7480 C   0  0  0  0  0  0  0  0  0  0  0  0
   -6.5740    4.8970  -19.8330 C   0  0  0  0  0  0  0  0  0  0  0  0
   -5.2960    5.3420  -19.5220 C   0  0  0  0  0  0  0  0  0  0  0  0
   -5.0070    5.8510  -18.2600 C   0  0  0  0  0  0  0  0  0  0  0  0
   -5.9920    5.9350  -17.2730 C   0  0  0  0  0  0  0  0  0  0  0  0
   -7.2990    5.5160  -17.4850 C   0  0  0  0  0  0  0  0  0  0  0  0
   -9.0220    6.7830  -12.2470 C   0  0  0  0  0  0  0  0  0  0  0  0
   -8.8300    7.2760  -10.9720 C   0  0  0  0  0  0  0  0  0  0  0  0
   -8.6610    6.3950   -9.9190 C   0  0  0  0  0  0  0  0  0  0  0  0
   -8.6790    5.0120  -10.1110 C   0  0  0  0  0  0  0  0  0  0  0  0
   -8.5060    4.1310   -9.0600 N   0  0  0  0  0  0  0  0  0  0  0  0
   -9.0050    2.7370   -9.2000 C   0  0  0  0  0  0  0  0  0  0  0  0
   -9.7280    2.3150   -7.9180 C   0  0  0  0  0  0  0  0  0  0  0  0
   -8.9260    2.5840   -6.7680 O   0  0  0  0  0  0  0  0  0  0  0  0
   -8.8300    3.9950   -6.6100 C   0  0  0  0  0  0  0  0  0  0  0  0
   -7.9900    4.5770   -7.7450 C   0  0  0  0  0  0  0  0  0  0  0  0
   -8.8770    4.5280  -11.4150 C   0  0  0  0  0  0  0  0  0  0  0  0
   -9.0480    5.4060  -12.4810 C   0  0  0  0  0  0  0  0  0  0  0  0
  -10.3070    7.1120  -15.2660 H   0  0  0  0  0  0  0  0  0  0  0  0
   -7.2280    6.0840  -14.5870 H   0  0  0  0  0  0  0  0  0  0  0  0
  -10.4450    5.1910  -15.9570 H   0  0  0  0  0  0  0  0  0  0  0  0
  -11.0310    4.2000  -18.3620 H   0  0  0  0  0  0  0  0  0  0  0  0
   -9.0760    4.1280  -20.1150 H   0  0  0  0  0  0  0  0  0  0  0  0
   -6.7960    4.4990  -20.8230 H   0  0  0  0  0  0  0  0  0  0  0  0
   -4.5140    5.2890  -20.2740 H   0  0  0  0  0  0  0  0  0  0  0  0
   -3.9980    6.1910  -18.0400 H   0  0  0  0  0  0  0  0  0  0  0  0
   -5.6970    6.3490  -16.3080 H   0  0  0  0  0  0  0  0  0  0  0  0
   -8.8070    8.3410  -10.7690 H   0  0  0  0  0  0  0  0  0  0  0  0
   -8.5140    6.8210   -8.9310 H   0  0  0  0  0  0  0  0  0  0  0  0
   -9.7090    2.6250  -10.0340 H   0  0  0  0  0  0  0  0  0  0  0  0
   -8.1520    2.0670   -9.3760 H   0  0  0  0  0  0  0  0  0  0  0  0
  -10.6610    2.8720   -7.8100 H   0  0  0  0  0  0  0  0  0  0  0  0
   -9.9840    1.2540   -7.9380 H   0  0  0  0  0  0  0  0  0  0  0  0
   -8.3940    4.2140   -5.6280 H   0  0  0  0  0  0  0  0  0  0  0  0
   -9.8460    4.4050   -6.6330 H   0  0  0  0  0  0  0  0  0  0  0  0
   -8.0250    5.6710   -7.6810 H   0  0  0  0  0  0  0  0  0  0  0  0
   -6.9550    4.2410   -7.6090 H   0  0  0  0  0  0  0  0  0  0  0  0
   -8.8990    3.4570  -11.6130 H   0  0  0  0  0  0  0  0  0  0  0  0
   -9.2000    5.0110  -13.4860 H   0  0  0  0  0  0  0  0  0  0  0  0
  1  2  2  0
  2  3  1  0
  3  4  2  3
  4  5  1  0
  5  6  2  0
  6  7  1  0
  7  8  2  0
  8  9  1  0
  9 10  2  0
 10 11  1  0
 11 12  2  0
 12 13  1  0
 13 14  2  0
  2 15  1  0
 15 16  2  0
 16 17  1  0
 17 18  2  0
 18 19  1  0
 19 20  1  0
 20 21  1  0
 21 22  1  0
 22 23  1  0
 23 24  1  0
 18 25  1  0
 25 26  2  0
 14  5  1  0
 14  9  1  0
 26 15  1  0
 24 19  1  0
  3 27  1  0
  4 28  1  0
  6 29  1  0
  7 30  1  0
  8 31  1  0
 10 32  1  0
 11 33  1  0
 12 34  1  0
 13 35  1  0
 16 36  1  0
 17 37  1  0
 20 38  1  0
 20 39  1  0
 21 40  1  0
 21 41  1  0
 23 42  1  0
 23 43  1  0
 24 44  1  0
 24 45  1  0
 25 46  1  0
 26 47  1  0
A    1
 O1 
A    2
 C1 
A    3
 C2 
A    4
 C3 
A    5
 C4 
A    6
 C5 
A    7
 C6 
A    8
 C7 
A    9
 C8 
A   10
 C9 
A   11
 C10
A   12
 C11
A   13
 C12
A   14
 C13
A   15
 C14
A   16
 C15
A   17
 C16
A   18
 C17
A   19
 N1 
A   20
 C18
A   21
 C19
A   22
 O2 
A   23
 C20
A   24
 C21
A   25
 C22
A   26
 C23
A   27
 H1 
A   28
 H2 
A   29
 H3 
A   30
 H4 
A   31
 H5 
A   32
 H6 
A   33
 H7 
A   34
 H8 
A   35
 H9 
A   36
 H10
A   37
 H11
A   38
 H12
A   39
 H13
A   40
 H14
A   41
 H15
A   42
 H16
A   43
 H17
A   44
 H18
A   45
 H19
A   46
 H20
A   47
 H21
M  END
>  <ref_pdb>  (492) 
x0051_0B

>  <ref_mols>  (492) 
x0727_0B,x0404_0B

>  <original SMILES>  (492) 
[H]C(C(=O)c1c([H])c([H])c(N2C([H])([H])C([H])([H])OC([H])([H])C2([H])[H])c([H])c1[H])=C([H])c1c([H])c([H])c([H])c2c([H])c([H])c([H])c([H])c12

>  <index>  (492) 
835

>  <∆∆G>  (492) 
-8.418841

>  <∆G_bound>  (492) 
-8.127761

>  <∆G_unbound>  (492) 
0.29108

>  <comRMSD>  (492) 
0.600918

>  <N_constrained_atoms>  (492) 
27.0

>  <N_unconstrained_atoms>  (492) 
0.0

>  <runtime>  (492) 
60.371154

>  <LE>  (492) 
0.311809

>  <percent_hybrid>  (492) 
41.0

>  <dist>  (492) 
8.0

>  <ecfp4>  (492) 
0.209877

>  <daylight>  (492) 
0.182648

>  <topodist>  (492) 
3.0

>  <mces>  (492) 
29.0

>  <tdn>  (492) 
3.0

>  <tup>  (492) 
0.0

>  <rdn>  (492) 
0.0

>  <rup>  (492) 
0.0

>  <ldn>  (492) 
0.0

>  <lup>  (492) 
0.0

>  <mut>  (492) 
5.0

>  <maj>  (492) 
5.0

>  <min>  (492) 
0.0

>  <hyb>  (492) 
0.0

>  <sub>  (492) 
1.0

>  <query_index>  (492) 
0.0

>  <max_hit_Tanimoto>  (492) 
0.25

>  <largest_ring>  (492) 
6

>  <N_interactions_kept>  (492) 
1.0

>  <N_interactions_lost>  (492) 
3.5

>  <interaction_uniqueness_metric>  (492) 
0.131151

>  <ad_hoc_penalty>  (492) 
-17.111131

>  <N_rotatable_bonds>  (492) 
4

>  <N_HA>  (492) 
26

>  <cluster>  (492) 
5454

>  <N_interactions>  (492) 
7

>  <Enamine>  (492) 
1

>  <Mcule>  (492) 
0

>  <N_PAINS>  (492) 
0

>  <UFF_Gibbs>  (492) 
114.878769

>  <strain_per_HA>  (492) 
4.418414

>  <saltbridge:HIS:51>  (492) 
0

>  <pistack:HIS:51>  (492) 
1

>  <hydroph_interaction:HIS:51>  (492) 
1

>  <hbond:ALA:132>  (492) 
0

>  <hbond:SER:135>  (492) 
0

>  <hydroph_interaction:TYR:150>  (492) 
1

>  <pistack:TYR:161>  (492) 
2

>  <hydroph_interaction:TYR:161>  (492) 
1

>  <hydroph_interaction:ASP:83>  (492) 
0

>  <hbond:TYR:130>  (492) 
0

>  <hydroph_interaction:ALA:132>  (492) 
1

>  <hbond:HIS:51>  (492) 
0

>  <hbond:ASP:129>  (492) 
0

>  <hbond:TYR:150>  (492) 
0

>  <hbond:GLY:151>  (492) 
0

>  <hbond:TYR:161>  (492) 
0

>  <hydroph_interaction:TYR:130>  (492) 
0

>  <hydroph_interaction:PRO:131>  (492) 
0

>  <hydroph_interaction:ASP:129>  (492) 
0

>  <saltbridge:ASP:75>  (492) 
0

>  <saltbridge:ASP:83>  (492) 
0

>  <hydroph_interaction:ASN:152>  (492) 
0

>  <halogenbond:TYR:150>  (492) 
0

>  <hbond:ASP:83>  (492) 
0

>  <hydroph_interaction:VAL:155>  (492) 
0

>  <pication:TYR:161>  (492) 
0

>  <hbond:PRO:131>  (492) 
0

>  <hbond:LEU:128>  (492) 
0

>  <saltbridge:ASP:129>  (492) 
0

>  <hbond:THR:134>  (492) 
0

>  <pication:HIS:51>  (492) 
0

>  <hbond:SER:81>  (492) 
0

>  <hbond:GLY:159>  (492) 
0

>  <hydroph_interaction:PRO:101>  (492) 
0

>  <hydroph_interaction:THR:134>  (492) 
0

>  <hbond:GLY:82>  (492) 
0

>  <hydroph_interaction:GLU:104>  (492) 
0

>  <hydroph_interaction:VAL:36>  (492) 
0

>  <hydroph_interaction:MET:49>  (492) 
0

>  <halogenbond:GLU:104>  (492) 
0

>  <hydroph_interaction:LYS:107>  (492) 
0

$$$$
HGIMZXSGQIFERI-UHFFFAOYSA-N
     RDKit          3D

 33 35  0  0  0  0  0  0  0  0999 V2000
   -5.2370    5.9650  -17.4530 N   0  0  0  0  0  0  0  0  0  0  0  0
   -3.9870    5.3090  -17.0560 C   0  0  0  0  0  0  0  0  0  0  0  0
   -6.0370    5.3920  -18.5010 C   0  0  0  0  0  0  0  0  0  0  0  0
   -5.8170    6.0220  -19.8600 C   0  0  0  0  0  0  0  0  0  0  0  0
   -4.7990    5.2430  -20.5870 N   0  0  0  0  0  0  0  0  0  0  0  0
   -4.4270    5.6150  -21.8240 C   0  0  0  0  0  0  0  0  0  0  0  0
   -3.4560    4.8840  -22.5230 C   0  0  0  0  0  0  0  0  0  0  0  0
   -4.9940    6.7340  -22.4300 C   0  0  0  0  0  0  0  0  0  0  0  0
   -5.9500    7.4740  -21.7520 C   0  0  0  0  0  0  0  0  0  0  0  0
   -6.3740    7.1240  -20.4520 C   0  0  0  0  0  0  0  0  0  0  0  0
   -7.5050    5.2220  -18.1670 C   0  0  0  0  0  0  0  0  0  0  0  0
   -7.9140    5.3670  -16.8350 C   0  0  0  0  0  0  0  0  0  0  0  0
   -9.5710    5.1360  -16.5720 S   0  0  0  0  0  0  0  0  0  0  0  0
   -9.7620    4.8370  -18.2350 C   0  0  0  0  0  0  0  0  0  0  0  0
   -8.5770    4.9170  -18.9920 C   0  0  0  0  0  0  0  0  0  0  0  0
   -6.9380    5.6900  -15.7660 C   0  0  0  0  0  0  0  0  0  0  0  0
   -5.9670    6.5250  -16.2790 C   0  0  0  0  0  0  0  0  0  0  0  0
   -4.1300    4.6690  -16.1780 H   0  0  0  0  0  0  0  0  0  0  0  0
   -3.5690    4.6950  -17.8640 H   0  0  0  0  0  0  0  0  0  0  0  0
   -3.2370    6.0550  -16.7720 H   0  0  0  0  0  0  0  0  0  0  0  0
   -5.6670    4.3900  -18.6080 H   0  0  0  0  0  0  0  0  0  0  0  0
   -3.4260    3.7950  -22.4040 H   0  0  0  0  0  0  0  0  0  0  0  0
   -3.5640    5.0640  -23.5960 H   0  0  0  0  0  0  0  0  0  0  0  0
   -2.4630    5.2560  -22.2430 H   0  0  0  0  0  0  0  0  0  0  0  0
   -4.6900    7.0290  -23.4280 H   0  0  0  0  0  0  0  0  0  0  0  0
   -6.3840    8.3440  -22.2330 H   0  0  0  0  0  0  0  0  0  0  0  0
   -7.1180    7.7110  -19.9330 H   0  0  0  0  0  0  0  0  0  0  0  0
  -10.6850    4.5970  -18.7760 H   0  0  0  0  0  0  0  0  0  0  0  0
   -8.6310    4.7360  -20.0720 H   0  0  0  0  0  0  0  0  0  0  0  0
   -7.4190    6.2110  -14.9280 H   0  0  0  0  0  0  0  0  0  0  0  0
   -6.4870    4.7650  -15.3910 H   0  0  0  0  0  0  0  0  0  0  0  0
   -5.2410    6.7740  -15.4940 H   0  0  0  0  0  0  0  0  0  0  0  0
   -6.4480    7.4640  -16.5660 H   0  0  0  0  0  0  0  0  0  0  0  0
  1  2  1  0
  1  3  1  0
  3  4  1  0
  4  5  2  0
  5  6  1  0
  6  7  1  0
  6  8  2  0
  8  9  1  0
  9 10  2  0
  3 11  1  0
 11 12  2  0
 12 13  1  0
 13 14  1  0
 14 15  2  0
 12 16  1  0
 16 17  1  0
 17  1  1  0
  4 10  1  0
 15 11  1  0
  2 18  1  0
  2 19  1  0
  2 20  1  0
  3 21  1  0
  7 22  1  0
  7 23  1  0
  7 24  1  0
  8 25  1  0
  9 26  1  0
 10 27  1  0
 14 28  1  0
 15 29  1  0
 16 30  1  0
 16 31  1  0
 17 32  1  0
 17 33  1  0
A    1
 N1 
A    2
 C1 
A    3
 C2 
A    4
 C3 
A    5
 N2 
A    6
 C4 
A    7
 C5 
A    8
 C6 
A    9
 C7 
A   10
 C8 
A   11
 C9 
A   12
 C10
A   13
 S1 
A   14
 C11
A   15
 C12
A   16
 C13
A   17
 C14
A   18
 H1 
A   19
 H2 
A   20
 H3 
A   21
 H4 
A   22
 H5 
A   23
 H6 
A   24
 H7 
A   25
 H8 
A   26
 H9 
A   27
 H10
A   28
 H11
A   29
 H12
A   30
 H13
A   31
 H14
A   32
 H15
A   33
 H16
M  END
>  <ref_pdb>  (493) 
x0051_0B

>  <ref_mols>  (493) 
x0680_0B,x0472_0B

>  <original SMILES>  (493) 
[H]c1sc2c(c1[H])C([H])(c1nc(C([H])([H])[H])c([H])c([H])c1[H])N(C([H])([H])[H])C([H])([H])C2([H])[H]

>  <index>  (493) 
846

>  <∆∆G>  (493) 
-7.527933

>  <∆G_bound>  (493) 
-7.771653

>  <∆G_unbound>  (493) 
-0.24372

>  <comRMSD>  (493) 
0.964782

>  <N_constrained_atoms>  (493) 
15.0

>  <N_unconstrained_atoms>  (493) 
5.0

>  <runtime>  (493) 
25.696207

>  <LE>  (493) 
0.376397

>  <percent_hybrid>  (493) 
43.0

>  <dist>  (493) 
7.0

>  <ecfp4>  (493) 
0.238806

>  <daylight>  (493) 
0.268212

>  <topodist>  (493) 
3.0

>  <mces>  (493) 
17.0

>  <tdn>  (493) 
0.0

>  <tup>  (493) 
1.0

>  <rdn>  (493) 
1.0

>  <rup>  (493) 
1.0

>  <ldn>  (493) 
0.0

>  <lup>  (493) 
0.0

>  <mut>  (493) 
2.0

>  <maj>  (493) 
2.0

>  <min>  (493) 
0.0

>  <hyb>  (493) 
2.0

>  <sub>  (493) 
2.0

>  <query_index>  (493) 
38.0

>  <max_hit_Tanimoto>  (493) 
0.425723

>  <largest_ring>  (493) 
6

>  <N_interactions_kept>  (493) 
4.5

>  <N_interactions_lost>  (493) 
0.5

>  <interaction_uniqueness_metric>  (493) 
0.046127

>  <ad_hoc_penalty>  (493) 
-17.104254

>  <N_rotatable_bonds>  (493) 
3

>  <N_HA>  (493) 
17

>  <cluster>  (493) 
5444

>  <N_interactions>  (493) 
2

>  <Enamine>  (493) 
0

>  <Mcule>  (493) 
1

>  <N_PAINS>  (493) 
0

>  <UFF_Gibbs>  (493) 
56.572698

>  <strain_per_HA>  (493) 
3.327806

>  <saltbridge:HIS:51>  (493) 
0

>  <pistack:HIS:51>  (493) 
0

>  <hydroph_interaction:HIS:51>  (493) 
0

>  <hbond:ALA:132>  (493) 
0

>  <hbond:SER:135>  (493) 
0

>  <hydroph_interaction:TYR:150>  (493) 
0

>  <pistack:TYR:161>  (493) 
0

>  <hydroph_interaction:TYR:161>  (493) 
1

>  <hydroph_interaction:ASP:83>  (493) 
0

>  <hbond:TYR:130>  (493) 
0

>  <hydroph_interaction:ALA:132>  (493) 
0

>  <hbond:HIS:51>  (493) 
0

>  <hbond:ASP:129>  (493) 
0

>  <hbond:TYR:150>  (493) 
0

>  <hbond:GLY:151>  (493) 
0

>  <hbond:TYR:161>  (493) 
0

>  <hydroph_interaction:TYR:130>  (493) 
0

>  <hydroph_interaction:PRO:131>  (493) 
0

>  <hydroph_interaction:ASP:129>  (493) 
1

>  <saltbridge:ASP:75>  (493) 
0

>  <saltbridge:ASP:83>  (493) 
0

>  <hydroph_interaction:ASN:152>  (493) 
0

>  <halogenbond:TYR:150>  (493) 
0

>  <hbond:ASP:83>  (493) 
0

>  <hydroph_interaction:VAL:155>  (493) 
0

>  <pication:TYR:161>  (493) 
0

>  <hbond:PRO:131>  (493) 
0

>  <hbond:LEU:128>  (493) 
0

>  <saltbridge:ASP:129>  (493) 
0

>  <hbond:THR:134>  (493) 
0

>  <pication:HIS:51>  (493) 
0

>  <hbond:SER:81>  (493) 
0

>  <hbond:GLY:159>  (493) 
0

>  <hydroph_interaction:PRO:101>  (493) 
0

>  <hydroph_interaction:THR:134>  (493) 
0

>  <hbond:GLY:82>  (493) 
0

>  <hydroph_interaction:GLU:104>  (493) 
0

>  <hydroph_interaction:VAL:36>  (493) 
0

>  <hydroph_interaction:MET:49>  (493) 
0

>  <halogenbond:GLU:104>  (493) 
0

>  <hydroph_interaction:LYS:107>  (493) 
0

$$$$
QQNKRGKLTMPYJS-UHFFFAOYSA-N
     RDKit          3D

 29 31  0  0  0  0  0  0  0  0999 V2000
   -6.4090    5.1030  -20.3830 C   0  0  0  0  0  0  0  0  0  0  0  0
   -6.7160    5.7710  -19.2400 N   0  0  0  0  0  0  0  0  0  0  0  0
   -7.7520    5.4490  -18.3860 C   0  0  0  0  0  0  0  0  0  0  0  0
   -7.5540    5.5640  -17.0090 C   0  0  0  0  0  0  0  0  0  0  0  0
   -8.5360    5.2700  -16.0880 C   0  0  0  0  0  0  0  0  0  0  0  0
   -7.9460    5.5080  -14.8330 C   0  0  0  0  0  0  0  0  0  0  0  0
   -6.6830    5.9260  -14.9300 N   0  0  0  0  0  0  0  0  0  0  0  0
   -6.4750    5.9500  -16.2570 N   0  0  0  0  0  0  0  0  0  0  0  0
   -9.7800    4.8410  -16.5380 C   0  0  0  0  0  0  0  0  0  0  0  0
  -10.0120    4.7120  -17.9110 C   0  0  0  0  0  0  0  0  0  0  0  0
   -9.0090    5.0080  -18.8230 C   0  0  0  0  0  0  0  0  0  0  0  0
   -5.0270    5.3060  -20.8520 C   0  0  0  0  0  0  0  0  0  0  0  0
   -3.8930    5.3550  -20.0320 C   0  0  0  0  0  0  0  0  0  0  0  0
   -3.9320    5.1900  -18.1430 Br  0  0  0  0  0  0  0  0  0  0  0  0
   -2.6310    5.5330  -20.6000 C   0  0  0  0  0  0  0  0  0  0  0  0
   -2.4980    5.6730  -21.9800 C   0  0  0  0  0  0  0  0  0  0  0  0
   -3.6230    5.6370  -22.7970 C   0  0  0  0  0  0  0  0  0  0  0  0
   -4.8850    5.4520  -22.2330 C   0  0  0  0  0  0  0  0  0  0  0  0
   -7.1380    4.3650  -21.0390 O   0  0  0  0  0  0  0  0  0  0  0  0
   -5.9890    6.3580  -18.8590 H   0  0  0  0  0  0  0  0  0  0  0  0
   -8.3900    5.3930  -13.8540 H   0  0  0  0  0  0  0  0  0  0  0  0
   -5.5650    6.2400  -16.5860 H   0  0  0  0  0  0  0  0  0  0  0  0
  -10.5550    4.6090  -15.8230 H   0  0  0  0  0  0  0  0  0  0  0  0
  -10.9790    4.3770  -18.2730 H   0  0  0  0  0  0  0  0  0  0  0  0
   -9.2360    4.8910  -19.8800 H   0  0  0  0  0  0  0  0  0  0  0  0
   -1.7400    5.5660  -19.9780 H   0  0  0  0  0  0  0  0  0  0  0  0
   -1.5120    5.8130  -22.4170 H   0  0  0  0  0  0  0  0  0  0  0  0
   -3.5200    5.7500  -23.8760 H   0  0  0  0  0  0  0  0  0  0  0  0
   -5.7660    5.4200  -22.8700 H   0  0  0  0  0  0  0  0  0  0  0  0
  1  2  1  0
  2  3  1  0
  3  4  1  0
  4  5  2  0
  5  6  1  0
  6  7  2  0
  7  8  1  0
  5  9  1  0
  9 10  2  0
 10 11  1  0
  1 12  1  0
 12 13  2  0
 13 14  1  0
 13 15  1  0
 15 16  2  0
 16 17  1  0
 17 18  2  0
  1 19  2  0
  3 11  2  0
  8  4  1  0
 18 12  1  0
  2 20  1  0
  6 21  1  0
  8 22  1  0
  9 23  1  0
 10 24  1  0
 11 25  1  0
 15 26  1  0
 16 27  1  0
 17 28  1  0
 18 29  1  0
A    1
 C1 
A    2
 N1 
A    3
 C2 
A    4
 C3 
A    5
 C4 
A    6
 C5 
A    7
 N2 
A    8
 N3 
A    9
 C6 
A   10
 C7 
A   11
 C8 
A   12
 C9 
A   13
 C10
A   14
BR1 
A   15
 C11
A   16
 C12
A   17
 C13
A   18
 C14
A   19
 O1 
A   20
 H1 
A   21
 H2 
A   22
 H3 
A   23
 H4 
A   24
 H5 
A   25
 H6 
A   26
 H7 
A   27
 H8 
A   28
 H9 
A   29
 H10
M  END
>  <ref_pdb>  (494) 
x0051_0B

>  <ref_mols>  (494) 
x0852_0B,x0951_0B

>  <original SMILES>  (494) 
[H]c1c([H])c([H])c(C(=O)N([H])c2c([H])c([H])c([H])c3c([H])nn([H])c23)c(Br)c1[H]

>  <index>  (494) 
1076

>  <∆∆G>  (494) 
-6.169413

>  <∆G_bound>  (494) 
-5.476486

>  <∆G_unbound>  (494) 
0.692926

>  <comRMSD>  (494) 
0.335583

>  <N_constrained_atoms>  (494) 
21.0

>  <N_unconstrained_atoms>  (494) 
0.0

>  <runtime>  (494) 
33.156534

>  <LE>  (494) 
0.293782

>  <percent_hybrid>  (494) 
22.0

>  <dist>  (494) 
6.0

>  <ecfp4>  (494) 
0.192308

>  <daylight>  (494) 
0.528497

>  <topodist>  (494) 
4.0

>  <mces>  (494) 
21.0

>  <tdn>  (494) 
4.0

>  <tup>  (494) 
0.0

>  <rdn>  (494) 
0.0

>  <rup>  (494) 
0.0

>  <ldn>  (494) 
0.0

>  <lup>  (494) 
0.0

>  <mut>  (494) 
2.0

>  <maj>  (494) 
1.0

>  <min>  (494) 
1.0

>  <hyb>  (494) 
0.0

>  <sub>  (494) 
2.0

>  <query_index>  (494) 
95.0

>  <max_hit_Tanimoto>  (494) 
0.328824

>  <largest_ring>  (494) 
6

>  <N_interactions_kept>  (494) 
3.0

>  <N_interactions_lost>  (494) 
3.0

>  <interaction_uniqueness_metric>  (494) 
0.092886

>  <ad_hoc_penalty>  (494) 
-17.029536

>  <N_rotatable_bonds>  (494) 
2

>  <N_HA>  (494) 
19

>  <cluster>  (494) 
510

>  <N_interactions>  (494) 
6

>  <Enamine>  (494) 
0

>  <Mcule>  (494) 
1

>  <N_PAINS>  (494) 
0

>  <UFF_Gibbs>  (494) 
35.439651

>  <strain_per_HA>  (494) 
1.865245

>  <saltbridge:HIS:51>  (494) 
0

>  <pistack:HIS:51>  (494) 
0

>  <hydroph_interaction:HIS:51>  (494) 
0

>  <hbond:ALA:132>  (494) 
0

>  <hbond:SER:135>  (494) 
0

>  <hydroph_interaction:TYR:150>  (494) 
1

>  <pistack:TYR:161>  (494) 
0

>  <hydroph_interaction:TYR:161>  (494) 
3

>  <hydroph_interaction:ASP:83>  (494) 
0

>  <hbond:TYR:130>  (494) 
1

>  <hydroph_interaction:ALA:132>  (494) 
0

>  <hbond:HIS:51>  (494) 
0

>  <hbond:ASP:129>  (494) 
0

>  <hbond:TYR:150>  (494) 
0

>  <hbond:GLY:151>  (494) 
0

>  <hbond:TYR:161>  (494) 
0

>  <hydroph_interaction:TYR:130>  (494) 
0

>  <hydroph_interaction:PRO:131>  (494) 
0

>  <hydroph_interaction:ASP:129>  (494) 
1

>  <saltbridge:ASP:75>  (494) 
0

>  <saltbridge:ASP:83>  (494) 
0

>  <hydroph_interaction:ASN:152>  (494) 
0

>  <halogenbond:TYR:150>  (494) 
0

>  <hbond:ASP:83>  (494) 
0

>  <hydroph_interaction:VAL:155>  (494) 
0

>  <pication:TYR:161>  (494) 
0

>  <hbond:PRO:131>  (494) 
0

>  <hbond:LEU:128>  (494) 
0

>  <saltbridge:ASP:129>  (494) 
0

>  <hbond:THR:134>  (494) 
0

>  <pication:HIS:51>  (494) 
0

>  <hbond:SER:81>  (494) 
0

>  <hbond:GLY:159>  (494) 
0

>  <hydroph_interaction:PRO:101>  (494) 
0

>  <hydroph_interaction:THR:134>  (494) 
0

>  <hbond:GLY:82>  (494) 
0

>  <hydroph_interaction:GLU:104>  (494) 
0

>  <hydroph_interaction:VAL:36>  (494) 
0

>  <hydroph_interaction:MET:49>  (494) 
0

>  <halogenbond:GLU:104>  (494) 
0

>  <hydroph_interaction:LYS:107>  (494) 
0

$$$$
MCULE-4889348831
     RDKit          3D

 21 22  0  0  0  0  0  0  0  0999 V2000
   -5.6380    5.5360  -20.0980 N   0  0  0  0  0  0  0  0  0  0  0  0
   -6.1200    5.3060  -18.8500 C   0  0  0  0  0  0  0  0  0  0  0  0
   -7.5900    5.1460  -18.3780 C   0  0  0  0  0  0  0  0  0  0  0  0
   -8.7160    4.8430  -19.2100 C   0  0  0  0  0  0  0  0  0  0  0  0
   -9.8830    4.7610  -18.4830 C   0  0  0  0  0  0  0  0  0  0  0  0
   -9.6200    5.0450  -16.8270 S   0  0  0  0  0  0  0  0  0  0  0  0
   -7.9390    5.2810  -17.0650 C   0  0  0  0  0  0  0  0  0  0  0  0
   -7.0570    5.5870  -15.9090 C   0  0  0  0  0  0  0  0  0  0  0  0
   -5.0040    5.2320  -18.0400 C   0  0  0  0  0  0  0  0  0  0  0  0
   -3.9140    5.4280  -18.8950 C   0  0  0  0  0  0  0  0  0  0  0  0
   -2.6350    5.4230  -18.4950 N   0  0  0  0  0  0  0  0  0  0  0  0
   -4.2930    5.6170  -20.1530 N   0  0  0  0  0  0  0  0  0  0  0  0
   -6.1580    5.6510  -20.9620 H   0  0  0  0  0  0  0  0  0  0  0  0
   -8.6780    4.6910  -20.2810 H   0  0  0  0  0  0  0  0  0  0  0  0
  -10.8800    4.5520  -18.8370 H   0  0  0  0  0  0  0  0  0  0  0  0
   -7.6500    5.6480  -14.9900 H   0  0  0  0  0  0  0  0  0  0  0  0
   -6.3020    4.8030  -15.7860 H   0  0  0  0  0  0  0  0  0  0  0  0
   -6.5280    6.5390  -16.0220 H   0  0  0  0  0  0  0  0  0  0  0  0
   -4.9800    5.0570  -16.9750 H   0  0  0  0  0  0  0  0  0  0  0  0
   -1.9440    5.2910  -19.2280 H   0  0  0  0  0  0  0  0  0  0  0  0
   -2.3250    6.0460  -17.7600 H   0  0  0  0  0  0  0  0  0  0  0  0
  1  2  1  0
  2  3  1  0
  3  4  1  0
  4  5  2  0
  5  6  1  0
  6  7  1  0
  7  8  1  0
  2  9  2  0
  9 10  1  0
 10 11  1  0
 10 12  2  0
 12  1  1  0
  3  7  2  0
  1 13  1  0
  4 14  1  0
  5 15  1  0
  8 16  1  0
  8 17  1  0
  8 18  1  0
  9 19  1  0
 11 20  1  0
 11 21  1  0
A    1
 N1 
A    2
 C1 
A    3
 C2 
A    4
 C3 
A    5
 C4 
A    6
 S1 
A    7
 C5 
A    8
 C6 
A    9
 C7 
A   10
 C8 
A   11
 N2 
A   12
 N3 
A   13
 H1 
A   14
 H2 
A   15
 H3 
A   16
 H4 
A   17
 H5 
A   18
 H6 
A   19
 H7 
A   20
 H8 
A   21
 H9 
M  END
>  <ref_pdb>  (495) 
x0051_0B

>  <ref_mols>  (495) 
x0422_0B,x0800_0B

>  <original SMILES>  (495) 
[H]c1sc(C([H])([H])[H])c(-c2c([H])c(N([H])[H])nn2[H])c1[H]

>  <index>  (495) 
848

>  <∆∆G>  (495) 
-7.006108

>  <∆G_bound>  (495) 
-6.992772

>  <∆G_unbound>  (495) 
0.013336

>  <comRMSD>  (495) 
0.700008

>  <N_constrained_atoms>  (495) 
13.0

>  <N_unconstrained_atoms>  (495) 
0.0

>  <runtime>  (495) 
22.468487

>  <LE>  (495) 
0.538931

>  <percent_hybrid>  (495) 
50.0

>  <dist>  (495) 
5.0

>  <ecfp4>  (495) 
0.145455

>  <daylight>  (495) 
0.133803

>  <topodist>  (495) 
2.0

>  <mces>  (495) 
13.0

>  <tdn>  (495) 
1.0

>  <tup>  (495) 
0.0

>  <rdn>  (495) 
1.0

>  <rup>  (495) 
0.0

>  <ldn>  (495) 
0.0

>  <lup>  (495) 
0.0

>  <mut>  (495) 
2.0

>  <maj>  (495) 
2.0

>  <min>  (495) 
0.0

>  <hyb>  (495) 
1.0

>  <sub>  (495) 
2.0

>  <query_index>  (495) 
332.0

>  <max_hit_Tanimoto>  (495) 
0.200504

>  <largest_ring>  (495) 
5

>  <N_interactions_kept>  (495) 
4.0

>  <N_interactions_lost>  (495) 
1.0

>  <interaction_uniqueness_metric>  (495) 
0.016266

>  <ad_hoc_penalty>  (495) 
-16.996908

>  <N_rotatable_bonds>  (495) 
3

>  <N_HA>  (495) 
12

>  <cluster>  (495) 
5442

>  <N_interactions>  (495) 
3

>  <Enamine>  (495) 
0

>  <Mcule>  (495) 
1

>  <N_PAINS>  (495) 
0

>  <UFF_Gibbs>  (495) 
37.766819

>  <strain_per_HA>  (495) 
3.147235

>  <saltbridge:HIS:51>  (495) 
0

>  <pistack:HIS:51>  (495) 
0

>  <hydroph_interaction:HIS:51>  (495) 
0

>  <hbond:ALA:132>  (495) 
0

>  <hbond:SER:135>  (495) 
0

>  <hydroph_interaction:TYR:150>  (495) 
0

>  <pistack:TYR:161>  (495) 
0

>  <hydroph_interaction:TYR:161>  (495) 
3

>  <hydroph_interaction:ASP:83>  (495) 
0

>  <hbond:TYR:130>  (495) 
0

>  <hydroph_interaction:ALA:132>  (495) 
0

>  <hbond:HIS:51>  (495) 
0

>  <hbond:ASP:129>  (495) 
0

>  <hbond:TYR:150>  (495) 
0

>  <hbond:GLY:151>  (495) 
0

>  <hbond:TYR:161>  (495) 
0

>  <hydroph_interaction:TYR:130>  (495) 
0

>  <hydroph_interaction:PRO:131>  (495) 
0

>  <hydroph_interaction:ASP:129>  (495) 
0

>  <saltbridge:ASP:75>  (495) 
0

>  <saltbridge:ASP:83>  (495) 
0

>  <hydroph_interaction:ASN:152>  (495) 
0

>  <halogenbond:TYR:150>  (495) 
0

>  <hbond:ASP:83>  (495) 
0

>  <hydroph_interaction:VAL:155>  (495) 
0

>  <pication:TYR:161>  (495) 
0

>  <hbond:PRO:131>  (495) 
0

>  <hbond:LEU:128>  (495) 
0

>  <saltbridge:ASP:129>  (495) 
0

>  <hbond:THR:134>  (495) 
0

>  <pication:HIS:51>  (495) 
0

>  <hbond:SER:81>  (495) 
0

>  <hbond:GLY:159>  (495) 
0

>  <hydroph_interaction:PRO:101>  (495) 
0

>  <hydroph_interaction:THR:134>  (495) 
0

>  <hbond:GLY:82>  (495) 
0

>  <hydroph_interaction:GLU:104>  (495) 
0

>  <hydroph_interaction:VAL:36>  (495) 
0

>  <hydroph_interaction:MET:49>  (495) 
0

>  <halogenbond:GLU:104>  (495) 
0

>  <hydroph_interaction:LYS:107>  (495) 
0

$$$$
Z1137517063
     RDKit          3D

 50 52  0  0  0  0  0  0  0  0999 V2000
  -10.3920    4.6210  -18.5060 C   0  0  0  0  0  0  0  0  0  0  0  0
   -9.1970    4.9480  -17.9610 C   0  0  0  0  0  0  0  0  0  0  0  0
   -9.0610    4.9500  -16.5760 C   0  0  0  0  0  0  0  0  0  0  0  0
   -7.8370    5.2910  -16.0200 C   0  0  0  0  0  0  0  0  0  0  0  0
   -6.7770    5.6260  -16.8580 C   0  0  0  0  0  0  0  0  0  0  0  0
   -6.9020    5.6300  -18.2470 C   0  0  0  0  0  0  0  0  0  0  0  0
   -5.6590    6.0280  -19.0510 C   0  0  0  0  0  0  0  0  0  0  0  0
   -5.8890    5.8420  -20.4480 O   0  0  0  0  0  0  0  0  0  0  0  0
   -5.8840    6.9130  -21.3210 C   0  0  0  0  0  0  0  0  0  0  0  0
   -6.0580    6.5000  -22.7720 C   0  0  0  0  0  0  0  0  0  0  0  0
   -6.0790    7.6350  -23.7680 C   0  0  0  0  0  0  0  0  0  0  0  0
   -5.9250    9.0320  -23.3810 C   0  0  0  0  0  0  0  0  0  0  0  0
   -5.9580   10.0520  -24.4520 N   0  0  0  0  0  0  0  0  0  0  0  0
   -5.8720    9.4560  -25.7960 C   0  0  0  0  0  0  0  0  0  0  0  0
   -4.9480    8.8530  -26.3280 O   0  0  0  0  0  0  0  0  0  0  0  0
   -7.1550    9.6560  -26.6040 C   0  0  0  0  0  0  0  0  0  0  0  0
   -7.7460   10.7150  -26.4890 O   0  0  0  0  0  0  0  0  0  0  0  0
   -7.4940    8.5780  -27.3860 N   0  0  0  0  0  0  0  0  0  0  0  0
   -8.8200    8.3070  -27.7170 C   0  0  0  0  0  0  0  0  0  0  0  0
   -9.6640    9.4190  -27.6630 C   0  0  0  0  0  0  0  0  0  0  0  0
  -11.0170    9.2660  -27.9500 C   0  0  0  0  0  0  0  0  0  0  0  0
  -11.5350    8.0210  -28.2980 C   0  0  0  0  0  0  0  0  0  0  0  0
  -10.6960    6.9020  -28.3650 C   0  0  0  0  0  0  0  0  0  0  0  0
   -9.3420    7.0700  -28.0680 C   0  0  0  0  0  0  0  0  0  0  0  0
   -5.7520    9.3230  -22.0150 C   0  0  0  0  0  0  0  0  0  0  0  0
   -5.5760   10.7350  -21.5430 C   0  0  0  0  0  0  0  0  0  0  0  0
   -5.7390    8.2850  -21.0210 C   0  0  0  0  0  0  0  0  0  0  0  0
   -8.1290    5.2810  -18.8020 C   0  0  0  0  0  0  0  0  0  0  0  0
  -10.7980    5.2340  -19.3030 H   0  0  0  0  0  0  0  0  0  0  0  0
  -10.2370    3.6280  -18.9060 H   0  0  0  0  0  0  0  0  0  0  0  0
  -11.1530    4.5960  -17.7340 H   0  0  0  0  0  0  0  0  0  0  0  0
   -9.8790    4.6940  -15.9140 H   0  0  0  0  0  0  0  0  0  0  0  0
   -7.7100    5.2950  -14.9410 H   0  0  0  0  0  0  0  0  0  0  0  0
   -5.7800    5.9100  -16.5060 H   0  0  0  0  0  0  0  0  0  0  0  0
   -5.4180    7.0760  -18.8330 H   0  0  0  0  0  0  0  0  0  0  0  0
   -4.7780    5.4490  -18.7430 H   0  0  0  0  0  0  0  0  0  0  0  0
   -6.1680    5.4500  -23.0410 H   0  0  0  0  0  0  0  0  0  0  0  0
   -6.2140    7.3550  -24.8080 H   0  0  0  0  0  0  0  0  0  0  0  0
   -6.5950   10.8400  -24.3780 H   0  0  0  0  0  0  0  0  0  0  0  0
   -6.8570    7.7880  -27.3100 H   0  0  0  0  0  0  0  0  0  0  0  0
   -9.2990   10.4060  -27.3960 H   0  0  0  0  0  0  0  0  0  0  0  0
  -11.6730   10.1270  -27.9030 H   0  0  0  0  0  0  0  0  0  0  0  0
  -12.5980    7.9210  -28.5190 H   0  0  0  0  0  0  0  0  0  0  0  0
  -11.0850    5.9230  -28.6370 H   0  0  0  0  0  0  0  0  0  0  0  0
   -8.7120    6.1890  -28.1200 H   0  0  0  0  0  0  0  0  0  0  0  0
   -6.2780   11.4140  -22.0390 H   0  0  0  0  0  0  0  0  0  0  0  0
   -4.5640   11.0890  -21.7640 H   0  0  0  0  0  0  0  0  0  0  0  0
   -5.7650   10.8010  -20.4660 H   0  0  0  0  0  0  0  0  0  0  0  0
   -5.6080    8.5910  -19.9880 H   0  0  0  0  0  0  0  0  0  0  0  0
   -8.2540    5.2750  -19.8840 H   0  0  0  0  0  0  0  0  0  0  0  0
  1  2  1  0
  2  3  2  0
  3  4  1  0
  4  5  2  0
  5  6  1  0
  6  7  1  0
  7  8  1  0
  8  9  1  0
  9 10  2  0
 10 11  1  0
 11 12  2  0
 12 13  1  0
 13 14  1  0
 14 15  2  0
 14 16  1  0
 16 17  2  0
 16 18  1  0
 18 19  1  0
 19 20  2  0
 20 21  1  0
 21 22  2  0
 22 23  1  0
 23 24  2  0
 12 25  1  0
 25 26  1  0
 25 27  2  0
  6 28  2  0
 28  2  1  0
 27  9  1  0
 24 19  1  0
  1 29  1  0
  1 30  1  0
  1 31  1  0
  3 32  1  0
  4 33  1  0
  5 34  1  0
  7 35  1  0
  7 36  1  0
 10 37  1  0
 11 38  1  0
 13 39  1  0
 18 40  1  0
 20 41  1  0
 21 42  1  0
 22 43  1  0
 23 44  1  0
 24 45  1  0
 26 46  1  0
 26 47  1  0
 26 48  1  0
 27 49  1  0
 28 50  1  0
A    1
 C1 
A    2
 C2 
A    3
 C3 
A    4
 C4 
A    5
 C5 
A    6
 C6 
A    7
 C7 
A    8
 O1 
A    9
 C8 
A   10
 C9 
A   11
 C10
A   12
 C11
A   13
 N1 
A   14
 C12
A   15
 O2 
A   16
 C13
A   17
 O3 
A   18
 N2 
A   19
 C14
A   20
 C15
A   21
 C16
A   22
 C17
A   23
 C18
A   24
 C19
A   25
 C20
A   26
 C21
A   27
 C22
A   28
 C23
A   29
 H1 
A   30
 H2 
A   31
 H3 
A   32
 H4 
A   33
 H5 
A   34
 H6 
A   35
 H7 
A   36
 H8 
A   37
 H9 
A   38
 H10
A   39
 H11
A   40
 H12
A   41
 H13
A   42
 H14
A   43
 H15
A   44
 H16
A   45
 H17
A   46
 H18
A   47
 H19
A   48
 H20
A   49
 H21
A   50
 H22
M  END
>  <ref_pdb>  (496) 
x0051_0B

>  <ref_mols>  (496) 
x0846_1B,x0589_0B

>  <original SMILES>  (496) 
[H]c1c([H])c([H])c(N([H])C(=O)C(=O)N([H])c2c([H])c([H])c(OC([H])([H])c3c([H])c([H])c([H])c(C([H])([H])[H])c3[H])c([H])c2C([H])([H])[H])c([H])c1[H]

>  <index>  (496) 
826

>  <∆∆G>  (496) 
-10.209555

>  <∆G_bound>  (496) 
-9.886772

>  <∆G_unbound>  (496) 
0.322783

>  <comRMSD>  (496) 
0.692974

>  <N_constrained_atoms>  (496) 
26.0

>  <N_unconstrained_atoms>  (496) 
3.0

>  <runtime>  (496) 
69.882794

>  <LE>  (496) 
0.352054

>  <percent_hybrid>  (496) 
31.0

>  <dist>  (496) 
8.0

>  <ecfp4>  (496) 
0.222222

>  <daylight>  (496) 
0.192308

>  <topodist>  (496) 
3.0

>  <mces>  (496) 
29.0

>  <tdn>  (496) 
0.0

>  <tup>  (496) 
1.0

>  <rdn>  (496) 
1.0

>  <rup>  (496) 
0.0

>  <ldn>  (496) 
1.0

>  <lup>  (496) 
0.0

>  <mut>  (496) 
5.0

>  <maj>  (496) 
5.0

>  <min>  (496) 
0.0

>  <hyb>  (496) 
0.0

>  <sub>  (496) 
1.0

>  <query_index>  (496) 
309.0

>  <max_hit_Tanimoto>  (496) 
0.185621

>  <largest_ring>  (496) 
6

>  <N_interactions_kept>  (496) 
0.0

>  <N_interactions_lost>  (496) 
2.0

>  <interaction_uniqueness_metric>  (496) 
0.170475

>  <ad_hoc_penalty>  (496) 
-16.963684

>  <N_rotatable_bonds>  (496) 
7

>  <N_HA>  (496) 
28

>  <cluster>  (496) 
5462

>  <N_interactions>  (496) 
5

>  <Enamine>  (496) 
1

>  <Mcule>  (496) 
0

>  <N_PAINS>  (496) 
0

>  <UFF_Gibbs>  (496) 
138.882804

>  <strain_per_HA>  (496) 
4.9601

>  <saltbridge:HIS:51>  (496) 
0

>  <pistack:HIS:51>  (496) 
0

>  <hydroph_interaction:HIS:51>  (496) 
0

>  <hbond:ALA:132>  (496) 
0

>  <hbond:SER:135>  (496) 
0

>  <hydroph_interaction:TYR:150>  (496) 
1

>  <pistack:TYR:161>  (496) 
1

>  <hydroph_interaction:TYR:161>  (496) 
0

>  <hydroph_interaction:ASP:83>  (496) 
0

>  <hbond:TYR:130>  (496) 
0

>  <hydroph_interaction:ALA:132>  (496) 
0

>  <hbond:HIS:51>  (496) 
0

>  <hbond:ASP:129>  (496) 
0

>  <hbond:TYR:150>  (496) 
0

>  <hbond:GLY:151>  (496) 
0

>  <hbond:TYR:161>  (496) 
0

>  <hydroph_interaction:TYR:130>  (496) 
1

>  <hydroph_interaction:PRO:131>  (496) 
1

>  <hydroph_interaction:ASP:129>  (496) 
1

>  <saltbridge:ASP:75>  (496) 
0

>  <saltbridge:ASP:83>  (496) 
0

>  <hydroph_interaction:ASN:152>  (496) 
0

>  <halogenbond:TYR:150>  (496) 
0

>  <hbond:ASP:83>  (496) 
0

>  <hydroph_interaction:VAL:155>  (496) 
0

>  <pication:TYR:161>  (496) 
0

>  <hbond:PRO:131>  (496) 
0

>  <hbond:LEU:128>  (496) 
0

>  <saltbridge:ASP:129>  (496) 
0

>  <hbond:THR:134>  (496) 
0

>  <pication:HIS:51>  (496) 
0

>  <hbond:SER:81>  (496) 
0

>  <hbond:GLY:159>  (496) 
0

>  <hydroph_interaction:PRO:101>  (496) 
0

>  <hydroph_interaction:THR:134>  (496) 
0

>  <hbond:GLY:82>  (496) 
0

>  <hydroph_interaction:GLU:104>  (496) 
0

>  <hydroph_interaction:VAL:36>  (496) 
0

>  <hydroph_interaction:MET:49>  (496) 
0

>  <halogenbond:GLU:104>  (496) 
0

>  <hydroph_interaction:LYS:107>  (496) 
0

$$$$
Z3517821252
     RDKit          3D

 40 43  0  0  0  0  0  0  0  0999 V2000
   -6.4130    5.0690  -20.4910 C   0  0  0  0  0  0  0  0  0  0  0  0
   -6.4690    5.1630  -19.0550 N   0  0  0  0  0  0  0  0  0  0  0  0
   -5.3500    5.3880  -18.3510 N   0  0  0  0  0  0  0  0  0  0  0  0
   -5.6970    5.4290  -17.0510 N   0  0  0  0  0  0  0  0  0  0  0  0
   -7.0560    5.2290  -16.9440 C   0  0  0  0  0  0  0  0  0  0  0  0
   -7.9100    5.1840  -15.8130 C   0  0  0  0  0  0  0  0  0  0  0  0
   -7.3760    5.3660  -14.4960 C   0  0  0  0  0  0  0  0  0  0  0  0
   -6.3080    5.9680  -14.3960 O   0  0  0  0  0  0  0  0  0  0  0  0
   -8.0370    4.8810  -13.3470 N   0  0  0  0  0  0  0  0  0  0  0  0
   -8.8300    5.7800  -12.5080 C   0  0  0  0  0  0  0  0  0  0  0  0
   -8.8630    5.5320  -10.9560 C   0  0  0  0  0  0  0  0  0  0  0  0
   -9.0100    4.3730  -10.0210 C   0  0  0  0  0  0  0  0  0  0  0  0
   -9.1710    2.9230  -10.4450 C   0  0  0  0  0  0  0  0  0  0  0  0
   -8.9740    2.1620   -9.3120 N   0  0  0  0  0  0  0  0  0  0  0  0
   -9.6460    2.6260   -8.0810 C   0  0  0  0  0  0  0  0  0  0  0  0
   -9.1190    3.9820   -7.6020 C   0  0  0  0  0  0  0  0  0  0  0  0
   -8.9810    4.8360   -8.7570 N   0  0  0  0  0  0  0  0  0  0  0  0
   -8.8180    6.1660   -8.6840 N   0  0  0  0  0  0  0  0  0  0  0  0
   -8.7510    6.5740   -9.9750 C   0  0  0  0  0  0  0  0  0  0  0  0
   -9.2940    4.9610  -16.0190 C   0  0  0  0  0  0  0  0  0  0  0  0
   -9.8200    4.7800  -17.3020 C   0  0  0  0  0  0  0  0  0  0  0  0
   -8.9030    4.8260  -18.4920 C   0  0  0  0  0  0  0  0  0  0  0  0
   -7.5600    5.0530  -18.2480 C   0  0  0  0  0  0  0  0  0  0  0  0
   -7.2270    4.4530  -20.8570 H   0  0  0  0  0  0  0  0  0  0  0  0
   -5.4700    4.6260  -20.8290 H   0  0  0  0  0  0  0  0  0  0  0  0
   -6.5080    6.0680  -20.9260 H   0  0  0  0  0  0  0  0  0  0  0  0
   -8.2110    3.8820  -13.2620 H   0  0  0  0  0  0  0  0  0  0  0  0
   -9.8640    5.7430  -12.8760 H   0  0  0  0  0  0  0  0  0  0  0  0
   -8.4670    6.7940  -12.7060 H   0  0  0  0  0  0  0  0  0  0  0  0
   -8.4260    2.6640  -11.2050 H   0  0  0  0  0  0  0  0  0  0  0  0
  -10.1610    2.7130  -10.8570 H   0  0  0  0  0  0  0  0  0  0  0  0
   -9.2190    1.2000   -9.5090 H   0  0  0  0  0  0  0  0  0  0  0  0
  -10.7260    2.6730   -8.2470 H   0  0  0  0  0  0  0  0  0  0  0  0
   -9.4850    1.8890   -7.2870 H   0  0  0  0  0  0  0  0  0  0  0  0
   -8.1330    3.8990   -7.1430 H   0  0  0  0  0  0  0  0  0  0  0  0
   -9.8150    4.4510   -6.9000 H   0  0  0  0  0  0  0  0  0  0  0  0
   -8.6220    7.6450  -10.1640 H   0  0  0  0  0  0  0  0  0  0  0  0
   -9.9600    4.9270  -15.1670 H   0  0  0  0  0  0  0  0  0  0  0  0
  -10.8820    4.6070  -17.4420 H   0  0  0  0  0  0  0  0  0  0  0  0
   -9.2760    4.6900  -19.5070 H   0  0  0  0  0  0  0  0  0  0  0  0
  1  2  1  0
  2  3  1  0
  3  4  2  0
  4  5  1  0
  5  6  2  0
  6  7  1  0
  7  8  2  0
  7  9  1  0
  9 10  1  0
 10 11  1  0
 11 12  2  0
 12 13  1  0
 13 14  1  0
 14 15  1  0
 15 16  1  0
 16 17  1  0
 17 18  1  0
 18 19  2  0
  6 20  1  0
 20 21  2  0
 21 22  1  0
 22 23  2  0
 23  2  1  0
 23  5  1  0
 19 11  1  0
 17 12  1  0
  1 24  1  0
  1 25  1  0
  1 26  1  0
  9 27  1  0
 10 28  1  0
 10 29  1  0
 13 30  1  0
 13 31  1  0
 14 32  1  0
 15 33  1  0
 15 34  1  0
 16 35  1  0
 16 36  1  0
 19 37  1  0
 20 38  1  0
 21 39  1  0
 22 40  1  0
A    1
 C1 
A    2
 N1 
A    3
 N2 
A    4
 N3 
A    5
 C2 
A    6
 C3 
A    7
 C4 
A    8
 O1 
A    9
 N4 
A   10
 C5 
A   11
 C6 
A   12
 C7 
A   13
 C8 
A   14
 N5 
A   15
 C9 
A   16
 C10
A   17
 N6 
A   18
 N7 
A   19
 C11
A   20
 C12
A   21
 C13
A   22
 C14
A   23
 C15
A   24
 H1 
A   25
 H2 
A   26
 H3 
A   27
 H4 
A   28
 H5 
A   29
 H6 
A   30
 H7 
A   31
 H8 
A   32
 H9 
A   33
 H10
A   34
 H11
A   35
 H12
A   36
 H13
A   37
 H14
A   38
 H15
A   39
 H16
A   40
 H17
M  END
>  <ref_pdb>  (497) 
x0051_0B

>  <ref_mols>  (497) 
x0435_0B,x0969_1B

>  <original SMILES>  (497) 
[H]c1nn2c(c1C([H])([H])N([H])C(=O)c1c([H])c([H])c([H])c3c1nnn3C([H])([H])[H])C([H])([H])N([H])C([H])([H])C2([H])[H]

>  <index>  (497) 
1219

>  <∆∆G>  (497) 
-6.378447

>  <∆G_bound>  (497) 
-4.907072

>  <∆G_unbound>  (497) 
1.471375

>  <comRMSD>  (497) 
0.334649

>  <N_constrained_atoms>  (497) 
20.0

>  <N_unconstrained_atoms>  (497) 
3.0

>  <runtime>  (497) 
51.975675

>  <LE>  (497) 
0.277324

>  <percent_hybrid>  (497) 
50.0

>  <dist>  (497) 
6.0

>  <ecfp4>  (497) 
0.280488

>  <daylight>  (497) 
0.413115

>  <topodist>  (497) 
1.0

>  <mces>  (497) 
25.0

>  <tdn>  (497) 
0.0

>  <tup>  (497) 
1.0

>  <rdn>  (497) 
0.0

>  <rup>  (497) 
0.0

>  <ldn>  (497) 
0.0

>  <lup>  (497) 
0.0

>  <mut>  (497) 
5.0

>  <maj>  (497) 
5.0

>  <min>  (497) 
0.0

>  <hyb>  (497) 
0.0

>  <sub>  (497) 
0.0

>  <query_index>  (497) 
311.0

>  <max_hit_Tanimoto>  (497) 
0.465415

>  <largest_ring>  (497) 
6

>  <N_interactions_kept>  (497) 
1.5

>  <N_interactions_lost>  (497) 
2.0

>  <interaction_uniqueness_metric>  (497) 
0.215126

>  <ad_hoc_penalty>  (497) 
-16.953262

>  <N_rotatable_bonds>  (497) 
4

>  <N_HA>  (497) 
23

>  <cluster>  (497) 
5095

>  <N_interactions>  (497) 
5

>  <Enamine>  (497) 
1

>  <Mcule>  (497) 
0

>  <N_PAINS>  (497) 
0

>  <UFF_Gibbs>  (497) 
56.35008

>  <strain_per_HA>  (497) 
2.450003

>  <saltbridge:HIS:51>  (497) 
0

>  <pistack:HIS:51>  (497) 
1

>  <hydroph_interaction:HIS:51>  (497) 
0

>  <hbond:ALA:132>  (497) 
0

>  <hbond:SER:135>  (497) 
0

>  <hydroph_interaction:TYR:150>  (497) 
0

>  <pistack:TYR:161>  (497) 
2

>  <hydroph_interaction:TYR:161>  (497) 
0

>  <hydroph_interaction:ASP:83>  (497) 
0

>  <hbond:TYR:130>  (497) 
0

>  <hydroph_interaction:ALA:132>  (497) 
0

>  <hbond:HIS:51>  (497) 
0

>  <hbond:ASP:129>  (497) 
0

>  <hbond:TYR:150>  (497) 
0

>  <hbond:GLY:151>  (497) 
0

>  <hbond:TYR:161>  (497) 
1

>  <hydroph_interaction:TYR:130>  (497) 
0

>  <hydroph_interaction:PRO:131>  (497) 
0

>  <hydroph_interaction:ASP:129>  (497) 
0

>  <saltbridge:ASP:75>  (497) 
0

>  <saltbridge:ASP:83>  (497) 
0

>  <hydroph_interaction:ASN:152>  (497) 
0

>  <halogenbond:TYR:150>  (497) 
0

>  <hbond:ASP:83>  (497) 
1

>  <hydroph_interaction:VAL:155>  (497) 
0

>  <pication:TYR:161>  (497) 
0

>  <hbond:PRO:131>  (497) 
0

>  <hbond:LEU:128>  (497) 
0

>  <saltbridge:ASP:129>  (497) 
0

>  <hbond:THR:134>  (497) 
0

>  <pication:HIS:51>  (497) 
0

>  <hbond:SER:81>  (497) 
0

>  <hbond:GLY:159>  (497) 
0

>  <hydroph_interaction:PRO:101>  (497) 
0

>  <hydroph_interaction:THR:134>  (497) 
0

>  <hbond:GLY:82>  (497) 
0

>  <hydroph_interaction:GLU:104>  (497) 
0

>  <hydroph_interaction:VAL:36>  (497) 
0

>  <hydroph_interaction:MET:49>  (497) 
0

>  <halogenbond:GLU:104>  (497) 
0

>  <hydroph_interaction:LYS:107>  (497) 
0

$$$$
DDWGNWRUPBVHLD-UHFFFAOYSA-N
     RDKit          3D

 44 47  0  0  0  0  0  0  0  0999 V2000
   -5.8580    9.6910  -26.0190 N   0  0  0  0  0  0  0  0  0  0  0  0
   -5.7540   10.1280  -24.7730 C   0  0  0  0  0  0  0  0  0  0  0  0
   -5.7690    9.2380  -23.5190 C   0  0  0  0  0  0  0  0  0  0  0  0
   -5.9350    7.7300  -23.6790 C   0  0  0  0  0  0  0  0  0  0  0  0
   -5.9690    6.8390  -22.4370 C   0  0  0  0  0  0  0  0  0  0  0  0
   -5.8430    7.5160  -21.0670 C   0  0  0  0  0  0  0  0  0  0  0  0
   -5.9070    6.7090  -19.7280 C   0  0  0  0  0  0  0  0  0  0  0  0
   -7.2800    6.1040  -19.3970 C   0  0  0  0  0  0  0  0  0  0  0  0
   -7.5100    5.3450  -18.1140 C   0  0  0  0  0  0  0  0  0  0  0  0
   -9.0330    4.6630  -17.7070 Cl  0  0  0  0  0  0  0  0  0  0  0  0
   -6.3330    5.2390  -17.2210 C   0  0  0  0  0  0  0  0  0  0  0  0
   -5.0760    5.7740  -17.5200 C   0  0  0  0  0  0  0  0  0  0  0  0
   -3.7710    5.5930  -16.4150 Cl  0  0  0  0  0  0  0  0  0  0  0  0
   -4.8500    6.5410  -18.8340 C   0  0  0  0  0  0  0  0  0  0  0  0
   -5.6740    8.9350  -21.0610 C   0  0  0  0  0  0  0  0  0  0  0  0
   -5.6380    9.7510  -22.2150 C   0  0  0  0  0  0  0  0  0  0  0  0
   -7.2090    9.2620  -26.4310 C   0  0  0  0  0  0  0  0  0  0  0  0
   -7.2990    8.0900  -27.2030 C   0  0  0  0  0  0  0  0  0  0  0  0
   -8.6100    8.0960  -27.5940 C   0  0  0  0  0  0  0  0  0  0  0  0
   -9.1070    9.3840  -27.5370 C   0  0  0  0  0  0  0  0  0  0  0  0
  -10.5640    9.6220  -27.8970 C   0  0  0  0  0  0  0  0  0  0  0  0
  -11.4220    8.4220  -28.3180 C   0  0  0  0  0  0  0  0  0  0  0  0
  -10.7810    7.0920  -28.3550 C   0  0  0  0  0  0  0  0  0  0  0  0
   -9.3040    6.9550  -27.9680 C   0  0  0  0  0  0  0  0  0  0  0  0
   -8.0250   10.2050  -27.1190 C   0  0  0  0  0  0  0  0  0  0  0  0
   -5.1780    9.0400  -26.3870 H   0  0  0  0  0  0  0  0  0  0  0  0
   -4.8290   10.7090  -24.7290 H   0  0  0  0  0  0  0  0  0  0  0  0
   -6.5530   10.8630  -24.6330 H   0  0  0  0  0  0  0  0  0  0  0  0
   -6.0360    7.2830  -24.6770 H   0  0  0  0  0  0  0  0  0  0  0  0
   -6.0940    5.7500  -22.5210 H   0  0  0  0  0  0  0  0  0  0  0  0
   -8.1140    6.2060  -20.0500 H   0  0  0  0  0  0  0  0  0  0  0  0
   -6.4620    4.7150  -16.2850 H   0  0  0  0  0  0  0  0  0  0  0  0
   -3.8700    6.9610  -19.0570 H   0  0  0  0  0  0  0  0  0  0  0  0
   -5.5720    9.4380  -20.1010 H   0  0  0  0  0  0  0  0  0  0  0  0
   -5.5110   10.8230  -22.0780 H   0  0  0  0  0  0  0  0  0  0  0  0
   -7.6940    9.0520  -25.4710 H   0  0  0  0  0  0  0  0  0  0  0  0
   -7.1630    7.2160  -26.5520 H   0  0  0  0  0  0  0  0  0  0  0  0
   -6.5610    7.9720  -27.9930 H   0  0  0  0  0  0  0  0  0  0  0  0
  -10.9960   10.6220  -27.8590 H   0  0  0  0  0  0  0  0  0  0  0  0
  -12.4660    8.5320  -28.5860 H   0  0  0  0  0  0  0  0  0  0  0  0
  -11.3550    6.2180  -28.6520 H   0  0  0  0  0  0  0  0  0  0  0  0
   -8.8190    5.9830  -27.9840 H   0  0  0  0  0  0  0  0  0  0  0  0
   -7.5050   10.6490  -27.9710 H   0  0  0  0  0  0  0  0  0  0  0  0
   -8.3620   11.0140  -26.4720 H   0  0  0  0  0  0  0  0  0  0  0  0
  1  2  1  0
  2  3  1  0
  3  4  2  0
  4  5  1  0
  5  6  2  0
  6  7  1  0
  7  8  2  0
  8  9  1  0
  9 10  1  0
  9 11  2  0
 11 12  1  0
 12 13  1  0
 12 14  2  0
  6 15  1  0
 15 16  2  0
  1 17  1  0
 17 18  1  0
 18 19  1  0
 19 20  2  0
 20 21  1  0
 21 22  2  0
 22 23  1  0
 23 24  2  0
 20 25  1  0
 16  3  1  0
 14  7  1  0
 25 17  1  0
 24 19  1  0
  1 26  1  0
  2 27  1  0
  2 28  1  0
  4 29  1  0
  5 30  1  0
  8 31  1  0
 11 32  1  0
 14 33  1  0
 15 34  1  0
 16 35  1  0
 17 36  1  0
 18 37  1  0
 18 38  1  0
 21 39  1  0
 22 40  1  0
 23 41  1  0
 24 42  1  0
 25 43  1  0
 25 44  1  0
A    1
 N1 
A    2
 C1 
A    3
 C2 
A    4
 C3 
A    5
 C4 
A    6
 C5 
A    7
 C6 
A    8
 C7 
A    9
 C8 
A   10
CL1 
A   11
 C9 
A   12
 C10
A   13
CL2 
A   14
 C11
A   15
 C12
A   16
 C13
A   17
 C14
A   18
 C15
A   19
 C16
A   20
 C17
A   21
 C18
A   22
 C19
A   23
 C20
A   24
 C21
A   25
 C22
A   26
 H1 
A   27
 H2 
A   28
 H3 
A   29
 H4 
A   30
 H5 
A   31
 H6 
A   32
 H7 
A   33
 H8 
A   34
 H9 
A   35
 H10
A   36
 H11
A   37
 H12
A   38
 H13
A   39
 H14
A   40
 H15
A   41
 H16
A   42
 H17
A   43
 H18
A   44
 H19
M  END
>  <ref_pdb>  (498) 
x0051_0B

>  <ref_mols>  (498) 
x0846_1B,x0425_0B

>  <original SMILES>  (498) 
[H]c1c([H])c([H])c2c(c1[H])C([H])([H])C([H])(N([H])C([H])([H])c1c([H])c([H])c(-c3c([H])c(Cl)c([H])c(Cl)c3[H])c([H])c1[H])C2([H])[H]

>  <index>  (498) 
635

>  <∆∆G>  (498) 
-7.452371

>  <∆G_bound>  (498) 
-7.442649

>  <∆G_unbound>  (498) 
0.009722

>  <comRMSD>  (498) 
0.631628

>  <N_constrained_atoms>  (498) 
26.0

>  <N_unconstrained_atoms>  (498) 
0.0

>  <runtime>  (498) 
39.413533

>  <LE>  (498) 
0.28663

>  <percent_hybrid>  (498) 
31.0

>  <dist>  (498) 
11.0

>  <ecfp4>  (498) 
0.119048

>  <daylight>  (498) 
0.15

>  <topodist>  (498) 
5.0

>  <mces>  (498) 
28.0

>  <tdn>  (498) 
4.0

>  <tup>  (498) 
0.0

>  <rdn>  (498) 
0.0

>  <rup>  (498) 
0.0

>  <ldn>  (498) 
1.0

>  <lup>  (498) 
0.0

>  <mut>  (498) 
5.0

>  <maj>  (498) 
5.0

>  <min>  (498) 
0.0

>  <hyb>  (498) 
1.0

>  <sub>  (498) 
1.0

>  <query_index>  (498) 
25.0

>  <max_hit_Tanimoto>  (498) 
0.187151

>  <largest_ring>  (498) 
6

>  <N_interactions_kept>  (498) 
1.0

>  <N_interactions_lost>  (498) 
1.5

>  <interaction_uniqueness_metric>  (498) 
0.136502

>  <ad_hoc_penalty>  (498) 
-16.929295

>  <N_rotatable_bonds>  (498) 
4

>  <N_HA>  (498) 
25

>  <cluster>  (498) 
5638

>  <N_interactions>  (498) 
4

>  <Enamine>  (498) 
0

>  <Mcule>  (498) 
1

>  <N_PAINS>  (498) 
0

>  <UFF_Gibbs>  (498) 
163.625307

>  <strain_per_HA>  (498) 
6.545012

>  <saltbridge:HIS:51>  (498) 
0

>  <pistack:HIS:51>  (498) 
0

>  <hydroph_interaction:HIS:51>  (498) 
0

>  <hbond:ALA:132>  (498) 
0

>  <hbond:SER:135>  (498) 
0

>  <hydroph_interaction:TYR:150>  (498) 
0

>  <pistack:TYR:161>  (498) 
0

>  <hydroph_interaction:TYR:161>  (498) 
1

>  <hydroph_interaction:ASP:83>  (498) 
0

>  <hbond:TYR:130>  (498) 
0

>  <hydroph_interaction:ALA:132>  (498) 
1

>  <hbond:HIS:51>  (498) 
0

>  <hbond:ASP:129>  (498) 
0

>  <hbond:TYR:150>  (498) 
0

>  <hbond:GLY:151>  (498) 
0

>  <hbond:TYR:161>  (498) 
0

>  <hydroph_interaction:TYR:130>  (498) 
1

>  <hydroph_interaction:PRO:131>  (498) 
1

>  <hydroph_interaction:ASP:129>  (498) 
0

>  <saltbridge:ASP:75>  (498) 
0

>  <saltbridge:ASP:83>  (498) 
0

>  <hydroph_interaction:ASN:152>  (498) 
0

>  <halogenbond:TYR:150>  (498) 
0

>  <hbond:ASP:83>  (498) 
0

>  <hydroph_interaction:VAL:155>  (498) 
0

>  <pication:TYR:161>  (498) 
0

>  <hbond:PRO:131>  (498) 
0

>  <hbond:LEU:128>  (498) 
0

>  <saltbridge:ASP:129>  (498) 
0

>  <hbond:THR:134>  (498) 
0

>  <pication:HIS:51>  (498) 
0

>  <hbond:SER:81>  (498) 
0

>  <hbond:GLY:159>  (498) 
0

>  <hydroph_interaction:PRO:101>  (498) 
0

>  <hydroph_interaction:THR:134>  (498) 
0

>  <hbond:GLY:82>  (498) 
0

>  <hydroph_interaction:GLU:104>  (498) 
0

>  <hydroph_interaction:VAL:36>  (498) 
0

>  <hydroph_interaction:MET:49>  (498) 
0

>  <halogenbond:GLU:104>  (498) 
0

>  <hydroph_interaction:LYS:107>  (498) 
0

$$$$
MCULE-8667906783
     RDKit          3D

 20 21  0  0  0  0  0  0  0  0999 V2000
   -3.3240    5.1050  -16.7890 C   0  0  0  0  0  0  0  0  0  0  0  0
   -4.0760    5.5030  -18.0260 C   0  0  0  0  0  0  0  0  0  0  0  0
   -3.4960    5.8950  -19.0330 O   0  0  0  0  0  0  0  0  0  0  0  0
   -5.5050    5.3700  -17.9740 C   0  0  0  0  0  0  0  0  0  0  0  0
   -6.3870    5.3730  -16.9090 C   0  0  0  0  0  0  0  0  0  0  0  0
   -7.6840    5.1670  -17.4280 C   0  0  0  0  0  0  0  0  0  0  0  0
   -8.9490    5.0540  -16.8740 C   0  0  0  0  0  0  0  0  0  0  0  0
   -9.9940    4.8370  -17.7460 C   0  0  0  0  0  0  0  0  0  0  0  0
   -9.8860    4.7380  -19.0600 N   0  0  0  0  0  0  0  0  0  0  0  0
   -8.6740    4.8400  -19.6120 C   0  0  0  0  0  0  0  0  0  0  0  0
   -7.5740    5.0550  -18.8060 C   0  0  0  0  0  0  0  0  0  0  0  0
   -6.2480    5.1870  -19.1140 N   0  0  0  0  0  0  0  0  0  0  0  0
   -2.4910    4.4520  -17.0550 H   0  0  0  0  0  0  0  0  0  0  0  0
   -3.9940    4.5990  -16.0870 H   0  0  0  0  0  0  0  0  0  0  0  0
   -2.9180    5.9970  -16.3040 H   0  0  0  0  0  0  0  0  0  0  0  0
   -6.1340    5.4980  -15.8630 H   0  0  0  0  0  0  0  0  0  0  0  0
   -9.1180    5.1260  -15.8050 H   0  0  0  0  0  0  0  0  0  0  0  0
  -10.9990    4.7330  -17.3920 H   0  0  0  0  0  0  0  0  0  0  0  0
   -8.6220    4.7390  -20.6830 H   0  0  0  0  0  0  0  0  0  0  0  0
   -5.8550    5.1470  -20.0500 H   0  0  0  0  0  0  0  0  0  0  0  0
  1  2  1  0
  2  3  2  0
  2  4  1  0
  4  5  2  0
  5  6  1  0
  6  7  2  0
  7  8  1  0
  8  9  2  0
  9 10  1  0
 10 11  2  0
 11 12  1  0
 12  4  1  0
  6 11  1  0
  1 13  1  0
  1 14  1  0
  1 15  1  0
  5 16  1  0
  7 17  1  0
  8 18  1  0
 10 19  1  0
 12 20  1  0
A    1
 C1 
A    2
 C2 
A    3
 O1 
A    4
 C3 
A    5
 C4 
A    6
 C5 
A    7
 C6 
A    8
 C7 
A    9
 N1 
A   10
 C8 
A   11
 C9 
A   12
 N2 
A   13
 H1 
A   14
 H2 
A   15
 H3 
A   16
 H4 
A   17
 H5 
A   18
 H6 
A   19
 H7 
A   20
 H8 
M  END
>  <ref_pdb>  (499) 
x0051_0B

>  <ref_mols>  (499) 
x0386_0B,x0800_0B

>  <original SMILES>  (499) 
[H]c1nc([H])c2c(c1[H])c([H])c(C(=O)C([H])([H])[H])n2[H]

>  <index>  (499) 
1080

>  <∆∆G>  (499) 
-5.128856

>  <∆G_bound>  (499) 
-5.051698

>  <∆G_unbound>  (499) 
0.077158

>  <comRMSD>  (499) 
0.793415

>  <N_constrained_atoms>  (499) 
14.0

>  <N_unconstrained_atoms>  (499) 
0.0

>  <runtime>  (499) 
21.091265

>  <LE>  (499) 
0.366347

>  <percent_hybrid>  (499) 
30.0

>  <dist>  (499) 
4.0

>  <ecfp4>  (499) 
0.068966

>  <daylight>  (499) 
0.210811

>  <topodist>  (499) 
2.0

>  <mces>  (499) 
12.0

>  <tdn>  (499) 
1.0

>  <tup>  (499) 
0.0

>  <rdn>  (499) 
0.0

>  <rup>  (499) 
0.0

>  <ldn>  (499) 
0.0

>  <lup>  (499) 
1.0

>  <mut>  (499) 
2.0

>  <maj>  (499) 
2.0

>  <min>  (499) 
0.0

>  <hyb>  (499) 
0.0

>  <sub>  (499) 
1.0

>  <query_index>  (499) 
361.0

>  <max_hit_Tanimoto>  (499) 
0.152838

>  <largest_ring>  (499) 
6

>  <N_interactions_kept>  (499) 
1.5

>  <N_interactions_lost>  (499) 
1.5

>  <interaction_uniqueness_metric>  (499) 
0.059528

>  <ad_hoc_penalty>  (499) 
-16.920862

>  <N_rotatable_bonds>  (499) 
2

>  <N_HA>  (499) 
12

>  <cluster>  (499) 
5224

>  <N_interactions>  (499) 
4

>  <Enamine>  (499) 
0

>  <Mcule>  (499) 
1

>  <N_PAINS>  (499) 
0

>  <UFF_Gibbs>  (499) 
19.309175

>  <strain_per_HA>  (499) 
1.609098

>  <saltbridge:HIS:51>  (499) 
0

>  <pistack:HIS:51>  (499) 
0

>  <hydroph_interaction:HIS:51>  (499) 
0

>  <hbond:ALA:132>  (499) 
0

>  <hbond:SER:135>  (499) 
0

>  <hydroph_interaction:TYR:150>  (499) 
0

>  <pistack:TYR:161>  (499) 
1

>  <hydroph_interaction:TYR:161>  (499) 
2

>  <hydroph_interaction:ASP:83>  (499) 
0

>  <hbond:TYR:130>  (499) 
0

>  <hydroph_interaction:ALA:132>  (499) 
0

>  <hbond:HIS:51>  (499) 
0

>  <hbond:ASP:129>  (499) 
0

>  <hbond:TYR:150>  (499) 
0

>  <hbond:GLY:151>  (499) 
0

>  <hbond:TYR:161>  (499) 
0

>  <hydroph_interaction:TYR:130>  (499) 
0

>  <hydroph_interaction:PRO:131>  (499) 
0

>  <hydroph_interaction:ASP:129>  (499) 
0

>  <saltbridge:ASP:75>  (499) 
0

>  <saltbridge:ASP:83>  (499) 
0

>  <hydroph_interaction:ASN:152>  (499) 
0

>  <halogenbond:TYR:150>  (499) 
0

>  <hbond:ASP:83>  (499) 
0

>  <hydroph_interaction:VAL:155>  (499) 
1

>  <pication:TYR:161>  (499) 
0

>  <hbond:PRO:131>  (499) 
0

>  <hbond:LEU:128>  (499) 
0

>  <saltbridge:ASP:129>  (499) 
0

>  <hbond:THR:134>  (499) 
0

>  <pication:HIS:51>  (499) 
0

>  <hbond:SER:81>  (499) 
0

>  <hbond:GLY:159>  (499) 
0

>  <hydroph_interaction:PRO:101>  (499) 
0

>  <hydroph_interaction:THR:134>  (499) 
0

>  <hbond:GLY:82>  (499) 
0

>  <hydroph_interaction:GLU:104>  (499) 
0

>  <hydroph_interaction:VAL:36>  (499) 
0

>  <hydroph_interaction:MET:49>  (499) 
0

>  <halogenbond:GLU:104>  (499) 
0

>  <hydroph_interaction:LYS:107>  (499) 
0

$$$$
CSSB00000018844
     RDKit          3D

 24 25  0  0  0  0  0  0  0  0999 V2000
   -5.9040    5.9680  -20.8210 C   0  0  0  0  0  0  0  0  0  0  0  0
   -5.8710    6.5820  -19.4240 C   0  0  0  0  0  0  0  0  0  0  0  0
   -6.0520    5.4820  -18.3500 C   0  0  0  0  0  0  0  0  0  0  0  0
   -5.2100    5.8240  -17.2000 N   0  0  0  0  0  0  0  0  0  0  0  0
   -5.9620    6.5640  -16.1890 C   0  0  0  0  0  0  0  0  0  0  0  0
   -6.9820    5.6890  -15.4970 C   0  0  0  0  0  0  0  0  0  0  0  0
   -8.0250    5.3520  -16.5660 C   0  0  0  0  0  0  0  0  0  0  0  0
   -7.5010    5.2610  -17.9690 C   0  0  0  0  0  0  0  0  0  0  0  0
   -8.5930    4.9360  -18.8280 C   0  0  0  0  0  0  0  0  0  0  0  0
   -9.8150    4.8020  -18.1200 C   0  0  0  0  0  0  0  0  0  0  0  0
   -9.6660    5.0680  -16.4240 S   0  0  0  0  0  0  0  0  0  0  0  0
   -4.9670    5.4750  -21.0930 H   0  0  0  0  0  0  0  0  0  0  0  0
   -6.6970    5.2180  -20.9000 H   0  0  0  0  0  0  0  0  0  0  0  0
   -6.0930    6.7690  -21.5440 H   0  0  0  0  0  0  0  0  0  0  0  0
   -4.9250    7.1120  -19.2630 H   0  0  0  0  0  0  0  0  0  0  0  0
   -6.6710    7.3210  -19.2840 H   0  0  0  0  0  0  0  0  0  0  0  0
   -5.6760    4.5430  -18.7550 H   0  0  0  0  0  0  0  0  0  0  0  0
   -4.4570    6.4110  -17.5250 H   0  0  0  0  0  0  0  0  0  0  0  0
   -5.2710    6.9800  -15.4460 H   0  0  0  0  0  0  0  0  0  0  0  0
   -6.4430    7.3940  -16.7070 H   0  0  0  0  0  0  0  0  0  0  0  0
   -6.5280    4.7840  -15.0800 H   0  0  0  0  0  0  0  0  0  0  0  0
   -7.4650    6.2280  -14.6720 H   0  0  0  0  0  0  0  0  0  0  0  0
   -8.5210    4.8030  -19.9010 H   0  0  0  0  0  0  0  0  0  0  0  0
  -10.7840    4.5640  -18.5350 H   0  0  0  0  0  0  0  0  0  0  0  0
  1  2  1  0
  2  3  1  0
  3  4  1  0
  4  5  1  0
  5  6  1  0
  6  7  1  0
  7  8  2  0
  8  9  1  0
  9 10  2  0
 10 11  1  0
  8  3  1  0
 11  7  1  0
  1 12  1  0
  1 13  1  0
  1 14  1  0
  2 15  1  0
  2 16  1  0
  3 17  1  0
  4 18  1  0
  5 19  1  0
  5 20  1  0
  6 21  1  0
  6 22  1  0
  9 23  1  0
 10 24  1  0
A    1
 C1 
A    2
 C2 
A    3
 C3 
A    4
 N1 
A    5
 C4 
A    6
 C5 
A    7
 C6 
A    8
 C7 
A    9
 C8 
A   10
 C9 
A   11
 S1 
A   12
 H1 
A   13
 H2 
A   14
 H3 
A   15
 H4 
A   16
 H5 
A   17
 H6 
A   18
 H7 
A   19
 H8 
A   20
 H9 
A   21
 H10
A   22
 H11
A   23
 H12
A   24
 H13
M  END
>  <ref_pdb>  (500) 
x0051_0B

>  <ref_mols>  (500) 
x0472_0B,x0227_0B

>  <original SMILES>  (500) 
[H]c1sc2c(c1[H])C([H])(C([H])([H])C([H])([H])[H])N([H])C([H])([H])C2([H])[H]

>  <index>  (500) 
886

>  <∆∆G>  (500) 
-5.59587

>  <∆G_bound>  (500) 
-5.77817

>  <∆G_unbound>  (500) 
-0.1823

>  <comRMSD>  (500) 
0.715879

>  <N_constrained_atoms>  (500) 
16.0

>  <N_unconstrained_atoms>  (500) 
0.0

>  <runtime>  (500) 
20.813606

>  <LE>  (500) 
0.349742

>  <percent_hybrid>  (500) 
38.0

>  <dist>  (500) 
5.0

>  <ecfp4>  (500) 
0.333333

>  <daylight>  (500) 
0.75969

>  <topodist>  (500) 
4.0

>  <mces>  (500) 
12.0

>  <tdn>  (500) 
4.0

>  <tup>  (500) 
0.0

>  <rdn>  (500) 
0.0

>  <rup>  (500) 
0.0

>  <ldn>  (500) 
0.0

>  <lup>  (500) 
0.0

>  <mut>  (500) 
1.0

>  <maj>  (500) 
1.0

>  <min>  (500) 
0.0

>  <hyb>  (500) 
0.0

>  <sub>  (500) 
1.0

>  <query_index>  (500) 
78.0

>  <max_hit_Tanimoto>  (500) 
0.540382

>  <largest_ring>  (500) 
6

>  <N_interactions_kept>  (500) 
4.5

>  <N_interactions_lost>  (500) 
0.5

>  <interaction_uniqueness_metric>  (500) 
0.013281

>  <ad_hoc_penalty>  (500) 
-16.913146

>  <N_rotatable_bonds>  (500) 
2

>  <N_HA>  (500) 
11

>  <cluster>  (500) 
5408

>  <N_interactions>  (500) 
2

>  <Enamine>  (500) 
1

>  <Mcule>  (500) 
0

>  <N_PAINS>  (500) 
0

>  <UFF_Gibbs>  (500) 
31.685096

>  <strain_per_HA>  (500) 
2.880463

>  <saltbridge:HIS:51>  (500) 
0

>  <pistack:HIS:51>  (500) 
0

>  <hydroph_interaction:HIS:51>  (500) 
0

>  <hbond:ALA:132>  (500) 
0

>  <hbond:SER:135>  (500) 
0

>  <hydroph_interaction:TYR:150>  (500) 
0

>  <pistack:TYR:161>  (500) 
0

>  <hydroph_interaction:TYR:161>  (500) 
2

>  <hydroph_interaction:ASP:83>  (500) 
0

>  <hbond:TYR:130>  (500) 
0

>  <hydroph_interaction:ALA:132>  (500) 
0

>  <hbond:HIS:51>  (500) 
0

>  <hbond:ASP:129>  (500) 
0

>  <hbond:TYR:150>  (500) 
0

>  <hbond:GLY:151>  (500) 
0

>  <hbond:TYR:161>  (500) 
0

>  <hydroph_interaction:TYR:130>  (500) 
0

>  <hydroph_interaction:PRO:131>  (500) 
0

>  <hydroph_interaction:ASP:129>  (500) 
0

>  <saltbridge:ASP:75>  (500) 
0

>  <saltbridge:ASP:83>  (500) 
0

>  <hydroph_interaction:ASN:152>  (500) 
0

>  <halogenbond:TYR:150>  (500) 
0

>  <hbond:ASP:83>  (500) 
0

>  <hydroph_interaction:VAL:155>  (500) 
0

>  <pication:TYR:161>  (500) 
0

>  <hbond:PRO:131>  (500) 
0

>  <hbond:LEU:128>  (500) 
0

>  <saltbridge:ASP:129>  (500) 
0

>  <hbond:THR:134>  (500) 
0

>  <pication:HIS:51>  (500) 
0

>  <hbond:SER:81>  (500) 
0

>  <hbond:GLY:159>  (500) 
0

>  <hydroph_interaction:PRO:101>  (500) 
0

>  <hydroph_interaction:THR:134>  (500) 
0

>  <hbond:GLY:82>  (500) 
0

>  <hydroph_interaction:GLU:104>  (500) 
0

>  <hydroph_interaction:VAL:36>  (500) 
0

>  <hydroph_interaction:MET:49>  (500) 
0

>  <halogenbond:GLU:104>  (500) 
0

>  <hydroph_interaction:LYS:107>  (500) 
0

$$$$
